MODEL 1
REMARK VINA RESULT: -7.113700965      0.000      0.000
REMARK  9 active torsions:
REMARK  status: ('A' for Active; 'I' for Inactive)
REMARK    1  A    between atoms: C3_3  and  C4_4 
REMARK    2  A    between atoms: C4_4  and  C5_5 
REMARK    3  A    between atoms: C5_5  and  C6_6 
REMARK    4  A    between atoms: C6_6  and  C7_7 
REMARK    5  A    between atoms: C10_13  and  N3_14 
REMARK    6  A    between atoms: N4_17  and  C13_18 
REMARK    7  A    between atoms: C13_18  and  C14_19 
REMARK    8  A    between atoms: C14_19  and  O1_20 
REMARK    9  A    between atoms: C17_26  and  N6_27 
ROOT
HETATM    1  C1  UNL     1       0.171  11.746  -5.016  1.00  0.00     0.012 C 
HETATM    2  C2  UNL     1      -0.566  12.691  -5.068  1.00  0.00    -0.117 C 
HETATM    3  C3  UNL     1      -1.474  13.821  -5.111  1.00  0.00     0.093 C 
ENDROOT
BRANCH   3   4
HETATM    4  C4  UNL     1      -0.708  15.162  -4.981  1.00  0.00     0.012 C 
BRANCH   4   5
HETATM    5  C5  UNL     1      -1.589  16.301  -5.364  1.00  0.00     0.007 C 
BRANCH   5   6
HETATM    6  C6  UNL     1      -0.888  17.490  -5.993  1.00  0.00     0.061 C 
BRANCH   6   7
HETATM    7  C7  UNL     1      -1.936  18.529  -6.282  1.00  0.00     0.054 A 
HETATM    8  N1  UNL     1      -3.000  18.138  -7.042  1.00  0.00    -0.345 N 
HETATM    9  C8  UNL     1      -3.919  19.007  -7.486  1.00  0.00     0.158 A 
ATOM     10  H1  UNL     1      -3.099  17.150  -7.279  1.00  0.00     0.166 HD
HETATM   11  C9  UNL     1      -5.037  18.575  -8.291  1.00  0.00     0.121 C 
HETATM   12  C10 UNL     1      -3.751  20.329  -7.147  1.00  0.00     0.143 A 
HETATM   13  N2  UNL     1      -5.918  18.216  -8.953  1.00  0.00    -0.190 NA
HETATM   14  N5  UNL     1      -2.705  20.706  -6.396  1.00  0.00    -0.325 N 
HETATM   15  C17 UNL     1      -1.760  19.837  -5.930  1.00  0.00     0.123 A 
ATOM     16  H5  UNL     1      -2.610  21.694  -6.162  1.00  0.00     0.169 HD
BRANCH  12  17
HETATM   17  N3  UNL     1      -4.678  21.309  -7.602  1.00  0.00    -0.355 N 
HETATM   18  C11 UNL     1      -5.948  21.342  -6.933  1.00  0.00     0.169 C 
HETATM   19  C12 UNL     1      -6.750  22.574  -7.247  1.00  0.00     0.083 C 
HETATM   20  N4  UNL     1      -6.661  23.013  -8.582  1.00  0.00    -0.369 N 
HETATM   21  C15 UNL     1      -5.638  22.526  -9.410  1.00  0.00     0.083 C 
HETATM   22  C16 UNL     1      -4.353  22.209  -8.668  1.00  0.00     0.169 C 
BRANCH  20  23
HETATM   23  C13 UNL     1      -7.876  23.220  -9.299  1.00  0.00     0.153 C 
BRANCH  23  24
HETATM   24  C14 UNL     1      -8.328  21.880  -9.899  1.00  0.00     0.184 C 
BRANCH  24  25
HETATM   25  O1  UNL     1      -9.082  22.156 -11.033  1.00  0.00    -0.399 OA
ATOM     26  H1  UNL     1      -9.110  21.367 -11.562  1.00  0.00     0.209 HD
ENDBRANCH  24  25
ENDBRANCH  23  24
ENDBRANCH  20  23
ENDBRANCH  12  17
BRANCH  15  27
HETATM   27  N6  UNL     1      -0.815  20.262  -5.159  1.00  0.00    -0.384 N 
ATOM     28  H62 UNL     1      -0.081  19.623  -4.852  1.00  0.00     0.157 HD
ATOM     29  H61 UNL     1      -0.712  21.231  -4.858  1.00  0.00     0.157 HD
ENDBRANCH  15  27
ENDBRANCH   6   7
ENDBRANCH   5   6
ENDBRANCH   4   5
ENDBRANCH   3   4
TORSDOF 9
ENDMDL
MODEL 2
REMARK VINA RESULT: -6.594329647      2.573      4.711
REMARK  9 active torsions:
REMARK  status: ('A' for Active; 'I' for Inactive)
REMARK    1  A    between atoms: C3_3  and  C4_4 
REMARK    2  A    between atoms: C4_4  and  C5_5 
REMARK    3  A    between atoms: C5_5  and  C6_6 
REMARK    4  A    between atoms: C6_6  and  C7_7 
REMARK    5  A    between atoms: C10_13  and  N3_14 
REMARK    6  A    between atoms: N4_17  and  C13_18 
REMARK    7  A    between atoms: C13_18  and  C14_19 
REMARK    8  A    between atoms: C14_19  and  O1_20 
REMARK    9  A    between atoms: C17_26  and  N6_27 
ROOT
HETATM    1  C1  UNL     1      -1.342  13.288  -5.475  1.00  0.00     0.012 C 
HETATM    2  C2  UNL     1      -0.727  12.616  -4.694  1.00  0.00    -0.117 C 
HETATM    3  C3  UNL     1       0.028  11.790  -3.772  1.00  0.00     0.093 C 
ENDROOT
BRANCH   3   4
HETATM    4  C4  UNL     1       0.654  12.643  -2.638  1.00  0.00     0.012 C 
BRANCH   4   5
HETATM    5  C5  UNL     1       1.537  13.698  -3.212  1.00  0.00     0.007 C 
BRANCH   5   6
HETATM    6  C6  UNL     1       1.388  15.080  -2.603  1.00  0.00     0.061 C 
BRANCH   6   7
HETATM    7  C7  UNL     1       0.494  15.877  -3.512  1.00  0.00     0.054 A 
HETATM    8  N1  UNL     1       1.075  16.443  -4.609  1.00  0.00    -0.345 N 
HETATM    9  C8  UNL     1       0.416  17.293  -5.410  1.00  0.00     0.158 A 
ATOM     10  H1  UNL     1       2.045  16.210  -4.828  1.00  0.00     0.166 HD
HETATM   11  C9  UNL     1       1.048  17.884  -6.565  1.00  0.00     0.121 C 
HETATM   12  C10 UNL     1      -0.888  17.583  -5.083  1.00  0.00     0.143 A 
HETATM   13  N2  UNL     1       1.575  18.366  -7.478  1.00  0.00    -0.190 NA
HETATM   14  N5  UNL     1      -1.455  17.020  -4.004  1.00  0.00    -0.325 N 
HETATM   15  C17 UNL     1      -0.803  16.149  -3.178  1.00  0.00     0.123 A 
ATOM     16  H5  UNL     1      -2.424  17.255  -3.790  1.00  0.00     0.169 HD
BRANCH  12  17
HETATM   17  N3  UNL     1      -1.641  18.493  -5.876  1.00  0.00    -0.355 N 
HETATM   18  C11 UNL     1      -1.788  19.822  -5.353  1.00  0.00     0.169 C 
HETATM   19  C12 UNL     1      -2.323  20.799  -6.362  1.00  0.00     0.083 C 
HETATM   20  N4  UNL     1      -3.311  20.281  -7.221  1.00  0.00    -0.369 N 
HETATM   21  C15 UNL     1      -3.493  18.894  -7.319  1.00  0.00     0.083 C 
HETATM   22  C16 UNL     1      -2.216  18.097  -7.128  1.00  0.00     0.169 C 
BRANCH  20  23
HETATM   23  C13 UNL     1      -4.544  20.990  -7.323  1.00  0.00     0.153 C 
BRANCH  23  24
HETATM   24  C14 UNL     1      -5.686  19.973  -7.470  1.00  0.00     0.184 C 
BRANCH  24  25
HETATM   25  O1  UNL     1      -6.709  20.357  -6.612  1.00  0.00    -0.399 OA
ATOM     26  H1  UNL     1      -7.277  20.953  -7.085  1.00  0.00     0.209 HD
ENDBRANCH  24  25
ENDBRANCH  23  24
ENDBRANCH  20  23
ENDBRANCH  12  17
BRANCH  15  27
HETATM   27  N6  UNL     1      -1.431  15.596  -2.195  1.00  0.00    -0.384 N 
ATOM     28  H62 UNL     1      -1.728  16.159  -1.397  1.00  0.00     0.157 HD
ATOM     29  H61 UNL     1      -1.707  14.615  -2.169  1.00  0.00     0.157 HD
ENDBRANCH  15  27
ENDBRANCH   6   7
ENDBRANCH   5   6
ENDBRANCH   4   5
ENDBRANCH   3   4
TORSDOF 9
ENDMDL
MODEL 3
REMARK VINA RESULT: -6.340817858      1.025      1.133
REMARK  9 active torsions:
REMARK  status: ('A' for Active; 'I' for Inactive)
REMARK    1  A    between atoms: C3_3  and  C4_4 
REMARK    2  A    between atoms: C4_4  and  C5_5 
REMARK    3  A    between atoms: C5_5  and  C6_6 
REMARK    4  A    between atoms: C6_6  and  C7_7 
REMARK    5  A    between atoms: C10_13  and  N3_14 
REMARK    6  A    between atoms: N4_17  and  C13_18 
REMARK    7  A    between atoms: C13_18  and  C14_19 
REMARK    8  A    between atoms: C14_19  and  O1_20 
REMARK    9  A    between atoms: C17_26  and  N6_27 
ROOT
HETATM    1  C1  UNL     1      -0.580  13.868  -2.216  1.00  0.00     0.012 C 
HETATM    2  C2  UNL     1      -0.521  14.279  -3.341  1.00  0.00    -0.117 C 
HETATM    3  C3  UNL     1      -0.444  14.749  -4.711  1.00  0.00     0.093 C 
ENDROOT
BRANCH   3   4
HETATM    4  C4  UNL     1      -1.675  15.617  -5.076  1.00  0.00     0.012 C 
BRANCH   4   5
HETATM    5  C5  UNL     1      -1.332  17.065  -4.985  1.00  0.00     0.007 C 
BRANCH   5   6
HETATM    6  C6  UNL     1      -1.054  17.758  -6.306  1.00  0.00     0.061 C 
BRANCH   6   7
HETATM    7  C7  UNL     1      -2.160  18.750  -6.535  1.00  0.00     0.054 A 
HETATM    8  N1  UNL     1      -3.233  18.321  -7.260  1.00  0.00    -0.345 N 
HETATM    9  C8  UNL     1      -4.210  19.152  -7.653  1.00  0.00     0.158 A 
ATOM     10  H1  UNL     1      -3.295  17.334  -7.512  1.00  0.00     0.166 HD
HETATM   11  C9  UNL     1      -5.336  18.681  -8.422  1.00  0.00     0.121 C 
HETATM   12  C10 UNL     1      -4.091  20.475  -7.296  1.00  0.00     0.143 A 
HETATM   13  N2  UNL     1      -6.225  18.292  -9.057  1.00  0.00    -0.190 NA
HETATM   14  N5  UNL     1      -3.035  20.889  -6.579  1.00  0.00    -0.325 N 
HETATM   15  C17 UNL     1      -2.032  20.059  -6.166  1.00  0.00     0.123 A 
ATOM     16  H5  UNL     1      -2.978  21.877  -6.330  1.00  0.00     0.169 HD
BRANCH  12  17
HETATM   17  N3  UNL     1      -5.080  21.417  -7.697  1.00  0.00    -0.355 N 
HETATM   18  C11 UNL     1      -6.287  21.440  -6.921  1.00  0.00     0.169 C 
HETATM   19  C12 UNL     1      -7.147  22.641  -7.200  1.00  0.00     0.083 C 
HETATM   20  N4  UNL     1      -7.186  23.040  -8.549  1.00  0.00    -0.369 N 
HETATM   21  C15 UNL     1      -6.227  22.552  -9.450  1.00  0.00     0.083 C 
HETATM   22  C16 UNL     1      -4.874  22.290  -8.814  1.00  0.00     0.169 C 
BRANCH  20  23
HETATM   23  C13 UNL     1      -8.464  23.194  -9.163  1.00  0.00     0.153 C 
BRANCH  23  24
HETATM   24  C14 UNL     1      -8.795  21.910  -9.939  1.00  0.00     0.184 C 
BRANCH  24  25
HETATM   25  O1  UNL     1      -9.672  21.160  -9.164  1.00  0.00    -0.399 OA
ATOM     26  H1  UNL     1     -10.393  20.891  -9.720  1.00  0.00     0.209 HD
ENDBRANCH  24  25
ENDBRANCH  23  24
ENDBRANCH  20  23
ENDBRANCH  12  17
BRANCH  15  27
HETATM   27  N6  UNL     1      -1.079  20.515  -5.424  1.00  0.00    -0.384 N 
ATOM     28  H62 UNL     1      -0.177  20.039  -5.402  1.00  0.00     0.157 HD
ATOM     29  H61 UNL     1      -1.140  21.371  -4.874  1.00  0.00     0.157 HD
ENDBRANCH  15  27
ENDBRANCH   6   7
ENDBRANCH   5   6
ENDBRANCH   4   5
ENDBRANCH   3   4
TORSDOF 9
ENDMDL
MODEL 4
REMARK VINA RESULT: -6.311321444      3.411      8.269
REMARK  9 active torsions:
REMARK  status: ('A' for Active; 'I' for Inactive)
REMARK    1  A    between atoms: C3_3  and  C4_4 
REMARK    2  A    between atoms: C4_4  and  C5_5 
REMARK    3  A    between atoms: C5_5  and  C6_6 
REMARK    4  A    between atoms: C6_6  and  C7_7 
REMARK    5  A    between atoms: C10_13  and  N3_14 
REMARK    6  A    between atoms: N4_17  and  C13_18 
REMARK    7  A    between atoms: C13_18  and  C14_19 
REMARK    8  A    between atoms: C14_19  and  O1_20 
REMARK    9  A    between atoms: C17_26  and  N6_27 
ROOT
HETATM    1  C1  UNL     1      -7.703  22.838  -6.366  1.00  0.00     0.012 C 
HETATM    2  C2  UNL     1      -7.885  23.210  -7.492  1.00  0.00    -0.117 C 
HETATM    3  C3  UNL     1      -8.085  23.678  -8.850  1.00  0.00     0.093 C 
ENDROOT
BRANCH   3   4
HETATM    4  C4  UNL     1      -8.236  22.492  -9.836  1.00  0.00     0.012 C 
BRANCH   4   5
HETATM    5  C5  UNL     1      -6.947  21.754  -9.959  1.00  0.00     0.007 C 
BRANCH   5   6
HETATM    6  C6  UNL     1      -6.979  20.301  -9.522  1.00  0.00     0.061 C 
BRANCH   6   7
HETATM    7  C7  UNL     1      -5.776  20.068  -8.650  1.00  0.00     0.054 A 
HETATM    8  N1  UNL     1      -5.090  21.172  -8.237  1.00  0.00    -0.345 N 
HETATM    9  C8  UNL     1      -3.923  21.085  -7.581  1.00  0.00     0.158 A 
ATOM     10  H1  UNL     1      -5.478  22.095  -8.433  1.00  0.00     0.166 HD
HETATM   11  C9  UNL     1      -3.209  22.265  -7.154  1.00  0.00     0.121 C 
HETATM   12  C10 UNL     1      -3.431  19.825  -7.336  1.00  0.00     0.143 A 
HETATM   13  N2  UNL     1      -2.637  23.221  -6.834  1.00  0.00    -0.190 NA
HETATM   14  N5  UNL     1      -4.114  18.742  -7.742  1.00  0.00    -0.325 N 
HETATM   15  C17 UNL     1      -5.305  18.809  -8.407  1.00  0.00     0.123 A 
ATOM     16  H5  UNL     1      -3.722  17.822  -7.544  1.00  0.00     0.169 HD
BRANCH  12  17
HETATM   17  N3  UNL     1      -2.188  19.658  -6.663  1.00  0.00    -0.355 N 
HETATM   18  C11 UNL     1      -1.091  19.189  -7.462  1.00  0.00     0.169 C 
HETATM   19  C12 UNL     1       0.240  19.324  -6.776  1.00  0.00     0.083 C 
HETATM   20  N4  UNL     1       0.224  19.051  -5.396  1.00  0.00    -0.369 N 
HETATM   21  C15 UNL     1      -0.997  19.005  -4.707  1.00  0.00     0.083 C 
HETATM   22  C16 UNL     1      -2.047  19.947  -5.267  1.00  0.00     0.169 C 
BRANCH  20  23
HETATM   23  C13 UNL     1       1.156  18.096  -4.894  1.00  0.00     0.153 C 
BRANCH  23  24
HETATM   24  C14 UNL     1       0.765  16.705  -5.417  1.00  0.00     0.184 C 
BRANCH  24  25
HETATM   25  O1  UNL     1       1.839  16.208  -6.146  1.00  0.00    -0.399 OA
ATOM     26  H1  UNL     1       1.516  15.955  -7.002  1.00  0.00     0.209 HD
ENDBRANCH  24  25
ENDBRANCH  23  24
ENDBRANCH  20  23
ENDBRANCH  12  17
BRANCH  15  27
HETATM   27  N6  UNL     1      -5.937  17.725  -8.711  1.00  0.00    -0.384 N 
ATOM     28  H62 UNL     1      -5.478  17.005  -9.269  1.00  0.00     0.157 HD
ATOM     29  H61 UNL     1      -6.878  17.500  -8.388  1.00  0.00     0.157 HD
ENDBRANCH  15  27
ENDBRANCH   6   7
ENDBRANCH   5   6
ENDBRANCH   4   5
ENDBRANCH   3   4
TORSDOF 9
ENDMDL
MODEL 5
REMARK VINA RESULT: -6.168965483      2.210      4.203
REMARK  9 active torsions:
REMARK  status: ('A' for Active; 'I' for Inactive)
REMARK    1  A    between atoms: C3_3  and  C4_4 
REMARK    2  A    between atoms: C4_4  and  C5_5 
REMARK    3  A    between atoms: C5_5  and  C6_6 
REMARK    4  A    between atoms: C6_6  and  C7_7 
REMARK    5  A    between atoms: C10_13  and  N3_14 
REMARK    6  A    between atoms: N4_17  and  C13_18 
REMARK    7  A    between atoms: C13_18  and  C14_19 
REMARK    8  A    between atoms: C14_19  and  O1_20 
REMARK    9  A    between atoms: C17_26  and  N6_27 
ROOT
HETATM    1  C1  UNL     1      -0.169  11.336  -4.607  1.00  0.00     0.012 C 
HETATM    2  C2  UNL     1       0.082  11.946  -3.605  1.00  0.00    -0.117 C 
HETATM    3  C3  UNL     1       0.386  12.658  -2.379  1.00  0.00     0.093 C 
ENDROOT
BRANCH   3   4
HETATM    4  C4  UNL     1       1.586  13.619  -2.570  1.00  0.00     0.012 C 
BRANCH   4   5
HETATM    5  C5  UNL     1       1.138  14.886  -3.215  1.00  0.00     0.007 C 
BRANCH   5   6
HETATM    6  C6  UNL     1       1.205  14.910  -4.730  1.00  0.00     0.061 C 
BRANCH   6   7
HETATM    7  C7  UNL     1       0.258  15.977  -5.206  1.00  0.00     0.054 A 
HETATM    8  N1  UNL     1       0.815  17.131  -5.677  1.00  0.00    -0.345 N 
HETATM    9  C8  UNL     1       0.076  18.205  -5.990  1.00  0.00     0.158 A 
ATOM     10  H1  UNL     1       1.828  17.177  -5.795  1.00  0.00     0.166 HD
HETATM   11  C9  UNL     1       0.682  19.418  -6.485  1.00  0.00     0.121 C 
HETATM   12  C10 UNL     1      -1.285  18.106  -5.817  1.00  0.00     0.143 A 
HETATM   13  N2  UNL     1       1.185  20.392  -6.862  1.00  0.00    -0.190 NA
HETATM   14  N5  UNL     1      -1.826  16.966  -5.357  1.00  0.00    -0.325 N 
HETATM   15  C17 UNL     1      -1.092  15.860  -5.036  1.00  0.00     0.123 A 
ATOM     16  H5  UNL     1      -2.838  16.925  -5.240  1.00  0.00     0.169 HD
BRANCH  12  17
HETATM   17  N3  UNL     1      -2.128  19.214  -6.110  1.00  0.00    -0.355 N 
HETATM   18  C11 UNL     1      -2.981  19.078  -7.256  1.00  0.00     0.169 C 
HETATM   19  C12 UNL     1      -4.045  20.138  -7.330  1.00  0.00     0.083 C 
HETATM   20  N4  UNL     1      -3.631  21.421  -6.926  1.00  0.00    -0.369 N 
HETATM   21  C15 UNL     1      -2.438  21.574  -6.202  1.00  0.00     0.083 C 
HETATM   22  C16 UNL     1      -2.119  20.396  -5.300  1.00  0.00     0.169 C 
BRANCH  20  23
HETATM   23  C13 UNL     1      -3.854  22.507  -7.823  1.00  0.00     0.153 C 
BRANCH  23  24
HETATM   24  C14 UNL     1      -5.070  22.178  -8.702  1.00  0.00     0.184 C 
BRANCH  24  25
HETATM   25  O1  UNL     1      -4.901  22.828  -9.919  1.00  0.00    -0.399 OA
ATOM     26  H1  UNL     1      -5.323  22.303 -10.589  1.00  0.00     0.209 HD
ENDBRANCH  24  25
ENDBRANCH  23  24
ENDBRANCH  20  23
ENDBRANCH  12  17
BRANCH  15  27
HETATM   27  N6  UNL     1      -1.686  14.777  -4.659  1.00  0.00    -0.384 N 
ATOM     28  H62 UNL     1      -1.178  13.892  -4.652  1.00  0.00     0.157 HD
ATOM     29  H61 UNL     1      -2.644  14.739  -4.311  1.00  0.00     0.157 HD
ENDBRANCH  15  27
ENDBRANCH   6   7
ENDBRANCH   5   6
ENDBRANCH   4   5
ENDBRANCH   3   4
TORSDOF 9
ENDMDL
