MODEL 1
REMARK VINA RESULT: -5.891767651      0.000      0.000
REMARK  10 active torsions:
REMARK  status: ('A' for Active; 'I' for Inactive)
REMARK    1  A    between atoms: C2_2  and  C3_3 
REMARK    2  A    between atoms: C3_3  and  S1_4 
REMARK    3  A    between atoms: S1_4  and  C4_5 
REMARK    4  A    between atoms: C4_5  and  C5_6 
REMARK    5  A    between atoms: C5_6  and  O1_7 
REMARK    6  A    between atoms: C6_10  and  S2_11 
REMARK    7  A    between atoms: S2_11  and  C7_13 
REMARK    8  A    between atoms: C7_13  and  C8_14 
REMARK    9  A    between atoms: C10_16  and  O4_17 
REMARK   10  A    between atoms: C11_19  and  O5_20 
ROOT
HETATM    1  C5  UNL     1      -0.398  16.021  -4.853  1.00  0.00     0.190 C 
HETATM    2  O2  UNL     1      -0.666  16.980  -5.835  1.00  0.00    -0.332 OA
HETATM    3  C6  UNL     1      -1.279  18.107  -5.383  1.00  0.00     0.249 C 
HETATM    4  C10 UNL     1      -0.815  18.699  -4.119  1.00  0.00     0.189 C 
HETATM    5  C11 UNL     1      -0.576  17.703  -3.009  1.00  0.00     0.173 C 
HETATM    6  C12 UNL     1       0.270  16.603  -3.666  1.00  0.00     0.187 C 
HETATM    7  C13 UNL     1       0.788  15.642  -2.746  1.00  0.00     0.072 C 
HETATM    8  N1  UNL     1       1.231  14.877  -1.984  1.00  0.00    -0.197 NA
ENDROOT
BRANCH   1   9
HETATM    9  C4  UNL     1      -1.659  15.234  -4.608  1.00  0.00     0.143 C 
BRANCH   9  10
HETATM   10  S1  UNL     1      -1.458  13.533  -5.099  1.00  0.00    -0.164 SA
BRANCH  10  11
HETATM   11  C3  UNL     1      -1.251  12.398  -3.737  1.00  0.00     0.073 C 
BRANCH  11  12
HETATM   12  C2  UNL     1       0.125  11.753  -3.718  1.00  0.00     0.006 C 
HETATM   13  C1  UNL     1       0.528  11.336  -5.117  1.00  0.00     0.006 C 
ENDBRANCH  11  12
ENDBRANCH  10  11
ENDBRANCH   9  10
ENDBRANCH   1   9
BRANCH   1  14
HETATM   14  O1  UNL     1       0.509  15.150  -5.464  1.00  0.00    -0.363 OA
ATOM     15  H1  UNL     1       0.972  15.654  -6.122  1.00  0.00     0.213 HD
ENDBRANCH   1  14
BRANCH   5  16
HETATM   16  O5  UNL     1      -1.703  17.243  -2.393  1.00  0.00    -0.391 OA
ATOM     17  H5  UNL     1      -1.847  16.306  -2.466  1.00  0.00     0.210 HD
ENDBRANCH   5  16
BRANCH   4  18
HETATM   18  O4  UNL     1      -1.781  19.614  -3.665  1.00  0.00    -0.389 OA
ATOM     19  H4  UNL     1      -1.754  19.643  -2.717  1.00  0.00     0.210 HD
ENDBRANCH   4  18
BRANCH   3  20
HETATM   20  S2  UNL     1      -1.145  19.344  -6.658  1.00  0.00     0.047 S 
HETATM   21  O3  UNL     1      -0.073  18.814  -7.857  1.00  0.00    -0.255 OA
BRANCH  20  22
HETATM   22  C7  UNL     1      -2.679  19.742  -7.399  1.00  0.00     0.111 C 
BRANCH  22  23
HETATM   23  C8  UNL     1      -3.605  18.579  -7.572  1.00  0.00     0.008 C 
HETATM   24  C9  UNL     1      -4.977  19.067  -8.057  1.00  0.00     0.006 C 
ENDBRANCH  22  23
ENDBRANCH  20  22
ENDBRANCH   3  20
TORSDOF 10
ENDMDL
MODEL 2
REMARK VINA RESULT: -5.800104348      2.358      6.361
REMARK  10 active torsions:
REMARK  status: ('A' for Active; 'I' for Inactive)
REMARK    1  A    between atoms: C2_2  and  C3_3 
REMARK    2  A    between atoms: C3_3  and  S1_4 
REMARK    3  A    between atoms: S1_4  and  C4_5 
REMARK    4  A    between atoms: C4_5  and  C5_6 
REMARK    5  A    between atoms: C5_6  and  O1_7 
REMARK    6  A    between atoms: C6_10  and  S2_11 
REMARK    7  A    between atoms: S2_11  and  C7_13 
REMARK    8  A    between atoms: C7_13  and  C8_14 
REMARK    9  A    between atoms: C10_16  and  O4_17 
REMARK   10  A    between atoms: C11_19  and  O5_20 
ROOT
HETATM    1  C5  UNL     1      -1.165  18.642  -5.660  1.00  0.00     0.190 C 
HETATM    2  O2  UNL     1      -1.327  17.372  -5.094  1.00  0.00    -0.332 OA
HETATM    3  C6  UNL     1      -0.367  16.469  -5.428  1.00  0.00     0.249 C 
HETATM    4  C10 UNL     1       1.036  16.911  -5.447  1.00  0.00     0.189 C 
HETATM    5  C11 UNL     1       1.265  18.250  -6.109  1.00  0.00     0.173 C 
HETATM    6  C12 UNL     1       0.208  19.167  -5.478  1.00  0.00     0.187 C 
HETATM    7  C13 UNL     1       0.364  20.547  -5.812  1.00  0.00     0.072 C 
HETATM    8  N1  UNL     1       0.515  21.675  -6.066  1.00  0.00    -0.197 NA
ENDROOT
BRANCH   1   9
HETATM    9  C4  UNL     1      -1.698  18.600  -7.068  1.00  0.00     0.143 C 
BRANCH   9  10
HETATM   10  S1  UNL     1      -3.280  19.413  -7.179  1.00  0.00    -0.164 SA
BRANCH  10  11
HETATM   11  C3  UNL     1      -4.520  18.483  -8.063  1.00  0.00     0.073 C 
BRANCH  11  12
HETATM   12  C2  UNL     1      -5.852  19.211  -8.139  1.00  0.00     0.006 C 
HETATM   13  C1  UNL     1      -6.528  18.932  -9.465  1.00  0.00     0.006 C 
ENDBRANCH  11  12
ENDBRANCH  10  11
ENDBRANCH   9  10
ENDBRANCH   1   9
BRANCH   1  14
HETATM   14  O1  UNL     1      -2.030  19.457  -4.925  1.00  0.00    -0.363 OA
ATOM     15  H1  UNL     1      -1.560  19.722  -4.143  1.00  0.00     0.213 HD
ENDBRANCH   1  14
BRANCH   5  16
HETATM   16  O5  UNL     1       1.242  18.231  -7.473  1.00  0.00    -0.391 OA
ATOM     17  H5  UNL     1       1.417  19.067  -7.890  1.00  0.00     0.210 HD
ENDBRANCH   5  16
BRANCH   4  18
HETATM   18  O4  UNL     1       1.803  15.960  -6.141  1.00  0.00    -0.389 OA
ATOM     19  H4  UNL     1       2.440  16.413  -6.680  1.00  0.00     0.210 HD
ENDBRANCH   4  18
BRANCH   3  20
HETATM   20  S2  UNL     1      -0.502  15.095  -4.304  1.00  0.00     0.047 S 
HETATM   21  O3  UNL     1      -1.409  15.553  -2.950  1.00  0.00    -0.255 OA
BRANCH  20  22
HETATM   22  C7  UNL     1      -1.230  13.679  -5.028  1.00  0.00     0.111 C 
BRANCH  22  23
HETATM   23  C8  UNL     1      -0.944  12.398  -4.309  1.00  0.00     0.008 C 
HETATM   24  C9  UNL     1       0.184  11.637  -5.020  1.00  0.00     0.006 C 
ENDBRANCH  22  23
ENDBRANCH  20  22
ENDBRANCH   3  20
TORSDOF 10
ENDMDL
MODEL 3
REMARK VINA RESULT: -5.737865860      5.963      8.557
REMARK  10 active torsions:
REMARK  status: ('A' for Active; 'I' for Inactive)
REMARK    1  A    between atoms: C2_2  and  C3_3 
REMARK    2  A    between atoms: C3_3  and  S1_4 
REMARK    3  A    between atoms: S1_4  and  C4_5 
REMARK    4  A    between atoms: C4_5  and  C5_6 
REMARK    5  A    between atoms: C5_6  and  O1_7 
REMARK    6  A    between atoms: C6_10  and  S2_11 
REMARK    7  A    between atoms: S2_11  and  C7_13 
REMARK    8  A    between atoms: C7_13  and  C8_14 
REMARK    9  A    between atoms: C10_16  and  O4_17 
REMARK   10  A    between atoms: C11_19  and  O5_20 
ROOT
HETATM    1  C5  UNL     1      -6.077  20.916  -7.753  1.00  0.00     0.190 C 
HETATM    2  O2  UNL     1      -6.324  21.936  -6.828  1.00  0.00    -0.332 OA
HETATM    3  C6  UNL     1      -5.989  23.185  -7.250  1.00  0.00     0.249 C 
HETATM    4  C10 UNL     1      -6.322  23.572  -8.630  1.00  0.00     0.189 C 
HETATM    5  C11 UNL     1      -6.010  22.522  -9.670  1.00  0.00     0.173 C 
HETATM    6  C12 UNL     1      -6.614  21.233  -9.096  1.00  0.00     0.187 C 
HETATM    7  C13 UNL     1      -6.613  20.135 -10.010  1.00  0.00     0.072 C 
HETATM    8  N1  UNL     1      -6.634  19.252 -10.772  1.00  0.00    -0.197 NA
ENDROOT
BRANCH   1   9
HETATM    9  C4  UNL     1      -4.618  20.550  -7.671  1.00  0.00     0.143 C 
BRANCH   9  10
HETATM   10  S1  UNL     1      -4.390  18.789  -7.822  1.00  0.00    -0.164 SA
BRANCH  10  11
HETATM   11  C3  UNL     1      -2.857  18.188  -7.134  1.00  0.00     0.073 C 
BRANCH  11  12
HETATM   12  C2  UNL     1      -1.781  19.259  -7.080  1.00  0.00     0.006 C 
HETATM   13  C1  UNL     1      -1.572  19.722  -5.654  1.00  0.00     0.006 C 
ENDBRANCH  11  12
ENDBRANCH  10  11
ENDBRANCH   9  10
ENDBRANCH   1   9
BRANCH   1  14
HETATM   14  O1  UNL     1      -6.796  19.824  -7.258  1.00  0.00    -0.363 OA
ATOM     15  H1  UNL     1      -6.432  19.619  -6.405  1.00  0.00     0.213 HD
ENDBRANCH   1  14
BRANCH   5  16
HETATM   16  O5  UNL     1      -4.692  22.416 -10.007  1.00  0.00    -0.391 OA
ATOM     17  H5  UNL     1      -4.276  23.230 -10.266  1.00  0.00     0.210 HD
ENDBRANCH   5  16
BRANCH   4  18
HETATM   18  O4  UNL     1      -5.596  24.728  -8.965  1.00  0.00    -0.389 OA
ATOM     19  H4  UNL     1      -5.166  24.589  -9.800  1.00  0.00     0.210 HD
ENDBRANCH   4  18
BRANCH   3  20
HETATM   20  S2  UNL     1      -6.754  24.353  -6.145  1.00  0.00     0.047 S 
HETATM   21  O3  UNL     1      -7.879  23.555  -5.161  1.00  0.00    -0.255 OA
BRANCH  20  22
HETATM   22  C7  UNL     1      -5.608  25.200  -5.131  1.00  0.00     0.111 C 
BRANCH  22  23
HETATM   23  C8  UNL     1      -4.251  25.371  -5.739  1.00  0.00     0.008 C 
HETATM   24  C9  UNL     1      -3.221  24.531  -4.971  1.00  0.00     0.006 C 
ENDBRANCH  22  23
ENDBRANCH  20  22
ENDBRANCH   3  20
TORSDOF 10
ENDMDL
MODEL 4
REMARK VINA RESULT: -5.702490542      7.268     10.083
REMARK  10 active torsions:
REMARK  status: ('A' for Active; 'I' for Inactive)
REMARK    1  A    between atoms: C2_2  and  C3_3 
REMARK    2  A    between atoms: C3_3  and  S1_4 
REMARK    3  A    between atoms: S1_4  and  C4_5 
REMARK    4  A    between atoms: C4_5  and  C5_6 
REMARK    5  A    between atoms: C5_6  and  O1_7 
REMARK    6  A    between atoms: C6_10  and  S2_11 
REMARK    7  A    between atoms: S2_11  and  C7_13 
REMARK    8  A    between atoms: C7_13  and  C8_14 
REMARK    9  A    between atoms: C10_16  and  O4_17 
REMARK   10  A    between atoms: C11_19  and  O5_20 
ROOT
HETATM    1  C5  UNL     1      -5.858  22.894  -9.317  1.00  0.00     0.190 C 
HETATM    2  O2  UNL     1      -5.902  21.505  -9.149  1.00  0.00    -0.332 OA
HETATM    3  C6  UNL     1      -7.150  20.986  -8.999  1.00  0.00     0.249 C 
HETATM    4  C10 UNL     1      -8.229  21.491  -9.862  1.00  0.00     0.189 C 
HETATM    5  C11 UNL     1      -8.258  22.993 -10.019  1.00  0.00     0.173 C 
HETATM    6  C12 UNL     1      -6.806  23.364 -10.353  1.00  0.00     0.187 C 
HETATM    7  C13 UNL     1      -6.632  24.728 -10.741  1.00  0.00     0.072 C 
HETATM    8  N1  UNL     1      -6.501  25.835 -11.085  1.00  0.00    -0.197 NA
ENDROOT
BRANCH   1   9
HETATM    9  C4  UNL     1      -5.959  23.535  -7.958  1.00  0.00     0.143 C 
BRANCH   9  10
HETATM   10  S1  UNL     1      -4.538  24.557  -7.625  1.00  0.00    -0.164 SA
BRANCH  10  11
HETATM   11  C3  UNL     1      -3.451  23.911  -6.365  1.00  0.00     0.073 C 
BRANCH  11  12
HETATM   12  C2  UNL     1      -2.895  22.542  -6.719  1.00  0.00     0.006 C 
HETATM   13  C1  UNL     1      -1.994  22.039  -5.611  1.00  0.00     0.006 C 
ENDBRANCH  11  12
ENDBRANCH  10  11
ENDBRANCH   9  10
ENDBRANCH   1   9
BRANCH   1  14
HETATM   14  O1  UNL     1      -4.564  23.141  -9.785  1.00  0.00    -0.363 OA
ATOM     15  H1  UNL     1      -4.550  22.884 -10.700  1.00  0.00     0.213 HD
ENDBRANCH   1  14
BRANCH   5  16
HETATM   16  O5  UNL     1      -8.775  23.675  -8.955  1.00  0.00    -0.391 OA
ATOM     17  H5  UNL     1      -9.706  23.858  -9.009  1.00  0.00     0.210 HD
ENDBRANCH   5  16
BRANCH   4  18
HETATM   18  O4  UNL     1      -9.465  21.098  -9.321  1.00  0.00    -0.389 OA
ATOM     19  H4  UNL     1     -10.074  20.939 -10.031  1.00  0.00     0.210 HD
ENDBRANCH   4  18
BRANCH   3  20
HETATM   20  S2  UNL     1      -7.033  19.224  -9.228  1.00  0.00     0.047 S 
HETATM   21  O3  UNL     1      -6.981  18.865 -10.882  1.00  0.00    -0.255 OA
BRANCH  20  22
HETATM   22  C7  UNL     1      -5.639  18.515  -8.445  1.00  0.00     0.111 C 
BRANCH  22  23
HETATM   23  C8  UNL     1      -4.849  19.468  -7.603  1.00  0.00     0.008 C 
HETATM   24  C9  UNL     1      -3.453  18.893  -7.328  1.00  0.00     0.006 C 
ENDBRANCH  22  23
ENDBRANCH  20  22
ENDBRANCH   3  20
TORSDOF 10
ENDMDL
MODEL 5
REMARK VINA RESULT: -5.537200330      1.352      1.555
REMARK  10 active torsions:
REMARK  status: ('A' for Active; 'I' for Inactive)
REMARK    1  A    between atoms: C2_2  and  C3_3 
REMARK    2  A    between atoms: C3_3  and  S1_4 
REMARK    3  A    between atoms: S1_4  and  C4_5 
REMARK    4  A    between atoms: C4_5  and  C5_6 
REMARK    5  A    between atoms: C5_6  and  O1_7 
REMARK    6  A    between atoms: C6_10  and  S2_11 
REMARK    7  A    between atoms: S2_11  and  C7_13 
REMARK    8  A    between atoms: C7_13  and  C8_14 
REMARK    9  A    between atoms: C10_16  and  O4_17 
REMARK   10  A    between atoms: C11_19  and  O5_20 
ROOT
HETATM    1  C5  UNL     1       0.969  16.306  -4.983  1.00  0.00     0.190 C 
HETATM    2  O2  UNL     1       0.146  16.943  -5.918  1.00  0.00    -0.332 OA
HETATM    3  C6  UNL     1      -0.789  17.775  -5.386  1.00  0.00     0.249 C 
HETATM    4  C10 UNL     1      -0.393  18.659  -4.279  1.00  0.00     0.189 C 
HETATM    5  C11 UNL     1       0.443  17.993  -3.212  1.00  0.00     0.173 C 
HETATM    6  C12 UNL     1       1.536  17.254  -3.996  1.00  0.00     0.187 C 
HETATM    7  C13 UNL     1       2.570  16.708  -3.176  1.00  0.00     0.072 C 
HETATM    8  N1  UNL     1       3.425  16.290  -2.502  1.00  0.00    -0.197 NA
ENDROOT
BRANCH   1   9
HETATM    9  C4  UNL     1       0.225  15.116  -4.436  1.00  0.00     0.143 C 
BRANCH   9  10
HETATM   10  S1  UNL     1       1.271  13.675  -4.384  1.00  0.00    -0.164 SA
BRANCH  10  11
HETATM   11  C3  UNL     1       0.640  12.279  -5.300  1.00  0.00     0.073 C 
BRANCH  11  12
HETATM   12  C2  UNL     1      -0.045  11.256  -4.408  1.00  0.00     0.006 C 
HETATM   13  C1  UNL     1      -1.136  11.919  -3.593  1.00  0.00     0.006 C 
ENDBRANCH  11  12
ENDBRANCH  10  11
ENDBRANCH   9  10
ENDBRANCH   1   9
BRANCH   1  14
HETATM   14  O1  UNL     1       2.028  15.805  -5.744  1.00  0.00    -0.363 OA
ATOM     15  H1  UNL     1       2.726  16.448  -5.702  1.00  0.00     0.213 HD
ENDBRANCH   1  14
BRANCH   5  16
HETATM   16  O5  UNL     1      -0.251  17.200  -2.345  1.00  0.00    -0.391 OA
ATOM     17  H5  UNL     1       0.014  17.271  -1.435  1.00  0.00     0.210 HD
ENDBRANCH   5  16
BRANCH   4  18
HETATM   18  O4  UNL     1      -1.552  19.156  -3.659  1.00  0.00    -0.389 OA
ATOM     19  H4  UNL     1      -1.911  19.853  -4.195  1.00  0.00     0.210 HD
ENDBRANCH   4  18
BRANCH   3  20
HETATM   20  S2  UNL     1      -1.425  18.787  -6.706  1.00  0.00     0.047 S 
HETATM   21  O3  UNL     1      -0.285  18.881  -7.954  1.00  0.00    -0.255 OA
BRANCH  20  22
HETATM   22  C7  UNL     1      -2.940  18.203  -7.358  1.00  0.00     0.111 C 
BRANCH  22  23
HETATM   23  C8  UNL     1      -4.017  19.237  -7.447  1.00  0.00     0.008 C 
HETATM   24  C9  UNL     1      -5.186  18.707  -8.289  1.00  0.00     0.006 C 
ENDBRANCH  22  23
ENDBRANCH  20  22
ENDBRANCH   3  20
TORSDOF 10
ENDMDL
