MODEL 1
REMARK VINA RESULT: -5.565602097      0.000      0.000
REMARK  12 active torsions:
REMARK  status: ('A' for Active; 'I' for Inactive)
REMARK    1  A    between atoms: C2_2  and  C3_3 
REMARK    2  A    between atoms: C2_2  and  C15_18 
REMARK    3  A    between atoms: C3_3  and  C4_4 
REMARK    4  A    between atoms: C4_4  and  C5_5 
REMARK    5  A    between atoms: C5_5  and  C6_6 
REMARK    6  A    between atoms: C6_6  and  C7_7 
REMARK    7  A    between atoms: C7_7  and  C8_8 
REMARK    8  A    between atoms: C8_8  and  C9_9 
REMARK    9  A    between atoms: C10_10  and  O1_11 
REMARK   10  A    between atoms: C15_18  and  C16_20 
REMARK   11  A    between atoms: C16_20  and  C17_21 
REMARK   12  A    between atoms: C17_21  and  O4_22 
ROOT
HETATM    1  C6  UNL     1      -6.291  19.555 -10.525  1.00  0.00     0.008 C 
ENDROOT
BRANCH   1   2
HETATM    2  C5  UNL     1      -6.336  18.713  -9.571  1.00  0.00     0.008 C 
BRANCH   2   3
HETATM    3  C4  UNL     1      -6.061  18.940  -8.190  1.00  0.00     0.051 C 
BRANCH   3   4
HETATM    4  C3  UNL     1      -4.983  19.408  -7.666  1.00  0.00    -0.144 C 
BRANCH   4   5
HETATM    5  C2  UNL     1      -3.849  19.902  -7.113  1.00  0.00     0.122 C 
HETATM    6  C1  UNL     1      -2.676  18.919  -7.509  1.00  0.00     0.031 C 
BRANCH   5   7
HETATM    7  C15 UNL     1      -3.385  21.269  -7.623  1.00  0.00     0.143 C 
HETATM    8  O3  UNL     1      -3.636  21.513  -8.777  1.00  0.00    -0.297 OA
BRANCH   7   9
HETATM    9  C16 UNL     1      -2.691  22.123  -6.650  1.00  0.00     0.105 C 
BRANCH   9  10
HETATM   10  C17 UNL     1      -1.926  23.266  -7.272  1.00  0.00     0.171 C 
BRANCH  10  11
HETATM   11  O4  UNL     1      -2.745  24.268  -7.774  1.00  0.00    -0.400 OA
ATOM     12  H4  UNL     1      -2.270  24.941  -8.247  1.00  0.00     0.209 HD
ENDBRANCH  10  11
ENDBRANCH   9  10
ENDBRANCH   7   9
ENDBRANCH   5   7
ENDBRANCH   4   5
ENDBRANCH   3   4
ENDBRANCH   2   3
ENDBRANCH   1   2
BRANCH   1  13
HETATM   13  C7  UNL     1      -7.363  20.586 -10.735  1.00  0.00     0.051 C 
BRANCH  13  14
HETATM   14  C8  UNL     1      -7.483  21.570 -10.065  1.00  0.00    -0.148 C 
BRANCH  14  15
HETATM   15  C9  UNL     1      -7.630  22.762  -9.248  1.00  0.00     0.096 C 
HETATM   16  C10 UNL     1      -6.814  23.891  -9.934  1.00  0.00     0.141 C 
HETATM   17  C11 UNL     1      -6.730  24.879  -8.763  1.00  0.00     0.111 C 
HETATM   18  C12 UNL     1      -6.192  23.964  -7.716  1.00  0.00     0.134 C 
HETATM   19  O2  UNL     1      -5.373  24.276  -6.883  1.00  0.00    -0.297 OA
HETATM   20  C13 UNL     1      -6.867  22.654  -7.932  1.00  0.00     0.069 C 
HETATM   21  C14 UNL     1      -7.778  22.373  -6.780  1.00  0.00     0.019 C 
BRANCH  16  22
HETATM   22  O1  UNL     1      -5.581  23.360 -10.223  1.00  0.00    -0.394 OA
ATOM     23  H1  UNL     1      -4.962  24.080 -10.188  1.00  0.00     0.210 HD
ENDBRANCH  16  22
ENDBRANCH  14  15
ENDBRANCH  13  14
ENDBRANCH   1  13
TORSDOF 12
ENDMDL
MODEL 2
REMARK VINA RESULT: -5.419186491      3.072      4.142
REMARK  12 active torsions:
REMARK  status: ('A' for Active; 'I' for Inactive)
REMARK    1  A    between atoms: C2_2  and  C3_3 
REMARK    2  A    between atoms: C2_2  and  C15_18 
REMARK    3  A    between atoms: C3_3  and  C4_4 
REMARK    4  A    between atoms: C4_4  and  C5_5 
REMARK    5  A    between atoms: C5_5  and  C6_6 
REMARK    6  A    between atoms: C6_6  and  C7_7 
REMARK    7  A    between atoms: C7_7  and  C8_8 
REMARK    8  A    between atoms: C8_8  and  C9_9 
REMARK    9  A    between atoms: C10_10  and  O1_11 
REMARK   10  A    between atoms: C15_18  and  C16_20 
REMARK   11  A    between atoms: C16_20  and  C17_21 
REMARK   12  A    between atoms: C17_21  and  O4_22 
ROOT
HETATM    1  C6  UNL     1      -4.441  18.574  -8.148  1.00  0.00     0.008 C 
ENDROOT
BRANCH   1   2
HETATM    2  C5  UNL     1      -3.854  19.412  -7.391  1.00  0.00     0.008 C 
BRANCH   2   3
HETATM    3  C4  UNL     1      -2.451  19.645  -7.265  1.00  0.00     0.051 C 
BRANCH   3   4
HETATM    4  C3  UNL     1      -1.608  19.010  -6.530  1.00  0.00    -0.144 C 
BRANCH   4   5
HETATM    5  C2  UNL     1      -0.721  18.342  -5.754  1.00  0.00     0.122 C 
HETATM    6  C1  UNL     1      -1.280  16.875  -5.571  1.00  0.00     0.031 C 
BRANCH   5   7
HETATM    7  C15 UNL     1       0.679  18.143  -6.341  1.00  0.00     0.143 C 
HETATM    8  O3  UNL     1       1.186  17.068  -6.138  1.00  0.00    -0.297 OA
BRANCH   7   9
HETATM    9  C16 UNL     1       1.239  19.280  -7.083  1.00  0.00     0.105 C 
BRANCH   9  10
HETATM   10  C17 UNL     1       2.408  18.920  -7.968  1.00  0.00     0.171 C 
BRANCH  10  11
HETATM   11  O4  UNL     1       2.302  17.657  -8.534  1.00  0.00    -0.400 OA
ATOM     12  H4  UNL     1       3.027  17.084  -8.316  1.00  0.00     0.209 HD
ENDBRANCH  10  11
ENDBRANCH   9  10
ENDBRANCH   7   9
ENDBRANCH   5   7
ENDBRANCH   4   5
ENDBRANCH   3   4
ENDBRANCH   2   3
ENDBRANCH   1   2
BRANCH   1  13
HETATM   13  C7  UNL     1      -5.711  18.906  -8.878  1.00  0.00     0.051 C 
BRANCH  13  14
HETATM   14  C8  UNL     1      -6.233  19.982  -8.854  1.00  0.00    -0.148 C 
BRANCH  14  15
HETATM   15  C9  UNL     1      -6.870  21.288  -8.829  1.00  0.00     0.096 C 
HETATM   16  C10 UNL     1      -7.907  21.314  -9.982  1.00  0.00     0.141 C 
HETATM   17  C11 UNL     1      -8.139  22.828 -10.069  1.00  0.00     0.111 C 
HETATM   18  C12 UNL     1      -6.724  23.280 -10.195  1.00  0.00     0.134 C 
HETATM   19  O2  UNL     1      -6.351  24.190 -10.899  1.00  0.00    -0.297 OA
HETATM   20  C13 UNL     1      -5.931  22.394  -9.299  1.00  0.00     0.069 C 
HETATM   21  C14 UNL     1      -5.398  23.197  -8.156  1.00  0.00     0.019 C 
BRANCH  16  22
HETATM   22  O1  UNL     1      -7.260  20.847 -11.100  1.00  0.00    -0.394 OA
ATOM     23  H1  UNL     1      -7.243  21.565 -11.722  1.00  0.00     0.210 HD
ENDBRANCH  16  22
ENDBRANCH  14  15
ENDBRANCH  13  14
ENDBRANCH   1  13
TORSDOF 12
ENDMDL
MODEL 3
REMARK VINA RESULT: -5.358863777      3.179      4.588
REMARK  12 active torsions:
REMARK  status: ('A' for Active; 'I' for Inactive)
REMARK    1  A    between atoms: C2_2  and  C3_3 
REMARK    2  A    between atoms: C2_2  and  C15_18 
REMARK    3  A    between atoms: C3_3  and  C4_4 
REMARK    4  A    between atoms: C4_4  and  C5_5 
REMARK    5  A    between atoms: C5_5  and  C6_6 
REMARK    6  A    between atoms: C6_6  and  C7_7 
REMARK    7  A    between atoms: C7_7  and  C8_8 
REMARK    8  A    between atoms: C8_8  and  C9_9 
REMARK    9  A    between atoms: C10_10  and  O1_11 
REMARK   10  A    between atoms: C15_18  and  C16_20 
REMARK   11  A    between atoms: C16_20  and  C17_21 
REMARK   12  A    between atoms: C17_21  and  O4_22 
ROOT
HETATM    1  C6  UNL     1      -4.418  18.541  -8.126  1.00  0.00     0.008 C 
ENDROOT
BRANCH   1   2
HETATM    2  C5  UNL     1      -3.852  19.362  -7.335  1.00  0.00     0.008 C 
BRANCH   2   3
HETATM    3  C4  UNL     1      -2.491  19.791  -7.345  1.00  0.00     0.051 C 
BRANCH   3   4
HETATM    4  C3  UNL     1      -1.525  19.371  -6.605  1.00  0.00    -0.144 C 
BRANCH   4   5
HETATM    5  C2  UNL     1      -0.509  18.930  -5.824  1.00  0.00     0.122 C 
HETATM    6  C1  UNL     1      -0.873  19.313  -4.334  1.00  0.00     0.031 C 
BRANCH   5   7
HETATM    7  C15 UNL     1      -0.293  17.415  -5.784  1.00  0.00     0.143 C 
HETATM    8  O3  UNL     1       0.832  17.038  -6.001  1.00  0.00    -0.297 OA
BRANCH   7   9
HETATM    9  C16 UNL     1      -1.476  16.598  -5.482  1.00  0.00     0.105 C 
BRANCH   9  10
HETATM   10  C17 UNL     1      -1.170  15.331  -4.722  1.00  0.00     0.171 C 
BRANCH  10  11
HETATM   11  O4  UNL     1      -0.369  14.445  -5.428  1.00  0.00    -0.400 OA
ATOM     12  H4  UNL     1      -0.586  13.533  -5.271  1.00  0.00     0.209 HD
ENDBRANCH  10  11
ENDBRANCH   9  10
ENDBRANCH   7   9
ENDBRANCH   5   7
ENDBRANCH   4   5
ENDBRANCH   3   4
ENDBRANCH   2   3
ENDBRANCH   1   2
BRANCH   1  13
HETATM   13  C7  UNL     1      -5.628  18.913  -8.934  1.00  0.00     0.051 C 
BRANCH  13  14
HETATM   14  C8  UNL     1      -6.154  19.987  -8.895  1.00  0.00    -0.148 C 
BRANCH  14  15
HETATM   15  C9  UNL     1      -6.789  21.293  -8.850  1.00  0.00     0.096 C 
HETATM   16  C10 UNL     1      -7.856  21.321  -9.977  1.00  0.00     0.141 C 
HETATM   17  C11 UNL     1      -8.089  22.835 -10.055  1.00  0.00     0.111 C 
HETATM   18  C12 UNL     1      -6.677  23.288 -10.216  1.00  0.00     0.134 C 
HETATM   19  O2  UNL     1      -6.323  24.199 -10.928  1.00  0.00    -0.297 OA
HETATM   20  C13 UNL     1      -5.862  22.399  -9.342  1.00  0.00     0.069 C 
HETATM   21  C14 UNL     1      -5.300  23.200  -8.212  1.00  0.00     0.019 C 
BRANCH  16  22
HETATM   22  O1  UNL     1      -7.238  20.857 -11.112  1.00  0.00    -0.394 OA
ATOM     23  H1  UNL     1      -7.841  20.246 -11.518  1.00  0.00     0.210 HD
ENDBRANCH  16  22
ENDBRANCH  14  15
ENDBRANCH  13  14
ENDBRANCH   1  13
TORSDOF 12
ENDMDL
MODEL 4
REMARK VINA RESULT: -5.353018816      2.065      5.416
REMARK  12 active torsions:
REMARK  status: ('A' for Active; 'I' for Inactive)
REMARK    1  A    between atoms: C2_2  and  C3_3 
REMARK    2  A    between atoms: C2_2  and  C15_18 
REMARK    3  A    between atoms: C3_3  and  C4_4 
REMARK    4  A    between atoms: C4_4  and  C5_5 
REMARK    5  A    between atoms: C5_5  and  C6_6 
REMARK    6  A    between atoms: C6_6  and  C7_7 
REMARK    7  A    between atoms: C7_7  and  C8_8 
REMARK    8  A    between atoms: C8_8  and  C9_9 
REMARK    9  A    between atoms: C10_10  and  O1_11 
REMARK   10  A    between atoms: C15_18  and  C16_20 
REMARK   11  A    between atoms: C16_20  and  C17_21 
REMARK   12  A    between atoms: C17_21  and  O4_22 
ROOT
HETATM    1  C6  UNL     1      -5.519  18.199  -8.793  1.00  0.00     0.008 C 
ENDROOT
BRANCH   1   2
HETATM    2  C5  UNL     1      -6.498  18.445  -9.568  1.00  0.00     0.008 C 
BRANCH   2   3
HETATM    3  C4  UNL     1      -6.588  19.456 -10.572  1.00  0.00     0.051 C 
BRANCH   3   4
HETATM    4  C3  UNL     1      -7.107  20.628 -10.467  1.00  0.00    -0.144 C 
BRANCH   4   5
HETATM    5  C2  UNL     1      -7.653  21.864 -10.358  1.00  0.00     0.122 C 
HETATM    6  C1  UNL     1      -8.698  21.804  -9.173  1.00  0.00     0.031 C 
BRANCH   5   7
HETATM    7  C15 UNL     1      -6.699  22.995  -9.965  1.00  0.00     0.143 C 
HETATM    8  O3  UNL     1      -6.508  23.839 -10.806  1.00  0.00    -0.297 OA
BRANCH   7   9
HETATM    9  C16 UNL     1      -6.131  22.924  -8.612  1.00  0.00     0.105 C 
BRANCH   9  10
HETATM   10  C17 UNL     1      -4.629  22.773  -8.584  1.00  0.00     0.171 C 
BRANCH  10  11
HETATM   11  O4  UNL     1      -4.119  22.135  -9.706  1.00  0.00    -0.400 OA
ATOM     12  H4  UNL     1      -4.762  22.008 -10.393  1.00  0.00     0.209 HD
ENDBRANCH  10  11
ENDBRANCH   9  10
ENDBRANCH   7   9
ENDBRANCH   5   7
ENDBRANCH   4   5
ENDBRANCH   3   4
ENDBRANCH   2   3
ENDBRANCH   1   2
BRANCH   1  13
HETATM   13  C7  UNL     1      -5.066  19.170  -7.741  1.00  0.00     0.051 C 
BRANCH  13  14
HETATM   14  C8  UNL     1      -3.919  19.440  -7.530  1.00  0.00    -0.148 C 
BRANCH  14  15
HETATM   15  C9  UNL     1      -2.526  19.763  -7.275  1.00  0.00     0.096 C 
HETATM   16  C10 UNL     1      -1.773  18.420  -7.077  1.00  0.00     0.141 C 
HETATM   17  C11 UNL     1      -0.494  18.951  -6.418  1.00  0.00     0.111 C 
HETATM   18  C12 UNL     1      -1.106  19.747  -5.315  1.00  0.00     0.134 C 
HETATM   19  O2  UNL     1      -0.660  19.827  -4.194  1.00  0.00    -0.297 OA
HETATM   20  C13 UNL     1      -2.323  20.380  -5.895  1.00  0.00     0.069 C 
HETATM   21  C14 UNL     1      -2.122  21.860  -5.969  1.00  0.00     0.019 C 
BRANCH  16  22
HETATM   22  O1  UNL     1      -2.518  17.682  -6.190  1.00  0.00    -0.394 OA
ATOM     23  H1  UNL     1      -1.903  17.290  -5.582  1.00  0.00     0.210 HD
ENDBRANCH  16  22
ENDBRANCH  14  15
ENDBRANCH  13  14
ENDBRANCH   1  13
TORSDOF 12
ENDMDL
MODEL 5
REMARK VINA RESULT: -5.323807829      4.421      8.275
REMARK  12 active torsions:
REMARK  status: ('A' for Active; 'I' for Inactive)
REMARK    1  A    between atoms: C2_2  and  C3_3 
REMARK    2  A    between atoms: C2_2  and  C15_18 
REMARK    3  A    between atoms: C3_3  and  C4_4 
REMARK    4  A    between atoms: C4_4  and  C5_5 
REMARK    5  A    between atoms: C5_5  and  C6_6 
REMARK    6  A    between atoms: C6_6  and  C7_7 
REMARK    7  A    between atoms: C7_7  and  C8_8 
REMARK    8  A    between atoms: C8_8  and  C9_9 
REMARK    9  A    between atoms: C10_10  and  O1_11 
REMARK   10  A    between atoms: C15_18  and  C16_20 
REMARK   11  A    between atoms: C16_20  and  C17_21 
REMARK   12  A    between atoms: C17_21  and  O4_22 
ROOT
HETATM    1  C6  UNL     1      -1.696  19.509  -6.394  1.00  0.00     0.008 C 
ENDROOT
BRANCH   1   2
HETATM    2  C5  UNL     1      -2.004  18.718  -7.343  1.00  0.00     0.008 C 
BRANCH   2   3
HETATM    3  C4  UNL     1      -3.306  18.289  -7.738  1.00  0.00     0.051 C 
BRANCH   3   4
HETATM    4  C3  UNL     1      -4.397  18.971  -7.734  1.00  0.00    -0.144 C 
BRANCH   4   5
HETATM    5  C2  UNL     1      -5.545  19.690  -7.727  1.00  0.00     0.122 C 
HETATM    6  C1  UNL     1      -5.146  21.200  -7.973  1.00  0.00     0.031 C 
BRANCH   5   7
HETATM    7  C15 UNL     1      -6.548  19.378  -8.841  1.00  0.00     0.143 C 
HETATM    8  O3  UNL     1      -6.764  18.209  -9.043  1.00  0.00    -0.297 OA
BRANCH   7   9
HETATM    9  C16 UNL     1      -7.132  20.537  -9.531  1.00  0.00     0.105 C 
BRANCH   9  10
HETATM   10  C17 UNL     1      -7.217  20.379 -11.030  1.00  0.00     0.171 C 
BRANCH  10  11
HETATM   11  O4  UNL     1      -6.493  19.298 -11.512  1.00  0.00    -0.400 OA
ATOM     12  H4  UNL     1      -6.098  19.458 -12.362  1.00  0.00     0.209 HD
ENDBRANCH  10  11
ENDBRANCH   9  10
ENDBRANCH   7   9
ENDBRANCH   5   7
ENDBRANCH   4   5
ENDBRANCH   3   4
ENDBRANCH   2   3
ENDBRANCH   1   2
BRANCH   1  13
HETATM   13  C7  UNL     1      -0.991  19.038  -5.155  1.00  0.00     0.051 C 
BRANCH  13  14
HETATM   14  C8  UNL     1      -0.585  17.923  -5.000  1.00  0.00    -0.148 C 
BRANCH  14  15
HETATM   15  C9  UNL     1      -0.087  16.571  -4.814  1.00  0.00     0.096 C 
HETATM   16  C10 UNL     1      -1.188  15.604  -5.326  1.00  0.00     0.141 C 
HETATM   17  C11 UNL     1      -0.695  14.306  -4.673  1.00  0.00     0.111 C 
HETATM   18  C12 UNL     1      -0.574  14.777  -3.263  1.00  0.00     0.134 C 
HETATM   19  O2  UNL     1      -0.856  14.118  -2.290  1.00  0.00    -0.297 OA
HETATM   20  C13 UNL     1      -0.053  16.170  -3.343  1.00  0.00     0.069 C 
HETATM   21  C14 UNL     1       1.334  16.210  -2.785  1.00  0.00     0.019 C 
BRANCH  16  22
HETATM   22  O1  UNL     1      -2.369  16.023  -4.764  1.00  0.00    -0.394 OA
ATOM     23  H1  UNL     1      -2.661  15.322  -4.193  1.00  0.00     0.210 HD
ENDBRANCH  16  22
ENDBRANCH  14  15
ENDBRANCH  13  14
ENDBRANCH   1  13
TORSDOF 12
ENDMDL
