MODEL 1
REMARK VINA RESULT: -6.310752856      0.000      0.000
REMARK  7 active torsions:
REMARK  status: ('A' for Active; 'I' for Inactive)
REMARK    1  A    between atoms: C4_8  and  C5_9 
REMARK    2  A    between atoms: C5_9  and  O1_10 
REMARK    3  A    between atoms: O1_10  and  C6_11 
REMARK    4  A    between atoms: C6_11  and  C7_12 
REMARK    5  A    between atoms: C7_12  and  C8_13 
REMARK    6  A    between atoms: C8_13  and  C9_14 
REMARK    7  A    between atoms: C9_14  and  C10_15 
ROOT
HETATM    1  N1  UNL     1      -7.071  25.908  -6.188  1.00  0.00    -0.197 NA
HETATM    2  C1  UNL     1      -6.274  25.083  -6.349  1.00  0.00     0.066 C 
HETATM    3  C2  UNL     1      -5.247  24.060  -6.538  1.00  0.00     0.129 C 
HETATM    4  C3  UNL     1      -3.908  24.694  -6.888  1.00  0.00     0.252 C 
HETATM    5  N2  UNL     1      -3.391  23.991  -8.046  1.00  0.00    -0.067 N 
ATOM      6  H21 UNL     1      -2.376  23.897  -8.058  1.00  0.00     0.277 HD
ATOM      7  H22 UNL     1      -3.467  24.511  -8.919  1.00  0.00     0.277 HD
HETATM    8  C4  UNL     1      -4.120  22.701  -8.044  1.00  0.00     0.219 C 
HETATM    9  C11 UNL     1      -5.502  23.209  -7.742  1.00  0.00     0.008 C 
HETATM   10  C12 UNL     1      -6.579  22.209  -7.629  1.00  0.00     0.013 C 
HETATM   11  C13 UNL     1      -7.922  22.706  -8.190  1.00  0.00     0.001 C 
HETATM   12  C14 UNL     1      -7.854  22.869  -9.692  1.00  0.00     0.000 C 
HETATM   13  C15 UNL     1      -6.391  23.203 -10.015  1.00  0.00     0.001 C 
HETATM   14  C16 UNL     1      -5.869  24.121  -8.922  1.00  0.00     0.013 C 
ENDROOT
BRANCH   8  15
HETATM   15  C5  UNL     1      -3.477  21.883  -6.970  1.00  0.00     0.201 C 
BRANCH  15  16
HETATM   16  O1  UNL     1      -2.518  21.008  -7.328  1.00  0.00    -0.389 OA
BRANCH  16  17
HETATM   17  C6  UNL     1      -2.851  19.686  -7.410  1.00  0.00     0.167 C 
BRANCH  17  18
HETATM   18  C7  UNL     1      -4.304  19.380  -7.216  1.00  0.00     0.027 C 
BRANCH  18  19
HETATM   19  C8  UNL     1      -4.787  18.606  -8.423  1.00  0.00     0.013 C 
BRANCH  19  20
HETATM   20  C9  UNL     1      -5.537  19.558  -9.324  1.00  0.00     0.113 C 
BRANCH  20  21
HETATM   21  C10 UNL     1      -6.425  18.840 -10.262  1.00  0.00     0.172 C 
HETATM   22  O2  UNL     1      -6.680  19.310 -11.390  1.00  0.00    -0.648 OA
HETATM   23  O3  UNL     1      -6.979  17.634  -9.890  1.00  0.00    -0.648 OA
ENDBRANCH  20  21
ENDBRANCH  19  20
ENDBRANCH  18  19
ENDBRANCH  17  18
ENDBRANCH  16  17
ENDBRANCH  15  16
ENDBRANCH   8  15
TORSDOF 7
ENDMDL
MODEL 2
REMARK VINA RESULT: -6.081030571      2.800      4.722
REMARK  7 active torsions:
REMARK  status: ('A' for Active; 'I' for Inactive)
REMARK    1  A    between atoms: C4_8  and  C5_9 
REMARK    2  A    between atoms: C5_9  and  O1_10 
REMARK    3  A    between atoms: O1_10  and  C6_11 
REMARK    4  A    between atoms: C6_11  and  C7_12 
REMARK    5  A    between atoms: C7_12  and  C8_13 
REMARK    6  A    between atoms: C8_13  and  C9_14 
REMARK    7  A    between atoms: C9_14  and  C10_15 
ROOT
HETATM    1  N1  UNL     1      -7.060  24.196 -10.828  1.00  0.00    -0.197 NA
HETATM    2  C1  UNL     1      -6.688  23.204 -10.358  1.00  0.00     0.066 C 
HETATM    3  C2  UNL     1      -6.227  21.938  -9.791  1.00  0.00     0.129 C 
HETATM    4  C3  UNL     1      -7.188  20.808 -10.138  1.00  0.00     0.252 C 
HETATM    5  N2  UNL     1      -7.471  20.095  -8.907  1.00  0.00    -0.067 N 
ATOM      6  H21 UNL     1      -7.606  19.092  -9.028  1.00  0.00     0.277 HD
ATOM      7  H22 UNL     1      -8.394  20.286  -8.517  1.00  0.00     0.277 HD
HETATM    8  C4  UNL     1      -6.347  20.454  -8.011  1.00  0.00     0.219 C 
HETATM    9  C11 UNL     1      -6.277  21.929  -8.296  1.00  0.00     0.008 C 
HETATM   10  C12 UNL     1      -5.238  22.703  -7.595  1.00  0.00     0.013 C 
HETATM   11  C13 UNL     1      -5.702  24.116  -7.204  1.00  0.00     0.001 C 
HETATM   12  C14 UNL     1      -6.770  24.058  -6.136  1.00  0.00     0.000 C 
HETATM   13  C15 UNL     1      -7.508  22.730  -6.348  1.00  0.00     0.001 C 
HETATM   14  C16 UNL     1      -7.631  22.498  -7.845  1.00  0.00     0.013 C 
ENDROOT
BRANCH   8  15
HETATM   15  C5  UNL     1      -5.186  19.642  -8.486  1.00  0.00     0.201 C 
BRANCH  15  16
HETATM   16  O1  UNL     1      -4.712  18.677  -7.674  1.00  0.00    -0.389 OA
BRANCH  16  17
HETATM   17  C6  UNL     1      -3.359  18.562  -7.533  1.00  0.00     0.167 C 
BRANCH  17  18
HETATM   18  C7  UNL     1      -2.699  19.667  -6.767  1.00  0.00     0.027 C 
BRANCH  18  19
HETATM   19  C8  UNL     1      -1.212  19.387  -6.725  1.00  0.00     0.013 C 
BRANCH  19  20
HETATM   20  C9  UNL     1      -0.914  18.608  -5.467  1.00  0.00     0.113 C 
BRANCH  20  21
HETATM   21  C10 UNL     1      -0.398  17.257  -5.767  1.00  0.00     0.172 C 
HETATM   22  O2  UNL     1       0.822  17.064  -5.953  1.00  0.00    -0.648 OA
HETATM   23  O3  UNL     1      -1.270  16.194  -5.843  1.00  0.00    -0.648 OA
ENDBRANCH  20  21
ENDBRANCH  19  20
ENDBRANCH  18  19
ENDBRANCH  17  18
ENDBRANCH  16  17
ENDBRANCH  15  16
ENDBRANCH   8  15
TORSDOF 7
ENDMDL
MODEL 3
REMARK VINA RESULT: -6.079823691      2.639      4.645
REMARK  7 active torsions:
REMARK  status: ('A' for Active; 'I' for Inactive)
REMARK    1  A    between atoms: C4_8  and  C5_9 
REMARK    2  A    between atoms: C5_9  and  O1_10 
REMARK    3  A    between atoms: O1_10  and  C6_11 
REMARK    4  A    between atoms: C6_11  and  C7_12 
REMARK    5  A    between atoms: C7_12  and  C8_13 
REMARK    6  A    between atoms: C8_13  and  C9_14 
REMARK    7  A    between atoms: C9_14  and  C10_15 
ROOT
HETATM    1  N1  UNL     1      -6.622  24.838 -10.989  1.00  0.00    -0.197 NA
HETATM    2  C1  UNL     1      -6.563  23.770 -10.544  1.00  0.00     0.066 C 
HETATM    3  C2  UNL     1      -6.507  22.412 -10.005  1.00  0.00     0.129 C 
HETATM    4  C3  UNL     1      -7.847  21.708 -10.168  1.00  0.00     0.252 C 
HETATM    5  N2  UNL     1      -8.180  21.121  -8.885  1.00  0.00    -0.067 N 
ATOM      6  H21 UNL     1      -8.681  20.235  -8.949  1.00  0.00     0.277 HD
ATOM      7  H22 UNL     1      -8.905  21.622  -8.372  1.00  0.00     0.277 HD
HETATM    8  C4  UNL     1      -6.883  21.036  -8.175  1.00  0.00     0.219 C 
HETATM    9  C11 UNL     1      -6.334  22.392  -8.519  1.00  0.00     0.008 C 
HETATM   10  C12 UNL     1      -4.994  22.729  -8.005  1.00  0.00     0.013 C 
HETATM   11  C13 UNL     1      -4.860  24.207  -7.601  1.00  0.00     0.001 C 
HETATM   12  C14 UNL     1      -5.706  24.515  -6.387  1.00  0.00     0.000 C 
HETATM   13  C15 UNL     1      -6.893  23.544  -6.442  1.00  0.00     0.001 C 
HETATM   14  C16 UNL     1      -7.312  23.400  -7.896  1.00  0.00     0.013 C 
ENDROOT
BRANCH   8  15
HETATM   15  C5  UNL     1      -6.172  19.871  -8.785  1.00  0.00     0.201 C 
BRANCH  15  16
HETATM   16  O1  UNL     1      -5.668  18.932  -7.961  1.00  0.00    -0.389 OA
BRANCH  16  17
HETATM   17  C6  UNL     1      -4.373  18.543  -8.143  1.00  0.00     0.167 C 
BRANCH  17  18
HETATM   18  C7  UNL     1      -3.352  19.348  -7.399  1.00  0.00     0.027 C 
BRANCH  18  19
HETATM   19  C8  UNL     1      -2.047  18.582  -7.415  1.00  0.00     0.013 C 
BRANCH  19  20
HETATM   20  C9  UNL     1      -1.548  18.470  -5.994  1.00  0.00     0.113 C 
BRANCH  20  21
HETATM   21  C10 UNL     1      -1.056  17.110  -5.692  1.00  0.00     0.172 C 
HETATM   22  O2  UNL     1      -1.837  16.219  -5.300  1.00  0.00    -0.648 OA
HETATM   23  O3  UNL     1       0.282  16.819  -5.844  1.00  0.00    -0.648 OA
ENDBRANCH  20  21
ENDBRANCH  19  20
ENDBRANCH  18  19
ENDBRANCH  17  18
ENDBRANCH  16  17
ENDBRANCH  15  16
ENDBRANCH   8  15
TORSDOF 7
ENDMDL
MODEL 4
REMARK VINA RESULT: -6.036375659      3.167      5.319
REMARK  7 active torsions:
REMARK  status: ('A' for Active; 'I' for Inactive)
REMARK    1  A    between atoms: C4_8  and  C5_9 
REMARK    2  A    between atoms: C5_9  and  O1_10 
REMARK    3  A    between atoms: O1_10  and  C6_11 
REMARK    4  A    between atoms: C6_11  and  C7_12 
REMARK    5  A    between atoms: C7_12  and  C8_13 
REMARK    6  A    between atoms: C8_13  and  C9_14 
REMARK    7  A    between atoms: C9_14  and  C10_15 
ROOT
HETATM    1  N1  UNL     1      -6.872  19.430 -11.871  1.00  0.00    -0.197 NA
HETATM    2  C1  UNL     1      -6.331  19.560 -10.855  1.00  0.00     0.066 C 
HETATM    3  C2  UNL     1      -5.646  19.693  -9.570  1.00  0.00     0.129 C 
HETATM    4  C3  UNL     1      -6.098  18.610  -8.600  1.00  0.00     0.252 C 
HETATM    5  N2  UNL     1      -6.427  19.265  -7.349  1.00  0.00    -0.067 N 
ATOM      6  H21 UNL     1      -6.210  18.713  -6.520  1.00  0.00     0.277 HD
ATOM      7  H22 UNL     1      -7.427  19.348  -7.171  1.00  0.00     0.277 HD
HETATM    8  C4  UNL     1      -5.713  20.562  -7.419  1.00  0.00     0.219 C 
HETATM    9  C11 UNL     1      -6.040  20.937  -8.838  1.00  0.00     0.008 C 
HETATM   10  C12 UNL     1      -5.488  22.205  -9.345  1.00  0.00     0.013 C 
HETATM   11  C13 UNL     1      -6.446  22.940 -10.297  1.00  0.00     0.001 C 
HETATM   12  C14 UNL     1      -7.662  23.447  -9.555  1.00  0.00     0.000 C 
HETATM   13  C15 UNL     1      -7.880  22.475  -8.388  1.00  0.00     0.001 C 
HETATM   14  C16 UNL     1      -7.569  21.072  -8.883  1.00  0.00     0.013 C 
ENDROOT
BRANCH   8  15
HETATM   15  C5  UNL     1      -4.279  20.241  -7.144  1.00  0.00     0.201 C 
BRANCH  15  16
HETATM   16  O1  UNL     1      -3.449  21.259  -6.844  1.00  0.00    -0.389 OA
BRANCH  16  17
HETATM   17  C6  UNL     1      -2.192  20.955  -6.404  1.00  0.00     0.167 C 
BRANCH  17  18
HETATM   18  C7  UNL     1      -1.775  19.529  -6.595  1.00  0.00     0.027 C 
BRANCH  18  19
HETATM   19  C8  UNL     1      -0.543  19.284  -5.751  1.00  0.00     0.013 C 
BRANCH  19  20
HETATM   20  C9  UNL     1       0.673  19.622  -6.581  1.00  0.00     0.113 C 
BRANCH  20  21
HETATM   21  C10 UNL     1       1.229  18.428  -7.250  1.00  0.00     0.172 C 
HETATM   22  O2  UNL     1       1.464  17.384  -6.608  1.00  0.00    -0.648 OA
HETATM   23  O3  UNL     1       1.492  18.464  -8.603  1.00  0.00    -0.648 OA
ENDBRANCH  20  21
ENDBRANCH  19  20
ENDBRANCH  18  19
ENDBRANCH  17  18
ENDBRANCH  16  17
ENDBRANCH  15  16
ENDBRANCH   8  15
TORSDOF 7
ENDMDL
MODEL 5
REMARK VINA RESULT: -6.006635648      2.000      4.399
REMARK  7 active torsions:
REMARK  status: ('A' for Active; 'I' for Inactive)
REMARK    1  A    between atoms: C4_8  and  C5_9 
REMARK    2  A    between atoms: C5_9  and  O1_10 
REMARK    3  A    between atoms: O1_10  and  C6_11 
REMARK    4  A    between atoms: C6_11  and  C7_12 
REMARK    5  A    between atoms: C7_12  and  C8_13 
REMARK    6  A    between atoms: C8_13  and  C9_14 
REMARK    7  A    between atoms: C9_14  and  C10_15 
ROOT
HETATM    1  N1  UNL     1      -6.335  25.738 -10.746  1.00  0.00    -0.197 NA
HETATM    2  C1  UNL     1      -6.525  24.613 -10.542  1.00  0.00     0.066 C 
HETATM    3  C2  UNL     1      -6.784  23.194 -10.309  1.00  0.00     0.129 C 
HETATM    4  C3  UNL     1      -8.265  22.880 -10.473  1.00  0.00     0.252 C 
HETATM    5  N2  UNL     1      -8.670  22.110  -9.313  1.00  0.00    -0.067 N 
ATOM      6  H21 UNL     1      -9.380  21.404  -9.508  1.00  0.00     0.277 HD
ATOM      7  H22 UNL     1      -9.219  22.636  -8.633  1.00  0.00     0.277 HD
HETATM    8  C4  UNL     1      -7.402  21.563  -8.777  1.00  0.00     0.219 C 
HETATM    9  C11 UNL     1      -6.547  22.795  -8.886  1.00  0.00     0.008 C 
HETATM   10  C12 UNL     1      -5.142  22.682  -8.457  1.00  0.00     0.013 C 
HETATM   11  C13 UNL     1      -4.619  23.955  -7.770  1.00  0.00     0.001 C 
HETATM   12  C14 UNL     1      -5.299  24.166  -6.435  1.00  0.00     0.000 C 
HETATM   13  C15 UNL     1      -6.693  23.540  -6.567  1.00  0.00     0.001 C 
HETATM   14  C16 UNL     1      -7.207  23.834  -7.967  1.00  0.00     0.013 C 
ENDROOT
BRANCH   8  15
HETATM   15  C5  UNL     1      -7.039  20.435  -9.689  1.00  0.00     0.201 C 
BRANCH  15  16
HETATM   16  O1  UNL     1      -7.077  19.183  -9.195  1.00  0.00    -0.389 OA
BRANCH  16  17
HETATM   17  C6  UNL     1      -6.275  18.886  -8.131  1.00  0.00     0.167 C 
BRANCH  17  18
HETATM   18  C7  UNL     1      -4.851  18.571  -8.473  1.00  0.00     0.027 C 
BRANCH  18  19
HETATM   19  C8  UNL     1      -3.960  19.292  -7.485  1.00  0.00     0.013 C 
BRANCH  19  20
HETATM   20  C9  UNL     1      -2.787  18.397  -7.166  1.00  0.00     0.113 C 
BRANCH  20  21
HETATM   21  C10 UNL     1      -1.532  19.164  -7.033  1.00  0.00     0.172 C 
HETATM   22  O2  UNL     1      -1.534  20.319  -6.559  1.00  0.00    -0.648 OA
HETATM   23  O3  UNL     1      -0.340  18.601  -7.435  1.00  0.00    -0.648 OA
ENDBRANCH  20  21
ENDBRANCH  19  20
ENDBRANCH  18  19
ENDBRANCH  17  18
ENDBRANCH  16  17
ENDBRANCH  15  16
ENDBRANCH   8  15
TORSDOF 7
ENDMDL
