MODEL 1
REMARK VINA RESULT: -5.955491666      0.000      0.000
REMARK  8 active torsions:
REMARK  status: ('A' for Active; 'I' for Inactive)
REMARK    1  A    between atoms: C2_2  and  C3_3 
REMARK    2  A    between atoms: C2_2  and  C4_6 
REMARK    3  A    between atoms: C3_3  and  O1_4 
REMARK    4  A    between atoms: C4_6  and  N1_7 
REMARK    5  A    between atoms: C7_11  and  C8_12 
REMARK    6  A    between atoms: C8_12  and  C10_14 
REMARK    7  A    between atoms: C10_14  and  N2_15 
REMARK    8  A    between atoms: N2_15  and  C11_17 
ROOT
HETATM    1  N1  UNL     1      -6.359  20.436  -9.786  1.00  0.00     0.093 N 
HETATM    2  C5  UNL     1      -6.403  19.148 -10.330  1.00  0.00     0.298 C 
HETATM    3  C6  UNL     1      -6.358  18.167  -9.161  1.00  0.00     0.198 C 
HETATM    4  O2  UNL     1      -5.183  18.373  -8.503  1.00  0.00    -0.382 OA
HETATM    5  C7  UNL     1      -4.972  19.662  -8.028  1.00  0.00     0.158 C 
HETATM    6  C17 UNL     1      -5.014  20.631  -9.135  1.00  0.00     0.305 C 
ENDROOT
BRANCH   5   7
HETATM    7  C8  UNL     1      -3.789  19.618  -7.134  1.00  0.00     0.050 C 
HETATM    8  C9  UNL     1      -3.150  21.008  -7.155  1.00  0.00     0.018 C 
BRANCH   7   9
HETATM    9  C10 UNL     1      -2.806  18.540  -7.299  1.00  0.00     0.062 C 
BRANCH   9  10
HETATM   10  N2  UNL     1      -2.115  18.004  -6.221  1.00  0.00    -0.397 N 
ATOM     11  H2  UNL     1      -2.522  17.195  -5.754  1.00  0.00     0.159 HD
BRANCH  10  12
HETATM   12  C11 UNL     1      -0.907  18.492  -5.732  1.00  0.00     0.080 C 
HETATM   13  C12 UNL     1       0.047  19.003  -6.798  1.00  0.00     0.025 C 
HETATM   14  C13 UNL     1       0.935  20.085  -6.244  1.00  0.00     0.002 C 
HETATM   15  C14 UNL     1       1.571  19.752  -4.929  1.00  0.00     0.000 C 
HETATM   16  C15 UNL     1       0.508  19.444  -3.931  1.00  0.00     0.002 C 
HETATM   17  C16 UNL     1      -0.898  19.445  -4.571  1.00  0.00     0.025 C 
ENDBRANCH  10  12
ENDBRANCH   9  10
ENDBRANCH   7   9
ENDBRANCH   5   7
BRANCH   1  18
HETATM   18  C4  UNL     1      -7.353  21.013  -9.024  1.00  0.00     0.279 C 
BRANCH  18  19
HETATM   19  C2  UNL     1      -7.332  22.454  -8.708  1.00  0.00     0.033 C 
HETATM   20  C1  UNL     1      -7.752  22.612  -7.188  1.00  0.00     0.014 C 
BRANCH  19  21
HETATM   21  C3  UNL     1      -8.388  23.296  -9.391  1.00  0.00     0.170 C 
BRANCH  21  22
HETATM   22  O1  UNL     1      -8.760  22.664 -10.613  1.00  0.00    -0.400 OA
ATOM     23  H1  UNL     1      -9.708  22.644 -10.672  1.00  0.00     0.209 HD
ENDBRANCH  21  22
ENDBRANCH  19  21
ENDBRANCH  18  19
ENDBRANCH   1  18
TORSDOF 8
ENDMDL
MODEL 2
REMARK VINA RESULT: -5.938509871      0.845      1.327
REMARK  8 active torsions:
REMARK  status: ('A' for Active; 'I' for Inactive)
REMARK    1  A    between atoms: C2_2  and  C3_3 
REMARK    2  A    between atoms: C2_2  and  C4_6 
REMARK    3  A    between atoms: C3_3  and  O1_4 
REMARK    4  A    between atoms: C4_6  and  N1_7 
REMARK    5  A    between atoms: C7_11  and  C8_12 
REMARK    6  A    between atoms: C8_12  and  C10_14 
REMARK    7  A    between atoms: C10_14  and  N2_15 
REMARK    8  A    between atoms: N2_15  and  C11_17 
ROOT
HETATM    1  N1  UNL     1      -6.353  20.444  -9.807  1.00  0.00     0.093 N 
HETATM    2  C5  UNL     1      -6.383  19.150 -10.337  1.00  0.00     0.298 C 
HETATM    3  C6  UNL     1      -6.331  18.181  -9.159  1.00  0.00     0.198 C 
HETATM    4  O2  UNL     1      -5.160  18.406  -8.501  1.00  0.00    -0.382 OA
HETATM    5  C7  UNL     1      -4.963  19.702  -8.038  1.00  0.00     0.158 C 
HETATM    6  C17 UNL     1      -5.012  20.659  -9.154  1.00  0.00     0.305 C 
ENDROOT
BRANCH   5   7
HETATM    7  C8  UNL     1      -3.782  19.679  -7.140  1.00  0.00     0.050 C 
HETATM    8  C9  UNL     1      -3.256  21.111  -7.043  1.00  0.00     0.018 C 
BRANCH   7   9
HETATM    9  C10 UNL     1      -2.716  18.698  -7.384  1.00  0.00     0.062 C 
BRANCH   9  10
HETATM   10  N2  UNL     1      -1.422  19.085  -7.702  1.00  0.00    -0.397 N 
ATOM     11  H2  UNL     1      -1.251  19.435  -8.644  1.00  0.00     0.159 HD
BRANCH  10  12
HETATM   12  C11 UNL     1      -0.340  19.028  -6.827  1.00  0.00     0.080 C 
HETATM   13  C12 UNL     1      -0.485  18.013  -5.707  1.00  0.00     0.025 C 
HETATM   14  C13 UNL     1       0.863  17.509  -5.266  1.00  0.00     0.002 C 
HETATM   15  C14 UNL     1       1.878  18.584  -5.023  1.00  0.00     0.000 C 
HETATM   16  C15 UNL     1       2.048  19.392  -6.263  1.00  0.00     0.002 C 
HETATM   17  C16 UNL     1       1.060  18.961  -7.369  1.00  0.00     0.025 C 
ENDBRANCH  10  12
ENDBRANCH   9  10
ENDBRANCH   7   9
ENDBRANCH   5   7
BRANCH   1  18
HETATM   18  C4  UNL     1      -7.356  21.018  -9.053  1.00  0.00     0.279 C 
BRANCH  18  19
HETATM   19  C2  UNL     1      -7.335  22.457  -8.727  1.00  0.00     0.033 C 
HETATM   20  C1  UNL     1      -7.749  22.603  -7.204  1.00  0.00     0.014 C 
BRANCH  19  21
HETATM   21  C3  UNL     1      -8.394  23.302  -9.400  1.00  0.00     0.170 C 
BRANCH  21  22
HETATM   22  O1  UNL     1      -8.751  22.693 -10.638  1.00  0.00    -0.400 OA
ATOM     23  H1  UNL     1      -8.428  21.800 -10.644  1.00  0.00     0.209 HD
ENDBRANCH  21  22
ENDBRANCH  19  21
ENDBRANCH  18  19
ENDBRANCH   1  18
TORSDOF 8
ENDMDL
MODEL 3
REMARK VINA RESULT: -5.926177009      2.623      6.203
REMARK  8 active torsions:
REMARK  status: ('A' for Active; 'I' for Inactive)
REMARK    1  A    between atoms: C2_2  and  C3_3 
REMARK    2  A    between atoms: C2_2  and  C4_6 
REMARK    3  A    between atoms: C3_3  and  O1_4 
REMARK    4  A    between atoms: C4_6  and  N1_7 
REMARK    5  A    between atoms: C7_11  and  C8_12 
REMARK    6  A    between atoms: C8_12  and  C10_14 
REMARK    7  A    between atoms: C10_14  and  N2_15 
REMARK    8  A    between atoms: N2_15  and  C11_17 
ROOT
HETATM    1  N1  UNL     1      -5.580  19.018  -8.103  1.00  0.00     0.093 N 
HETATM    2  C5  UNL     1      -6.345  18.286  -9.017  1.00  0.00     0.298 C 
HETATM    3  C6  UNL     1      -6.370  19.080 -10.320  1.00  0.00     0.198 C 
HETATM    4  O2  UNL     1      -6.956  20.280 -10.052  1.00  0.00    -0.382 OA
HETATM    5  C7  UNL     1      -6.350  21.044  -9.060  1.00  0.00     0.158 C 
HETATM    6  C17 UNL     1      -6.309  20.299  -7.792  1.00  0.00     0.305 C 
ENDROOT
BRANCH   5   7
HETATM    7  C8  UNL     1      -6.964  22.394  -9.101  1.00  0.00     0.050 C 
HETATM    8  C9  UNL     1      -8.433  22.214  -9.487  1.00  0.00     0.018 C 
BRANCH   7   9
HETATM    9  C10 UNL     1      -6.303  23.459  -9.865  1.00  0.00     0.062 C 
BRANCH   9  10
HETATM   10  N2  UNL     1      -5.560  24.454  -9.246  1.00  0.00    -0.397 N 
ATOM     11  H2  UNL     1      -4.981  25.049  -9.837  1.00  0.00     0.159 HD
BRANCH  10  12
HETATM   12  C11 UNL     1      -5.549  24.699  -7.876  1.00  0.00     0.080 C 
HETATM   13  C12 UNL     1      -4.321  24.176  -7.150  1.00  0.00     0.025 C 
HETATM   14  C13 UNL     1      -4.022  25.014  -5.936  1.00  0.00     0.002 C 
HETATM   15  C14 UNL     1      -5.209  25.287  -5.062  1.00  0.00     0.000 C 
HETATM   16  C15 UNL     1      -6.267  25.962  -5.865  1.00  0.00     0.002 C 
HETATM   17  C16 UNL     1      -5.877  26.070  -7.356  1.00  0.00     0.025 C 
ENDBRANCH  10  12
ENDBRANCH   9  10
ENDBRANCH   7   9
ENDBRANCH   5   7
BRANCH   1  18
HETATM   18  C4  UNL     1      -4.223  19.246  -8.204  1.00  0.00     0.279 C 
BRANCH  18  19
HETATM   19  C2  UNL     1      -3.374  19.336  -7.001  1.00  0.00     0.033 C 
HETATM   20  C1  UNL     1      -2.782  20.805  -6.948  1.00  0.00     0.014 C 
BRANCH  19  21
HETATM   21  C3  UNL     1      -2.106  18.512  -7.024  1.00  0.00     0.170 C 
BRANCH  21  22
HETATM   22  O1  UNL     1      -1.325  18.900  -8.151  1.00  0.00    -0.400 OA
ATOM     23  H1  UNL     1      -0.407  18.751  -7.955  1.00  0.00     0.209 HD
ENDBRANCH  21  22
ENDBRANCH  19  21
ENDBRANCH  18  19
ENDBRANCH   1  18
TORSDOF 8
ENDMDL
MODEL 4
REMARK VINA RESULT: -5.923745045      2.735      7.183
REMARK  8 active torsions:
REMARK  status: ('A' for Active; 'I' for Inactive)
REMARK    1  A    between atoms: C2_2  and  C3_3 
REMARK    2  A    between atoms: C2_2  and  C4_6 
REMARK    3  A    between atoms: C3_3  and  O1_4 
REMARK    4  A    between atoms: C4_6  and  N1_7 
REMARK    5  A    between atoms: C7_11  and  C8_12 
REMARK    6  A    between atoms: C8_12  and  C10_14 
REMARK    7  A    between atoms: C10_14  and  N2_15 
REMARK    8  A    between atoms: N2_15  and  C11_17 
ROOT
HETATM    1  N1  UNL     1      -5.585  19.001  -8.106  1.00  0.00     0.093 N 
HETATM    2  C5  UNL     1      -6.379  18.351  -9.056  1.00  0.00     0.298 C 
HETATM    3  C6  UNL     1      -6.375  19.217 -10.313  1.00  0.00     0.198 C 
HETATM    4  O2  UNL     1      -6.916  20.422  -9.976  1.00  0.00    -0.382 OA
HETATM    5  C7  UNL     1      -6.280  21.105  -8.945  1.00  0.00     0.158 C 
HETATM    6  C17 UNL     1      -6.266  20.289  -7.721  1.00  0.00     0.305 C 
ENDROOT
BRANCH   5   7
HETATM    7  C8  UNL     1      -6.843  22.478  -8.908  1.00  0.00     0.050 C 
HETATM    8  C9  UNL     1      -7.444  22.685  -7.517  1.00  0.00     0.018 C 
BRANCH   7   9
HETATM    9  C10 UNL     1      -7.742  22.913  -9.985  1.00  0.00     0.062 C 
BRANCH   9  10
HETATM   10  N2  UNL     1      -7.515  24.077 -10.705  1.00  0.00    -0.397 N 
ATOM     11  H2  UNL     1      -8.015  24.194 -11.585  1.00  0.00     0.159 HD
BRANCH  10  12
HETATM   12  C11 UNL     1      -6.654  25.098 -10.312  1.00  0.00     0.080 C 
HETATM   13  C12 UNL     1      -6.065  25.904 -11.456  1.00  0.00     0.025 C 
HETATM   14  C13 UNL     1      -5.759  27.310 -11.016  1.00  0.00     0.002 C 
HETATM   15  C14 UNL     1      -5.011  27.406  -9.721  1.00  0.00     0.000 C 
HETATM   16  C15 UNL     1      -5.793  26.725  -8.649  1.00  0.00     0.002 C 
HETATM   17  C16 UNL     1      -7.056  26.036  -9.210  1.00  0.00     0.025 C 
ENDBRANCH  10  12
ENDBRANCH   9  10
ENDBRANCH   7   9
ENDBRANCH   5   7
BRANCH   1  18
HETATM   18  C4  UNL     1      -4.221  19.184  -8.199  1.00  0.00     0.279 C 
BRANCH  18  19
HETATM   19  C2  UNL     1      -3.405  19.461  -7.001  1.00  0.00     0.033 C 
HETATM   20  C1  UNL     1      -2.874  20.949  -7.124  1.00  0.00     0.014 C 
BRANCH  19  21
HETATM   21  C3  UNL     1      -2.106  18.695  -6.895  1.00  0.00     0.170 C 
BRANCH  21  22
HETATM   22  O1  UNL     1      -1.381  18.846  -8.112  1.00  0.00    -0.400 OA
ATOM     23  H1  UNL     1      -1.978  19.137  -8.791  1.00  0.00     0.209 HD
ENDBRANCH  21  22
ENDBRANCH  19  21
ENDBRANCH  18  19
ENDBRANCH   1  18
TORSDOF 8
ENDMDL
MODEL 5
REMARK VINA RESULT: -5.920422488      3.990      6.569
REMARK  8 active torsions:
REMARK  status: ('A' for Active; 'I' for Inactive)
REMARK    1  A    between atoms: C2_2  and  C3_3 
REMARK    2  A    between atoms: C2_2  and  C4_6 
REMARK    3  A    between atoms: C3_3  and  O1_4 
REMARK    4  A    between atoms: C4_6  and  N1_7 
REMARK    5  A    between atoms: C7_11  and  C8_12 
REMARK    6  A    between atoms: C8_12  and  C10_14 
REMARK    7  A    between atoms: C10_14  and  N2_15 
REMARK    8  A    between atoms: N2_15  and  C11_17 
ROOT
HETATM    1  N1  UNL     1      -0.364  19.679  -6.480  1.00  0.00     0.093 N 
HETATM    2  C5  UNL     1       0.980  19.380  -6.721  1.00  0.00     0.298 C 
HETATM    3  C6  UNL     1       1.189  17.916  -6.340  1.00  0.00     0.198 C 
HETATM    4  O2  UNL     1       0.898  17.798  -5.014  1.00  0.00    -0.382 OA
HETATM    5  C7  UNL     1      -0.380  18.193  -4.635  1.00  0.00     0.158 C 
HETATM    6  C17 UNL     1      -0.610  19.601  -4.995  1.00  0.00     0.305 C 
ENDROOT
BRANCH   5   7
HETATM    7  C8  UNL     1      -0.585  17.749  -3.234  1.00  0.00     0.050 C 
HETATM    8  C9  UNL     1       0.604  18.255  -2.418  1.00  0.00     0.018 C 
BRANCH   7   9
HETATM    9  C10 UNL     1      -0.897  16.339  -2.968  1.00  0.00     0.062 C 
BRANCH   9  10
HETATM   10  N2  UNL     1      -1.216  15.452  -3.986  1.00  0.00    -0.397 N 
ATOM     11  H2  UNL     1      -1.947  15.727  -4.641  1.00  0.00     0.159 HD
BRANCH  10  12
HETATM   12  C11 UNL     1      -0.608  14.214  -4.179  1.00  0.00     0.080 C 
HETATM   13  C12 UNL     1      -0.445  13.387  -2.916  1.00  0.00     0.025 C 
HETATM   14  C13 UNL     1      -0.461  11.916  -3.237  1.00  0.00     0.002 C 
HETATM   15  C14 UNL     1       0.428  11.520  -4.376  1.00  0.00     0.000 C 
HETATM   16  C15 UNL     1       0.038  12.283  -5.595  1.00  0.00     0.002 C 
HETATM   17  C16 UNL     1      -1.067  13.319  -5.295  1.00  0.00     0.025 C 
ENDBRANCH  10  12
ENDBRANCH   9  10
ENDBRANCH   7   9
ENDBRANCH   5   7
BRANCH   1  18
HETATM   18  C4  UNL     1      -1.435  19.155  -7.175  1.00  0.00     0.279 C 
BRANCH  18  19
HETATM   19  C2  UNL     1      -2.823  19.488  -6.802  1.00  0.00     0.033 C 
HETATM   20  C1  UNL     1      -3.780  18.626  -7.726  1.00  0.00     0.014 C 
BRANCH  19  21
HETATM   21  C3  UNL     1      -3.279  20.891  -7.137  1.00  0.00     0.170 C 
BRANCH  21  22
HETATM   22  O1  UNL     1      -2.915  21.184  -8.484  1.00  0.00    -0.400 OA
ATOM     23  H1  UNL     1      -2.125  20.702  -8.700  1.00  0.00     0.209 HD
ENDBRANCH  21  22
ENDBRANCH  19  21
ENDBRANCH  18  19
ENDBRANCH   1  18
TORSDOF 8
ENDMDL
