MODEL 1
REMARK VINA RESULT: -5.748317725      0.000      0.000
REMARK  7 active torsions:
REMARK  status: ('A' for Active; 'I' for Inactive)
REMARK    1  A    between atoms: C2_2  and  C4_4 
REMARK    2  A    between atoms: C4_4  and  N1_5 
REMARK    3  A    between atoms: C4_4  and  C10_16 
REMARK       I    between atoms: N1_5  and  C5_7 
REMARK    4  A    between atoms: C5_7  and  C6_9 
REMARK    5  A    between atoms: C10_16  and  N4_17 
REMARK    6  A    between atoms: C10_16  and  C14_22 
REMARK    7  A    between atoms: N4_17  and  C11_19 
ROOT
HETATM    1  C4  UNL     1      -5.583  22.545  -8.284  1.00  0.00     0.134 C 
ENDROOT
BRANCH   1   2
HETATM    2  C2  UNL     1      -6.182  23.190  -7.083  1.00  0.00     0.006 C 
HETATM    3  C1  UNL     1      -6.333  24.662  -7.048  1.00  0.00     0.012 C 
HETATM    4  C3  UNL     1      -7.456  22.476  -6.605  1.00  0.00     0.012 C 
ENDBRANCH   1   2
BRANCH   1   5
HETATM    5  N1  UNL     1      -4.713  21.526  -7.600  1.00  0.00    -0.347 N 
HETATM    6  C5  UNL     1      -3.375  21.641  -7.336  1.00  0.00     0.255 C 
HETATM    7  O1  UNL     1      -2.713  22.650  -7.665  1.00  0.00    -0.268 OA
ATOM      8  H1  UNL     1      -5.165  20.661  -7.304  1.00  0.00     0.163 HD
BRANCH   6   9
HETATM    9  C6  UNL     1      -2.691  20.566  -6.647  1.00  0.00     0.065 A 
HETATM   10  C7  UNL     1      -2.745  19.210  -6.946  1.00  0.00     0.125 A 
HETATM   11  N2  UNL     1      -1.949  18.574  -6.074  1.00  0.00    -0.309 N 
HETATM   12  N3  UNL     1      -1.380  19.444  -5.225  1.00  0.00    -0.307 N 
ATOM     13  H2  UNL     1      -1.797  17.566  -6.058  1.00  0.00     0.186 HD
HETATM   14  C8  UNL     1      -0.468  19.098  -4.166  1.00  0.00     0.177 C 
HETATM   15  C9  UNL     1      -1.833  20.654  -5.574  1.00  0.00     0.128 A 
ENDBRANCH   6   9
ENDBRANCH   1   5
BRANCH   1  16
HETATM   16  C10 UNL     1      -6.375  21.840  -9.263  1.00  0.00     0.009 C 
BRANCH  16  17
HETATM   17  N4  UNL     1      -5.647  20.709  -9.892  1.00  0.00    -0.390 N 
ATOM     18  H4  UNL     1      -4.716  20.817 -10.295  1.00  0.00     0.159 HD
BRANCH  17  19
HETATM   19  C11 UNL     1      -6.330  19.477  -9.893  1.00  0.00     0.081 A 
HETATM   20  C12 UNL     1      -5.638  18.287  -9.146  1.00  0.00     0.027 A 
HETATM   21  C13 UNL     1      -6.788  18.981  -8.510  1.00  0.00     0.027 A 
ENDBRANCH  17  19
ENDBRANCH  16  17
BRANCH  16  22
HETATM   22  C14 UNL     1      -7.192  22.458 -10.308  1.00  0.00     0.025 C 
HETATM   23  C15 UNL     1      -6.660  23.886 -10.653  1.00  0.00     0.016 C 
HETATM   24  C16 UNL     1      -8.638  22.736  -9.976  1.00  0.00     0.016 C 
ENDBRANCH  16  22
ENDBRANCH   1  16
TORSDOF 7
ENDMDL
MODEL 2
REMARK VINA RESULT: -5.427203381      1.037      1.176
REMARK  7 active torsions:
REMARK  status: ('A' for Active; 'I' for Inactive)
REMARK    1  A    between atoms: C2_2  and  C4_4 
REMARK    2  A    between atoms: C4_4  and  N1_5 
REMARK    3  A    between atoms: C4_4  and  C10_16 
REMARK       I    between atoms: N1_5  and  C5_7 
REMARK    4  A    between atoms: C5_7  and  C6_9 
REMARK    5  A    between atoms: C10_16  and  N4_17 
REMARK    6  A    between atoms: C10_16  and  C14_22 
REMARK    7  A    between atoms: N4_17  and  C11_19 
ROOT
HETATM    1  C4  UNL     1      -5.468  22.843  -7.906  1.00  0.00     0.134 C 
ENDROOT
BRANCH   1   2
HETATM    2  C2  UNL     1      -5.358  23.808  -6.778  1.00  0.00     0.006 C 
HETATM    3  C1  UNL     1      -4.175  24.693  -6.690  1.00  0.00     0.012 C 
HETATM    4  C3  UNL     1      -6.664  24.581  -6.534  1.00  0.00     0.012 C 
ENDBRANCH   1   2
BRANCH   1   5
HETATM    5  N1  UNL     1      -4.678  21.703  -7.324  1.00  0.00    -0.347 N 
HETATM    6  C5  UNL     1      -3.536  21.154  -7.841  1.00  0.00     0.255 C 
HETATM    7  O1  UNL     1      -3.022  21.561  -8.908  1.00  0.00    -0.268 OA
ATOM      8  H1  UNL     1      -5.028  21.298  -6.457  1.00  0.00     0.163 HD
BRANCH   6   9
HETATM    9  C6  UNL     1      -2.887  20.067  -7.138  1.00  0.00     0.065 A 
HETATM   10  C7  UNL     1      -3.154  18.709  -7.264  1.00  0.00     0.125 A 
HETATM   11  N2  UNL     1      -2.312  18.057  -6.448  1.00  0.00    -0.309 N 
HETATM   12  N3  UNL     1      -1.512  18.917  -5.800  1.00  0.00    -0.307 N 
ATOM     13  H2  UNL     1      -2.285  17.043  -6.336  1.00  0.00     0.186 HD
HETATM   14  C8  UNL     1      -0.491  18.552  -4.854  1.00  0.00     0.177 C 
HETATM   15  C9  UNL     1      -1.864  20.139  -6.220  1.00  0.00     0.128 A 
ENDBRANCH   6   9
ENDBRANCH   1   5
BRANCH   1  16
HETATM   16  C10 UNL     1      -6.732  22.303  -8.346  1.00  0.00     0.009 C 
BRANCH  16  17
HETATM   17  N4  UNL     1      -6.868  20.850  -8.075  1.00  0.00    -0.390 N 
ATOM     18  H4  UNL     1      -6.809  20.463  -7.133  1.00  0.00     0.159 HD
BRANCH  17  19
HETATM   19  C11 UNL     1      -7.083  20.041  -9.208  1.00  0.00     0.081 A 
HETATM   20  C12 UNL     1      -5.816  19.397  -9.865  1.00  0.00     0.027 A 
HETATM   21  C13 UNL     1      -6.717  18.557  -9.034  1.00  0.00     0.027 A 
ENDBRANCH  17  19
ENDBRANCH  16  17
BRANCH  16  22
HETATM   22  C14 UNL     1      -7.368  22.560  -9.639  1.00  0.00     0.025 C 
HETATM   23  C15 UNL     1      -6.501  23.537 -10.496  1.00  0.00     0.016 C 
HETATM   24  C16 UNL     1      -8.704  23.262  -9.621  1.00  0.00     0.016 C 
ENDBRANCH  16  22
ENDBRANCH   1  16
TORSDOF 7
ENDMDL
MODEL 3
REMARK VINA RESULT: -5.340589837      2.896      7.891
REMARK  7 active torsions:
REMARK  status: ('A' for Active; 'I' for Inactive)
REMARK    1  A    between atoms: C2_2  and  C4_4 
REMARK    2  A    between atoms: C4_4  and  N1_5 
REMARK    3  A    between atoms: C4_4  and  C10_16 
REMARK       I    between atoms: N1_5  and  C5_7 
REMARK    4  A    between atoms: C5_7  and  C6_9 
REMARK    5  A    between atoms: C10_16  and  N4_17 
REMARK    6  A    between atoms: C10_16  and  C14_22 
REMARK    7  A    between atoms: N4_17  and  C11_19 
ROOT
HETATM    1  C4  UNL     1      -0.773  16.959  -5.261  1.00  0.00     0.134 C 
ENDROOT
BRANCH   1   2
HETATM    2  C2  UNL     1      -1.396  15.733  -4.692  1.00  0.00     0.006 C 
HETATM    3  C1  UNL     1      -1.183  14.430  -5.364  1.00  0.00     0.012 C 
HETATM    4  C3  UNL     1      -1.205  15.625  -3.171  1.00  0.00     0.012 C 
ENDBRANCH   1   2
BRANCH   1   5
HETATM    5  N1  UNL     1      -2.006  17.626  -5.805  1.00  0.00    -0.347 N 
HETATM    6  C5  UNL     1      -2.097  18.357  -6.958  1.00  0.00     0.255 C 
HETATM    7  O1  UNL     1      -1.110  18.561  -7.700  1.00  0.00    -0.268 OA
ATOM      8  H1  UNL     1      -2.862  17.522  -5.260  1.00  0.00     0.163 HD
BRANCH   6   9
HETATM    9  C6  UNL     1      -3.375  18.915  -7.348  1.00  0.00     0.065 A 
HETATM   10  C7  UNL     1      -3.896  20.152  -6.985  1.00  0.00     0.125 A 
HETATM   11  N2  UNL     1      -5.091  20.275  -7.580  1.00  0.00    -0.309 N 
HETATM   12  N3  UNL     1      -5.375  19.187  -8.311  1.00  0.00    -0.307 N 
ATOM     13  H2  UNL     1      -5.701  21.088  -7.489  1.00  0.00     0.186 HD
HETATM   14  C8  UNL     1      -6.575  18.992  -9.082  1.00  0.00     0.177 C 
HETATM   15  C9  UNL     1      -4.331  18.360  -8.167  1.00  0.00     0.128 A 
ENDBRANCH   6   9
ENDBRANCH   1   5
BRANCH   1  16
HETATM   16  C10 UNL     1      -0.089  17.932  -4.443  1.00  0.00     0.009 C 
BRANCH  16  17
HETATM   17  N4  UNL     1      -0.932  19.110  -4.117  1.00  0.00    -0.390 N 
ATOM     18  H4  UNL     1      -1.916  19.022  -3.864  1.00  0.00     0.159 HD
BRANCH  17  19
HETATM   19  C11 UNL     1      -0.279  20.357  -4.181  1.00  0.00     0.081 A 
HETATM   20  C12 UNL     1      -0.843  21.395  -5.208  1.00  0.00     0.027 A 
HETATM   21  C13 UNL     1      -1.134  21.565  -3.761  1.00  0.00     0.027 A 
ENDBRANCH  17  19
ENDBRANCH  16  17
BRANCH  16  22
HETATM   22  C14 UNL     1       1.272  18.426  -4.659  1.00  0.00     0.025 C 
HETATM   23  C15 UNL     1       1.771  18.060  -6.094  1.00  0.00     0.016 C 
HETATM   24  C16 UNL     1       2.361  17.842  -3.792  1.00  0.00     0.016 C 
ENDBRANCH  16  22
ENDBRANCH   1  16
TORSDOF 7
ENDMDL
MODEL 4
REMARK VINA RESULT: -5.271870327      2.913      8.064
REMARK  7 active torsions:
REMARK  status: ('A' for Active; 'I' for Inactive)
REMARK    1  A    between atoms: C2_2  and  C4_4 
REMARK    2  A    between atoms: C4_4  and  N1_5 
REMARK    3  A    between atoms: C4_4  and  C10_16 
REMARK       I    between atoms: N1_5  and  C5_7 
REMARK    4  A    between atoms: C5_7  and  C6_9 
REMARK    5  A    between atoms: C10_16  and  N4_17 
REMARK    6  A    between atoms: C10_16  and  C14_22 
REMARK    7  A    between atoms: N4_17  and  C11_19 
ROOT
HETATM    1  C4  UNL     1      -0.755  16.970  -5.232  1.00  0.00     0.134 C 
ENDROOT
BRANCH   1   2
HETATM    2  C2  UNL     1      -1.393  15.743  -4.681  1.00  0.00     0.006 C 
HETATM    3  C1  UNL     1      -1.198  14.449  -5.374  1.00  0.00     0.012 C 
HETATM    4  C3  UNL     1      -1.199  15.609  -3.162  1.00  0.00     0.012 C 
ENDBRANCH   1   2
BRANCH   1   5
HETATM    5  N1  UNL     1      -1.979  17.656  -5.772  1.00  0.00    -0.347 N 
HETATM    6  C5  UNL     1      -2.070  18.367  -6.938  1.00  0.00     0.255 C 
HETATM    7  O1  UNL     1      -1.089  18.532  -7.697  1.00  0.00    -0.268 OA
ATOM      8  H1  UNL     1      -2.829  17.584  -5.213  1.00  0.00     0.163 HD
BRANCH   6   9
HETATM    9  C6  UNL     1      -3.339  18.949  -7.320  1.00  0.00     0.065 A 
HETATM   10  C7  UNL     1      -3.834  20.195  -6.955  1.00  0.00     0.125 A 
HETATM   11  N2  UNL     1      -5.030  20.341  -7.543  1.00  0.00    -0.309 N 
HETATM   12  N3  UNL     1      -5.339  19.258  -8.272  1.00  0.00    -0.307 N 
ATOM     13  H2  UNL     1      -5.624  21.164  -7.449  1.00  0.00     0.186 HD
HETATM   14  C8  UNL     1      -6.546  19.085  -9.037  1.00  0.00     0.177 C 
HETATM   15  C9  UNL     1      -4.310  18.412  -8.135  1.00  0.00     0.128 A 
ENDBRANCH   6   9
ENDBRANCH   1   5
BRANCH   1  16
HETATM   16  C10 UNL     1      -0.063  17.926  -4.400  1.00  0.00     0.009 C 
BRANCH  16  17
HETATM   17  N4  UNL     1      -0.898  19.104  -4.056  1.00  0.00    -0.390 N 
ATOM     18  H4  UNL     1      -1.642  19.442  -4.666  1.00  0.00     0.159 HD
BRANCH  17  19
HETATM   19  C11 UNL     1      -0.591  19.724  -2.828  1.00  0.00     0.081 A 
HETATM   20  C12 UNL     1      -1.801  20.117  -1.916  1.00  0.00     0.027 A 
HETATM   21  C13 UNL     1      -0.985  18.923  -1.575  1.00  0.00     0.027 A 
ENDBRANCH  17  19
ENDBRANCH  16  17
BRANCH  16  22
HETATM   22  C14 UNL     1       1.301  18.412  -4.609  1.00  0.00     0.025 C 
HETATM   23  C15 UNL     1       1.778  18.112  -6.066  1.00  0.00     0.016 C 
HETATM   24  C16 UNL     1       2.393  17.773  -3.786  1.00  0.00     0.016 C 
ENDBRANCH  16  22
ENDBRANCH   1  16
TORSDOF 7
ENDMDL
MODEL 5
REMARK VINA RESULT: -5.229452839      1.981      4.043
REMARK  7 active torsions:
REMARK  status: ('A' for Active; 'I' for Inactive)
REMARK    1  A    between atoms: C2_2  and  C4_4 
REMARK    2  A    between atoms: C4_4  and  N1_5 
REMARK    3  A    between atoms: C4_4  and  C10_16 
REMARK       I    between atoms: N1_5  and  C5_7 
REMARK    4  A    between atoms: C5_7  and  C6_9 
REMARK    5  A    between atoms: C10_16  and  N4_17 
REMARK    6  A    between atoms: C10_16  and  C14_22 
REMARK    7  A    between atoms: N4_17  and  C11_19 
ROOT
HETATM    1  C4  UNL     1      -6.118  23.021  -8.486  1.00  0.00     0.134 C 
ENDROOT
BRANCH   1   2
HETATM    2  C2  UNL     1      -6.497  22.724  -9.895  1.00  0.00     0.006 C 
HETATM    3  C1  UNL     1      -7.570  21.742 -10.169  1.00  0.00     0.012 C 
HETATM    4  C3  UNL     1      -6.663  23.997 -10.741  1.00  0.00     0.012 C 
ENDBRANCH   1   2
BRANCH   1   5
HETATM    5  N1  UNL     1      -5.045  21.984  -8.302  1.00  0.00    -0.347 N 
HETATM    6  C5  UNL     1      -5.129  20.846  -7.547  1.00  0.00     0.255 C 
HETATM    7  O1  UNL     1      -6.156  20.552  -6.894  1.00  0.00    -0.268 OA
ATOM      8  H1  UNL     1      -4.164  22.145  -8.790  1.00  0.00     0.163 HD
BRANCH   6   9
HETATM    9  C6  UNL     1      -4.001  19.940  -7.495  1.00  0.00     0.065 A 
HETATM   10  C7  UNL     1      -3.971  18.614  -7.911  1.00  0.00     0.125 A 
HETATM   11  N2  UNL     1      -2.728  18.156  -7.703  1.00  0.00    -0.309 N 
HETATM   12  N3  UNL     1      -1.948  19.112  -7.175  1.00  0.00    -0.307 N 
ATOM     13  H2  UNL     1      -2.417  17.209  -7.917  1.00  0.00     0.186 HD
HETATM   14  C8  UNL     1      -0.559  18.959  -6.832  1.00  0.00     0.177 C 
HETATM   15  C9  UNL     1      -2.725  20.196  -7.048  1.00  0.00     0.128 A 
ENDBRANCH   6   9
ENDBRANCH   1   5
BRANCH   1  16
HETATM   16  C10 UNL     1      -5.560  24.289  -8.083  1.00  0.00     0.009 C 
BRANCH  16  17
HETATM   17  N4  UNL     1      -4.076  24.310  -8.134  1.00  0.00    -0.390 N 
ATOM     18  H4  UNL     1      -3.553  23.953  -8.933  1.00  0.00     0.159 HD
BRANCH  17  19
HETATM   19  C11 UNL     1      -3.441  24.858  -7.002  1.00  0.00     0.081 A 
HETATM   20  C12 UNL     1      -2.482  23.911  -6.205  1.00  0.00     0.027 A 
HETATM   21  C13 UNL     1      -1.908  24.953  -7.093  1.00  0.00     0.027 A 
ENDBRANCH  17  19
ENDBRANCH  16  17
BRANCH  16  22
HETATM   22  C14 UNL     1      -5.960  25.066  -6.909  1.00  0.00     0.025 C 
HETATM   23  C15 UNL     1      -6.783  24.183  -5.917  1.00  0.00     0.016 C 
HETATM   24  C16 UNL     1      -6.893  26.229  -7.140  1.00  0.00     0.016 C 
ENDBRANCH  16  22
ENDBRANCH   1  16
TORSDOF 7
ENDMDL
