MODEL 1
REMARK VINA RESULT: -5.996132490      0.000      0.000
REMARK  9 active torsions:
REMARK  status: ('A' for Active; 'I' for Inactive)
REMARK    1  A    between atoms: O1_2  and  C2_3 
REMARK    2  A    between atoms: C2_3  and  C3_4 
REMARK    3  A    between atoms: C3_4  and  N3_10 
REMARK    4  A    between atoms: N1_5  and  N2_7 
REMARK    5  A    between atoms: N3_10  and  C4_11 
REMARK    6  A    between atoms: C4_11  and  C5_12 
REMARK    7  A    between atoms: C5_12  and  O2_13 
REMARK    8  A    between atoms: O2_13  and  C6_14 
REMARK    9  A    between atoms: C6_14  and  C7_15 
ROOT
HETATM    1  C3  UNL     1      -7.313  21.710 -10.068  1.00  0.00     0.203 C 
HETATM    2  N1  UNL     1      -8.489  21.864 -10.725  1.00  0.00    -0.282 N 
ATOM      3  H1  UNL     1      -8.995  21.022 -11.002  1.00  0.00     0.189 HD
ENDROOT
BRANCH   1   4
HETATM    4  C2  UNL     1      -6.594  22.929  -9.638  1.00  0.00     0.133 C 
HETATM    5  C13 UNL     1      -7.257  23.562  -8.434  1.00  0.00     0.047 C 
HETATM    6  C14 UNL     1      -7.031  22.526  -7.295  1.00  0.00     0.004 C 
HETATM    7  C15 UNL     1      -5.516  22.390  -7.465  1.00  0.00     0.004 C 
HETATM    8  C16 UNL     1      -5.263  22.478  -8.932  1.00  0.00     0.047 C 
BRANCH   4   9
HETATM    9  O1  UNL     1      -6.317  23.882 -10.552  1.00  0.00    -0.376 OA
HETATM   10  C1  UNL     1      -6.345  25.197 -10.093  1.00  0.00     0.203 C 
ENDBRANCH   4   9
ENDBRANCH   1   4
BRANCH   1  11
HETATM   11  N3  UNL     1      -6.847  20.434 -10.158  1.00  0.00    -0.398 NA
BRANCH  11  12
HETATM   12  C4  UNL     1      -6.369  19.123 -10.252  1.00  0.00     0.208 C 
BRANCH  12  13
HETATM   13  C5  UNL     1      -6.404  18.541  -8.900  1.00  0.00     0.166 C 
BRANCH  13  14
HETATM   14  O2  UNL     1      -5.728  18.940  -7.806  1.00  0.00    -0.360 OA
BRANCH  14  15
HETATM   15  C6  UNL     1      -4.333  18.676  -8.134  1.00  0.00     0.179 C 
BRANCH  15  16
HETATM   16  C7  UNL     1      -3.385  19.049  -7.088  1.00  0.00     0.010 C 
HETATM   17  C8  UNL     1      -2.268  18.052  -6.846  1.00  0.00     0.007 C 
HETATM   18  C9  UNL     1      -1.019  18.742  -6.336  1.00  0.00     0.000 C 
HETATM   19  C10 UNL     1      -1.291  19.910  -5.427  1.00  0.00     0.000 C 
HETATM   20  C11 UNL     1      -2.203  20.923  -6.045  1.00  0.00     0.000 C 
HETATM   21  C12 UNL     1      -2.662  20.369  -7.389  1.00  0.00     0.007 C 
ENDBRANCH  15  16
ENDBRANCH  14  15
ENDBRANCH  13  14
ENDBRANCH  12  13
ENDBRANCH  11  12
ENDBRANCH   1  11
BRANCH   2  22
HETATM   22  N2  UNL     1      -9.025  23.041 -11.030  1.00  0.00    -0.343 N 
ATOM     23  H22 UNL     1      -8.378  23.802 -11.236  1.00  0.00     0.176 HD
ATOM     24  H21 UNL     1     -10.029  23.222 -11.068  1.00  0.00     0.176 HD
ENDBRANCH   2  22
TORSDOF 9
ENDMDL
MODEL 2
REMARK VINA RESULT: -5.990263938      0.513      1.149
REMARK  9 active torsions:
REMARK  status: ('A' for Active; 'I' for Inactive)
REMARK    1  A    between atoms: O1_2  and  C2_3 
REMARK    2  A    between atoms: C2_3  and  C3_4 
REMARK    3  A    between atoms: C3_4  and  N3_10 
REMARK    4  A    between atoms: N1_5  and  N2_7 
REMARK    5  A    between atoms: N3_10  and  C4_11 
REMARK    6  A    between atoms: C4_11  and  C5_12 
REMARK    7  A    between atoms: C5_12  and  O2_13 
REMARK    8  A    between atoms: O2_13  and  C6_14 
REMARK    9  A    between atoms: C6_14  and  C7_15 
ROOT
HETATM    1  C3  UNL     1      -7.205  21.687  -9.951  1.00  0.00     0.203 C 
HETATM    2  N1  UNL     1      -8.398  21.753 -10.592  1.00  0.00    -0.282 N 
ATOM      3  H1  UNL     1      -8.887  20.878 -10.782  1.00  0.00     0.189 HD
ENDROOT
BRANCH   1   4
HETATM    4  C2  UNL     1      -6.510  22.957  -9.645  1.00  0.00     0.133 C 
HETATM    5  C13 UNL     1      -7.171  23.681  -8.493  1.00  0.00     0.047 C 
HETATM    6  C14 UNL     1      -6.903  22.760  -7.268  1.00  0.00     0.004 C 
HETATM    7  C15 UNL     1      -5.388  22.644  -7.451  1.00  0.00     0.004 C 
HETATM    8  C16 UNL     1      -5.158  22.603  -8.924  1.00  0.00     0.047 C 
BRANCH   4   9
HETATM    9  O1  UNL     1      -6.270  23.828 -10.647  1.00  0.00    -0.376 OA
HETATM   10  C1  UNL     1      -6.314  25.178 -10.307  1.00  0.00     0.203 C 
ENDBRANCH   4   9
ENDBRANCH   1   4
BRANCH   1  11
HETATM   11  N3  UNL     1      -6.707  20.420  -9.939  1.00  0.00    -0.398 NA
BRANCH  11  12
HETATM   12  C4  UNL     1      -6.195  19.118  -9.928  1.00  0.00     0.208 C 
BRANCH  12  13
HETATM   13  C5  UNL     1      -6.009  18.728  -8.520  1.00  0.00     0.166 C 
BRANCH  13  14
HETATM   14  O2  UNL     1      -5.133  19.228  -7.628  1.00  0.00    -0.360 OA
BRANCH  14  15
HETATM   15  C6  UNL     1      -3.891  18.523  -7.917  1.00  0.00     0.179 C 
BRANCH  15  16
HETATM   16  C7  UNL     1      -2.695  19.161  -7.374  1.00  0.00     0.010 C 
HETATM   17  C8  UNL     1      -2.953  20.319  -6.429  1.00  0.00     0.007 C 
HETATM   18  C9  UNL     1      -1.838  20.457  -5.414  1.00  0.00     0.000 C 
HETATM   19  C10 UNL     1      -0.473  20.125  -5.952  1.00  0.00     0.000 C 
HETATM   20  C11 UNL     1      -0.413  18.765  -6.576  1.00  0.00     0.000 C 
HETATM   21  C12 UNL     1      -1.825  18.191  -6.562  1.00  0.00     0.007 C 
ENDBRANCH  15  16
ENDBRANCH  14  15
ENDBRANCH  13  14
ENDBRANCH  12  13
ENDBRANCH  11  12
ENDBRANCH   1  11
BRANCH   2  22
HETATM   22  N2  UNL     1      -8.971  22.886 -10.987  1.00  0.00    -0.343 N 
ATOM     23  H22 UNL     1      -8.353  23.614 -11.344  1.00  0.00     0.176 HD
ATOM     24  H21 UNL     1      -9.975  23.062 -10.953  1.00  0.00     0.176 HD
ENDBRANCH   2  22
TORSDOF 9
ENDMDL
MODEL 3
REMARK VINA RESULT: -5.803084592      3.653      5.069
REMARK  9 active torsions:
REMARK  status: ('A' for Active; 'I' for Inactive)
REMARK    1  A    between atoms: O1_2  and  C2_3 
REMARK    2  A    between atoms: C2_3  and  C3_4 
REMARK    3  A    between atoms: C3_4  and  N3_10 
REMARK    4  A    between atoms: N1_5  and  N2_7 
REMARK    5  A    between atoms: N3_10  and  C4_11 
REMARK    6  A    between atoms: C4_11  and  C5_12 
REMARK    7  A    between atoms: C5_12  and  O2_13 
REMARK    8  A    between atoms: O2_13  and  C6_14 
REMARK    9  A    between atoms: C6_14  and  C7_15 
ROOT
HETATM    1  C3  UNL     1      -4.827  19.067  -8.386  1.00  0.00     0.203 C 
HETATM    2  N1  UNL     1      -5.433  17.859  -8.495  1.00  0.00    -0.282 N 
ATOM      3  H1  UNL     1      -4.998  17.063  -8.027  1.00  0.00     0.189 HD
ENDROOT
BRANCH   1   4
HETATM    4  C2  UNL     1      -5.473  20.228  -9.036  1.00  0.00     0.133 C 
HETATM    5  C13 UNL     1      -6.613  20.763  -8.199  1.00  0.00     0.047 C 
HETATM    6  C14 UNL     1      -5.912  21.337  -6.934  1.00  0.00     0.004 C 
HETATM    7  C15 UNL     1      -4.900  22.221  -7.668  1.00  0.00     0.004 C 
HETATM    8  C16 UNL     1      -4.507  21.460  -8.889  1.00  0.00     0.047 C 
BRANCH   4   9
HETATM    9  O1  UNL     1      -5.870  20.120 -10.322  1.00  0.00    -0.376 OA
HETATM   10  C1  UNL     1      -7.067  20.753 -10.647  1.00  0.00     0.203 C 
ENDBRANCH   4   9
ENDBRANCH   1   4
BRANCH   1  11
HETATM   11  N3  UNL     1      -3.555  18.954  -7.915  1.00  0.00    -0.398 NA
BRANCH  11  12
HETATM   12  C4  UNL     1      -2.248  18.837  -7.430  1.00  0.00     0.208 C 
BRANCH  12  13
HETATM   13  C5  UNL     1      -2.207  17.661  -6.545  1.00  0.00     0.166 C 
BRANCH  13  14
HETATM   14  O2  UNL     1      -1.159  16.860  -6.274  1.00  0.00    -0.360 OA
BRANCH  14  15
HETATM   15  C6  UNL     1      -1.527  16.202  -5.028  1.00  0.00     0.179 C 
BRANCH  15  16
HETATM   16  C7  UNL     1      -0.762  14.994  -4.734  1.00  0.00     0.010 C 
HETATM   17  C8  UNL     1      -0.538  14.716  -3.259  1.00  0.00     0.007 C 
HETATM   18  C9  UNL     1      -0.407  13.229  -2.997  1.00  0.00     0.000 C 
HETATM   19  C10 UNL     1       0.293  12.472  -4.092  1.00  0.00     0.000 C 
HETATM   20  C11 UNL     1      -0.333  12.687  -5.435  1.00  0.00     0.000 C 
HETATM   21  C12 UNL     1      -1.439  13.723  -5.265  1.00  0.00     0.007 C 
ENDBRANCH  15  16
ENDBRANCH  14  15
ENDBRANCH  13  14
ENDBRANCH  12  13
ENDBRANCH  11  12
ENDBRANCH   1  11
BRANCH   2  22
HETATM   22  N2  UNL     1      -6.557  17.646  -9.172  1.00  0.00    -0.343 N 
ATOM     23  H22 UNL     1      -6.568  17.937 -10.149  1.00  0.00     0.176 HD
ATOM     24  H21 UNL     1      -7.392  17.215  -8.775  1.00  0.00     0.176 HD
ENDBRANCH   2  22
TORSDOF 9
ENDMDL
MODEL 4
REMARK VINA RESULT: -5.800374116      2.710      4.187
REMARK  9 active torsions:
REMARK  status: ('A' for Active; 'I' for Inactive)
REMARK    1  A    between atoms: O1_2  and  C2_3 
REMARK    2  A    between atoms: C2_3  and  C3_4 
REMARK    3  A    between atoms: C3_4  and  N3_10 
REMARK    4  A    between atoms: N1_5  and  N2_7 
REMARK    5  A    between atoms: N3_10  and  C4_11 
REMARK    6  A    between atoms: C4_11  and  C5_12 
REMARK    7  A    between atoms: C5_12  and  O2_13 
REMARK    8  A    between atoms: O2_13  and  C6_14 
REMARK    9  A    between atoms: C6_14  and  C7_15 
ROOT
HETATM    1  C3  UNL     1      -4.869  21.188  -8.769  1.00  0.00     0.203 C 
HETATM    2  N1  UNL     1      -4.561  22.303  -9.476  1.00  0.00    -0.282 N 
ATOM      3  H1  UNL     1      -3.574  22.521  -9.616  1.00  0.00     0.189 HD
ENDROOT
BRANCH   1   4
HETATM    4  C2  UNL     1      -6.299  20.852  -8.591  1.00  0.00     0.133 C 
HETATM    5  C13 UNL     1      -6.942  20.472  -9.907  1.00  0.00     0.047 C 
HETATM    6  C14 UNL     1      -6.249  19.133 -10.289  1.00  0.00     0.004 C 
HETATM    7  C15 UNL     1      -6.508  18.405  -8.968  1.00  0.00     0.004 C 
HETATM    8  C16 UNL     1      -6.379  19.440  -7.902  1.00  0.00     0.047 C 
BRANCH   4   9
HETATM    9  O1  UNL     1      -7.097  21.719  -7.933  1.00  0.00    -0.376 OA
HETATM   10  C1  UNL     1      -8.307  22.027  -8.551  1.00  0.00     0.203 C 
ENDBRANCH   4   9
ENDBRANCH   1   4
BRANCH   1  11
HETATM   11  N3  UNL     1      -3.791  20.703  -8.094  1.00  0.00    -0.398 NA
BRANCH  11  12
HETATM   12  C4  UNL     1      -2.683  20.205  -7.401  1.00  0.00     0.208 C 
BRANCH  12  13
HETATM   13  C5  UNL     1      -2.802  18.738  -7.370  1.00  0.00     0.166 C 
BRANCH  13  14
HETATM   14  O2  UNL     1      -1.817  17.826  -7.259  1.00  0.00    -0.360 OA
BRANCH  14  15
HETATM   15  C6  UNL     1      -1.179  18.146  -5.989  1.00  0.00     0.179 C 
BRANCH  15  16
HETATM   16  C7  UNL     1      -0.699  16.984  -5.246  1.00  0.00     0.010 C 
HETATM   17  C8  UNL     1      -0.348  17.248  -3.794  1.00  0.00     0.007 C 
HETATM   18  C9  UNL     1      -0.548  16.007  -2.948  1.00  0.00     0.000 C 
HETATM   19  C10 UNL     1      -0.212  14.722  -3.654  1.00  0.00     0.000 C 
HETATM   20  C11 UNL     1      -0.946  14.566  -4.949  1.00  0.00     0.000 C 
HETATM   21  C12 UNL     1      -1.731  15.850  -5.190  1.00  0.00     0.007 C 
ENDBRANCH  15  16
ENDBRANCH  14  15
ENDBRANCH  13  14
ENDBRANCH  12  13
ENDBRANCH  11  12
ENDBRANCH   1  11
BRANCH   2  22
HETATM   22  N2  UNL     1      -5.462  23.129  -9.998  1.00  0.00    -0.343 N 
ATOM     23  H22 UNL     1      -5.467  23.223 -11.013  1.00  0.00     0.176 HD
ATOM     24  H21 UNL     1      -6.137  23.662  -9.449  1.00  0.00     0.176 HD
ENDBRANCH   2  22
TORSDOF 9
ENDMDL
MODEL 5
REMARK VINA RESULT: -5.721835031      2.555      3.962
REMARK  9 active torsions:
REMARK  status: ('A' for Active; 'I' for Inactive)
REMARK    1  A    between atoms: O1_2  and  C2_3 
REMARK    2  A    between atoms: C2_3  and  C3_4 
REMARK    3  A    between atoms: C3_4  and  N3_10 
REMARK    4  A    between atoms: N1_5  and  N2_7 
REMARK    5  A    between atoms: N3_10  and  C4_11 
REMARK    6  A    between atoms: C4_11  and  C5_12 
REMARK    7  A    between atoms: C5_12  and  O2_13 
REMARK    8  A    between atoms: O2_13  and  C6_14 
REMARK    9  A    between atoms: C6_14  and  C7_15 
ROOT
HETATM    1  C3  UNL     1      -4.971  21.268  -8.847  1.00  0.00     0.203 C 
HETATM    2  N1  UNL     1      -4.668  22.398  -9.532  1.00  0.00    -0.282 N 
ATOM      3  H1  UNL     1      -3.682  22.637  -9.644  1.00  0.00     0.189 HD
ENDROOT
BRANCH   1   4
HETATM    4  C2  UNL     1      -6.398  20.902  -8.710  1.00  0.00     0.133 C 
HETATM    5  C13 UNL     1      -6.977  20.441 -10.030  1.00  0.00     0.047 C 
HETATM    6  C14 UNL     1      -6.234  19.104 -10.318  1.00  0.00     0.004 C 
HETATM    7  C15 UNL     1      -6.529  18.435  -8.973  1.00  0.00     0.004 C 
HETATM    8  C16 UNL     1      -6.470  19.523  -7.956  1.00  0.00     0.047 C 
BRANCH   4   9
HETATM    9  O1  UNL     1      -7.245  21.777  -8.128  1.00  0.00    -0.376 OA
HETATM   10  C1  UNL     1      -8.479  21.943  -8.753  1.00  0.00     0.203 C 
ENDBRANCH   4   9
ENDBRANCH   1   4
BRANCH   1  11
HETATM   11  N3  UNL     1      -3.901  20.795  -8.151  1.00  0.00    -0.398 NA
BRANCH  11  12
HETATM   12  C4  UNL     1      -2.801  20.310  -7.436  1.00  0.00     0.208 C 
BRANCH  12  13
HETATM   13  C5  UNL     1      -2.910  18.843  -7.396  1.00  0.00     0.166 C 
BRANCH  13  14
HETATM   14  O2  UNL     1      -1.915  17.936  -7.354  1.00  0.00    -0.360 OA
BRANCH  14  15
HETATM   15  C6  UNL     1      -1.017  18.442  -6.325  1.00  0.00     0.179 C 
BRANCH  15  16
HETATM   16  C7  UNL     1      -0.865  17.561  -5.170  1.00  0.00     0.010 C 
HETATM   17  C8  UNL     1      -1.393  16.151  -5.361  1.00  0.00     0.007 C 
HETATM   18  C9  UNL     1      -0.627  15.160  -4.509  1.00  0.00     0.000 C 
HETATM   19  C10 UNL     1      -0.195  15.702  -3.174  1.00  0.00     0.000 C 
HETATM   20  C11 UNL     1       0.593  16.970  -3.293  1.00  0.00     0.000 C 
HETATM   21  C12 UNL     1       0.603  17.367  -4.765  1.00  0.00     0.007 C 
ENDBRANCH  15  16
ENDBRANCH  14  15
ENDBRANCH  13  14
ENDBRANCH  12  13
ENDBRANCH  11  12
ENDBRANCH   1  11
BRANCH   2  22
HETATM   22  N2  UNL     1      -5.572  23.212 -10.066  1.00  0.00    -0.343 N 
ATOM     23  H22 UNL     1      -6.295  23.570  -9.442  1.00  0.00     0.176 HD
ATOM     24  H21 UNL     1      -5.581  23.494 -11.046  1.00  0.00     0.176 HD
ENDBRANCH   2  22
TORSDOF 9
ENDMDL
