MODEL 1
REMARK VINA RESULT: -5.617443172      0.000      0.000
REMARK  5 active torsions:
REMARK  status: ('A' for Active; 'I' for Inactive)
REMARK    1  A    between atoms: S1_2  and  C2_3 
REMARK    2  A    between atoms: C3_4  and  C4_5 
REMARK    3  A    between atoms: C4_5  and  N1_6 
REMARK    4  A    between atoms: C4_5  and  C13_16 
REMARK       I    between atoms: C13_16  and  N2_18 
REMARK    5  A    between atoms: N2_18  and  C14_20 
ROOT
HETATM    1  C4  UNL     1      -1.898  19.148  -6.277  1.00  0.00     0.198 C 
ENDROOT
BRANCH   1   2
HETATM    2  C3  UNL     1      -1.277  20.443  -5.924  1.00  0.00     0.014 C 
HETATM    3  C2  UNL     1      -0.504  20.685  -4.725  1.00  0.00     0.043 C 
BRANCH   3   4
HETATM    4  S1  UNL     1      -1.384  20.408  -3.171  1.00  0.00    -0.146 SA
HETATM    5  C1  UNL     1      -0.987  18.903  -2.317  1.00  0.00     0.095 C 
ENDBRANCH   3   4
ENDBRANCH   1   2
BRANCH   1   6
HETATM    6  N1  UNL     1      -2.427  19.246  -7.574  1.00  0.00    -0.380 N 
HETATM    7  C5  UNL     1      -3.626  19.603  -8.068  1.00  0.00    -0.017 C 
HETATM    8  C6  UNL     1      -4.241  20.949  -7.810  1.00  0.00     0.053 C 
HETATM    9  C12 UNL     1      -4.676  18.546  -8.153  1.00  0.00     0.053 C 
HETATM   10  C7  UNL     1      -5.154  21.269  -9.012  1.00  0.00     0.014 C 
HETATM   11  C8  UNL     1      -6.239  20.213  -9.146  1.00  0.00    -0.047 C 
HETATM   12  C9  UNL     1      -7.618  20.819  -8.914  1.00  0.00     0.015 C 
HETATM   13  C10 UNL     1      -6.252  19.613 -10.536  1.00  0.00     0.015 C 
HETATM   14  C11 UNL     1      -6.081  19.117  -8.084  1.00  0.00     0.014 C 
ATOM     15  H1  UNL     1      -1.757  18.990  -8.299  1.00  0.00     0.160 HD
ENDBRANCH   1   6
BRANCH   1  16
HETATM   16  C13 UNL     1      -1.228  17.902  -6.002  1.00  0.00     0.250 C 
HETATM   17  O1  UNL     1      -0.032  17.715  -6.412  1.00  0.00    -0.270 OA
HETATM   18  N2  UNL     1      -1.720  16.784  -5.298  1.00  0.00    -0.303 N 
ATOM     19  H2  UNL     1      -2.658  16.820  -4.900  1.00  0.00     0.171 HD
BRANCH  18  20
HETATM   20  C14 UNL     1      -0.931  15.594  -5.129  1.00  0.00     0.355 C 
HETATM   21  O2  UNL     1      -1.411  14.450  -5.150  1.00  0.00    -0.283 OA
ENDBRANCH  18  20
ENDBRANCH   1  16
TORSDOF 5
ENDMDL
MODEL 2
REMARK VINA RESULT: -5.577305466      1.715      2.180
REMARK  5 active torsions:
REMARK  status: ('A' for Active; 'I' for Inactive)
REMARK    1  A    between atoms: S1_2  and  C2_3 
REMARK    2  A    between atoms: C3_4  and  C4_5 
REMARK    3  A    between atoms: C4_5  and  N1_6 
REMARK    4  A    between atoms: C4_5  and  C13_16 
REMARK       I    between atoms: C13_16  and  N2_18 
REMARK    5  A    between atoms: N2_18  and  C14_20 
ROOT
HETATM    1  C4  UNL     1      -1.547  19.670  -6.573  1.00  0.00     0.198 C 
ENDROOT
BRANCH   1   2
HETATM    2  C3  UNL     1      -1.515  20.997  -5.922  1.00  0.00     0.014 C 
HETATM    3  C2  UNL     1      -0.821  21.291  -4.686  1.00  0.00     0.043 C 
BRANCH   3   4
HETATM    4  S1  UNL     1      -1.361  20.332  -3.252  1.00  0.00    -0.146 SA
HETATM    5  C1  UNL     1      -0.417  18.870  -2.902  1.00  0.00     0.095 C 
ENDBRANCH   3   4
ENDBRANCH   1   2
BRANCH   1   6
HETATM    6  N1  UNL     1      -2.357  19.753  -7.716  1.00  0.00    -0.380 N 
HETATM    7  C5  UNL     1      -3.569  20.282  -7.964  1.00  0.00    -0.017 C 
HETATM    8  C6  UNL     1      -3.881  21.735  -7.743  1.00  0.00     0.053 C 
HETATM    9  C12 UNL     1      -4.760  19.432  -7.673  1.00  0.00     0.053 C 
HETATM   10  C7  UNL     1      -5.000  22.114  -8.736  1.00  0.00     0.014 C 
HETATM   11  C8  UNL     1      -6.238  21.267  -8.485  1.00  0.00    -0.047 C 
HETATM   12  C9  UNL     1      -7.403  22.133  -8.022  1.00  0.00     0.015 C 
HETATM   13  C10 UNL     1      -6.687  20.564  -9.748  1.00  0.00     0.015 C 
HETATM   14  C11 UNL     1      -5.997  20.254  -7.357  1.00  0.00     0.014 C 
ATOM     15  H1  UNL     1      -1.936  19.319  -8.537  1.00  0.00     0.160 HD
ENDBRANCH   1   6
BRANCH   1  16
HETATM   16  C13 UNL     1      -0.342  18.900  -6.754  1.00  0.00     0.250 C 
HETATM   17  O1  UNL     1      -0.250  17.728  -6.253  1.00  0.00    -0.270 OA
HETATM   18  N2  UNL     1       0.828  19.263  -7.451  1.00  0.00    -0.303 N 
ATOM     19  H2  UNL     1       0.869  20.170  -7.916  1.00  0.00     0.171 HD
BRANCH  18  20
HETATM   20  C14 UNL     1       1.966  18.386  -7.520  1.00  0.00     0.355 C 
HETATM   21  O2  UNL     1       2.261  17.733  -8.532  1.00  0.00    -0.283 OA
ENDBRANCH  18  20
ENDBRANCH   1  16
TORSDOF 5
ENDMDL
MODEL 3
REMARK VINA RESULT: -5.576355245      3.548      5.172
REMARK  5 active torsions:
REMARK  status: ('A' for Active; 'I' for Inactive)
REMARK    1  A    between atoms: S1_2  and  C2_3 
REMARK    2  A    between atoms: C3_4  and  C4_5 
REMARK    3  A    between atoms: C4_5  and  N1_6 
REMARK    4  A    between atoms: C4_5  and  C13_16 
REMARK       I    between atoms: C13_16  and  N2_18 
REMARK    5  A    between atoms: N2_18  and  C14_20 
ROOT
HETATM    1  C4  UNL     1      -3.281  19.694  -7.230  1.00  0.00     0.198 C 
ENDROOT
BRANCH   1   2
HETATM    2  C3  UNL     1      -2.264  18.625  -7.333  1.00  0.00     0.014 C 
HETATM    3  C2  UNL     1      -1.615  17.996  -6.204  1.00  0.00     0.043 C 
BRANCH   3   4
HETATM    4  S1  UNL     1      -0.683  19.112  -5.129  1.00  0.00    -0.146 SA
HETATM    5  C1  UNL     1       0.606  20.043  -5.918  1.00  0.00     0.095 C 
ENDBRANCH   3   4
ENDBRANCH   1   2
BRANCH   1   6
HETATM    6  N1  UNL     1      -2.709  20.897  -7.673  1.00  0.00    -0.380 N 
HETATM    7  C5  UNL     1      -2.708  22.158  -7.204  1.00  0.00    -0.017 C 
HETATM    8  C6  UNL     1      -2.190  22.516  -5.840  1.00  0.00     0.053 C 
HETATM    9  C12 UNL     1      -3.857  23.032  -7.583  1.00  0.00     0.053 C 
HETATM   10  C7  UNL     1      -1.686  23.973  -5.915  1.00  0.00     0.014 C 
HETATM   11  C8  UNL     1      -2.822  24.905  -6.306  1.00  0.00    -0.047 C 
HETATM   12  C9  UNL     1      -3.140  25.877  -5.177  1.00  0.00     0.015 C 
HETATM   13  C10 UNL     1      -2.456  25.739  -7.515  1.00  0.00     0.015 C 
HETATM   14  C11 UNL     1      -4.118  24.123  -6.560  1.00  0.00     0.014 C 
ATOM     15  H1  UNL     1      -2.180  20.793  -8.539  1.00  0.00     0.160 HD
ENDBRANCH   1   6
BRANCH   1  16
HETATM   16  C13 UNL     1      -4.635  19.480  -7.677  1.00  0.00     0.250 C 
HETATM   17  O1  UNL     1      -5.605  20.052  -7.073  1.00  0.00    -0.270 OA
HETATM   18  N2  UNL     1      -5.083  18.687  -8.752  1.00  0.00    -0.303 N 
ATOM     19  H2  UNL     1      -4.398  18.196  -9.327  1.00  0.00     0.171 HD
BRANCH  18  20
HETATM   20  C14 UNL     1      -6.482  18.554  -9.058  1.00  0.00     0.355 C 
HETATM   21  O2  UNL     1      -6.916  17.802  -9.944  1.00  0.00    -0.283 OA
ENDBRANCH  18  20
ENDBRANCH   1  16
TORSDOF 5
ENDMDL
MODEL 4
REMARK VINA RESULT: -5.575161166      3.701      6.498
REMARK  5 active torsions:
REMARK  status: ('A' for Active; 'I' for Inactive)
REMARK    1  A    between atoms: S1_2  and  C2_3 
REMARK    2  A    between atoms: C3_4  and  C4_5 
REMARK    3  A    between atoms: C4_5  and  N1_6 
REMARK    4  A    between atoms: C4_5  and  C13_16 
REMARK       I    between atoms: C13_16  and  N2_18 
REMARK    5  A    between atoms: N2_18  and  C14_20 
ROOT
HETATM    1  C4  UNL     1      -4.798  21.733  -8.299  1.00  0.00     0.198 C 
ENDROOT
BRANCH   1   2
HETATM    2  C3  UNL     1      -5.256  22.877  -7.482  1.00  0.00     0.014 C 
HETATM    3  C2  UNL     1      -6.632  23.313  -7.377  1.00  0.00     0.043 C 
BRANCH   3   4
HETATM    4  S1  UNL     1      -7.408  23.803  -8.935  1.00  0.00    -0.146 SA
HETATM    5  C1  UNL     1      -8.269  22.517  -9.805  1.00  0.00     0.095 C 
ENDBRANCH   3   4
ENDBRANCH   1   2
BRANCH   1   6
HETATM    6  N1  UNL     1      -3.400  21.642  -8.193  1.00  0.00    -0.380 N 
HETATM    7  C5  UNL     1      -2.568  20.942  -7.403  1.00  0.00    -0.017 C 
HETATM    8  C6  UNL     1      -2.581  19.441  -7.337  1.00  0.00     0.053 C 
HETATM    9  C12 UNL     1      -2.227  21.529  -6.074  1.00  0.00     0.053 C 
HETATM   10  C7  UNL     1      -1.154  18.991  -6.960  1.00  0.00     0.014 C 
HETATM   11  C8  UNL     1      -0.757  19.571  -5.612  1.00  0.00    -0.047 C 
HETATM   12  C9  UNL     1      -0.556  18.465  -4.583  1.00  0.00     0.015 C 
HETATM   13  C10 UNL     1       0.551  20.327  -5.705  1.00  0.00     0.015 C 
HETATM   14  C11 UNL     1      -1.864  20.471  -5.048  1.00  0.00     0.014 C 
ATOM     15  H1  UNL     1      -2.910  22.238  -8.861  1.00  0.00     0.160 HD
ENDBRANCH   1   6
BRANCH   1  16
HETATM   16  C13 UNL     1      -5.480  20.464  -8.253  1.00  0.00     0.250 C 
HETATM   17  O1  UNL     1      -6.001  20.058  -7.159  1.00  0.00    -0.270 OA
HETATM   18  N2  UNL     1      -5.678  19.542  -9.300  1.00  0.00    -0.303 N 
ATOM     19  H2  UNL     1      -5.327  19.765 -10.232  1.00  0.00     0.171 HD
BRANCH  18  20
HETATM   20  C14 UNL     1      -6.364  18.296  -9.087  1.00  0.00     0.355 C 
HETATM   21  O2  UNL     1      -6.955  17.682  -9.988  1.00  0.00    -0.283 OA
ENDBRANCH  18  20
ENDBRANCH   1  16
TORSDOF 5
ENDMDL
MODEL 5
REMARK VINA RESULT: -5.518365321      0.970      1.019
REMARK  5 active torsions:
REMARK  status: ('A' for Active; 'I' for Inactive)
REMARK    1  A    between atoms: S1_2  and  C2_3 
REMARK    2  A    between atoms: C3_4  and  C4_5 
REMARK    3  A    between atoms: C4_5  and  N1_6 
REMARK    4  A    between atoms: C4_5  and  C13_16 
REMARK       I    between atoms: C13_16  and  N2_18 
REMARK    5  A    between atoms: N2_18  and  C14_20 
ROOT
HETATM    1  C4  UNL     1      -1.459  19.541  -6.256  1.00  0.00     0.198 C 
ENDROOT
BRANCH   1   2
HETATM    2  C3  UNL     1      -0.583  20.710  -6.022  1.00  0.00     0.014 C 
HETATM    3  C2  UNL     1       0.044  21.026  -4.758  1.00  0.00     0.043 C 
BRANCH   3   4
HETATM    4  S1  UNL     1      -1.093  21.298  -3.378  1.00  0.00    -0.146 SA
HETATM    5  C1  UNL     1      -1.515  19.856  -2.433  1.00  0.00     0.095 C 
ENDBRANCH   3   4
ENDBRANCH   1   2
BRANCH   1   6
HETATM    6  N1  UNL     1      -2.174  19.752  -7.447  1.00  0.00    -0.380 N 
HETATM    7  C5  UNL     1      -3.373  20.289  -7.733  1.00  0.00    -0.017 C 
HETATM    8  C6  UNL     1      -3.738  21.700  -7.367  1.00  0.00     0.053 C 
HETATM    9  C12 UNL     1      -4.564  19.393  -7.649  1.00  0.00     0.053 C 
HETATM   10  C7  UNL     1      -4.779  22.181  -8.400  1.00  0.00     0.014 C 
HETATM   11  C8  UNL     1      -6.013  21.293  -8.359  1.00  0.00    -0.047 C 
HETATM   12  C9  UNL     1      -7.233  22.079  -7.897  1.00  0.00     0.015 C 
HETATM   13  C10 UNL     1      -6.338  20.742  -9.730  1.00  0.00     0.015 C 
HETATM   14  C11 UNL     1      -5.842  20.154  -7.344  1.00  0.00     0.014 C 
ATOM     15  H1  UNL     1      -1.675  19.426  -8.275  1.00  0.00     0.160 HD
ENDBRANCH   1   6
BRANCH   1  16
HETATM   16  C13 UNL     1      -0.968  18.197  -6.088  1.00  0.00     0.250 C 
HETATM   17  O1  UNL     1       0.142  17.851  -6.617  1.00  0.00    -0.270 OA
HETATM   18  N2  UNL     1      -1.562  17.134  -5.378  1.00  0.00    -0.303 N 
ATOM     19  H2  UNL     1      -2.444  17.293  -4.891  1.00  0.00     0.171 HD
BRANCH  18  20
HETATM   20  C14 UNL     1      -0.955  15.831  -5.325  1.00  0.00     0.355 C 
HETATM   21  O2  UNL     1      -0.124  15.503  -4.465  1.00  0.00    -0.283 OA
ENDBRANCH  18  20
ENDBRANCH   1  16
TORSDOF 5
ENDMDL
