MODEL 1
REMARK VINA RESULT: -8.302454665      0.000      0.000
REMARK  8 active torsions:
REMARK  status: ('A' for Active; 'I' for Inactive)
REMARK    1  A    between atoms: O1_2  and  C2_3 
REMARK    2  A    between atoms: C2_3  and  C3_5 
REMARK    3  A    between atoms: C8_11  and  S1_12 
REMARK    4  A    between atoms: S1_12  and  N1_15 
REMARK    5  A    between atoms: N1_15  and  C9_17 
REMARK    6  A    between atoms: C9_17  and  C10_18 
REMARK    7  A    between atoms: C9_17  and  C14_22 
REMARK    8  A    between atoms: C10_18  and  C11_19 
REMARK       I    between atoms: C14_22  and  N2_24 
ROOT
HETATM    1  S1  UNL     1       0.216  19.074  -5.176  1.00  0.00     0.261 S 
HETATM    2  O3  UNL     1       0.928  18.268  -6.242  1.00  0.00    -0.200 OA
HETATM    3  O4  UNL     1       1.346  19.838  -4.479  1.00  0.00    -0.200 OA
ENDROOT
BRANCH   1   4
HETATM    4  C8  UNL     1      -0.817  20.275  -5.887  1.00  0.00     0.108 A 
HETATM    5  C7  UNL     1      -1.948  19.907  -6.614  1.00  0.00     0.071 A 
HETATM    6  C6  UNL     1      -2.790  20.831  -7.144  1.00  0.00     0.028 A 
HETATM    7 CL1  UNL     1      -2.241  18.209  -6.889  1.00  0.00    -0.082 Cl
HETATM    8  C4  UNL     1      -3.912  20.443  -7.864  1.00  0.00    -0.025 A 
HETATM    9  C22 UNL     1      -2.519  22.181  -6.961  1.00  0.00     0.092 A 
HETATM   10  C3  UNL     1      -4.692  21.509  -8.353  1.00  0.00     0.121 A 
HETATM   11  C5  UNL     1      -4.273  19.055  -8.102  1.00  0.00     0.050 C 
HETATM   12  C23 UNL     1      -4.345  22.817  -8.122  1.00  0.00     0.305 A 
HETATM   13  O6  UNL     1      -3.275  23.118  -7.437  1.00  0.00    -0.274 OA
HETATM   14  O7  UNL     1      -5.033  23.787  -8.554  1.00  0.00    -0.259 OA
HETATM   15  C21 UNL     1      -1.391  22.556  -6.239  1.00  0.00     0.046 A 
HETATM   16  C19 UNL     1      -0.543  21.615  -5.704  1.00  0.00    -0.034 A 
HETATM   17  C20 UNL     1       0.657  22.072  -4.944  1.00  0.00     0.050 C 
BRANCH  10  18
HETATM   18  C2  UNL     1      -5.897  21.202  -9.123  1.00  0.00     0.299 C 
HETATM   19  O2  UNL     1      -5.796  20.746 -10.293  1.00  0.00    -0.259 OA
BRANCH  18  20
HETATM   20  O1  UNL     1      -7.180  21.390  -8.619  1.00  0.00    -0.322 OA
HETATM   21  C1  UNL     1      -8.026  22.427  -9.080  1.00  0.00     0.213 C 
ENDBRANCH  18  20
ENDBRANCH  10  18
ENDBRANCH   1   4
BRANCH   1  22
HETATM   22  N1  UNL     1      -0.556  18.152  -4.035  1.00  0.00    -0.301 N 
ATOM     23  H1  UNL     1      -1.456  18.456  -3.664  1.00  0.00     0.173 HD
BRANCH  22  24
HETATM   24  C9  UNL     1       0.038  16.919  -3.559  1.00  0.00     0.185 C 
BRANCH  24  25
HETATM   25  C10 UNL     1      -0.007  16.919  -2.051  1.00  0.00     0.039 C 
BRANCH  25  26
HETATM   26  C11 UNL     1      -1.000  16.144  -1.326  1.00  0.00    -0.020 C 
HETATM   27  C12 UNL     1      -1.862  16.809  -0.317  1.00  0.00     0.009 C 
HETATM   28  C13 UNL     1      -0.248  15.031  -0.555  1.00  0.00     0.009 C 
ENDBRANCH  25  26
ENDBRANCH  24  25
BRANCH  24  29
HETATM   29  C14 UNL     1      -0.654  15.807  -4.216  1.00  0.00     0.243 C 
HETATM   30  O5  UNL     1      -1.866  15.899  -4.608  1.00  0.00    -0.271 OA
HETATM   31  N2  UNL     1       0.019  14.578  -4.445  1.00  0.00    -0.347 N 
HETATM   32  C15 UNL     1       1.401  14.321  -4.116  1.00  0.00     0.153 C 
HETATM   33  C18 UNL     1      -0.693  13.459  -5.070  1.00  0.00     0.153 C 
HETATM   34  C16 UNL     1       1.654  12.822  -4.283  1.00  0.00     0.252 C 
HETATM   35  N3  UNL     1       0.664  12.045  -3.598  1.00  0.00    -0.072 N 
HETATM   36  C17 UNL     1      -0.654  12.291  -4.135  1.00  0.00     0.252 C 
ATOM     37  H32 UNL     1       0.893  11.051  -3.608  1.00  0.00     0.277 HD
ATOM     38  H31 UNL     1       0.694  12.201  -2.591  1.00  0.00     0.277 HD
ENDBRANCH  24  29
ENDBRANCH  22  24
ENDBRANCH   1  22
TORSDOF 8
ENDMDL
MODEL 2
REMARK VINA RESULT: -8.170099320      0.894      1.123
REMARK  8 active torsions:
REMARK  status: ('A' for Active; 'I' for Inactive)
REMARK    1  A    between atoms: O1_2  and  C2_3 
REMARK    2  A    between atoms: C2_3  and  C3_5 
REMARK    3  A    between atoms: C8_11  and  S1_12 
REMARK    4  A    between atoms: S1_12  and  N1_15 
REMARK    5  A    between atoms: N1_15  and  C9_17 
REMARK    6  A    between atoms: C9_17  and  C10_18 
REMARK    7  A    between atoms: C9_17  and  C14_22 
REMARK    8  A    between atoms: C10_18  and  C11_19 
REMARK       I    between atoms: C14_22  and  N2_24 
ROOT
HETATM    1  S1  UNL     1       0.407  19.030  -5.391  1.00  0.00     0.261 S 
HETATM    2  O3  UNL     1       0.836  18.253  -6.619  1.00  0.00    -0.200 OA
HETATM    3  O4  UNL     1       1.730  19.475  -4.760  1.00  0.00    -0.200 OA
ENDROOT
BRANCH   1   4
HETATM    4  C8  UNL     1      -0.434  20.483  -5.835  1.00  0.00     0.108 A 
HETATM    5  C7  UNL     1      -1.697  20.428  -6.421  1.00  0.00     0.071 A 
HETATM    6  C6  UNL     1      -2.388  21.554  -6.738  1.00  0.00     0.028 A 
HETATM    7 CL1  UNL     1      -2.368  18.864  -6.802  1.00  0.00    -0.082 Cl
HETATM    8  C4  UNL     1      -3.646  21.478  -7.319  1.00  0.00    -0.025 A 
HETATM    9  C22 UNL     1      -1.822  22.794  -6.475  1.00  0.00     0.092 A 
HETATM   10  C3  UNL     1      -4.243  22.724  -7.593  1.00  0.00     0.121 A 
HETATM   11  C5  UNL     1      -4.314  20.223  -7.627  1.00  0.00     0.050 C 
HETATM   12  C23 UNL     1      -3.606  23.904  -7.297  1.00  0.00     0.305 A 
HETATM   13  O6  UNL     1      -2.420  23.910  -6.750  1.00  0.00    -0.274 OA
HETATM   14  O7  UNL     1      -4.125  25.032  -7.536  1.00  0.00    -0.259 OA
HETATM   15  C21 UNL     1      -0.561  22.857  -5.893  1.00  0.00     0.046 A 
HETATM   16  C19 UNL     1       0.133  21.714  -5.573  1.00  0.00    -0.034 A 
HETATM   17  C20 UNL     1       1.486  21.837  -4.957  1.00  0.00     0.050 C 
BRANCH  10  18
HETATM   18  C2  UNL     1      -5.570  22.748  -8.205  1.00  0.00     0.299 C 
HETATM   19  O2  UNL     1      -6.597  22.819  -7.477  1.00  0.00    -0.259 OA
BRANCH  18  20
HETATM   20  O1  UNL     1      -5.765  22.697  -9.581  1.00  0.00    -0.322 OA
HETATM   21  C1  UNL     1      -6.597  21.726 -10.189  1.00  0.00     0.213 C 
ENDBRANCH  18  20
ENDBRANCH  10  18
ENDBRANCH   1   4
BRANCH   1  22
HETATM   22  N1  UNL     1      -0.414  18.125  -4.272  1.00  0.00    -0.301 N 
ATOM     23  H1  UNL     1      -1.323  18.440  -3.935  1.00  0.00     0.173 HD
BRANCH  22  24
HETATM   24  C9  UNL     1       0.149  16.888  -3.767  1.00  0.00     0.185 C 
BRANCH  24  25
HETATM   25  C10 UNL     1       0.064  16.905  -2.261  1.00  0.00     0.039 C 
BRANCH  25  26
HETATM   26  C11 UNL     1      -0.970  16.167  -1.555  1.00  0.00    -0.020 C 
HETATM   27  C12 UNL     1      -1.845  16.869  -0.583  1.00  0.00     0.009 C 
HETATM   28  C13 UNL     1      -0.272  15.047  -0.745  1.00  0.00     0.009 C 
ENDBRANCH  25  26
ENDBRANCH  24  25
BRANCH  24  29
HETATM   29  C14 UNL     1      -0.541  15.779  -4.431  1.00  0.00     0.243 C 
HETATM   30  O5  UNL     1      -1.754  15.869  -4.815  1.00  0.00    -0.271 OA
HETATM   31  N2  UNL     1       0.138  14.556  -4.675  1.00  0.00    -0.347 N 
HETATM   32  C15 UNL     1       1.523  14.302  -4.354  1.00  0.00     0.153 C 
HETATM   33  C18 UNL     1      -0.572  13.439  -5.306  1.00  0.00     0.153 C 
HETATM   34  C16 UNL     1       1.782  12.807  -4.537  1.00  0.00     0.252 C 
HETATM   35  N3  UNL     1       0.799  12.018  -3.854  1.00  0.00    -0.072 N 
HETATM   36  C17 UNL     1      -0.523  12.263  -4.382  1.00  0.00     0.252 C 
ATOM     37  H32 UNL     1       1.034  11.025  -3.875  1.00  0.00     0.277 HD
ATOM     38  H31 UNL     1       0.834  12.165  -2.846  1.00  0.00     0.277 HD
ENDBRANCH  24  29
ENDBRANCH  22  24
ENDBRANCH   1  22
TORSDOF 8
ENDMDL
MODEL 3
REMARK VINA RESULT: -7.907869514      1.234      1.605
REMARK  8 active torsions:
REMARK  status: ('A' for Active; 'I' for Inactive)
REMARK    1  A    between atoms: O1_2  and  C2_3 
REMARK    2  A    between atoms: C2_3  and  C3_5 
REMARK    3  A    between atoms: C8_11  and  S1_12 
REMARK    4  A    between atoms: S1_12  and  N1_15 
REMARK    5  A    between atoms: N1_15  and  C9_17 
REMARK    6  A    between atoms: C9_17  and  C10_18 
REMARK    7  A    between atoms: C9_17  and  C14_22 
REMARK    8  A    between atoms: C10_18  and  C11_19 
REMARK       I    between atoms: C14_22  and  N2_24 
ROOT
HETATM    1  S1  UNL     1      -0.610  18.577  -6.020  1.00  0.00     0.261 S 
HETATM    2  O3  UNL     1      -1.264  17.632  -7.007  1.00  0.00    -0.200 OA
HETATM    3  O4  UNL     1       0.846  18.645  -6.489  1.00  0.00    -0.200 OA
ENDROOT
BRANCH   1   4
HETATM    4  C8  UNL     1      -1.248  20.184  -6.178  1.00  0.00     0.108 A 
HETATM    5  C7  UNL     1      -2.479  20.409  -6.791  1.00  0.00     0.071 A 
HETATM    6  C6  UNL     1      -3.013  21.653  -6.888  1.00  0.00     0.028 A 
HETATM    7 CL1  UNL     1      -3.314  19.050  -7.497  1.00  0.00    -0.082 Cl
HETATM    8  C4  UNL     1      -4.242  21.855  -7.501  1.00  0.00    -0.025 A 
HETATM    9  C22 UNL     1      -2.315  22.734  -6.366  1.00  0.00     0.092 A 
HETATM   10  C3  UNL     1      -4.670  23.197  -7.529  1.00  0.00     0.121 A 
HETATM   11  C5  UNL     1      -5.041  20.782  -8.072  1.00  0.00     0.050 C 
HETATM   12  C23 UNL     1      -3.911  24.204  -6.986  1.00  0.00     0.305 A 
HETATM   13  O6  UNL     1      -2.761  23.949  -6.422  1.00  0.00    -0.274 OA
HETATM   14  O7  UNL     1      -4.278  25.414  -7.002  1.00  0.00    -0.259 OA
HETATM   15  C21 UNL     1      -1.085  22.519  -5.756  1.00  0.00     0.046 A 
HETATM   16  C19 UNL     1      -0.550  21.256  -5.659  1.00  0.00    -0.034 A 
HETATM   17  C20 UNL     1       0.777  21.081  -5.001  1.00  0.00     0.050 C 
BRANCH  10  18
HETATM   18  C2  UNL     1      -5.955  23.512  -8.153  1.00  0.00     0.299 C 
HETATM   19  O2  UNL     1      -6.992  23.606  -7.444  1.00  0.00    -0.259 OA
BRANCH  18  20
HETATM   20  O1  UNL     1      -6.096  23.717  -9.522  1.00  0.00    -0.322 OA
HETATM   21  C1  UNL     1      -5.488  24.810 -10.186  1.00  0.00     0.213 C 
ENDBRANCH  18  20
ENDBRANCH  10  18
ENDBRANCH   1   4
BRANCH   1  22
HETATM   22  N1  UNL     1      -0.617  18.030  -4.455  1.00  0.00    -0.301 N 
ATOM     23  H1  UNL     1      -1.155  18.530  -3.748  1.00  0.00     0.173 HD
BRANCH  22  24
HETATM   24  C9  UNL     1       0.135  16.848  -4.084  1.00  0.00     0.185 C 
BRANCH  24  25
HETATM   25  C10 UNL     1       0.518  16.964  -2.630  1.00  0.00     0.039 C 
BRANCH  25  26
HETATM   26  C11 UNL     1      -0.162  16.190  -1.605  1.00  0.00    -0.020 C 
HETATM   27  C12 UNL     1      -1.373  16.740  -0.946  1.00  0.00     0.009 C 
HETATM   28  C13 UNL     1       0.851  15.940  -0.461  1.00  0.00     0.009 C 
ENDBRANCH  25  26
ENDBRANCH  24  25
BRANCH  24  29
HETATM   29  C14 UNL     1      -0.671  15.676  -4.438  1.00  0.00     0.243 C 
HETATM   30  O5  UNL     1      -1.946  15.722  -4.494  1.00  0.00    -0.271 OA
HETATM   31  N2  UNL     1      -0.044  14.439  -4.739  1.00  0.00    -0.347 N 
HETATM   32  C15 UNL     1       1.384  14.224  -4.775  1.00  0.00     0.153 C 
HETATM   33  C18 UNL     1      -0.860  13.263  -5.056  1.00  0.00     0.153 C 
HETATM   34  C16 UNL     1       1.632  12.720  -4.882  1.00  0.00     0.252 C 
HETATM   35  N3  UNL     1       0.887  11.996  -3.895  1.00  0.00    -0.072 N 
HETATM   36  C17 UNL     1      -0.534  12.181  -4.074  1.00  0.00     0.252 C 
ATOM     37  H32 UNL     1       1.138  11.007  -3.885  1.00  0.00     0.277 HD
ATOM     38  H31 UNL     1       1.181  12.239  -2.949  1.00  0.00     0.277 HD
ENDBRANCH  24  29
ENDBRANCH  22  24
ENDBRANCH   1  22
TORSDOF 8
ENDMDL
MODEL 4
REMARK VINA RESULT: -7.730701781      3.762      5.601
REMARK  8 active torsions:
REMARK  status: ('A' for Active; 'I' for Inactive)
REMARK    1  A    between atoms: O1_2  and  C2_3 
REMARK    2  A    between atoms: C2_3  and  C3_5 
REMARK    3  A    between atoms: C8_11  and  S1_12 
REMARK    4  A    between atoms: S1_12  and  N1_15 
REMARK    5  A    between atoms: N1_15  and  C9_17 
REMARK    6  A    between atoms: C9_17  and  C10_18 
REMARK    7  A    between atoms: C9_17  and  C14_22 
REMARK    8  A    between atoms: C10_18  and  C11_19 
REMARK       I    between atoms: C14_22  and  N2_24 
ROOT
HETATM    1  S1  UNL     1      -0.121  21.532  -5.559  1.00  0.00     0.261 S 
HETATM    2  O3  UNL     1       0.162  22.875  -6.200  1.00  0.00    -0.200 OA
HETATM    3  O4  UNL     1      -0.580  21.891  -4.143  1.00  0.00    -0.200 OA
ENDROOT
BRANCH   1   4
HETATM    4  C8  UNL     1      -1.468  20.746  -6.323  1.00  0.00     0.108 A 
HETATM    5  C7  UNL     1      -2.452  21.486  -6.975  1.00  0.00     0.071 A 
HETATM    6  C6  UNL     1      -3.492  20.888  -7.613  1.00  0.00     0.028 A 
HETATM    7 CL1  UNL     1      -2.361  23.227  -6.910  1.00  0.00    -0.082 Cl
HETATM    8  C4  UNL     1      -4.461  21.644  -8.258  1.00  0.00    -0.025 A 
HETATM    9  C22 UNL     1      -3.580  19.503  -7.615  1.00  0.00     0.092 A 
HETATM   10  C3  UNL     1      -5.478  20.890  -8.876  1.00  0.00     0.121 A 
HETATM   11  C5  UNL     1      -4.446  23.098  -8.308  1.00  0.00     0.050 C 
HETATM   12  C23 UNL     1      -5.484  19.518  -8.826  1.00  0.00     0.305 A 
HETATM   13  O6  UNL     1      -4.542  18.863  -8.202  1.00  0.00    -0.274 OA
HETATM   14  O7  UNL     1      -6.389  18.824  -9.373  1.00  0.00    -0.259 OA
HETATM   15  C21 UNL     1      -2.603  18.757  -6.965  1.00  0.00     0.046 A 
HETATM   16  C19 UNL     1      -1.553  19.368  -6.322  1.00  0.00    -0.034 A 
HETATM   17  C20 UNL     1      -0.536  18.522  -5.633  1.00  0.00     0.050 C 
BRANCH  10  18
HETATM   18  C2  UNL     1      -6.546  21.596  -9.582  1.00  0.00     0.299 C 
HETATM   19  O2  UNL     1      -6.610  21.542 -10.840  1.00  0.00    -0.259 OA
BRANCH  18  20
HETATM   20  O1  UNL     1      -7.518  22.342  -8.924  1.00  0.00    -0.322 OA
HETATM   21  C1  UNL     1      -7.773  23.697  -9.244  1.00  0.00     0.213 C 
ENDBRANCH  18  20
ENDBRANCH  10  18
ENDBRANCH   1   4
BRANCH   1  22
HETATM   22  N1  UNL     1       1.210  20.552  -5.431  1.00  0.00    -0.301 N 
ATOM     23  H1  UNL     1       1.102  19.593  -5.101  1.00  0.00     0.173 HD
BRANCH  22  24
HETATM   24  C9  UNL     1       2.526  21.046  -5.783  1.00  0.00     0.185 C 
BRANCH  24  25
HETATM   25  C10 UNL     1       3.352  21.142  -4.524  1.00  0.00     0.039 C 
BRANCH  25  26
HETATM   26  C11 UNL     1       4.093  19.999  -4.019  1.00  0.00    -0.020 C 
HETATM   27  C12 UNL     1       3.841  19.506  -2.641  1.00  0.00     0.009 C 
HETATM   28  C13 UNL     1       5.597  20.367  -4.055  1.00  0.00     0.009 C 
ENDBRANCH  25  26
ENDBRANCH  24  25
BRANCH  24  29
HETATM   29  C14 UNL     1       3.064  20.175  -6.832  1.00  0.00     0.243 C 
HETATM   30  O5  UNL     1       2.532  19.051  -7.119  1.00  0.00    -0.271 OA
HETATM   31  N2  UNL     1       4.208  20.570  -7.574  1.00  0.00    -0.347 N 
HETATM   32  C15 UNL     1       4.901  21.827  -7.417  1.00  0.00     0.153 C 
HETATM   33  C18 UNL     1       4.761  19.676  -8.597  1.00  0.00     0.153 C 
HETATM   34  C16 UNL     1       6.206  21.748  -8.208  1.00  0.00     0.252 C 
HETATM   35  N3  UNL     1       6.937  20.556  -7.893  1.00  0.00    -0.072 N 
HETATM   36  C17 UNL     1       6.184  19.375  -8.244  1.00  0.00     0.252 C 
ATOM     37  H32 UNL     1       7.860  20.556  -8.327  1.00  0.00     0.277 HD
ATOM     38  H31 UNL     1       7.226  20.540  -6.914  1.00  0.00     0.277 HD
ENDBRANCH  24  29
ENDBRANCH  22  24
ENDBRANCH   1  22
TORSDOF 8
ENDMDL
MODEL 5
REMARK VINA RESULT: -7.638872067      3.973      6.577
REMARK  8 active torsions:
REMARK  status: ('A' for Active; 'I' for Inactive)
REMARK    1  A    between atoms: O1_2  and  C2_3 
REMARK    2  A    between atoms: C2_3  and  C3_5 
REMARK    3  A    between atoms: C8_11  and  S1_12 
REMARK    4  A    between atoms: S1_12  and  N1_15 
REMARK    5  A    between atoms: N1_15  and  C9_17 
REMARK    6  A    between atoms: C9_17  and  C10_18 
REMARK    7  A    between atoms: C9_17  and  C14_22 
REMARK    8  A    between atoms: C10_18  and  C11_19 
REMARK       I    between atoms: C14_22  and  N2_24 
ROOT
HETATM    1  S1  UNL     1      -0.060  21.458  -5.371  1.00  0.00     0.261 S 
HETATM    2  O3  UNL     1      -0.549  22.420  -4.308  1.00  0.00    -0.200 OA
HETATM    3  O4  UNL     1       0.645  20.358  -4.571  1.00  0.00    -0.200 OA
ENDROOT
BRANCH   1   4
HETATM    4  C8  UNL     1      -1.392  20.693  -6.181  1.00  0.00     0.108 A 
HETATM    5  C7  UNL     1      -2.377  21.451  -6.811  1.00  0.00     0.071 A 
HETATM    6  C6  UNL     1      -3.405  20.871  -7.484  1.00  0.00     0.028 A 
HETATM    7 CL1  UNL     1      -2.303  23.188  -6.673  1.00  0.00    -0.082 Cl
HETATM    8  C4  UNL     1      -4.375  21.644  -8.107  1.00  0.00    -0.025 A 
HETATM    9  C22 UNL     1      -3.480  19.486  -7.545  1.00  0.00     0.092 A 
HETATM   10  C3  UNL     1      -5.379  20.907  -8.766  1.00  0.00     0.121 A 
HETATM   11  C5  UNL     1      -4.373  23.099  -8.096  1.00  0.00     0.050 C 
HETATM   12  C23 UNL     1      -5.372  19.534  -8.773  1.00  0.00     0.305 A 
HETATM   13  O6  UNL     1      -4.430  18.863  -8.167  1.00  0.00    -0.274 OA
HETATM   14  O7  UNL     1      -6.265  18.856  -9.358  1.00  0.00    -0.259 OA
HETATM   15  C21 UNL     1      -2.503  18.723  -6.916  1.00  0.00     0.046 A 
HETATM   16  C19 UNL     1      -1.464  19.316  -6.238  1.00  0.00    -0.034 A 
HETATM   17  C20 UNL     1      -0.446  18.451  -5.574  1.00  0.00     0.050 C 
BRANCH  10  18
HETATM   18  C2  UNL     1      -6.446  21.633  -9.453  1.00  0.00     0.299 C 
HETATM   19  O2  UNL     1      -6.510  21.613 -10.711  1.00  0.00    -0.259 OA
BRANCH  18  20
HETATM   20  O1  UNL     1      -7.418  22.362  -8.775  1.00  0.00    -0.322 OA
HETATM   21  C1  UNL     1      -7.782  23.674  -9.162  1.00  0.00     0.213 C 
ENDBRANCH  18  20
ENDBRANCH  10  18
ENDBRANCH   1   4
BRANCH   1  22
HETATM   22  N1  UNL     1       1.043  22.113  -6.419  1.00  0.00    -0.301 N 
ATOM     23  H1  UNL     1       0.719  22.616  -7.245  1.00  0.00     0.173 HD
BRANCH  22  24
HETATM   24  C9  UNL     1       2.465  21.978  -6.173  1.00  0.00     0.185 C 
BRANCH  24  25
HETATM   25  C10 UNL     1       3.106  21.376  -7.399  1.00  0.00     0.039 C 
BRANCH  25  26
HETATM   26  C11 UNL     1       3.483  19.973  -7.440  1.00  0.00    -0.020 C 
HETATM   27  C12 UNL     1       4.606  19.537  -8.308  1.00  0.00     0.009 C 
HETATM   28  C13 UNL     1       2.251  19.174  -7.930  1.00  0.00     0.009 C 
ENDBRANCH  25  26
ENDBRANCH  24  25
BRANCH  24  29
HETATM   29  C14 UNL     1       2.975  23.292  -5.770  1.00  0.00     0.243 C 
HETATM   30  O5  UNL     1       3.161  24.234  -6.610  1.00  0.00    -0.271 OA
HETATM   31  N2  UNL     1       3.274  23.557  -4.407  1.00  0.00    -0.347 N 
HETATM   32  C15 UNL     1       3.073  22.626  -3.322  1.00  0.00     0.153 C 
HETATM   33  C18 UNL     1       3.819  24.861  -4.018  1.00  0.00     0.153 C 
HETATM   34  C16 UNL     1       3.752  23.199  -2.078  1.00  0.00     0.252 C 
HETATM   35  N3  UNL     1       5.100  23.598  -2.355  1.00  0.00    -0.072 N 
HETATM   36  C17 UNL     1       5.140  24.643  -3.350  1.00  0.00     0.252 C 
ATOM     37  H32 UNL     1       5.594  23.870  -1.505  1.00  0.00     0.277 HD
ATOM     38  H31 UNL     1       5.680  22.802  -2.623  1.00  0.00     0.277 HD
ENDBRANCH  24  29
ENDBRANCH  22  24
ENDBRANCH   1  22
TORSDOF 8
ENDMDL
