MODEL 1
REMARK VINA RESULT: -7.637732110      0.000      0.000
REMARK  8 active torsions:
REMARK  status: ('A' for Active; 'I' for Inactive)
REMARK    1  A    between atoms: O1_2  and  C2_3 
REMARK    2  A    between atoms: C2_3  and  C3_5 
REMARK    3  A    between atoms: C8_10  and  O3_11 
REMARK    4  A    between atoms: C10_13  and  C11_14 
REMARK    5  A    between atoms: C11_14  and  C12_15 
REMARK    6  A    between atoms: C12_15  and  C13_16 
REMARK       I    between atoms: C13_16  and  N1_18 
REMARK    7  A    between atoms: N1_18  and  C14_20 
REMARK    8  A    between atoms: C20_29  and  C21_30 
ROOT
HETATM    1  C11 UNL     1      -2.102  18.900  -6.370  1.00  0.00     0.051 C 
ENDROOT
BRANCH   1   2
HETATM    2  C10 UNL     1      -2.614  20.214  -6.778  1.00  0.00    -0.016 A 
HETATM    3  C8  UNL     1      -2.033  21.377  -6.323  1.00  0.00     0.082 A 
HETATM    4  C7  UNL     1      -2.564  22.592  -6.781  1.00  0.00    -0.011 A 
HETATM    5  C6  UNL     1      -1.874  23.775  -6.272  1.00  0.00     0.046 A 
HETATM    6  C25 UNL     1      -3.644  22.681  -7.667  1.00  0.00     0.011 A 
HETATM    7  C5  UNL     1      -2.443  25.086  -6.602  1.00  0.00     0.033 A 
HETATM    8  C4  UNL     1      -3.544  25.056  -7.543  1.00  0.00    -0.008 A 
HETATM    9  C3  UNL     1      -4.159  23.980  -8.070  1.00  0.00     0.048 A 
HETATM   10  C24 UNL     1      -4.197  21.512  -8.097  1.00  0.00     0.052 A 
HETATM   11  C22 UNL     1      -3.674  20.291  -7.647  1.00  0.00    -0.030 A 
HETATM   12 CL1  UNL     1      -5.543  21.441  -9.184  1.00  0.00    -0.083 Cl
HETATM   13  C23 UNL     1      -4.304  19.036  -8.129  1.00  0.00     0.050 C 
BRANCH   3  14
HETATM   14  O3  UNL     1      -0.979  21.449  -5.449  1.00  0.00    -0.355 OA
HETATM   15  C9  UNL     1      -0.916  21.350  -4.082  1.00  0.00     0.210 C 
ENDBRANCH   3  14
BRANCH   9  16
HETATM   16  C2  UNL     1      -5.235  24.190  -8.988  1.00  0.00     0.293 C 
HETATM   17  O2  UNL     1      -5.293  24.356 -10.166  1.00  0.00    -0.259 OA
BRANCH  16  18
HETATM   18  O1  UNL     1      -6.567  24.216  -8.415  1.00  0.00    -0.323 OA
HETATM   19  C1  UNL     1      -7.702  23.995  -9.214  1.00  0.00     0.213 C 
ENDBRANCH  16  18
ENDBRANCH   9  16
ENDBRANCH   1   2
BRANCH   1  20
HETATM   20  C12 UNL     1      -0.650  18.651  -6.653  1.00  0.00     0.107 C 
BRANCH  20  21
HETATM   21  C13 UNL     1       0.077  18.208  -5.430  1.00  0.00     0.218 C 
HETATM   22  O4  UNL     1       1.248  18.659  -5.255  1.00  0.00    -0.274 OA
HETATM   23  N1  UNL     1      -0.452  17.327  -4.466  1.00  0.00    -0.345 N 
ATOM     24  H1  UNL     1      -1.394  16.954  -4.586  1.00  0.00     0.163 HD
BRANCH  23  25
HETATM   25  C14 UNL     1       0.313  16.952  -3.326  1.00  0.00     0.210 C 
HETATM   26  C15 UNL     1      -0.489  16.246  -2.250  1.00  0.00     0.247 C 
HETATM   27  O5  UNL     1      -1.249  16.737  -1.382  1.00  0.00    -0.271 OA
HETATM   28  N2  UNL     1      -0.012  14.964  -2.670  1.00  0.00    -0.318 N 
HETATM   29  C16 UNL     1       1.064  15.656  -3.350  1.00  0.00     0.183 C 
HETATM   30  C20 UNL     1       0.077  13.547  -2.843  1.00  0.00     0.207 C 
HETATM   31  S1  UNL     1       1.051  14.733  -4.913  1.00  0.00    -0.129 SA
HETATM   32  C17 UNL     1       0.169  13.255  -4.332  1.00  0.00     0.033 C 
HETATM   33  C18 UNL     1      -1.257  13.237  -4.862  1.00  0.00     0.029 C 
HETATM   34  C19 UNL     1       0.905  12.008  -4.667  1.00  0.00     0.029 C 
BRANCH  30  35
HETATM   35  C21 UNL     1       1.182  13.020  -2.050  1.00  0.00     0.198 C 
HETATM   36  O6  UNL     1       2.308  13.574  -1.933  1.00  0.00    -0.646 OA
HETATM   37  O7  UNL     1       1.034  11.832  -1.358  1.00  0.00    -0.646 OA
ENDBRANCH  30  35
ENDBRANCH  23  25
ENDBRANCH  20  21
ENDBRANCH   1  20
TORSDOF 8
ENDMDL
MODEL 2
REMARK VINA RESULT: -7.365395263      4.805      6.707
REMARK  8 active torsions:
REMARK  status: ('A' for Active; 'I' for Inactive)
REMARK    1  A    between atoms: O1_2  and  C2_3 
REMARK    2  A    between atoms: C2_3  and  C3_5 
REMARK    3  A    between atoms: C8_10  and  O3_11 
REMARK    4  A    between atoms: C10_13  and  C11_14 
REMARK    5  A    between atoms: C11_14  and  C12_15 
REMARK    6  A    between atoms: C12_15  and  C13_16 
REMARK       I    between atoms: C13_16  and  N1_18 
REMARK    7  A    between atoms: N1_18  and  C14_20 
REMARK    8  A    between atoms: C20_29  and  C21_30 
ROOT
HETATM    1  C11 UNL     1      -0.711  24.717  -5.357  1.00  0.00     0.051 C 
ENDROOT
BRANCH   1   2
HETATM    2  C10 UNL     1      -1.382  23.516  -5.868  1.00  0.00    -0.016 A 
HETATM    3  C8  UNL     1      -0.810  22.270  -5.734  1.00  0.00     0.082 A 
HETATM    4  C7  UNL     1      -1.527  21.168  -6.224  1.00  0.00    -0.011 A 
HETATM    5  C6  UNL     1      -0.863  19.883  -6.018  1.00  0.00     0.046 A 
HETATM    6  C25 UNL     1      -2.780  21.270  -6.838  1.00  0.00     0.011 A 
HETATM    7  C5  UNL     1      -1.485  18.695  -6.611  1.00  0.00     0.033 A 
HETATM    8  C4  UNL     1      -2.788  18.917  -7.202  1.00  0.00    -0.008 A 
HETATM    9  C3  UNL     1      -3.446  20.084  -7.351  1.00  0.00     0.048 A 
HETATM   10  C24 UNL     1      -3.318  22.517  -6.957  1.00  0.00     0.052 A 
HETATM   11  C22 UNL     1      -2.611  23.625  -6.470  1.00  0.00    -0.030 A 
HETATM   12 CL1  UNL     1      -4.851  22.823  -7.700  1.00  0.00    -0.083 Cl
HETATM   13  C23 UNL     1      -3.221  24.971  -6.621  1.00  0.00     0.050 C 
BRANCH   3  14
HETATM   14  O3  UNL     1       0.411  22.014  -5.164  1.00  0.00    -0.355 OA
HETATM   15  C9  UNL     1       0.791  21.825  -3.860  1.00  0.00     0.210 C 
ENDBRANCH   3  14
BRANCH   9  16
HETATM   16  C2  UNL     1      -4.735  20.066  -7.970  1.00  0.00     0.293 C 
HETATM   17  O2  UNL     1      -5.836  19.844  -7.573  1.00  0.00    -0.259 OA
BRANCH  16  18
HETATM   18  O1  UNL     1      -4.769  20.377  -9.386  1.00  0.00    -0.323 OA
HETATM   19  C1  UNL     1      -5.961  20.268 -10.122  1.00  0.00     0.213 C 
ENDBRANCH  16  18
ENDBRANCH   9  16
ENDBRANCH   1   2
BRANCH   1  20
HETATM   20  C12 UNL     1       0.179  25.431  -6.330  1.00  0.00     0.107 C 
BRANCH  20  21
HETATM   21  C13 UNL     1       1.617  25.266  -5.979  1.00  0.00     0.218 C 
HETATM   22  O4  UNL     1       2.179  26.221  -5.367  1.00  0.00    -0.274 OA
HETATM   23  N1  UNL     1       2.384  24.123  -6.283  1.00  0.00    -0.345 N 
ATOM     24  H1  UNL     1       1.950  23.341  -6.774  1.00  0.00     0.163 HD
BRANCH  23  25
HETATM   25  C14 UNL     1       3.755  24.048  -5.913  1.00  0.00     0.210 C 
HETATM   26  C15 UNL     1       4.028  23.127  -4.740  1.00  0.00     0.247 C 
HETATM   27  O5  UNL     1       3.872  23.345  -3.514  1.00  0.00    -0.271 OA
HETATM   28  N2  UNL     1       4.471  22.077  -5.604  1.00  0.00    -0.318 N 
HETATM   29  C16 UNL     1       4.649  23.083  -6.632  1.00  0.00     0.183 C 
HETATM   30  C20 UNL     1       4.819  20.773  -6.075  1.00  0.00     0.207 C 
HETATM   31  S1  UNL     1       3.924  22.187  -8.034  1.00  0.00    -0.129 SA
HETATM   32  C17 UNL     1       4.043  20.506  -7.355  1.00  0.00     0.033 C 
HETATM   33  C18 UNL     1       2.672  19.997  -6.936  1.00  0.00     0.029 C 
HETATM   34  C19 UNL     1       4.720  19.578  -8.298  1.00  0.00     0.029 C 
BRANCH  30  35
HETATM   35  C21 UNL     1       6.267  20.664  -6.207  1.00  0.00     0.198 C 
HETATM   36  O6  UNL     1       7.002  21.519  -6.771  1.00  0.00    -0.646 OA
HETATM   37  O7  UNL     1       6.931  19.565  -5.693  1.00  0.00    -0.646 OA
ENDBRANCH  30  35
ENDBRANCH  23  25
ENDBRANCH  20  21
ENDBRANCH   1  20
TORSDOF 8
ENDMDL
MODEL 3
REMARK VINA RESULT: -7.254409249      1.729      2.169
REMARK  8 active torsions:
REMARK  status: ('A' for Active; 'I' for Inactive)
REMARK    1  A    between atoms: O1_2  and  C2_3 
REMARK    2  A    between atoms: C2_3  and  C3_5 
REMARK    3  A    between atoms: C8_10  and  O3_11 
REMARK    4  A    between atoms: C10_13  and  C11_14 
REMARK    5  A    between atoms: C11_14  and  C12_15 
REMARK    6  A    between atoms: C12_15  and  C13_16 
REMARK       I    between atoms: C13_16  and  N1_18 
REMARK    7  A    between atoms: N1_18  and  C14_20 
REMARK    8  A    between atoms: C20_29  and  C21_30 
ROOT
HETATM    1  C11 UNL     1       0.305  19.507  -4.837  1.00  0.00     0.051 C 
ENDROOT
BRANCH   1   2
HETATM    2  C10 UNL     1      -0.736  20.207  -5.601  1.00  0.00    -0.016 A 
HETATM    3  C8  UNL     1      -0.762  21.582  -5.673  1.00  0.00     0.082 A 
HETATM    4  C7  UNL     1      -1.772  22.174  -6.445  1.00  0.00    -0.011 A 
HETATM    5  C6  UNL     1      -1.713  23.634  -6.490  1.00  0.00     0.046 A 
HETATM    6  C25 UNL     1      -2.747  21.446  -7.137  1.00  0.00     0.011 A 
HETATM    7  C5  UNL     1      -2.805  24.336  -7.172  1.00  0.00     0.033 A 
HETATM    8  C4  UNL     1      -3.742  23.480  -7.870  1.00  0.00    -0.008 A 
HETATM    9  C3  UNL     1      -3.783  22.134  -7.890  1.00  0.00     0.048 A 
HETATM   10  C24 UNL     1      -2.694  20.087  -7.044  1.00  0.00     0.052 A 
HETATM   11  C22 UNL     1      -1.687  19.484  -6.277  1.00  0.00    -0.030 A 
HETATM   12 CL1  UNL     1      -3.825  19.036  -7.827  1.00  0.00    -0.083 Cl
HETATM   13  C23 UNL     1      -1.661  18.001  -6.190  1.00  0.00     0.050 C 
BRANCH   3  14
HETATM   14  O3  UNL     1       0.116  22.427  -5.044  1.00  0.00    -0.355 OA
HETATM   15  C9  UNL     1       1.406  22.790  -5.338  1.00  0.00     0.210 C 
ENDBRANCH   3  14
BRANCH   9  16
HETATM   16  C2  UNL     1      -4.808  21.494  -8.655  1.00  0.00     0.293 C 
HETATM   17  O2  UNL     1      -4.808  20.856  -9.661  1.00  0.00    -0.259 OA
BRANCH  16  18
HETATM   18  O1  UNL     1      -6.158  21.614  -8.140  1.00  0.00    -0.323 OA
HETATM   19  C1  UNL     1      -7.216  22.018  -8.973  1.00  0.00     0.213 C 
ENDBRANCH  16  18
ENDBRANCH   9  16
ENDBRANCH   1   2
BRANCH   1  20
HETATM   20  C12 UNL     1       0.170  19.568  -3.346  1.00  0.00     0.107 C 
BRANCH  20  21
HETATM   21  C13 UNL     1       0.726  18.348  -2.696  1.00  0.00     0.218 C 
HETATM   22  O4  UNL     1       1.936  18.387  -2.324  1.00  0.00    -0.274 OA
HETATM   23  N1  UNL     1      -0.006  17.164  -2.470  1.00  0.00    -0.345 N 
ATOM     24  H1  UNL     1      -0.983  17.113  -2.760  1.00  0.00     0.163 HD
BRANCH  23  25
HETATM   25  C14 UNL     1       0.602  16.041  -1.844  1.00  0.00     0.210 C 
HETATM   26  C15 UNL     1      -0.385  15.012  -1.330  1.00  0.00     0.247 C 
HETATM   27  O5  UNL     1      -1.068  15.030  -0.278  1.00  0.00    -0.271 OA
HETATM   28  N2  UNL     1      -0.170  14.168  -2.466  1.00  0.00    -0.318 N 
HETATM   29  C16 UNL     1       1.062  14.897  -2.694  1.00  0.00     0.183 C 
HETATM   30  C20 UNL     1      -0.373  13.151  -3.449  1.00  0.00     0.207 C 
HETATM   31  S1  UNL     1       0.934  15.112  -4.492  1.00  0.00    -0.129 SA
HETATM   32  C17 UNL     1      -0.269  13.792  -4.824  1.00  0.00     0.033 C 
HETATM   33  C18 UNL     1      -1.638  14.379  -5.137  1.00  0.00     0.029 C 
HETATM   34  C19 UNL     1       0.202  12.874  -5.893  1.00  0.00     0.029 C 
BRANCH  30  35
HETATM   35  C21 UNL     1       0.552  12.048  -3.220  1.00  0.00     0.198 C 
HETATM   36  O6  UNL     1       1.349  11.972  -2.247  1.00  0.00    -0.646 OA
HETATM   37  O7  UNL     1       0.597  10.985  -4.104  1.00  0.00    -0.646 OA
ENDBRANCH  30  35
ENDBRANCH  23  25
ENDBRANCH  20  21
ENDBRANCH   1  20
TORSDOF 8
ENDMDL
MODEL 4
REMARK VINA RESULT: -7.231534645      1.783      2.232
REMARK  8 active torsions:
REMARK  status: ('A' for Active; 'I' for Inactive)
REMARK    1  A    between atoms: O1_2  and  C2_3 
REMARK    2  A    between atoms: C2_3  and  C3_5 
REMARK    3  A    between atoms: C8_10  and  O3_11 
REMARK    4  A    between atoms: C10_13  and  C11_14 
REMARK    5  A    between atoms: C11_14  and  C12_15 
REMARK    6  A    between atoms: C12_15  and  C13_16 
REMARK       I    between atoms: C13_16  and  N1_18 
REMARK    7  A    between atoms: N1_18  and  C14_20 
REMARK    8  A    between atoms: C20_29  and  C21_30 
ROOT
HETATM    1  C11 UNL     1       0.117  20.101  -4.879  1.00  0.00     0.051 C 
ENDROOT
BRANCH   1   2
HETATM    2  C10 UNL     1      -0.963  20.656  -5.704  1.00  0.00    -0.016 A 
HETATM    3  C8  UNL     1      -1.095  22.016  -5.882  1.00  0.00     0.082 A 
HETATM    4  C7  UNL     1      -2.136  22.466  -6.708  1.00  0.00    -0.011 A 
HETATM    5  C6  UNL     1      -2.190  23.918  -6.865  1.00  0.00     0.046 A 
HETATM    6  C25 UNL     1      -3.040  21.612  -7.351  1.00  0.00     0.011 A 
HETATM    7  C5  UNL     1      -3.323  24.478  -7.609  1.00  0.00     0.033 A 
HETATM    8  C4  UNL     1      -4.179  23.500  -8.248  1.00  0.00    -0.008 A 
HETATM    9  C3  UNL     1      -4.114  22.157  -8.165  1.00  0.00     0.048 A 
HETATM   10  C24 UNL     1      -2.883  20.273  -7.153  1.00  0.00     0.052 A 
HETATM   11  C22 UNL     1      -1.845  19.811  -6.332  1.00  0.00    -0.030 A 
HETATM   12 CL1  UNL     1      -3.916  19.079  -7.863  1.00  0.00    -0.083 Cl
HETATM   13  C23 UNL     1      -1.704  18.346  -6.131  1.00  0.00     0.050 C 
BRANCH   3  14
HETATM   14  O3  UNL     1      -0.296  22.973  -5.312  1.00  0.00    -0.355 OA
HETATM   15  C9  UNL     1       0.939  23.459  -5.661  1.00  0.00     0.210 C 
ENDBRANCH   3  14
BRANCH   9  16
HETATM   16  C2  UNL     1      -5.074  21.381  -8.888  1.00  0.00     0.293 C 
HETATM   17  O2  UNL     1      -5.007  20.662  -9.835  1.00  0.00    -0.259 OA
BRANCH  16  18
HETATM   18  O1  UNL     1      -6.441  21.449  -8.409  1.00  0.00    -0.323 OA
HETATM   19  C1  UNL     1      -7.409  22.207  -9.090  1.00  0.00     0.213 C 
ENDBRANCH  16  18
ENDBRANCH   9  16
ENDBRANCH   1   2
BRANCH   1  20
HETATM   20  C12 UNL     1       0.229  20.658  -3.492  1.00  0.00     0.107 C 
BRANCH  20  21
HETATM   21  C13 UNL     1       0.362  19.576  -2.477  1.00  0.00     0.218 C 
HETATM   22  O4  UNL     1       1.252  19.719  -1.588  1.00  0.00    -0.274 OA
HETATM   23  N1  UNL     1      -0.435  18.413  -2.445  1.00  0.00    -0.345 N 
ATOM     24  H1  UNL     1      -1.160  18.279  -3.150  1.00  0.00     0.163 HD
BRANCH  23  25
HETATM   25  C14 UNL     1      -0.241  17.426  -1.440  1.00  0.00     0.210 C 
HETATM   26  C15 UNL     1      -1.328  16.370  -1.393  1.00  0.00     0.247 C 
HETATM   27  O5  UNL     1      -2.471  16.438  -0.882  1.00  0.00    -0.271 OA
HETATM   28  N2  UNL     1      -0.516  15.433  -2.107  1.00  0.00    -0.318 N 
HETATM   29  C16 UNL     1       0.630  16.244  -1.743  1.00  0.00     0.183 C 
HETATM   30  C20 UNL     1      -0.134  14.302  -2.893  1.00  0.00     0.207 C 
HETATM   31  S1  UNL     1       1.491  16.252  -3.341  1.00  0.00    -0.129 SA
HETATM   32  C17 UNL     1       0.685  14.798  -4.074  1.00  0.00     0.033 C 
HETATM   33  C18 UNL     1      -0.308  15.218  -5.148  1.00  0.00     0.029 C 
HETATM   34  C19 UNL     1       1.678  13.818  -4.586  1.00  0.00     0.029 C 
BRANCH  30  35
HETATM   35  C21 UNL     1       0.542  13.320  -2.053  1.00  0.00     0.198 C 
HETATM   36  O6  UNL     1       1.202  13.597  -1.016  1.00  0.00    -0.646 OA
HETATM   37  O7  UNL     1       0.486  11.976  -2.374  1.00  0.00    -0.646 OA
ENDBRANCH  30  35
ENDBRANCH  23  25
ENDBRANCH  20  21
ENDBRANCH   1  20
TORSDOF 8
ENDMDL
MODEL 5
REMARK VINA RESULT: -7.201580599      1.515      2.777
REMARK  8 active torsions:
REMARK  status: ('A' for Active; 'I' for Inactive)
REMARK    1  A    between atoms: O1_2  and  C2_3 
REMARK    2  A    between atoms: C2_3  and  C3_5 
REMARK    3  A    between atoms: C8_10  and  O3_11 
REMARK    4  A    between atoms: C10_13  and  C11_14 
REMARK    5  A    between atoms: C11_14  and  C12_15 
REMARK    6  A    between atoms: C12_15  and  C13_16 
REMARK       I    between atoms: C13_16  and  N1_18 
REMARK    7  A    between atoms: N1_18  and  C14_20 
REMARK    8  A    between atoms: C20_29  and  C21_30 
ROOT
HETATM    1  C11 UNL     1      -0.749  20.859  -5.587  1.00  0.00     0.051 C 
ENDROOT
BRANCH   1   2
HETATM    2  C10 UNL     1      -1.930  21.102  -6.425  1.00  0.00    -0.016 A 
HETATM    3  C8  UNL     1      -2.717  20.061  -6.865  1.00  0.00     0.082 A 
HETATM    4  C7  UNL     1      -3.844  20.378  -7.638  1.00  0.00    -0.011 A 
HETATM    5  C6  UNL     1      -4.638  19.220  -8.042  1.00  0.00     0.046 A 
HETATM    6  C25 UNL     1      -4.205  21.686  -7.983  1.00  0.00     0.011 A 
HETATM    7  C5  UNL     1      -5.761  19.452  -8.955  1.00  0.00     0.033 A 
HETATM    8  C4  UNL     1      -6.053  20.845  -9.224  1.00  0.00    -0.008 A 
HETATM    9  C3  UNL     1      -5.370  21.932  -8.816  1.00  0.00     0.048 A 
HETATM   10  C24 UNL     1      -3.404  22.693  -7.533  1.00  0.00     0.052 A 
HETATM   11  C22 UNL     1      -2.276  22.389  -6.758  1.00  0.00    -0.030 A 
HETATM   12 CL1  UNL     1      -3.698  24.365  -7.875  1.00  0.00    -0.083 Cl
HETATM   13  C23 UNL     1      -1.421  23.508  -6.289  1.00  0.00     0.050 C 
BRANCH   3  14
HETATM   14  O3  UNL     1      -2.487  18.732  -6.617  1.00  0.00    -0.355 OA
HETATM   15  C9  UNL     1      -1.379  17.945  -6.805  1.00  0.00     0.210 C 
ENDBRANCH   3  14
BRANCH   9  16
HETATM   16  C2  UNL     1      -5.846  23.223  -9.205  1.00  0.00     0.293 C 
HETATM   17  O2  UNL     1      -5.536  23.992 -10.060  1.00  0.00    -0.259 OA
BRANCH  16  18
HETATM   18  O1  UNL     1      -6.943  23.761  -8.425  1.00  0.00    -0.323 OA
HETATM   19  C1  UNL     1      -6.980  23.609  -7.028  1.00  0.00     0.213 C 
ENDBRANCH  16  18
ENDBRANCH   9  16
ENDBRANCH   1   2
BRANCH   1  20
HETATM   20  C12 UNL     1      -0.992  20.843  -4.108  1.00  0.00     0.107 C 
BRANCH  20  21
HETATM   21  C13 UNL     1      -0.026  19.955  -3.404  1.00  0.00     0.218 C 
HETATM   22  O4  UNL     1       1.089  20.456  -3.072  1.00  0.00    -0.274 OA
HETATM   23  N1  UNL     1      -0.273  18.604  -3.086  1.00  0.00    -0.345 N 
ATOM     24  H1  UNL     1      -1.166  18.181  -3.342  1.00  0.00     0.163 HD
BRANCH  23  25
HETATM   25  C14 UNL     1       0.707  17.824  -2.412  1.00  0.00     0.210 C 
HETATM   26  C15 UNL     1       0.131  16.825  -1.428  1.00  0.00     0.247 C 
HETATM   27  O5  UNL     1      -0.288  17.020  -0.261  1.00  0.00    -0.271 OA
HETATM   28  N2  UNL     1       0.286  15.748  -2.356  1.00  0.00    -0.318 N 
HETATM   29  C16 UNL     1       1.228  16.584  -3.073  1.00  0.00     0.183 C 
HETATM   30  C20 UNL     1       0.119  14.477  -2.988  1.00  0.00     0.207 C 
HETATM   31  S1  UNL     1       0.660  16.261  -4.767  1.00  0.00    -0.129 SA
HETATM   32  C17 UNL     1      -0.237  14.715  -4.447  1.00  0.00     0.033 C 
HETATM   33  C18 UNL     1      -1.740  14.945  -4.498  1.00  0.00     0.029 C 
HETATM   34  C19 UNL     1       0.192  13.629  -5.367  1.00  0.00     0.029 C 
BRANCH  30  35
HETATM   35  C21 UNL     1       1.308  13.659  -2.777  1.00  0.00     0.198 C 
HETATM   36  O6  UNL     1       2.489  14.041  -2.995  1.00  0.00    -0.646 OA
HETATM   37  O7  UNL     1       1.185  12.365  -2.306  1.00  0.00    -0.646 OA
ENDBRANCH  30  35
ENDBRANCH  23  25
ENDBRANCH  20  21
ENDBRANCH   1  20
TORSDOF 8
ENDMDL
