MODEL 1
REMARK VINA RESULT: -6.798572733      0.000      0.000
REMARK  9 active torsions:
REMARK  status: ('A' for Active; 'I' for Inactive)
REMARK    1  A    between atoms: C16_19  and  N1_20 
REMARK    2  A    between atoms: N1_20  and  C17_21 
REMARK       I    between atoms: N1_20  and  C19_25 
REMARK    3  A    between atoms: C17_21  and  C18_22 
REMARK    4  A    between atoms: C18_22  and  O2_23 
REMARK    5  A    between atoms: C19_25  and  C20_27 
REMARK    6  A    between atoms: C20_27  and  N2_28 
REMARK    7  A    between atoms: N3_31  and  C23_32 
REMARK    8  A    between atoms: C23_32  and  C24_33 
REMARK    9  A    between atoms: C24_33  and  O4_34 
ROOT
HETATM    1  C1  UNL     1      -0.692  19.265  -3.063  1.00  0.00     0.018 C 
HETATM    2  C2  UNL     1       0.276  18.436  -3.777  1.00  0.00    -0.019 C 
HETATM    3  C3  UNL     1      -0.284  17.107  -4.242  1.00  0.00     0.012 C 
HETATM    4  C4  UNL     1      -0.570  16.221  -3.043  1.00  0.00     0.010 C 
HETATM    5  C5  UNL     1       0.719  15.974  -2.291  1.00  0.00     0.037 C 
HETATM    6  C6  UNL     1       1.174  17.339  -1.762  1.00  0.00     0.017 C 
HETATM    7  C7  UNL     1       2.321  17.174  -0.788  1.00  0.00     0.087 C 
HETATM    8 CL1  UNL     1       3.844  16.758  -1.564  1.00  0.00    -0.125 Cl
HETATM    9  C8  UNL     1       1.931  16.261   0.334  1.00  0.00     0.024 C 
HETATM   10  C9  UNL     1       0.573  15.594   0.114  1.00  0.00     0.051 C 
HETATM   11  C10 UNL     1       0.638  14.936  -1.245  1.00  0.00     0.113 C 
HETATM   12  O1  UNL     1      -0.338  13.976  -1.431  1.00  0.00    -0.368 OA
HETATM   13  C11 UNL     1       0.079  13.060  -2.358  1.00  0.00     0.180 C 
HETATM   14  C12 UNL     1       1.300  12.340  -1.756  1.00  0.00     0.103 C 
HETATM   15  S1  UNL     1       2.147  13.876  -1.181  1.00  0.00    -0.129 SA
HETATM   16  C13 UNL     1       1.539  18.131  -2.942  1.00  0.00     0.002 C 
HETATM   17  C14 UNL     1       2.070  19.493  -2.753  1.00  0.00     0.008 C 
HETATM   18  C15 UNL     1       1.931  20.076  -4.173  1.00  0.00     0.026 C 
HETATM   19  C16 UNL     1       0.983  19.177  -4.894  1.00  0.00     0.095 C 
ENDROOT
BRANCH  19  20
HETATM   20  N1  UNL     1       0.195  19.713  -5.926  1.00  0.00    -0.343 N 
HETATM   21  C19 UNL     1      -0.741  20.741  -5.843  1.00  0.00     0.248 C 
HETATM   22  O3  UNL     1      -0.916  21.415  -4.813  1.00  0.00    -0.271 OA
BRANCH  20  23
HETATM   23  C17 UNL     1       0.400  19.131  -7.273  1.00  0.00     0.152 C 
BRANCH  23  24
HETATM   24  C18 UNL     1       1.839  19.322  -7.715  1.00  0.00     0.184 C 
BRANCH  24  25
HETATM   25  O2  UNL     1       2.385  18.101  -8.158  1.00  0.00    -0.399 OA
ATOM     26  H2  UNL     1       3.227  18.244  -8.573  1.00  0.00     0.209 HD
ENDBRANCH  24  25
ENDBRANCH  23  24
ENDBRANCH  20  23
BRANCH  21  27
HETATM   27  C20 UNL     1      -1.594  21.071  -7.040  1.00  0.00     0.374 C 
BRANCH  27  28
HETATM   28  N2  UNL     1      -2.813  21.702  -6.670  1.00  0.00     0.100 N 
HETATM   29  C21 UNL     1      -3.896  20.781  -6.633  1.00  0.00     0.303 C 
HETATM   30  C22 UNL     1      -4.500  20.675  -8.038  1.00  0.00     0.302 C 
HETATM   31  N3  UNL     1      -5.087  21.981  -8.330  1.00  0.00     0.093 N 
HETATM   32  C25 UNL     1      -4.000  22.894  -8.486  1.00  0.00     0.302 C 
HETATM   33  C26 UNL     1      -3.025  22.929  -7.349  1.00  0.00     0.303 C 
BRANCH  31  34
HETATM   34  C23 UNL     1      -5.759  21.824  -9.606  1.00  0.00     0.298 C 
BRANCH  34  35
HETATM   35  C24 UNL     1      -5.885  20.369  -9.927  1.00  0.00     0.194 C 
BRANCH  35  36
HETATM   36  O4  UNL     1      -5.941  20.252 -11.329  1.00  0.00    -0.399 OA
ATOM     37  H4  UNL     1      -6.552  19.553 -11.531  1.00  0.00     0.209 HD
ENDBRANCH  35  36
ENDBRANCH  34  35
ENDBRANCH  31  34
ENDBRANCH  27  28
ENDBRANCH  21  27
ENDBRANCH  19  20
TORSDOF 9
ENDMDL
MODEL 2
REMARK VINA RESULT: -6.752870881      1.180      1.334
REMARK  9 active torsions:
REMARK  status: ('A' for Active; 'I' for Inactive)
REMARK    1  A    between atoms: C16_19  and  N1_20 
REMARK    2  A    between atoms: N1_20  and  C17_21 
REMARK       I    between atoms: N1_20  and  C19_25 
REMARK    3  A    between atoms: C17_21  and  C18_22 
REMARK    4  A    between atoms: C18_22  and  O2_23 
REMARK    5  A    between atoms: C19_25  and  C20_27 
REMARK    6  A    between atoms: C20_27  and  N2_28 
REMARK    7  A    between atoms: N3_31  and  C23_32 
REMARK    8  A    between atoms: C23_32  and  C24_33 
REMARK    9  A    between atoms: C24_33  and  O4_34 
ROOT
HETATM    1  C1  UNL     1      -0.614  18.699  -3.124  1.00  0.00     0.018 C 
HETATM    2  C2  UNL     1       0.338  18.006  -3.989  1.00  0.00    -0.019 C 
HETATM    3  C3  UNL     1      -0.300  16.961  -4.883  1.00  0.00     0.012 C 
HETATM    4  C4  UNL     1      -0.799  15.801  -4.043  1.00  0.00     0.010 C 
HETATM    5  C5  UNL     1       0.370  15.176  -3.316  1.00  0.00     0.037 C 
HETATM    6  C6  UNL     1       0.900  16.248  -2.357  1.00  0.00     0.017 C 
HETATM    7  C7  UNL     1       1.914  15.653  -1.404  1.00  0.00     0.087 C 
HETATM    8 CL1  UNL     1       3.462  15.297  -2.160  1.00  0.00    -0.125 Cl
HETATM    9  C8  UNL     1       1.317  14.503  -0.652  1.00  0.00     0.024 C 
HETATM   10  C9  UNL     1      -0.070  14.113  -1.165  1.00  0.00     0.051 C 
HETATM   11  C10 UNL     1       0.074  13.891  -2.653  1.00  0.00     0.113 C 
HETATM   12  O1  UNL     1      -0.968  13.165  -3.197  1.00  0.00    -0.368 OA
HETATM   13  C11 UNL     1      -0.548  12.524  -4.330  1.00  0.00     0.180 C 
HETATM   14  C12 UNL     1       0.523  11.506  -3.897  1.00  0.00     0.103 C 
HETATM   15  S1  UNL     1       1.453  12.676  -2.814  1.00  0.00    -0.129 SA
HETATM   16  C13 UNL     1       1.467  17.305  -3.203  1.00  0.00     0.002 C 
HETATM   17  C14 UNL     1       2.108  18.467  -2.563  1.00  0.00     0.008 C 
HETATM   18  C15 UNL     1       2.181  19.463  -3.737  1.00  0.00     0.026 C 
HETATM   19  C16 UNL     1       1.231  18.951  -4.767  1.00  0.00     0.095 C 
ENDROOT
BRANCH  19  20
HETATM   20  N1  UNL     1       0.616  19.869  -5.635  1.00  0.00    -0.343 N 
HETATM   21  C19 UNL     1       0.007  21.079  -5.310  1.00  0.00     0.248 C 
HETATM   22  O3  UNL     1       0.038  21.566  -4.167  1.00  0.00    -0.271 OA
BRANCH  20  23
HETATM   23  C17 UNL     1       0.637  19.521  -7.074  1.00  0.00     0.152 C 
BRANCH  23  24
HETATM   24  C18 UNL     1       2.065  19.482  -7.586  1.00  0.00     0.184 C 
BRANCH  24  25
HETATM   25  O2  UNL     1       2.318  18.264  -8.248  1.00  0.00    -0.399 OA
ATOM     26  H2  UNL     1       2.154  17.530  -7.668  1.00  0.00     0.209 HD
ENDBRANCH  24  25
ENDBRANCH  23  24
ENDBRANCH  20  23
BRANCH  21  27
HETATM   27  C20 UNL     1      -0.730  21.852  -6.372  1.00  0.00     0.374 C 
BRANCH  27  28
HETATM   28  N2  UNL     1      -2.106  22.015  -6.057  1.00  0.00     0.100 N 
HETATM   29  C21 UNL     1      -2.789  20.768  -6.003  1.00  0.00     0.303 C 
HETATM   30  C22 UNL     1      -3.263  20.406  -7.416  1.00  0.00     0.302 C 
HETATM   31  N3  UNL     1      -4.267  21.403  -7.778  1.00  0.00     0.093 N 
HETATM   32  C25 UNL     1      -3.575  22.640  -7.949  1.00  0.00     0.302 C 
HETATM   33  C26 UNL     1      -2.719  23.060  -6.795  1.00  0.00     0.303 C 
BRANCH  31  34
HETATM   34  C23 UNL     1      -4.792  20.973  -9.060  1.00  0.00     0.298 C 
BRANCH  34  35
HETATM   35  C24 UNL     1      -5.695  19.799  -8.860  1.00  0.00     0.194 C 
BRANCH  35  36
HETATM   36  O4  UNL     1      -6.240  19.470 -10.116  1.00  0.00    -0.399 OA
ATOM     37  H4  UNL     1      -5.571  19.001 -10.601  1.00  0.00     0.209 HD
ENDBRANCH  35  36
ENDBRANCH  34  35
ENDBRANCH  31  34
ENDBRANCH  27  28
ENDBRANCH  21  27
ENDBRANCH  19  20
TORSDOF 9
ENDMDL
MODEL 3
REMARK VINA RESULT: -6.639187346      1.344      1.629
REMARK  9 active torsions:
REMARK  status: ('A' for Active; 'I' for Inactive)
REMARK    1  A    between atoms: C16_19  and  N1_20 
REMARK    2  A    between atoms: N1_20  and  C17_21 
REMARK       I    between atoms: N1_20  and  C19_25 
REMARK    3  A    between atoms: C17_21  and  C18_22 
REMARK    4  A    between atoms: C18_22  and  O2_23 
REMARK    5  A    between atoms: C19_25  and  C20_27 
REMARK    6  A    between atoms: C20_27  and  N2_28 
REMARK    7  A    between atoms: N3_31  and  C23_32 
REMARK    8  A    between atoms: C23_32  and  C24_33 
REMARK    9  A    between atoms: C24_33  and  O4_34 
ROOT
HETATM    1  C1  UNL     1      -0.826  20.210  -2.923  1.00  0.00     0.018 C 
HETATM    2  C2  UNL     1       0.337  19.608  -3.572  1.00  0.00    -0.019 C 
HETATM    3  C3  UNL     1       0.204  18.115  -3.800  1.00  0.00     0.012 C 
HETATM    4  C4  UNL     1       0.227  17.388  -2.468  1.00  0.00     0.010 C 
HETATM    5  C5  UNL     1       1.543  17.662  -1.776  1.00  0.00     0.037 C 
HETATM    6  C6  UNL     1       1.567  19.167  -1.483  1.00  0.00     0.017 C 
HETATM    7  C7  UNL     1       2.728  19.512  -0.575  1.00  0.00     0.087 C 
HETATM    8 CL1  UNL     1       4.289  19.455  -1.381  1.00  0.00    -0.125 Cl
HETATM    9  C8  UNL     1       2.658  18.715   0.692  1.00  0.00     0.024 C 
HETATM   10  C9  UNL     1       1.567  17.644   0.663  1.00  0.00     0.051 C 
HETATM   11  C10 UNL     1       1.806  16.829  -0.587  1.00  0.00     0.113 C 
HETATM   12  O1  UNL     1       1.169  15.603  -0.566  1.00  0.00    -0.368 OA
HETATM   13  C11 UNL     1       1.829  14.719  -1.374  1.00  0.00     0.180 C 
HETATM   14  C12 UNL     1       3.224  14.505  -0.757  1.00  0.00     0.103 C 
HETATM   15  S1  UNL     1       3.568  16.296  -0.470  1.00  0.00    -0.129 SA
HETATM   16  C13 UNL     1       1.648  19.834  -2.788  1.00  0.00     0.002 C 
HETATM   17  C14 UNL     1       1.738  21.304  -2.835  1.00  0.00     0.008 C 
HETATM   18  C15 UNL     1       1.399  21.584  -4.313  1.00  0.00     0.026 C 
HETATM   19  C16 UNL     1       0.760  20.339  -4.830  1.00  0.00     0.095 C 
ENDROOT
BRANCH  19  20
HETATM   20  N1  UNL     1      -0.174  20.442  -5.874  1.00  0.00    -0.343 N 
HETATM   21  C19 UNL     1      -1.189  21.384  -6.026  1.00  0.00     0.248 C 
HETATM   22  O3  UNL     1      -1.321  22.364  -5.272  1.00  0.00    -0.271 OA
BRANCH  20  23
HETATM   23  C17 UNL     1      -0.052  19.441  -6.959  1.00  0.00     0.152 C 
BRANCH  23  24
HETATM   24  C18 UNL     1       1.406  19.240  -7.329  1.00  0.00     0.184 C 
BRANCH  24  25
HETATM   25  O2  UNL     1       1.514  18.674  -8.615  1.00  0.00    -0.399 OA
ATOM     26  H2  UNL     1       2.249  19.053  -9.084  1.00  0.00     0.209 HD
ENDBRANCH  24  25
ENDBRANCH  23  24
ENDBRANCH  20  23
BRANCH  21  27
HETATM   27  C20 UNL     1      -2.184  21.234  -7.146  1.00  0.00     0.374 C 
BRANCH  27  28
HETATM   28  N2  UNL     1      -3.415  21.883  -6.857  1.00  0.00     0.100 N 
HETATM   29  C21 UNL     1      -4.487  20.956  -6.737  1.00  0.00     0.303 C 
HETATM   30  C22 UNL     1      -5.072  20.697  -8.130  1.00  0.00     0.302 C 
HETATM   31  N3  UNL     1      -5.672  21.957  -8.563  1.00  0.00     0.093 N 
HETATM   32  C25 UNL     1      -4.594  22.864  -8.800  1.00  0.00     0.302 C 
HETATM   33  C26 UNL     1      -3.634  23.030  -7.663  1.00  0.00     0.303 C 
BRANCH  31  34
HETATM   34  C23 UNL     1      -6.325  21.660  -9.823  1.00  0.00     0.298 C 
BRANCH  34  35
HETATM   35  C24 UNL     1      -5.964  20.276 -10.257  1.00  0.00     0.194 C 
BRANCH  35  36
HETATM   36  O4  UNL     1      -5.990  20.257 -11.665  1.00  0.00    -0.399 OA
ATOM     37  H4  UNL     1      -6.108  21.154 -11.958  1.00  0.00     0.209 HD
ENDBRANCH  35  36
ENDBRANCH  34  35
ENDBRANCH  31  34
ENDBRANCH  27  28
ENDBRANCH  21  27
ENDBRANCH  19  20
TORSDOF 9
ENDMDL
MODEL 4
REMARK VINA RESULT: -6.600743464      5.371      9.411
REMARK  9 active torsions:
REMARK  status: ('A' for Active; 'I' for Inactive)
REMARK    1  A    between atoms: C16_19  and  N1_20 
REMARK    2  A    between atoms: N1_20  and  C17_21 
REMARK       I    between atoms: N1_20  and  C19_25 
REMARK    3  A    between atoms: C17_21  and  C18_22 
REMARK    4  A    between atoms: C18_22  and  O2_23 
REMARK    5  A    between atoms: C19_25  and  C20_27 
REMARK    6  A    between atoms: C20_27  and  N2_28 
REMARK    7  A    between atoms: N3_31  and  C23_32 
REMARK    8  A    between atoms: C23_32  and  C24_33 
REMARK    9  A    between atoms: C24_33  and  O4_34 
ROOT
HETATM    1  C1  UNL     1      -0.670  24.900  -6.705  1.00  0.00     0.018 C 
HETATM    2  C2  UNL     1      -1.543  23.995  -5.959  1.00  0.00    -0.019 C 
HETATM    3  C3  UNL     1      -1.887  22.724  -6.709  1.00  0.00     0.012 C 
HETATM    4  C4  UNL     1      -2.781  23.050  -7.891  1.00  0.00     0.010 C 
HETATM    5  C5  UNL     1      -4.058  23.684  -7.387  1.00  0.00     0.037 C 
HETATM    6  C6  UNL     1      -3.649  25.010  -6.735  1.00  0.00     0.017 C 
HETATM    7  C7  UNL     1      -4.872  25.842  -6.414  1.00  0.00     0.087 C 
HETATM    8 CL1  UNL     1      -5.793  25.236  -5.043  1.00  0.00    -0.125 Cl
HETATM    9  C8  UNL     1      -5.687  26.076  -7.649  1.00  0.00     0.024 C 
HETATM   10  C9  UNL     1      -5.189  25.273  -8.852  1.00  0.00     0.051 C 
HETATM   11  C10 UNL     1      -5.120  23.833  -8.401  1.00  0.00     0.113 C 
HETATM   12  O1  UNL     1      -5.070  22.937  -9.452  1.00  0.00    -0.368 OA
HETATM   13  C11 UNL     1      -5.568  21.725  -9.057  1.00  0.00     0.180 C 
HETATM   14  C12 UNL     1      -7.057  21.941  -8.727  1.00  0.00     0.103 C 
HETATM   15  S1  UNL     1      -6.799  23.471  -7.727  1.00  0.00    -0.129 SA
HETATM   16  C13 UNL     1      -2.875  24.653  -5.540  1.00  0.00     0.002 C 
HETATM   17  C14 UNL     1      -2.379  25.727  -4.662  1.00  0.00     0.008 C 
HETATM   18  C15 UNL     1      -1.331  24.974  -3.819  1.00  0.00     0.026 C 
HETATM   19  C16 UNL     1      -1.043  23.710  -4.557  1.00  0.00     0.095 C 
ENDROOT
BRANCH  19  20
HETATM   20  N1  UNL     1       0.225  23.121  -4.420  1.00  0.00    -0.343 N 
HETATM   21  C19 UNL     1       1.463  23.757  -4.357  1.00  0.00     0.248 C 
HETATM   22  O3  UNL     1       1.586  24.993  -4.298  1.00  0.00    -0.271 OA
BRANCH  20  23
HETATM   23  C17 UNL     1       0.249  21.645  -4.305  1.00  0.00     0.152 C 
BRANCH  23  24
HETATM   24  C18 UNL     1      -0.683  21.187  -3.199  1.00  0.00     0.184 C 
BRANCH  24  25
HETATM   25  O2  UNL     1      -1.077  19.850  -3.407  1.00  0.00    -0.399 OA
ATOM     26  H2  UNL     1      -1.527  19.513  -2.642  1.00  0.00     0.209 HD
ENDBRANCH  24  25
ENDBRANCH  23  24
ENDBRANCH  20  23
BRANCH  21  27
HETATM   27  C20 UNL     1       2.724  22.935  -4.358  1.00  0.00     0.374 C 
BRANCH  27  28
HETATM   28  N2  UNL     1       3.519  23.178  -5.512  1.00  0.00     0.100 N 
HETATM   29  C21 UNL     1       2.772  23.023  -6.712  1.00  0.00     0.303 C 
HETATM   30  C22 UNL     1       2.808  21.547  -7.127  1.00  0.00     0.302 C 
HETATM   31  N3  UNL     1       4.196  21.254  -7.473  1.00  0.00     0.093 N 
HETATM   32  C25 UNL     1       4.940  21.291  -6.254  1.00  0.00     0.302 C 
HETATM   33  C26 UNL     1       4.787  22.545  -5.449  1.00  0.00     0.303 C 
BRANCH  31  34
HETATM   34  C23 UNL     1       4.188  19.895  -7.980  1.00  0.00     0.298 C 
BRANCH  34  35
HETATM   35  C24 UNL     1       2.795  19.354  -7.932  1.00  0.00     0.194 C 
BRANCH  35  36
HETATM   36  O4  UNL     1       2.854  18.006  -8.333  1.00  0.00    -0.399 OA
ATOM     37  H4  UNL     1       2.563  17.478  -7.599  1.00  0.00     0.209 HD
ENDBRANCH  35  36
ENDBRANCH  34  35
ENDBRANCH  31  34
ENDBRANCH  27  28
ENDBRANCH  21  27
ENDBRANCH  19  20
TORSDOF 9
ENDMDL
MODEL 5
REMARK VINA RESULT: -6.491055440      1.135      1.541
REMARK  9 active torsions:
REMARK  status: ('A' for Active; 'I' for Inactive)
REMARK    1  A    between atoms: C16_19  and  N1_20 
REMARK    2  A    between atoms: N1_20  and  C17_21 
REMARK       I    between atoms: N1_20  and  C19_25 
REMARK    3  A    between atoms: C17_21  and  C18_22 
REMARK    4  A    between atoms: C18_22  and  O2_23 
REMARK    5  A    between atoms: C19_25  and  C20_27 
REMARK    6  A    between atoms: C20_27  and  N2_28 
REMARK    7  A    between atoms: N3_31  and  C23_32 
REMARK    8  A    between atoms: C23_32  and  C24_33 
REMARK    9  A    between atoms: C24_33  and  O4_34 
ROOT
HETATM    1  C1  UNL     1      -0.294  19.135  -2.476  1.00  0.00     0.018 C 
HETATM    2  C2  UNL     1       0.413  18.305  -3.450  1.00  0.00    -0.019 C 
HETATM    3  C3  UNL     1      -0.391  17.115  -3.934  1.00  0.00     0.012 C 
HETATM    4  C4  UNL     1      -0.567  16.119  -2.803  1.00  0.00     0.010 C 
HETATM    5  C5  UNL     1       0.794  15.639  -2.348  1.00  0.00     0.037 C 
HETATM    6  C6  UNL     1       1.511  16.868  -1.777  1.00  0.00     0.017 C 
HETATM    7  C7  UNL     1       2.785  16.457  -1.070  1.00  0.00     0.087 C 
HETATM    8 CL1  UNL     1       4.074  15.982  -2.168  1.00  0.00    -0.125 Cl
HETATM    9  C8  UNL     1       2.490  15.455   0.003  1.00  0.00     0.024 C 
HETATM   10  C9  UNL     1       1.039  14.971  -0.015  1.00  0.00     0.051 C 
HETATM   11  C10 UNL     1       0.770  14.491  -1.423  1.00  0.00     0.113 C 
HETATM   12  O1  UNL     1      -0.340  13.673  -1.514  1.00  0.00    -0.368 OA
HETATM   13  C11 UNL     1      -0.222  12.844  -2.596  1.00  0.00     0.180 C 
HETATM   14  C12 UNL     1       0.985  11.925  -2.325  1.00  0.00     0.103 C 
HETATM   15  S1  UNL     1       2.114  13.274  -1.768  1.00  0.00    -0.129 SA
HETATM   16  C13 UNL     1       1.756  17.762  -2.915  1.00  0.00     0.002 C 
HETATM   17  C14 UNL     1       2.485  19.022  -2.691  1.00  0.00     0.008 C 
HETATM   18  C15 UNL     1       2.167  19.795  -3.987  1.00  0.00     0.026 C 
HETATM   19  C16 UNL     1       0.995  19.103  -4.598  1.00  0.00     0.095 C 
ENDROOT
BRANCH  19  20
HETATM   20  N1  UNL     1       0.109  19.849  -5.394  1.00  0.00    -0.343 N 
HETATM   21  C19 UNL     1      -0.691  19.396  -6.440  1.00  0.00     0.248 C 
HETATM   22  O3  UNL     1      -0.804  18.193  -6.734  1.00  0.00    -0.271 OA
BRANCH  20  23
HETATM   23  C17 UNL     1      -0.007  21.289  -5.066  1.00  0.00     0.152 C 
BRANCH  23  24
HETATM   24  C18 UNL     1       1.038  22.088  -5.823  1.00  0.00     0.184 C 
BRANCH  24  25
HETATM   25  O2  UNL     1       0.429  23.128  -6.554  1.00  0.00    -0.399 OA
ATOM     26  H2  UNL     1       0.463  23.941  -6.065  1.00  0.00     0.209 HD
ENDBRANCH  24  25
ENDBRANCH  23  24
ENDBRANCH  20  23
BRANCH  21  27
HETATM   27  C20 UNL     1      -1.465  20.386  -7.270  1.00  0.00     0.374 C 
BRANCH  27  28
HETATM   28  N2  UNL     1      -2.716  20.714  -6.682  1.00  0.00     0.100 N 
HETATM   29  C21 UNL     1      -3.697  19.715  -6.929  1.00  0.00     0.303 C 
HETATM   30  C22 UNL     1      -4.371  20.009  -8.274  1.00  0.00     0.302 C 
HETATM   31  N3  UNL     1      -5.104  21.260  -8.099  1.00  0.00     0.093 N 
HETATM   32  C25 UNL     1      -4.126  22.293  -7.966  1.00  0.00     0.302 C 
HETATM   33  C26 UNL     1      -3.092  22.064  -6.907  1.00  0.00     0.303 C 
BRANCH  31  34
HETATM   34  C23 UNL     1      -5.833  21.457  -9.338  1.00  0.00     0.298 C 
BRANCH  34  35
HETATM   35  C24 UNL     1      -5.875  20.171 -10.099  1.00  0.00     0.194 C 
BRANCH  35  36
HETATM   36  O4  UNL     1      -6.137  20.490 -11.446  1.00  0.00    -0.399 OA
ATOM     37  H4  UNL     1      -6.154  19.674 -11.932  1.00  0.00     0.209 HD
ENDBRANCH  35  36
ENDBRANCH  34  35
ENDBRANCH  31  34
ENDBRANCH  27  28
ENDBRANCH  21  27
ENDBRANCH  19  20
TORSDOF 9
ENDMDL
