MODEL 1
REMARK VINA RESULT: -6.084134577      0.000      0.000
REMARK  9 active torsions:
REMARK  status: ('A' for Active; 'I' for Inactive)
REMARK    1  A    between atoms: O1_2  and  N1_3 
REMARK    2  A    between atoms: C2_5  and  C3_6 
REMARK    3  A    between atoms: C3_6  and  O2_7 
REMARK    4  A    between atoms: C3_6  and  C4_9 
REMARK    5  A    between atoms: C4_9  and  C5_10 
REMARK    6  A    between atoms: C5_10  and  C6_11 
REMARK    7  A    between atoms: C8_14  and  O4_15 
REMARK    8  A    between atoms: O4_15  and  C9_16 
REMARK    9  A    between atoms: C14_22  and  C15_23 
ROOT
HETATM    1  C6  UNL     1      -5.813  20.598  -7.352  1.00  0.00     0.199 C 
HETATM    2  O3  UNL     1      -6.730  20.599  -6.312  1.00  0.00    -0.349 OA
HETATM    3  C7  UNL     1      -6.506  21.962  -6.187  1.00  0.00     0.216 C 
HETATM    4  C8  UNL     1      -6.260  22.008  -7.646  1.00  0.00     0.148 C 
HETATM    5  C11 UNL     1      -7.572  21.865  -8.397  1.00  0.00     0.054 C 
HETATM    6  C12 UNL     1      -7.164  21.311  -9.758  1.00  0.00     0.024 C 
HETATM    7  C13 UNL     1      -8.415  20.986 -10.508  1.00  0.00     0.013 C 
HETATM    8  C14 UNL     1      -6.199  20.180  -9.619  1.00  0.00     0.229 C 
HETATM    9  O8  UNL     1      -6.008  19.711  -8.358  1.00  0.00    -0.336 OA
ENDROOT
BRANCH   1  10
HETATM   10  C5  UNL     1      -4.403  20.477  -6.828  1.00  0.00     0.075 C 
BRANCH  10  11
HETATM   11  C4  UNL     1      -3.766  19.137  -7.176  1.00  0.00     0.043 C 
BRANCH  11  12
HETATM   12  C3  UNL     1      -2.279  19.278  -6.846  1.00  0.00     0.158 C 
BRANCH  12  13
HETATM   13  C2  UNL     1      -2.050  20.639  -6.323  1.00  0.00     0.118 C 
HETATM   14  N1  UNL     1      -0.852  21.013  -6.032  1.00  0.00    -0.280 N 
ATOM     15  H1  UNL     1      -0.698  21.955  -5.671  1.00  0.00     0.193 HD
BRANCH  14  16
HETATM   16  O1  UNL     1       0.210  20.181  -6.196  1.00  0.00    -0.286 OA
HETATM   17  C1  UNL     1       1.471  20.605  -6.676  1.00  0.00     0.237 C 
ENDBRANCH  14  16
ENDBRANCH  12  13
BRANCH  12  18
HETATM   18  O2  UNL     1      -1.492  19.017  -7.957  1.00  0.00    -0.390 OA
ATOM     19  H2  UNL     1      -1.985  19.101  -8.765  1.00  0.00     0.210 HD
ENDBRANCH  12  18
ENDBRANCH  11  12
ENDBRANCH  10  11
ENDBRANCH   1  10
BRANCH   4  20
HETATM   20  O4  UNL     1      -5.307  22.854  -8.153  1.00  0.00    -0.302 OA
BRANCH  20  21
HETATM   21  C9  UNL     1      -5.382  24.205  -8.197  1.00  0.00     0.255 C 
HETATM   22  C10 UNL     1      -4.613  25.104  -7.251  1.00  0.00     0.126 C 
HETATM   23  O5  UNL     1      -6.116  24.750  -9.052  1.00  0.00    -0.266 OA
ENDBRANCH  20  21
ENDBRANCH   4  20
BRANCH   8  24
HETATM   24  C15 UNL     1      -6.637  19.058 -10.485  1.00  0.00     0.203 C 
HETATM   25  O6  UNL     1      -7.046  17.977  -9.992  1.00  0.00    -0.646 OA
HETATM   26  O7  UNL     1      -6.612  19.156 -11.868  1.00  0.00    -0.646 OA
ENDBRANCH   8  24
TORSDOF 9
ENDMDL
MODEL 2
REMARK VINA RESULT: -5.993510598      5.700      9.243
REMARK  9 active torsions:
REMARK  status: ('A' for Active; 'I' for Inactive)
REMARK    1  A    between atoms: O1_2  and  N1_3 
REMARK    2  A    between atoms: C2_5  and  C3_6 
REMARK    3  A    between atoms: C3_6  and  O2_7 
REMARK    4  A    between atoms: C3_6  and  C4_9 
REMARK    5  A    between atoms: C4_9  and  C5_10 
REMARK    6  A    between atoms: C5_10  and  C6_11 
REMARK    7  A    between atoms: C8_14  and  O4_15 
REMARK    8  A    between atoms: O4_15  and  C9_16 
REMARK    9  A    between atoms: C14_22  and  C15_23 
ROOT
HETATM    1  C6  UNL     1       0.005  16.059  -3.994  1.00  0.00     0.199 C 
HETATM    2  O3  UNL     1       1.295  16.533  -3.815  1.00  0.00    -0.349 OA
HETATM    3  C7  UNL     1       0.819  17.266  -2.739  1.00  0.00     0.216 C 
HETATM    4  C8  UNL     1      -0.168  16.190  -2.501  1.00  0.00     0.148 C 
HETATM    5  C11 UNL     1       0.522  14.974  -1.910  1.00  0.00     0.054 C 
HETATM    6  C12 UNL     1      -0.384  13.808  -2.290  1.00  0.00     0.024 C 
HETATM    7  C13 UNL     1       0.306  12.546  -1.884  1.00  0.00     0.013 C 
HETATM    8  C14 UNL     1      -0.784  13.875  -3.727  1.00  0.00     0.229 C 
HETATM    9  O8  UNL     1      -0.140  14.802  -4.482  1.00  0.00    -0.336 OA
ENDROOT
BRANCH   1  10
HETATM   10  C5  UNL     1      -0.816  17.025  -4.814  1.00  0.00     0.075 C 
BRANCH  10  11
HETATM   11  C4  UNL     1      -0.051  17.562  -6.018  1.00  0.00     0.043 C 
BRANCH  11  12
HETATM   12  C3  UNL     1      -1.034  18.453  -6.780  1.00  0.00     0.158 C 
BRANCH  12  13
HETATM   13  C2  UNL     1      -2.354  17.793  -6.772  1.00  0.00     0.118 C 
HETATM   14  N1  UNL     1      -3.371  18.406  -7.273  1.00  0.00    -0.280 N 
ATOM     15  H1  UNL     1      -4.282  17.947  -7.266  1.00  0.00     0.193 HD
BRANCH  14  16
HETATM   16  O1  UNL     1      -3.256  19.649  -7.809  1.00  0.00    -0.286 OA
HETATM   17  C1  UNL     1      -3.970  20.775  -7.336  1.00  0.00     0.237 C 
ENDBRANCH  14  16
ENDBRANCH  12  13
BRANCH  12  18
HETATM   18  O2  UNL     1      -0.590  18.699  -8.069  1.00  0.00    -0.390 OA
ATOM     19  H2  UNL     1       0.198  18.208  -8.270  1.00  0.00     0.210 HD
ENDBRANCH  12  18
ENDBRANCH  11  12
ENDBRANCH  10  11
ENDBRANCH   1  10
BRANCH   4  20
HETATM   20  O4  UNL     1      -1.430  16.503  -2.062  1.00  0.00    -0.302 OA
BRANCH  20  21
HETATM   21  C9  UNL     1      -1.870  16.429  -0.783  1.00  0.00     0.255 C 
HETATM   22  C10 UNL     1      -1.337  17.315   0.324  1.00  0.00     0.126 C 
HETATM   23  O5  UNL     1      -2.755  15.595  -0.488  1.00  0.00    -0.266 OA
ENDBRANCH  20  21
ENDBRANCH   4  20
BRANCH   8  24
HETATM   24  C15 UNL     1      -0.596  12.540  -4.346  1.00  0.00     0.203 C 
HETATM   25  O6  UNL     1      -1.321  11.566  -4.024  1.00  0.00    -0.646 OA
HETATM   26  O7  UNL     1       0.383  12.315  -5.302  1.00  0.00    -0.646 OA
ENDBRANCH   8  24
TORSDOF 9
ENDMDL
MODEL 3
REMARK VINA RESULT: -5.967338186      6.447     10.081
REMARK  9 active torsions:
REMARK  status: ('A' for Active; 'I' for Inactive)
REMARK    1  A    between atoms: O1_2  and  N1_3 
REMARK    2  A    between atoms: C2_5  and  C3_6 
REMARK    3  A    between atoms: C3_6  and  O2_7 
REMARK    4  A    between atoms: C3_6  and  C4_9 
REMARK    5  A    between atoms: C4_9  and  C5_10 
REMARK    6  A    between atoms: C5_10  and  C6_11 
REMARK    7  A    between atoms: C8_14  and  O4_15 
REMARK    8  A    between atoms: O4_15  and  C9_16 
REMARK    9  A    between atoms: C14_22  and  C15_23 
ROOT
HETATM    1  C6  UNL     1       0.514  15.719  -3.150  1.00  0.00     0.199 C 
HETATM    2  O3  UNL     1       1.829  16.113  -2.956  1.00  0.00    -0.349 OA
HETATM    3  C7  UNL     1       1.417  16.719  -1.779  1.00  0.00     0.216 C 
HETATM    4  C8  UNL     1       0.390  15.662  -1.648  1.00  0.00     0.148 C 
HETATM    5  C11 UNL     1       1.042  14.352  -1.241  1.00  0.00     0.054 C 
HETATM    6  C12 UNL     1       0.074  13.283  -1.737  1.00  0.00     0.024 C 
HETATM    7  C13 UNL     1       0.719  11.953  -1.521  1.00  0.00     0.013 C 
HETATM    8  C14 UNL     1      -0.363  13.553  -3.139  1.00  0.00     0.229 C 
HETATM    9  O8  UNL     1       0.300  14.544  -3.791  1.00  0.00    -0.336 OA
ENDROOT
BRANCH   1  10
HETATM   10  C5  UNL     1      -0.285  16.816  -3.810  1.00  0.00     0.075 C 
BRANCH  10  11
HETATM   11  C4  UNL     1      -0.029  16.900  -5.310  1.00  0.00     0.043 C 
BRANCH  11  12
HETATM   12  C3  UNL     1      -1.402  17.071  -5.964  1.00  0.00     0.158 C 
BRANCH  12  13
HETATM   13  C2  UNL     1      -1.747  18.506  -5.942  1.00  0.00     0.118 C 
HETATM   14  N1  UNL     1      -2.816  18.910  -6.536  1.00  0.00    -0.280 N 
ATOM     15  H1  UNL     1      -3.052  19.902  -6.518  1.00  0.00     0.193 HD
BRANCH  14  16
HETATM   16  O1  UNL     1      -3.636  18.042  -7.187  1.00  0.00    -0.286 OA
HETATM   17  C1  UNL     1      -4.736  18.448  -7.978  1.00  0.00     0.237 C 
ENDBRANCH  14  16
ENDBRANCH  12  13
BRANCH  12  18
HETATM   18  O2  UNL     1      -2.361  16.303  -5.324  1.00  0.00    -0.390 OA
ATOM     19  H2  UNL     1      -2.854  15.771  -5.939  1.00  0.00     0.210 HD
ENDBRANCH  12  18
ENDBRANCH  11  12
ENDBRANCH  10  11
ENDBRANCH   1  10
BRANCH   4  20
HETATM   20  O4  UNL     1      -0.843  15.966  -1.129  1.00  0.00    -0.302 OA
BRANCH  20  21
HETATM   21  C9  UNL     1      -1.278  15.670   0.119  1.00  0.00     0.255 C 
HETATM   22  C10 UNL     1      -0.659  16.259   1.369  1.00  0.00     0.126 C 
HETATM   23  O5  UNL     1      -2.234  14.874   0.261  1.00  0.00    -0.266 OA
ENDBRANCH  20  21
ENDBRANCH   4  20
BRANCH   8  24
HETATM   24  C15 UNL     1      -0.253  12.303  -3.931  1.00  0.00     0.203 C 
HETATM   25  O6  UNL     1      -1.205  11.486  -3.993  1.00  0.00    -0.646 OA
HETATM   26  O7  UNL     1       0.901  11.988  -4.632  1.00  0.00    -0.646 OA
ENDBRANCH   8  24
TORSDOF 9
ENDMDL
MODEL 4
REMARK VINA RESULT: -5.872976691      6.923      9.700
REMARK  9 active torsions:
REMARK  status: ('A' for Active; 'I' for Inactive)
REMARK    1  A    between atoms: O1_2  and  N1_3 
REMARK    2  A    between atoms: C2_5  and  C3_6 
REMARK    3  A    between atoms: C3_6  and  O2_7 
REMARK    4  A    between atoms: C3_6  and  C4_9 
REMARK    5  A    between atoms: C4_9  and  C5_10 
REMARK    6  A    between atoms: C5_10  and  C6_11 
REMARK    7  A    between atoms: C8_14  and  O4_15 
REMARK    8  A    between atoms: O4_15  and  C9_16 
REMARK    9  A    between atoms: C14_22  and  C15_23 
ROOT
HETATM    1  C6  UNL     1       0.136  15.849  -3.418  1.00  0.00     0.199 C 
HETATM    2  O3  UNL     1       1.444  16.298  -3.315  1.00  0.00    -0.349 OA
HETATM    3  C7  UNL     1       1.098  16.862  -2.097  1.00  0.00     0.216 C 
HETATM    4  C8  UNL     1       0.132  15.757  -1.912  1.00  0.00     0.148 C 
HETATM    5  C11 UNL     1       0.870  14.471  -1.586  1.00  0.00     0.054 C 
HETATM    6  C12 UNL     1      -0.085  13.368  -2.031  1.00  0.00     0.024 C 
HETATM    7  C13 UNL     1       0.632  12.065  -1.895  1.00  0.00     0.013 C 
HETATM    8  C14 UNL     1      -0.641  13.645  -3.388  1.00  0.00     0.229 C 
HETATM    9  O8  UNL     1      -0.075  14.677  -4.066  1.00  0.00    -0.336 OA
ENDROOT
BRANCH   1  10
HETATM   10  C5  UNL     1      -0.759  16.921  -3.989  1.00  0.00     0.075 C 
BRANCH  10  11
HETATM   11  C4  UNL     1      -0.831  16.868  -5.511  1.00  0.00     0.043 C 
BRANCH  11  12
HETATM   12  C3  UNL     1       0.370  17.668  -6.018  1.00  0.00     0.158 C 
BRANCH  12  13
HETATM   13  C2  UNL     1      -0.114  18.643  -7.016  1.00  0.00     0.118 C 
HETATM   14  N1  UNL     1       0.725  19.437  -7.585  1.00  0.00    -0.280 N 
ATOM     15  H1  UNL     1       0.387  20.109  -8.274  1.00  0.00     0.193 HD
BRANCH  14  16
HETATM   16  O1  UNL     1       2.051  19.398  -7.287  1.00  0.00    -0.286 OA
HETATM   17  C1  UNL     1       3.075  19.467  -8.261  1.00  0.00     0.237 C 
ENDBRANCH  14  16
ENDBRANCH  12  13
BRANCH  12  18
HETATM   18  O2  UNL     1       1.342  16.833  -6.547  1.00  0.00    -0.390 OA
ATOM     19  H2  UNL     1       0.961  16.062  -6.951  1.00  0.00     0.210 HD
ENDBRANCH  12  18
ENDBRANCH  11  12
ENDBRANCH  10  11
ENDBRANCH   1  10
BRANCH   4  20
HETATM   20  O4  UNL     1      -1.070  15.994  -1.293  1.00  0.00    -0.302 OA
BRANCH  20  21
HETATM   21  C9  UNL     1      -1.378  15.693  -0.009  1.00  0.00     0.255 C 
HETATM   22  C10 UNL     1      -0.686  16.332   1.176  1.00  0.00     0.126 C 
HETATM   23  O5  UNL     1      -2.274  14.850   0.223  1.00  0.00    -0.266 OA
ENDBRANCH  20  21
ENDBRANCH   4  20
BRANCH   8  24
HETATM   24  C15 UNL     1      -0.538  12.417  -4.215  1.00  0.00     0.203 C 
HETATM   25  O6  UNL     1      -1.302  11.438  -4.024  1.00  0.00    -0.646 OA
HETATM   26  O7  UNL     1       0.403  12.301  -5.227  1.00  0.00    -0.646 OA
ENDBRANCH   8  24
TORSDOF 9
ENDMDL
MODEL 5
REMARK VINA RESULT: -5.728432671      4.570      8.410
REMARK  9 active torsions:
REMARK  status: ('A' for Active; 'I' for Inactive)
REMARK    1  A    between atoms: O1_2  and  N1_3 
REMARK    2  A    between atoms: C2_5  and  C3_6 
REMARK    3  A    between atoms: C3_6  and  O2_7 
REMARK    4  A    between atoms: C3_6  and  C4_9 
REMARK    5  A    between atoms: C4_9  and  C5_10 
REMARK    6  A    between atoms: C5_10  and  C6_11 
REMARK    7  A    between atoms: C8_14  and  O4_15 
REMARK    8  A    between atoms: O4_15  and  C9_16 
REMARK    9  A    between atoms: C14_22  and  C15_23 
ROOT
HETATM    1  C6  UNL     1       0.162  16.867  -5.223  1.00  0.00     0.199 C 
HETATM    2  O3  UNL     1       1.534  17.057  -5.272  1.00  0.00    -0.349 OA
HETATM    3  C7  UNL     1       1.386  17.996  -4.262  1.00  0.00     0.216 C 
HETATM    4  C8  UNL     1       0.246  17.202  -3.754  1.00  0.00     0.148 C 
HETATM    5  C11 UNL     1       0.753  15.937  -3.083  1.00  0.00     0.054 C 
HETATM    6  C12 UNL     1      -0.420  14.968  -3.178  1.00  0.00     0.024 C 
HETATM    7  C13 UNL     1       0.049  13.639  -2.683  1.00  0.00     0.013 C 
HETATM    8  C14 UNL     1      -1.009  14.959  -4.550  1.00  0.00     0.229 C 
HETATM    9  O8  UNL     1      -0.309  15.627  -5.504  1.00  0.00    -0.336 OA
ENDROOT
BRANCH   1  10
HETATM   10  C5  UNL     1      -0.556  17.892  -6.066  1.00  0.00     0.075 C 
BRANCH  10  11
HETATM   11  C4  UNL     1      -1.978  17.467  -6.412  1.00  0.00     0.043 C 
BRANCH  11  12
HETATM   12  C3  UNL     1      -2.658  18.708  -6.996  1.00  0.00     0.158 C 
BRANCH  12  13
HETATM   13  C2  UNL     1      -3.949  18.293  -7.581  1.00  0.00     0.118 C 
HETATM   14  N1  UNL     1      -4.728  19.182  -8.091  1.00  0.00    -0.280 N 
ATOM     15  H1  UNL     1      -5.619  18.892  -8.495  1.00  0.00     0.193 HD
BRANCH  14  16
HETATM   16  O1  UNL     1      -4.389  20.498  -8.103  1.00  0.00    -0.286 OA
HETATM   17  C1  UNL     1      -5.188  21.508  -8.688  1.00  0.00     0.237 C 
ENDBRANCH  14  16
ENDBRANCH  12  13
BRANCH  12  18
HETATM   18  O2  UNL     1      -1.848  19.331  -7.931  1.00  0.00    -0.390 OA
ATOM     19  H2  UNL     1      -1.155  18.756  -8.235  1.00  0.00     0.210 HD
ENDBRANCH  12  18
ENDBRANCH  11  12
ENDBRANCH  10  11
ENDBRANCH   1  10
BRANCH   4  20
HETATM   20  O4  UNL     1      -0.844  17.836  -3.213  1.00  0.00    -0.302 OA
BRANCH  20  21
HETATM   21  C9  UNL     1      -0.998  18.187  -1.914  1.00  0.00     0.255 C 
HETATM   22  C10 UNL     1      -1.998  17.519  -0.994  1.00  0.00     0.126 C 
HETATM   23  O5  UNL     1      -0.290  19.104  -1.440  1.00  0.00    -0.266 OA
ENDBRANCH  20  21
ENDBRANCH   4  20
BRANCH   8  24
HETATM   24  C15 UNL     1      -1.195  13.554  -4.991  1.00  0.00     0.203 C 
HETATM   25  O6  UNL     1      -2.280  12.951  -4.799  1.00  0.00    -0.646 OA
HETATM   26  O7  UNL     1      -0.182  12.854  -5.628  1.00  0.00    -0.646 OA
ENDBRANCH   8  24
TORSDOF 9
ENDMDL
