MODEL 1
REMARK VINA RESULT: -6.955545671      0.000      0.000
REMARK  8 active torsions:
REMARK  status: ('A' for Active; 'I' for Inactive)
REMARK    1  A    between atoms: O1_2  and  C2_3 
REMARK    2  A    between atoms: C2_3  and  C3_4 
REMARK    3  A    between atoms: C3_4  and  C4_5 
REMARK    4  A    between atoms: C4_5  and  N1_6 
REMARK    5  A    between atoms: N1_6  and  C5_8 
REMARK    6  A    between atoms: C6_11  and  N3_12 
REMARK    7  A    between atoms: C11_20  and  S1_21 
REMARK    8  A    between atoms: S1_21  and  C12_22 
ROOT
HETATM    1  C5  UNL     1      -1.559  17.356  -5.885  1.00  0.00     0.694 A 
HETATM    2  N2  UNL     1      -0.324  17.777  -6.129  1.00  0.00    -0.022 N 
ATOM      3  H2  UNL     1       0.452  17.181  -5.843  1.00  0.00     0.203 HD
HETATM    4  C6  UNL     1      -0.040  18.949  -6.733  1.00  0.00     0.697 A 
HETATM    5  N4  UNL     1      -1.089  19.699  -7.091  1.00  0.00    -0.169 N 
ATOM      6  H4  UNL     1      -0.912  20.591  -7.550  1.00  0.00     0.186 HD
HETATM    7  C11 UNL     1      -2.365  19.334  -6.875  1.00  0.00     0.174 A 
HETATM    8  N6  UNL     1      -2.578  18.147  -6.264  1.00  0.00    -0.169 N 
ATOM      9  H6  UNL     1      -3.536  17.844  -6.086  1.00  0.00     0.186 HD
ENDROOT
BRANCH   7  10
HETATM   10  S1  UNL     1      -3.676  20.421  -7.395  1.00  0.00    -0.086 SA
BRANCH  10  11
HETATM   11  C12 UNL     1      -5.284  19.612  -7.299  1.00  0.00     0.082 C 
HETATM   12  C13 UNL     1      -5.354  18.504  -8.347  1.00  0.00     0.045 C 
HETATM   13  C14 UNL     1      -6.319  19.021  -9.385  1.00  0.00     0.233 C 
HETATM   14  N5  UNL     1      -7.251  19.817  -8.614  1.00  0.00    -0.074 N 
HETATM   15  C15 UNL     1      -6.365  20.556  -7.718  1.00  0.00     0.247 C 
ATOM     16  H52 UNL     1      -7.883  20.395  -9.167  1.00  0.00     0.277 HD
ATOM     17  H51 UNL     1      -7.987  19.286  -8.148  1.00  0.00     0.277 HD
ENDBRANCH  10  11
ENDBRANCH   7  10
BRANCH   4  18
HETATM   18  N3  UNL     1       1.308  19.292  -6.941  1.00  0.00    -0.213 N 
HETATM   19  C7  UNL     1       2.279  18.258  -7.187  1.00  0.00     0.167 C 
HETATM   20  C8  UNL     1       3.321  18.639  -8.191  1.00  0.00     0.188 C 
HETATM   21  O2  UNL     1       3.272  19.940  -8.627  1.00  0.00    -0.388 OA
HETATM   22  C9  UNL     1       3.084  20.853  -7.592  1.00  0.00     0.188 C 
HETATM   23  C10 UNL     1       1.745  20.658  -6.914  1.00  0.00     0.167 C 
ENDBRANCH   4  18
BRANCH   1  24
HETATM   24  N1  UNL     1      -1.791  16.239  -5.310  1.00  0.00    -0.225 N 
ATOM     25  H1  UNL     1      -2.772  15.973  -5.218  1.00  0.00     0.177 HD
BRANCH  24  26
HETATM   26  C4  UNL     1      -0.836  15.321  -4.782  1.00  0.00     0.140 C 
BRANCH  26  27
HETATM   27  C3  UNL     1      -1.190  13.907  -5.253  1.00  0.00     0.046 C 
BRANCH  27  28
HETATM   28  C2  UNL     1      -0.937  12.919  -4.145  1.00  0.00     0.168 C 
BRANCH  28  29
HETATM   29  O1  UNL     1       0.348  12.369  -4.227  1.00  0.00    -0.396 OA
HETATM   30  C1  UNL     1       0.293  11.129  -4.858  1.00  0.00     0.201 C 
ENDBRANCH  28  29
ENDBRANCH  27  28
ENDBRANCH  26  27
ENDBRANCH  24  26
ENDBRANCH   1  24
TORSDOF 8
ENDMDL
MODEL 2
REMARK VINA RESULT: -6.793998963      2.379      6.086
REMARK  8 active torsions:
REMARK  status: ('A' for Active; 'I' for Inactive)
REMARK    1  A    between atoms: O1_2  and  C2_3 
REMARK    2  A    between atoms: C2_3  and  C3_4 
REMARK    3  A    between atoms: C3_4  and  C4_5 
REMARK    4  A    between atoms: C4_5  and  N1_6 
REMARK    5  A    between atoms: N1_6  and  C5_8 
REMARK    6  A    between atoms: C6_11  and  N3_12 
REMARK    7  A    between atoms: C11_20  and  S1_21 
REMARK    8  A    between atoms: S1_21  and  C12_22 
ROOT
HETATM    1  C5  UNL     1      -1.215  17.161  -5.958  1.00  0.00     0.694 A 
HETATM    2  N2  UNL     1      -2.376  17.616  -6.414  1.00  0.00    -0.022 N 
ATOM      3  H2  UNL     1      -3.167  16.973  -6.442  1.00  0.00     0.203 HD
HETATM    4  C6  UNL     1      -2.567  18.880  -6.842  1.00  0.00     0.697 A 
HETATM    5  N4  UNL     1      -1.502  19.690  -6.787  1.00  0.00    -0.169 N 
ATOM      6  H4  UNL     1      -1.610  20.653  -7.103  1.00  0.00     0.186 HD
HETATM    7  C11 UNL     1      -0.298  19.296  -6.337  1.00  0.00     0.174 A 
HETATM    8  N6  UNL     1      -0.176  18.015  -5.924  1.00  0.00    -0.169 N 
ATOM      9  H6  UNL     1       0.726  17.687  -5.578  1.00  0.00     0.186 HD
ENDROOT
BRANCH   7  10
HETATM   10  S1  UNL     1       1.043  20.467  -6.317  1.00  0.00    -0.086 SA
BRANCH  10  11
HETATM   11  C12 UNL     1       2.608  19.688  -6.759  1.00  0.00     0.082 C 
HETATM   12  C13 UNL     1       3.741  20.693  -6.569  1.00  0.00     0.045 C 
HETATM   13  C14 UNL     1       4.181  21.043  -7.970  1.00  0.00     0.233 C 
HETATM   14  N5  UNL     1       3.956  19.818  -8.710  1.00  0.00    -0.074 N 
HETATM   15  C15 UNL     1       2.645  19.395  -8.225  1.00  0.00     0.247 C 
ATOM     16  H52 UNL     1       4.031  19.909  -9.723  1.00  0.00     0.277 HD
ATOM     17  H51 UNL     1       4.694  19.120  -8.619  1.00  0.00     0.277 HD
ENDBRANCH  10  11
ENDBRANCH   7  10
BRANCH   4  18
HETATM   18  N3  UNL     1      -3.843  19.252  -7.304  1.00  0.00    -0.213 N 
HETATM   19  C7  UNL     1      -4.304  20.602  -7.117  1.00  0.00     0.167 C 
HETATM   20  C8  UNL     1      -5.101  21.129  -8.268  1.00  0.00     0.188 C 
HETATM   21  O2  UNL     1      -5.377  20.220  -9.259  1.00  0.00    -0.388 OA
HETATM   22  C9  UNL     1      -5.794  18.987  -8.765  1.00  0.00     0.188 C 
HETATM   23  C10 UNL     1      -4.703  18.312  -7.962  1.00  0.00     0.167 C 
ENDBRANCH   4  18
BRANCH   1  24
HETATM   24  N1  UNL     1      -1.070  15.956  -5.561  1.00  0.00    -0.225 N 
ATOM     25  H1  UNL     1      -0.494  15.353  -6.147  1.00  0.00     0.177 HD
BRANCH  24  26
HETATM   26  C4  UNL     1      -1.623  15.357  -4.390  1.00  0.00     0.140 C 
BRANCH  26  27
HETATM   27  C3  UNL     1      -0.928  14.016  -4.141  1.00  0.00     0.046 C 
BRANCH  27  28
HETATM   28  C2  UNL     1      -1.097  13.119  -5.339  1.00  0.00     0.168 C 
BRANCH  28  29
HETATM   29  O1  UNL     1       0.027  12.308  -5.540  1.00  0.00    -0.396 OA
HETATM   30  C1  UNL     1       0.008  11.243  -4.644  1.00  0.00     0.201 C 
ENDBRANCH  28  29
ENDBRANCH  27  28
ENDBRANCH  26  27
ENDBRANCH  24  26
ENDBRANCH   1  24
TORSDOF 8
ENDMDL
MODEL 3
REMARK VINA RESULT: -6.769668607      1.209      1.677
REMARK  8 active torsions:
REMARK  status: ('A' for Active; 'I' for Inactive)
REMARK    1  A    between atoms: O1_2  and  C2_3 
REMARK    2  A    between atoms: C2_3  and  C3_4 
REMARK    3  A    between atoms: C3_4  and  C4_5 
REMARK    4  A    between atoms: C4_5  and  N1_6 
REMARK    5  A    between atoms: N1_6  and  C5_8 
REMARK    6  A    between atoms: C6_11  and  N3_12 
REMARK    7  A    between atoms: C11_20  and  S1_21 
REMARK    8  A    between atoms: S1_21  and  C12_22 
ROOT
HETATM    1  C5  UNL     1      -1.596  17.397  -5.871  1.00  0.00     0.694 A 
HETATM    2  N2  UNL     1      -0.359  17.806  -6.120  1.00  0.00    -0.022 N 
ATOM      3  H2  UNL     1       0.414  17.204  -5.837  1.00  0.00     0.203 HD
HETATM    4  C6  UNL     1      -0.065  18.974  -6.727  1.00  0.00     0.697 A 
HETATM    5  N4  UNL     1      -1.109  19.734  -7.082  1.00  0.00    -0.169 N 
ATOM      6  H4  UNL     1      -0.925  20.624  -7.544  1.00  0.00     0.186 HD
HETATM    7  C11 UNL     1      -2.388  19.381  -6.861  1.00  0.00     0.174 A 
HETATM    8  N6  UNL     1      -2.609  18.197  -6.247  1.00  0.00    -0.169 N 
ATOM      9  H6  UNL     1      -3.569  17.903  -6.066  1.00  0.00     0.186 HD
ENDROOT
BRANCH   7  10
HETATM   10  S1  UNL     1      -3.690  20.479  -7.378  1.00  0.00    -0.086 SA
BRANCH  10  11
HETATM   11  C12 UNL     1      -5.302  19.676  -7.301  1.00  0.00     0.082 C 
HETATM   12  C13 UNL     1      -5.367  18.575  -8.355  1.00  0.00     0.045 C 
HETATM   13  C14 UNL     1      -6.320  19.100  -9.400  1.00  0.00     0.233 C 
HETATM   14  N5  UNL     1      -7.256  19.896  -8.633  1.00  0.00    -0.074 N 
HETATM   15  C15 UNL     1      -6.376  20.627  -7.725  1.00  0.00     0.247 C 
ATOM     16  H52 UNL     1      -7.880  20.480  -9.189  1.00  0.00     0.277 HD
ATOM     17  H51 UNL     1      -7.999  19.366  -8.176  1.00  0.00     0.277 HD
ENDBRANCH  10  11
ENDBRANCH   7  10
BRANCH   4  18
HETATM   18  N3  UNL     1       1.285  19.305  -6.941  1.00  0.00    -0.213 N 
HETATM   19  C7  UNL     1       2.251  18.260  -7.152  1.00  0.00     0.167 C 
HETATM   20  C8  UNL     1       3.298  18.604  -8.163  1.00  0.00     0.188 C 
HETATM   21  O2  UNL     1       3.257  19.891  -8.639  1.00  0.00    -0.388 OA
HETATM   22  C9  UNL     1       3.071  20.837  -7.634  1.00  0.00     0.188 C 
HETATM   23  C10 UNL     1       1.728  20.669  -6.955  1.00  0.00     0.167 C 
ENDBRANCH   4  18
BRANCH   1  24
HETATM   24  N1  UNL     1      -1.837  16.284  -5.293  1.00  0.00    -0.225 N 
ATOM     25  H1  UNL     1      -2.730  16.210  -4.808  1.00  0.00     0.177 HD
BRANCH  24  26
HETATM   26  C4  UNL     1      -0.998  15.131  -5.250  1.00  0.00     0.140 C 
BRANCH  26  27
HETATM   27  C3  UNL     1      -0.820  14.698  -3.792  1.00  0.00     0.046 C 
BRANCH  27  28
HETATM   28  C2  UNL     1       0.207  15.570  -3.119  1.00  0.00     0.168 C 
BRANCH  28  29
HETATM   29  O1  UNL     1       1.088  16.140  -4.047  1.00  0.00    -0.396 OA
HETATM   30  C1  UNL     1       1.896  17.082  -3.415  1.00  0.00     0.201 C 
ENDBRANCH  28  29
ENDBRANCH  27  28
ENDBRANCH  26  27
ENDBRANCH  24  26
ENDBRANCH   1  24
TORSDOF 8
ENDMDL
MODEL 4
REMARK VINA RESULT: -6.742566082      3.442      6.165
REMARK  8 active torsions:
REMARK  status: ('A' for Active; 'I' for Inactive)
REMARK    1  A    between atoms: O1_2  and  C2_3 
REMARK    2  A    between atoms: C2_3  and  C3_4 
REMARK    3  A    between atoms: C3_4  and  C4_5 
REMARK    4  A    between atoms: C4_5  and  N1_6 
REMARK    5  A    between atoms: N1_6  and  C5_8 
REMARK    6  A    between atoms: C6_11  and  N3_12 
REMARK    7  A    between atoms: C11_20  and  S1_21 
REMARK    8  A    between atoms: S1_21  and  C12_22 
ROOT
HETATM    1  C5  UNL     1      -4.349  18.917  -7.722  1.00  0.00     0.694 A 
HETATM    2  N2  UNL     1      -3.172  18.512  -7.262  1.00  0.00    -0.022 N 
ATOM      3  H2  UNL     1      -2.961  17.514  -7.291  1.00  0.00     0.203 HD
HETATM    4  C6  UNL     1      -2.239  19.344  -6.755  1.00  0.00     0.697 A 
HETATM    5  N4  UNL     1      -2.557  20.644  -6.735  1.00  0.00    -0.169 N 
ATOM      6  H4  UNL     1      -1.876  21.304  -6.360  1.00  0.00     0.186 HD
HETATM    7  C11 UNL     1      -3.730  21.125  -7.185  1.00  0.00     0.174 A 
HETATM    8  N6  UNL     1      -4.619  20.234  -7.679  1.00  0.00    -0.169 N 
ATOM      9  H6  UNL     1      -5.517  20.569  -8.028  1.00  0.00     0.186 HD
ENDROOT
BRANCH   7  10
HETATM   10  S1  UNL     1      -4.036  22.876  -7.102  1.00  0.00    -0.086 SA
BRANCH  10  11
HETATM   11  C12 UNL     1      -5.748  23.269  -7.511  1.00  0.00     0.082 C 
HETATM   12  C13 UNL     1      -5.834  23.683  -8.977  1.00  0.00     0.045 C 
HETATM   13  C14 UNL     1      -6.107  25.166  -8.940  1.00  0.00     0.233 C 
HETATM   14  N5  UNL     1      -6.898  25.334  -7.739  1.00  0.00    -0.074 N 
HETATM   15  C15 UNL     1      -6.188  24.496  -6.777  1.00  0.00     0.247 C 
ATOM     16  H52 UNL     1      -7.035  26.302  -7.447  1.00  0.00     0.277 HD
ATOM     17  H51 UNL     1      -7.890  25.122  -7.844  1.00  0.00     0.277 HD
ENDBRANCH  10  11
ENDBRANCH   7  10
BRANCH   4  18
HETATM   18  N3  UNL     1      -1.026  18.801  -6.296  1.00  0.00    -0.213 N 
HETATM   19  C7  UNL     1      -1.002  18.034  -5.079  1.00  0.00     0.167 C 
HETATM   20  C8  UNL     1      -0.071  16.864  -5.124  1.00  0.00     0.188 C 
HETATM   21  O2  UNL     1       0.703  16.770  -6.254  1.00  0.00    -0.388 OA
HETATM   22  C9  UNL     1       1.263  17.987  -6.633  1.00  0.00     0.188 C 
HETATM   23  C10 UNL     1       0.200  18.994  -7.017  1.00  0.00     0.167 C 
ENDBRANCH   4  18
BRANCH   1  24
HETATM   24  N1  UNL     1      -5.208  18.099  -8.195  1.00  0.00    -0.225 N 
ATOM     25  H1  UNL     1      -4.911  17.127  -8.272  1.00  0.00     0.177 HD
BRANCH  24  26
HETATM   26  C4  UNL     1      -6.536  18.391  -8.627  1.00  0.00     0.140 C 
BRANCH  26  27
HETATM   27  C3  UNL     1      -6.491  18.891 -10.073  1.00  0.00     0.046 C 
BRANCH  27  28
HETATM   28  C2  UNL     1      -7.153  20.240 -10.171  1.00  0.00     0.168 C 
BRANCH  28  29
HETATM   29  O1  UNL     1      -7.625  20.675  -8.926  1.00  0.00    -0.396 OA
HETATM   30  C1  UNL     1      -8.750  21.477  -9.100  1.00  0.00     0.201 C 
ENDBRANCH  28  29
ENDBRANCH  27  28
ENDBRANCH  26  27
ENDBRANCH  24  26
ENDBRANCH   1  24
TORSDOF 8
ENDMDL
MODEL 5
REMARK VINA RESULT: -6.741016395      2.749      7.458
REMARK  8 active torsions:
REMARK  status: ('A' for Active; 'I' for Inactive)
REMARK    1  A    between atoms: O1_2  and  C2_3 
REMARK    2  A    between atoms: C2_3  and  C3_4 
REMARK    3  A    between atoms: C3_4  and  C4_5 
REMARK    4  A    between atoms: C4_5  and  N1_6 
REMARK    5  A    between atoms: N1_6  and  C5_8 
REMARK    6  A    between atoms: C6_11  and  N3_12 
REMARK    7  A    between atoms: C11_20  and  S1_21 
REMARK    8  A    between atoms: S1_21  and  C12_22 
ROOT
HETATM    1  C5  UNL     1      -2.417  18.202  -7.066  1.00  0.00     0.694 A 
HETATM    2  N2  UNL     1      -2.248  17.265  -6.142  1.00  0.00    -0.022 N 
ATOM      3  H2  UNL     1      -3.053  16.698  -5.879  1.00  0.00     0.203 HD
HETATM    4  C6  UNL     1      -1.070  17.022  -5.530  1.00  0.00     0.697 A 
HETATM    5  N4  UNL     1      -0.040  17.790  -5.905  1.00  0.00    -0.169 N 
ATOM      6  H4  UNL     1       0.866  17.634  -5.464  1.00  0.00     0.186 HD
HETATM    7  C11 UNL     1      -0.140  18.757  -6.835  1.00  0.00     0.174 A 
HETATM    8  N6  UNL     1      -1.350  18.947  -7.407  1.00  0.00    -0.169 N 
ATOM      9  H6  UNL     1      -1.456  19.673  -8.116  1.00  0.00     0.186 HD
ENDROOT
BRANCH   7  10
HETATM   10  S1  UNL     1       1.304  19.714  -7.246  1.00  0.00    -0.086 SA
BRANCH  10  11
HETATM   11  C12 UNL     1       2.745  18.661  -7.501  1.00  0.00     0.082 C 
HETATM   12  C13 UNL     1       3.600  18.664  -6.237  1.00  0.00     0.045 C 
HETATM   13  C14 UNL     1       4.830  19.454  -6.610  1.00  0.00     0.233 C 
HETATM   14  N5  UNL     1       5.009  19.157  -8.016  1.00  0.00    -0.074 N 
HETATM   15  C15 UNL     1       3.647  19.258  -8.534  1.00  0.00     0.247 C 
ATOM     16  H52 UNL     1       5.695  19.741  -8.494  1.00  0.00     0.277 HD
ATOM     17  H51 UNL     1       5.479  18.273  -8.212  1.00  0.00     0.277 HD
ENDBRANCH  10  11
ENDBRANCH   7  10
BRANCH   4  18
HETATM   18  N3  UNL     1      -1.009  16.002  -4.564  1.00  0.00    -0.213 N 
HETATM   19  C7  UNL     1      -1.568  14.708  -4.855  1.00  0.00     0.167 C 
HETATM   20  C8  UNL     1      -0.769  13.571  -4.303  1.00  0.00     0.188 C 
HETATM   21  O2  UNL     1       0.292  13.926  -3.507  1.00  0.00    -0.388 OA
HETATM   22  C9  UNL     1      -0.028  14.925  -2.590  1.00  0.00     0.188 C 
HETATM   23  C10 UNL     1      -0.397  16.219  -3.284  1.00  0.00     0.167 C 
ENDBRANCH   4  18
BRANCH   1  24
HETATM   24  N1  UNL     1      -3.547  18.405  -7.625  1.00  0.00    -0.225 N 
ATOM     25  H1  UNL     1      -3.772  17.807  -8.420  1.00  0.00     0.177 HD
BRANCH  24  26
HETATM   26  C4  UNL     1      -4.532  19.372  -7.264  1.00  0.00     0.140 C 
BRANCH  26  27
HETATM   27  C3  UNL     1      -5.513  19.543  -8.427  1.00  0.00     0.046 C 
BRANCH  27  28
HETATM   28  C2  UNL     1      -6.273  18.262  -8.651  1.00  0.00     0.168 C 
BRANCH  28  29
HETATM   29  O1  UNL     1      -6.818  18.204  -9.939  1.00  0.00    -0.396 OA
HETATM   30  C1  UNL     1      -6.654  19.430 -10.578  1.00  0.00     0.201 C 
ENDBRANCH  28  29
ENDBRANCH  27  28
ENDBRANCH  26  27
ENDBRANCH  24  26
ENDBRANCH   1  24
TORSDOF 8
ENDMDL
