MODEL 1
REMARK VINA RESULT: -6.278803094      0.000      0.000
REMARK  8 active torsions:
REMARK  status: ('A' for Active; 'I' for Inactive)
REMARK    1  A    between atoms: C3_3  and  S1_4 
REMARK    2  A    between atoms: S1_4  and  C4_5 
REMARK    3  A    between atoms: C4_5  and  C5_6 
REMARK    4  A    between atoms: C5_6  and  N1_7 
REMARK    5  A    between atoms: N2_10  and  C8_11 
REMARK    6  A    between atoms: C9_14  and  C10_15 
REMARK    7  A    between atoms: C11_17  and  N4_18 
REMARK    8  A    between atoms: C12_23  and  N6_24 
ROOT
HETATM    1  C1  UNL     1      -2.723  23.856  -7.187  1.00  0.00     0.013 C 
HETATM    2  C2  UNL     1      -3.558  24.230  -6.403  1.00  0.00    -0.107 C 
HETATM    3  C3  UNL     1      -4.583  24.716  -5.448  1.00  0.00     0.166 C 
ENDROOT
BRANCH   3   4
HETATM    4  S1  UNL     1      -5.309  26.273  -6.089  1.00  0.00    -0.155 SA
BRANCH   4   5
HETATM    5  C4  UNL     1      -6.181  25.932  -7.660  1.00  0.00     0.105 C 
BRANCH   5   6
HETATM    6  C5  UNL     1      -7.214  24.867  -7.458  1.00  0.00     0.282 C 
BRANCH   6   7
HETATM    7  N1  UNL     1      -7.294  23.966  -8.556  1.00  0.00     0.092 N 
HETATM    8  C6  UNL     1      -6.050  23.698  -9.189  1.00  0.00     0.292 C 
HETATM    9  C7  UNL     1      -5.852  22.204  -9.464  1.00  0.00     0.154 C 
HETATM   10  N2  UNL     1      -6.097  21.439  -8.260  1.00  0.00    -0.361 N 
HETATM   11  C13 UNL     1      -7.274  21.819  -7.505  1.00  0.00     0.154 C 
HETATM   12  C14 UNL     1      -8.061  22.786  -8.364  1.00  0.00     0.292 C 
BRANCH  10  13
HETATM   13  C8  UNL     1      -5.203  20.398  -7.888  1.00  0.00     0.155 A 
HETATM   14  N3  UNL     1      -4.143  20.659  -7.093  1.00  0.00    -0.334 N 
HETATM   15  C9  UNL     1      -3.216  19.752  -6.734  1.00  0.00     0.116 A 
ATOM     16  H3  UNL     1      -4.038  21.611  -6.740  1.00  0.00     0.168 HD
HETATM   17  C11 UNL     1      -3.316  18.474  -7.180  1.00  0.00     0.131 A 
HETATM   18  N5  UNL     1      -4.370  18.173  -7.981  1.00  0.00    -0.319 N 
HETATM   19  C12 UNL     1      -5.286  19.091  -8.328  1.00  0.00     0.219 A 
ATOM     20  H5  UNL     1      -4.469  17.220  -8.329  1.00  0.00     0.169 HD
BRANCH  15  21
HETATM   21  C10 UNL     1      -2.160  20.231  -5.878  1.00  0.00     0.291 C 
HETATM   22  O1  UNL     1      -1.876  19.691  -4.805  1.00  0.00    -0.300 OA
ENDBRANCH  15  21
BRANCH  17  23
HETATM   23  N4  UNL     1      -2.505  17.543  -6.910  1.00  0.00    -0.383 N 
ATOM     24  H42 UNL     1      -2.819  16.820  -6.262  1.00  0.00     0.157 HD
ATOM     25  H41 UNL     1      -1.562  17.457  -7.288  1.00  0.00     0.157 HD
ENDBRANCH  17  23
BRANCH  19  26
HETATM   26  N6  UNL     1      -6.381  18.670  -9.111  1.00  0.00    -0.094 N 
HETATM   27  O2  UNL     1      -7.328  18.078  -8.507  1.00  0.00    -0.530 OA
HETATM   28  O3  UNL     1      -6.543  18.819 -10.446  1.00  0.00    -0.530 OA
ENDBRANCH  19  26
ENDBRANCH  10  13
ENDBRANCH   6   7
ENDBRANCH   5   6
ENDBRANCH   4   5
ENDBRANCH   3   4
TORSDOF 8
ENDMDL
MODEL 2
REMARK VINA RESULT: -6.048889725      4.243      7.877
REMARK  8 active torsions:
REMARK  status: ('A' for Active; 'I' for Inactive)
REMARK    1  A    between atoms: C3_3  and  S1_4 
REMARK    2  A    between atoms: S1_4  and  C4_5 
REMARK    3  A    between atoms: C4_5  and  C5_6 
REMARK    4  A    between atoms: C5_6  and  N1_7 
REMARK    5  A    between atoms: N2_10  and  C8_11 
REMARK    6  A    between atoms: C9_14  and  C10_15 
REMARK    7  A    between atoms: C11_17  and  N4_18 
REMARK    8  A    between atoms: C12_23  and  N6_24 
ROOT
HETATM    1  C1  UNL     1       0.275  11.027  -4.562  1.00  0.00     0.013 C 
HETATM    2  C2  UNL     1      -0.394  11.962  -4.923  1.00  0.00    -0.107 C 
HETATM    3  C3  UNL     1      -1.215  13.123  -5.342  1.00  0.00     0.166 C 
ENDROOT
BRANCH   3   4
HETATM    4  S1  UNL     1      -0.832  14.551  -4.256  1.00  0.00    -0.155 SA
BRANCH   4   5
HETATM    5  C4  UNL     1      -1.368  16.095  -5.076  1.00  0.00     0.105 C 
BRANCH   5   6
HETATM    6  C5  UNL     1      -0.814  17.284  -4.353  1.00  0.00     0.282 C 
BRANCH   6   7
HETATM    7  N1  UNL     1      -0.435  18.334  -5.235  1.00  0.00     0.092 N 
HETATM    8  C6  UNL     1      -0.712  18.079  -6.605  1.00  0.00     0.292 C 
HETATM    9  C7  UNL     1      -1.355  19.285  -7.298  1.00  0.00     0.154 C 
HETATM   10  N2  UNL     1      -2.486  19.757  -6.528  1.00  0.00    -0.361 N 
HETATM   11  C13 UNL     1      -2.274  19.855  -5.098  1.00  0.00     0.154 C 
HETATM   12  C14 UNL     1      -0.793  19.654  -4.853  1.00  0.00     0.292 C 
BRANCH  10  13
HETATM   13  C8  UNL     1      -3.704  20.082  -7.184  1.00  0.00     0.155 A 
HETATM   14  N3  UNL     1      -4.508  19.104  -7.656  1.00  0.00    -0.334 N 
HETATM   15  C9  UNL     1      -5.650  19.317  -8.337  1.00  0.00     0.116 A 
ATOM     16  H3  UNL     1      -4.230  18.138  -7.485  1.00  0.00     0.168 HD
HETATM   17  C11 UNL     1      -6.058  20.587  -8.588  1.00  0.00     0.131 A 
HETATM   18  N5  UNL     1      -5.277  21.596  -8.128  1.00  0.00    -0.319 N 
HETATM   19  C12 UNL     1      -4.141  21.366  -7.450  1.00  0.00     0.219 A 
ATOM     20  H5  UNL     1      -5.561  22.560  -8.302  1.00  0.00     0.169 HD
BRANCH  15  21
HETATM   21  C10 UNL     1      -6.365  18.138  -8.757  1.00  0.00     0.291 C 
HETATM   22  O1  UNL     1      -6.844  18.017  -9.888  1.00  0.00    -0.300 OA
ENDBRANCH  15  21
BRANCH  17  23
HETATM   23  N4  UNL     1      -7.108  20.903  -9.217  1.00  0.00    -0.383 N 
ATOM     24  H42 UNL     1      -7.140  20.690 -10.214  1.00  0.00     0.157 HD
ATOM     25  H41 UNL     1      -7.925  21.354  -8.807  1.00  0.00     0.157 HD
ENDBRANCH  17  23
BRANCH  19  26
HETATM   26  N6  UNL     1      -3.428  22.478  -6.955  1.00  0.00    -0.094 N 
HETATM   27  O2  UNL     1      -4.062  23.281  -6.202  1.00  0.00    -0.530 OA
HETATM   28  O3  UNL     1      -2.136  22.799  -7.192  1.00  0.00    -0.530 OA
ENDBRANCH  19  26
ENDBRANCH  10  13
ENDBRANCH   6   7
ENDBRANCH   5   6
ENDBRANCH   4   5
ENDBRANCH   3   4
TORSDOF 8
ENDMDL
MODEL 3
REMARK VINA RESULT: -5.587154072      5.102      9.008
REMARK  8 active torsions:
REMARK  status: ('A' for Active; 'I' for Inactive)
REMARK    1  A    between atoms: C3_3  and  S1_4 
REMARK    2  A    between atoms: S1_4  and  C4_5 
REMARK    3  A    between atoms: C4_5  and  C5_6 
REMARK    4  A    between atoms: C5_6  and  N1_7 
REMARK    5  A    between atoms: N2_10  and  C8_11 
REMARK    6  A    between atoms: C9_14  and  C10_15 
REMARK    7  A    between atoms: C11_17  and  N4_18 
REMARK    8  A    between atoms: C12_23  and  N6_24 
ROOT
HETATM    1  C1  UNL     1       0.275  11.206  -4.936  1.00  0.00     0.013 C 
HETATM    2  C2  UNL     1      -0.240  11.708  -3.970  1.00  0.00    -0.107 C 
HETATM    3  C3  UNL     1      -0.849  12.331  -2.770  1.00  0.00     0.166 C 
ENDROOT
BRANCH   3   4
HETATM    4  S1  UNL     1       0.353  13.499  -2.025  1.00  0.00    -0.155 SA
BRANCH   4   5
HETATM    5  C4  UNL     1      -0.526  15.007  -1.483  1.00  0.00     0.105 C 
BRANCH   5   6
HETATM    6  C5  UNL     1      -1.224  15.646  -2.643  1.00  0.00     0.282 C 
BRANCH   6   7
HETATM    7  N1  UNL     1      -0.319  16.151  -3.618  1.00  0.00     0.092 N 
HETATM    8  C6  UNL     1      -0.747  15.978  -4.962  1.00  0.00     0.292 C 
HETATM    9  C7  UNL     1      -0.551  17.246  -5.798  1.00  0.00     0.154 C 
HETATM   10  N2  UNL     1      -1.132  18.385  -5.119  1.00  0.00    -0.361 N 
HETATM   11  C13 UNL     1      -0.849  18.481  -3.702  1.00  0.00     0.154 C 
HETATM   12  C14 UNL     1       0.213  17.448  -3.389  1.00  0.00     0.292 C 
BRANCH  10  13
HETATM   13  C8  UNL     1      -1.927  19.313  -5.845  1.00  0.00     0.155 A 
HETATM   14  N3  UNL     1      -3.075  18.915  -6.437  1.00  0.00    -0.334 N 
HETATM   15  C9  UNL     1      -3.861  19.708  -7.188  1.00  0.00     0.116 A 
ATOM     16  H3  UNL     1      -3.365  17.946  -6.304  1.00  0.00     0.168 HD
HETATM   17  C11 UNL     1      -3.514  21.004  -7.391  1.00  0.00     0.131 A 
HETATM   18  N5  UNL     1      -2.368  21.441  -6.811  1.00  0.00    -0.319 N 
HETATM   19  C12 UNL     1      -1.595  20.636  -6.064  1.00  0.00     0.219 A 
ATOM     20  H5  UNL     1      -2.084  22.411  -6.947  1.00  0.00     0.169 HD
BRANCH  15  21
HETATM   21  C10 UNL     1      -5.045  19.091  -7.732  1.00  0.00     0.291 C 
HETATM   22  O1  UNL     1      -5.350  19.174  -8.926  1.00  0.00    -0.300 OA
ENDBRANCH  15  21
BRANCH  17  23
HETATM   23  N4  UNL     1      -4.174  21.835  -8.078  1.00  0.00    -0.383 N 
ATOM     24  H42 UNL     1      -4.279  22.777  -7.701  1.00  0.00     0.157 HD
ATOM     25  H41 UNL     1      -4.609  21.639  -8.979  1.00  0.00     0.157 HD
ENDBRANCH  17  23
BRANCH  19  26
HETATM   26  N6  UNL     1      -0.456  21.197  -5.449  1.00  0.00    -0.094 N 
HETATM   27  O2  UNL     1      -0.653  21.939  -4.438  1.00  0.00    -0.530 OA
HETATM   28  O3  UNL     1       0.837  21.040  -5.814  1.00  0.00    -0.530 OA
ENDBRANCH  19  26
ENDBRANCH  10  13
ENDBRANCH   6   7
ENDBRANCH   5   6
ENDBRANCH   4   5
ENDBRANCH   3   4
TORSDOF 8
ENDMDL
MODEL 4
REMARK VINA RESULT: -5.548758555      4.600      8.526
REMARK  8 active torsions:
REMARK  status: ('A' for Active; 'I' for Inactive)
REMARK    1  A    between atoms: C3_3  and  S1_4 
REMARK    2  A    between atoms: S1_4  and  C4_5 
REMARK    3  A    between atoms: C4_5  and  C5_6 
REMARK    4  A    between atoms: C5_6  and  N1_7 
REMARK    5  A    between atoms: N2_10  and  C8_11 
REMARK    6  A    between atoms: C9_14  and  C10_15 
REMARK    7  A    between atoms: C11_17  and  N4_18 
REMARK    8  A    between atoms: C12_23  and  N6_24 
ROOT
HETATM    1  C1  UNL     1       0.276  10.547  -4.561  1.00  0.00     0.013 C 
HETATM    2  C2  UNL     1      -0.232  11.583  -4.214  1.00  0.00    -0.107 C 
HETATM    3  C3  UNL     1      -0.849  12.869  -3.809  1.00  0.00     0.166 C 
ENDROOT
BRANCH   3   4
HETATM    4  S1  UNL     1      -1.225  13.852  -5.312  1.00  0.00    -0.155 SA
BRANCH   4   5
HETATM    5  C4  UNL     1      -1.507  15.595  -4.839  1.00  0.00     0.105 C 
BRANCH   5   6
HETATM    6  C5  UNL     1      -0.351  16.108  -4.037  1.00  0.00     0.282 C 
BRANCH   6   7
HETATM    7  N1  UNL     1       0.293  17.219  -4.650  1.00  0.00     0.092 N 
HETATM    8  C6  UNL     1       0.082  17.320  -6.051  1.00  0.00     0.292 C 
HETATM    9  C7  UNL     1      -0.260  18.750  -6.482  1.00  0.00     0.154 C 
HETATM   10  N2  UNL     1      -1.337  19.272  -5.668  1.00  0.00    -0.361 N 
HETATM   11  C13 UNL     1      -1.224  19.022  -4.245  1.00  0.00     0.154 C 
HETATM   12  C14 UNL     1       0.166  18.475  -3.998  1.00  0.00     0.292 C 
BRANCH  10  13
HETATM   13  C8  UNL     1      -2.414  19.970  -6.280  1.00  0.00     0.155 A 
HETATM   14  N3  UNL     1      -3.395  19.292  -6.914  1.00  0.00    -0.334 N 
HETATM   15  C9  UNL     1      -4.421  19.868  -7.567  1.00  0.00     0.116 A 
ATOM     16  H3  UNL     1      -3.355  18.273  -6.897  1.00  0.00     0.168 HD
HETATM   17  C11 UNL     1      -4.515  21.221  -7.615  1.00  0.00     0.131 A 
HETATM   18  N5  UNL     1      -3.548  21.937  -6.987  1.00  0.00    -0.319 N 
HETATM   19  C12 UNL     1      -2.531  21.345  -6.340  1.00  0.00     0.219 A 
ATOM     20  H5  UNL     1      -3.595  22.955  -7.007  1.00  0.00     0.169 HD
BRANCH  15  21
HETATM   21  C10 UNL     1      -5.365  18.968  -8.181  1.00  0.00     0.291 C 
HETATM   22  O1  UNL     1      -5.725  19.081  -9.357  1.00  0.00    -0.300 OA
ENDBRANCH  15  21
BRANCH  17  23
HETATM   23  N4  UNL     1      -5.431  21.867  -8.199  1.00  0.00    -0.383 N 
ATOM     24  H42 UNL     1      -5.935  22.566  -7.653  1.00  0.00     0.157 HD
ATOM     25  H41 UNL     1      -5.706  21.745  -9.174  1.00  0.00     0.157 HD
ENDBRANCH  17  23
BRANCH  19  26
HETATM   26  N6  UNL     1      -1.608  22.170  -5.663  1.00  0.00    -0.094 N 
HETATM   27  O2  UNL     1      -1.975  22.647  -4.544  1.00  0.00    -0.530 OA
HETATM   28  O3  UNL     1      -0.367  22.522  -6.068  1.00  0.00    -0.530 OA
ENDBRANCH  19  26
ENDBRANCH  10  13
ENDBRANCH   6   7
ENDBRANCH   5   6
ENDBRANCH   4   5
ENDBRANCH   3   4
TORSDOF 8
ENDMDL
MODEL 5
REMARK VINA RESULT: -5.308894255      7.137      9.560
REMARK  8 active torsions:
REMARK  status: ('A' for Active; 'I' for Inactive)
REMARK    1  A    between atoms: C3_3  and  S1_4 
REMARK    2  A    between atoms: S1_4  and  C4_5 
REMARK    3  A    between atoms: C4_5  and  C5_6 
REMARK    4  A    between atoms: C5_6  and  N1_7 
REMARK    5  A    between atoms: N2_10  and  C8_11 
REMARK    6  A    between atoms: C9_14  and  C10_15 
REMARK    7  A    between atoms: C11_17  and  N4_18 
REMARK    8  A    between atoms: C12_23  and  N6_24 
ROOT
HETATM    1  C1  UNL     1       0.295  10.565  -4.547  1.00  0.00     0.013 C 
HETATM    2  C2  UNL     1      -0.153  11.618  -4.169  1.00  0.00    -0.107 C 
HETATM    3  C3  UNL     1      -0.698  12.925  -3.727  1.00  0.00     0.166 C 
ENDROOT
BRANCH   3   4
HETATM    4  S1  UNL     1      -1.146  13.916  -5.204  1.00  0.00    -0.155 SA
BRANCH   4   5
HETATM    5  C4  UNL     1      -1.846  15.517  -4.667  1.00  0.00     0.105 C 
BRANCH   5   6
HETATM    6  C5  UNL     1      -1.123  16.648  -5.332  1.00  0.00     0.282 C 
BRANCH   6   7
HETATM    7  N1  UNL     1      -0.322  17.395  -4.424  1.00  0.00     0.092 N 
HETATM    8  C6  UNL     1       1.078  17.275  -4.638  1.00  0.00     0.292 C 
HETATM    9  C7  UNL     1       1.789  18.630  -4.583  1.00  0.00     0.154 C 
HETATM   10  N2  UNL     1       1.122  19.578  -5.451  1.00  0.00    -0.361 N 
HETATM   11  C13 UNL     1      -0.324  19.590  -5.372  1.00  0.00     0.154 C 
HETATM   12  C14 UNL     1      -0.712  18.739  -4.181  1.00  0.00     0.292 C 
BRANCH  10  13
HETATM   13  C8  UNL     1       1.888  20.412  -6.310  1.00  0.00     0.155 A 
HETATM   14  N3  UNL     1       2.245  21.654  -5.918  1.00  0.00    -0.334 N 
HETATM   15  C9  UNL     1       2.921  22.532  -6.682  1.00  0.00     0.116 A 
ATOM     16  H3  UNL     1       1.985  21.947  -4.976  1.00  0.00     0.168 HD
HETATM   17  C11 UNL     1       3.288  22.185  -7.942  1.00  0.00     0.131 A 
HETATM   18  N5  UNL     1       2.948  20.944  -8.372  1.00  0.00    -0.319 N 
HETATM   19  C12 UNL     1       2.274  20.081  -7.595  1.00  0.00     0.219 A 
ATOM     20  H5  UNL     1       3.212  20.658  -9.314  1.00  0.00     0.169 HD
BRANCH  15  21
HETATM   21  C10 UNL     1       3.205  23.809  -6.078  1.00  0.00     0.291 C 
HETATM   22  O1  UNL     1       2.981  24.881  -6.650  1.00  0.00    -0.300 OA
ENDBRANCH  15  21
BRANCH  17  23
HETATM   23  N4  UNL     1       3.920  22.928  -8.746  1.00  0.00    -0.383 N 
ATOM     24  H42 UNL     1       4.918  23.058  -8.580  1.00  0.00     0.157 HD
ATOM     25  H41 UNL     1       3.512  23.406  -9.549  1.00  0.00     0.157 HD
ENDBRANCH  17  23
BRANCH  19  26
HETATM   26  N6  UNL     1       2.021  18.790  -8.105  1.00  0.00    -0.094 N 
HETATM   27  O2  UNL     1       3.026  18.036  -8.290  1.00  0.00    -0.530 OA
HETATM   28  O3  UNL     1       0.822  18.253  -8.429  1.00  0.00    -0.530 OA
ENDBRANCH  19  26
ENDBRANCH  10  13
ENDBRANCH   6   7
ENDBRANCH   5   6
ENDBRANCH   4   5
ENDBRANCH   3   4
TORSDOF 8
ENDMDL
