MODEL 1
REMARK VINA RESULT: -6.987394823      0.000      0.000
REMARK  4 active torsions:
REMARK  status: ('A' for Active; 'I' for Inactive)
REMARK    1  A    between atoms: C2_2  and  C3_3 
REMARK    2  A    between atoms: C3_3  and  C5_5 
REMARK    3  A    between atoms: C5_5  and  C6_6 
REMARK    4  A    between atoms: C11_11  and  O1_12 
ROOT
HETATM    1  C5  UNL     1      38.521  -0.394  66.062  1.00  0.00     0.032 C 
HETATM    2  C9  UNL     1      39.898  -0.829  65.739  1.00  0.00     0.028 A 
HETATM    3  C10 UNL     1      40.013  -1.714  64.656  1.00  0.00     0.150 A 
HETATM    4  C11 UNL     1      41.213  -2.236  64.259  1.00  0.00     0.109 A 
HETATM    5  C12 UNL     1      42.411  -1.922  64.899  1.00  0.00    -0.012 A 
HETATM    6  C13 UNL     1      43.672  -2.495  64.453  1.00  0.00     0.052 C 
HETATM    7  C14 UNL     1      42.319  -1.053  65.958  1.00  0.00     0.012 A 
HETATM    8  C15 UNL     1      41.074  -0.524  66.356  1.00  0.00     0.090 A 
HETATM    9  O2  UNL     1      41.031   0.325  67.388  1.00  0.00    -0.346 OA
HETATM   10  C16 UNL     1      42.100   0.806  68.083  1.00  0.00     0.204 A 
HETATM   11  C17 UNL     1      43.392   0.239  67.658  1.00  0.00     0.007 A 
HETATM   12  C18 UNL     1      43.538  -0.645  66.654  1.00  0.00    -0.050 A 
HETATM   13  C19 UNL     1      44.839  -1.172  66.288  1.00  0.00     0.049 C 
HETATM   14  O3  UNL     1      38.842  -2.070  63.937  1.00  0.00    -0.193 OA
HETATM   15  O4  UNL     1      37.947  -1.168  63.848  1.00  0.00    -0.224 OA
HETATM   16  C20 UNL     1      38.087  -0.008  64.617  1.00  0.00     0.102 C 
HETATM   17  C21 UNL     1      39.138   0.762  63.873  1.00  0.00     0.050 C 
HETATM   18  C22 UNL     1      36.855   0.751  64.383  1.00  0.00     0.050 C 
ENDROOT
BRANCH   1  19
HETATM   19  C3  UNL     1      37.743  -1.700  66.333  1.00  0.00    -0.002 C 
HETATM   20  C4  UNL     1      36.314  -1.665  66.462  1.00  0.00     0.011 C 
BRANCH  19  21
HETATM   21  C2  UNL     1      38.312  -2.546  67.458  1.00  0.00     0.001 C 
HETATM   22  C1  UNL     1      38.598  -3.922  66.852  1.00  0.00     0.005 C 
ENDBRANCH  19  21
ENDBRANCH   1  19
BRANCH   1  23
HETATM   23  C6  UNL     1      38.244   0.655  67.011  1.00  0.00    -0.006 C 
HETATM   24  C7  UNL     1      38.500   0.494  68.477  1.00  0.00     0.011 C 
HETATM   25  C8  UNL     1      37.038   1.501  67.012  1.00  0.00     0.011 C 
ENDBRANCH   1  23
BRANCH   4  26
HETATM   26  O1  UNL     1      41.280  -3.127  63.167  1.00  0.00    -0.357 OA
ATOM     27  H1  UNL     1      42.107  -3.525  62.920  1.00  0.00     0.217 HD
ENDBRANCH   4  26
TORSDOF 4
ENDMDL
MODEL 2
REMARK VINA RESULT: -6.237727078      3.524      7.720
REMARK  4 active torsions:
REMARK  status: ('A' for Active; 'I' for Inactive)
REMARK    1  A    between atoms: C2_2  and  C3_3 
REMARK    2  A    between atoms: C3_3  and  C5_5 
REMARK    3  A    between atoms: C5_5  and  C6_6 
REMARK    4  A    between atoms: C11_11  and  O1_12 
ROOT
HETATM    1  C5  UNL     1      45.376  -3.565  62.132  1.00  0.00     0.032 C 
HETATM    2  C9  UNL     1      43.934  -3.736  62.423  1.00  0.00     0.028 A 
HETATM    3  C10 UNL     1      43.252  -4.629  61.582  1.00  0.00     0.150 A 
HETATM    4  C11 UNL     1      41.909  -4.865  61.698  1.00  0.00     0.109 A 
HETATM    5  C12 UNL     1      41.123  -4.239  62.664  1.00  0.00    -0.012 A 
HETATM    6  C13 UNL     1      39.697  -4.512  62.761  1.00  0.00     0.052 C 
HETATM    7  C14 UNL     1      41.775  -3.367  63.500  1.00  0.00     0.012 A 
HETATM    8  C15 UNL     1      43.159  -3.132  63.367  1.00  0.00     0.090 A 
HETATM    9  O2  UNL     1      43.756  -2.281  64.207  1.00  0.00    -0.346 OA
HETATM   10  C16 UNL     1      43.171  -1.639  65.257  1.00  0.00     0.204 A 
HETATM   11  C17 UNL     1      41.724  -1.890  65.378  1.00  0.00     0.007 A 
HETATM   12  C18 UNL     1      41.025  -2.703  64.565  1.00  0.00    -0.050 A 
HETATM   13  C19 UNL     1      39.599  -2.904  64.732  1.00  0.00     0.049 C 
HETATM   14  O3  UNL     1      43.984  -5.322  60.583  1.00  0.00    -0.193 OA
HETATM   15  O4  UNL     1      45.186  -5.619  60.878  1.00  0.00    -0.224 OA
HETATM   16  C20 UNL     1      45.744  -5.075  62.040  1.00  0.00     0.102 C 
HETATM   17  C21 UNL     1      45.123  -5.899  63.128  1.00  0.00     0.050 C 
HETATM   18  C22 UNL     1      47.146  -5.503  62.022  1.00  0.00     0.050 C 
ENDROOT
BRANCH   1  19
HETATM   19  C3  UNL     1      45.433  -3.091  60.664  1.00  0.00    -0.002 C 
HETATM   20  C4  UNL     1      46.697  -3.016  59.988  1.00  0.00     0.011 C 
BRANCH  19  21
HETATM   21  C2  UNL     1      44.658  -1.816  60.386  1.00  0.00     0.001 C 
HETATM   22  C1  UNL     1      43.917  -2.047  59.067  1.00  0.00     0.005 C 
ENDBRANCH  19  21
ENDBRANCH   1  19
BRANCH   1  23
HETATM   23  C6  UNL     1      46.260  -2.842  63.011  1.00  0.00    -0.006 C 
HETATM   24  C7  UNL     1      47.377  -1.989  62.496  1.00  0.00     0.011 C 
HETATM   25  C8  UNL     1      46.845  -3.378  64.253  1.00  0.00     0.011 C 
ENDBRANCH   1  23
BRANCH   4  26
HETATM   26  O1  UNL     1      41.263  -5.766  60.826  1.00  0.00    -0.357 OA
ATOM     27  H1  UNL     1      40.737  -5.445  60.103  1.00  0.00     0.217 HD
ENDBRANCH   4  26
TORSDOF 4
ENDMDL
MODEL 3
REMARK VINA RESULT: -6.043315204      4.676      9.228
REMARK  4 active torsions:
REMARK  status: ('A' for Active; 'I' for Inactive)
REMARK    1  A    between atoms: C2_2  and  C3_3 
REMARK    2  A    between atoms: C3_3  and  C5_5 
REMARK    3  A    between atoms: C5_5  and  C6_6 
REMARK    4  A    between atoms: C11_11  and  O1_12 
ROOT
HETATM    1  C5  UNL     1      47.605  -3.742  62.292  1.00  0.00     0.032 C 
HETATM    2  C9  UNL     1      46.302  -3.440  62.927  1.00  0.00     0.028 A 
HETATM    3  C10 UNL     1      46.368  -2.688  64.110  1.00  0.00     0.150 A 
HETATM    4  C11 UNL     1      45.254  -2.362  64.835  1.00  0.00     0.109 A 
HETATM    5  C12 UNL     1      43.973  -2.748  64.447  1.00  0.00    -0.012 A 
HETATM    6  C13 UNL     1      42.808  -2.385  65.240  1.00  0.00     0.052 C 
HETATM    7  C14 UNL     1      43.888  -3.479  63.288  1.00  0.00     0.012 A 
HETATM    8  C15 UNL     1      45.045  -3.809  62.552  1.00  0.00     0.090 A 
HETATM    9  O2  UNL     1      44.917  -4.516  61.425  1.00  0.00    -0.346 OA
HETATM   10  C16 UNL     1      43.747  -4.914  60.850  1.00  0.00     0.204 A 
HETATM   11  C17 UNL     1      42.549  -4.566  61.634  1.00  0.00     0.007 A 
HETATM   12  C18 UNL     1      42.574  -3.886  62.795  1.00  0.00    -0.050 A 
HETATM   13  C19 UNL     1      41.357  -3.580  63.523  1.00  0.00     0.049 C 
HETATM   14  O3  UNL     1      47.635  -2.239  64.565  1.00  0.00    -0.193 OA
HETATM   15  O4  UNL     1      48.484  -1.957  63.660  1.00  0.00    -0.224 OA
HETATM   16  C20 UNL     1      48.190  -2.298  62.336  1.00  0.00     0.102 C 
HETATM   17  C21 UNL     1      47.197  -1.250  61.932  1.00  0.00     0.050 C 
HETATM   18  C22 UNL     1      49.399  -1.959  61.580  1.00  0.00     0.050 C 
ENDROOT
BRANCH   1  19
HETATM   19  C3  UNL     1      48.413  -4.489  63.375  1.00  0.00    -0.002 C 
HETATM   20  C4  UNL     1      49.786  -4.827  63.132  1.00  0.00     0.011 C 
BRANCH  19  21
HETATM   21  C2  UNL     1      47.709  -5.702  63.957  1.00  0.00     0.001 C 
HETATM   22  C1  UNL     1      48.811  -6.703  64.313  1.00  0.00     0.005 C 
ENDBRANCH  19  21
ENDBRANCH   1  19
BRANCH   1  23
HETATM   23  C6  UNL     1      47.707  -4.330  60.981  1.00  0.00    -0.006 C 
HETATM   24  C7  UNL     1      47.145  -3.667  59.762  1.00  0.00     0.011 C 
HETATM   25  C8  UNL     1      47.489  -5.754  60.671  1.00  0.00     0.011 C 
ENDBRANCH   1  23
BRANCH   4  26
HETATM   26  O1  UNL     1      45.369  -1.609  66.023  1.00  0.00    -0.357 OA
ATOM     27  H1  UNL     1      44.829  -0.840  66.160  1.00  0.00     0.217 HD
ENDBRANCH   4  26
TORSDOF 4
ENDMDL
MODEL 4
REMARK VINA RESULT: -5.845971646      1.579      4.047
REMARK  4 active torsions:
REMARK  status: ('A' for Active; 'I' for Inactive)
REMARK    1  A    between atoms: C2_2  and  C3_3 
REMARK    2  A    between atoms: C3_3  and  C5_5 
REMARK    3  A    between atoms: C5_5  and  C6_6 
REMARK    4  A    between atoms: C11_11  and  O1_12 
ROOT
HETATM    1  C5  UNL     1      38.180  -0.909  65.273  1.00  0.00     0.032 C 
HETATM    2  C9  UNL     1      39.450  -0.568  65.953  1.00  0.00     0.028 A 
HETATM    3  C10 UNL     1      39.330   0.282  67.063  1.00  0.00     0.150 A 
HETATM    4  C11 UNL     1      40.415   0.720  67.772  1.00  0.00     0.109 A 
HETATM    5  C12 UNL     1      41.718   0.347  67.447  1.00  0.00    -0.012 A 
HETATM    6  C13 UNL     1      42.851   0.830  68.221  1.00  0.00     0.052 C 
HETATM    7  C14 UNL     1      41.855  -0.490  66.367  1.00  0.00     0.012 A 
HETATM    8  C15 UNL     1      40.727  -0.931  65.644  1.00  0.00     0.090 A 
HETATM    9  O2  UNL     1      40.904  -1.752  64.604  1.00  0.00    -0.346 OA
HETATM   10  C16 UNL     1      42.087  -2.282  64.187  1.00  0.00     0.204 A 
HETATM   11  C17 UNL     1      43.256  -1.806  64.948  1.00  0.00     0.007 A 
HETATM   12  C18 UNL     1      43.187  -0.957  65.989  1.00  0.00    -0.050 A 
HETATM   13  C19 UNL     1      44.377  -0.521  66.695  1.00  0.00     0.049 C 
HETATM   14  O3  UNL     1      38.035   0.694  67.472  1.00  0.00    -0.193 OA
HETATM   15  O4  UNL     1      37.100  -0.152  67.296  1.00  0.00    -0.224 OA
HETATM   16  C20 UNL     1      37.369  -1.301  66.544  1.00  0.00     0.102 C 
HETATM   17  C21 UNL     1      38.151  -2.151  67.501  1.00  0.00     0.050 C 
HETATM   18  C22 UNL     1      36.079  -1.987  66.427  1.00  0.00     0.050 C 
ENDROOT
BRANCH   1  19
HETATM   19  C3  UNL     1      37.570   0.449  64.863  1.00  0.00    -0.002 C 
HETATM   20  C4  UNL     1      36.179   0.707  65.105  1.00  0.00     0.011 C 
BRANCH  19  21
HETATM   21  C2  UNL     1      37.905   0.885  63.448  1.00  0.00     0.001 C 
HETATM   22  C1  UNL     1      36.590   1.357  62.825  1.00  0.00     0.005 C 
ENDBRANCH  19  21
ENDBRANCH   1  19
BRANCH   1  23
HETATM   23  C6  UNL     1      38.100  -1.916  64.246  1.00  0.00    -0.006 C 
HETATM   24  C7  UNL     1      36.864  -2.128  63.429  1.00  0.00     0.011 C 
HETATM   25  C8  UNL     1      38.615  -3.291  64.365  1.00  0.00     0.011 C 
ENDBRANCH   1  23
BRANCH   4  26
HETATM   26  O1  UNL     1      40.248   1.580  68.878  1.00  0.00    -0.357 OA
ATOM     27  H1  UNL     1      39.608   1.381  69.551  1.00  0.00     0.217 HD
ENDBRANCH   4  26
TORSDOF 4
ENDMDL
MODEL 5
REMARK VINA RESULT: -5.833241648      5.385      8.492
REMARK  4 active torsions:
REMARK  status: ('A' for Active; 'I' for Inactive)
REMARK    1  A    between atoms: C2_2  and  C3_3 
REMARK    2  A    between atoms: C3_3  and  C5_5 
REMARK    3  A    between atoms: C5_5  and  C6_6 
REMARK    4  A    between atoms: C11_11  and  O1_12 
ROOT
HETATM    1  C5  UNL     1      33.134  -1.885  60.465  1.00  0.00     0.032 C 
HETATM    2  C9  UNL     1      33.831  -1.141  61.538  1.00  0.00     0.028 A 
HETATM    3  C10 UNL     1      34.799  -1.870  62.246  1.00  0.00     0.150 A 
HETATM    4  C11 UNL     1      35.500  -1.335  63.292  1.00  0.00     0.109 A 
HETATM    5  C12 UNL     1      35.308  -0.024  63.726  1.00  0.00    -0.012 A 
HETATM    6  C13 UNL     1      36.069   0.515  64.843  1.00  0.00     0.052 C 
HETATM    7  C14 UNL     1      34.369   0.706  63.042  1.00  0.00     0.012 A 
HETATM    8  C15 UNL     1      33.652   0.140  61.966  1.00  0.00     0.090 A 
HETATM    9  O2  UNL     1      32.752   0.890  61.321  1.00  0.00    -0.346 OA
HETATM   10  C16 UNL     1      32.484   2.205  61.552  1.00  0.00     0.204 A 
HETATM   11  C17 UNL     1      33.236   2.779  62.682  1.00  0.00     0.007 A 
HETATM   12  C18 UNL     1      34.139   2.101  63.413  1.00  0.00    -0.050 A 
HETATM   13  C19 UNL     1      34.843   2.722  64.519  1.00  0.00     0.049 C 
HETATM   14  O3  UNL     1      35.070  -3.207  61.855  1.00  0.00    -0.193 OA
HETATM   15  O4  UNL     1      34.962  -3.456  60.611  1.00  0.00    -0.224 OA
HETATM   16  C20 UNL     1      34.400  -2.482  59.779  1.00  0.00     0.102 C 
HETATM   17  C21 UNL     1      35.512  -1.486  59.629  1.00  0.00     0.050 C 
HETATM   18  C22 UNL     1      34.307  -3.117  58.462  1.00  0.00     0.050 C 
ENDROOT
BRANCH   1  19
HETATM   19  C3  UNL     1      32.500  -3.103  61.170  1.00  0.00    -0.002 C 
HETATM   20  C4  UNL     1      31.804  -4.091  60.396  1.00  0.00     0.011 C 
BRANCH  19  21
HETATM   21  C2  UNL     1      31.658  -2.756  62.385  1.00  0.00     0.001 C 
HETATM   22  C1  UNL     1      30.784  -3.981  62.661  1.00  0.00     0.005 C 
ENDBRANCH  19  21
ENDBRANCH   1  19
BRANCH   1  23
HETATM   23  C6  UNL     1      32.259  -1.239  59.520  1.00  0.00    -0.006 C 
HETATM   24  C7  UNL     1      30.832  -0.920  59.842  1.00  0.00     0.011 C 
HETATM   25  C8  UNL     1      32.174  -1.560  58.085  1.00  0.00     0.011 C 
ENDBRANCH   1  23
BRANCH   4  26
HETATM   26  O1  UNL     1      36.460  -2.107  63.980  1.00  0.00    -0.357 OA
ATOM     27  H1  UNL     1      36.384  -2.250  64.916  1.00  0.00     0.217 HD
ENDBRANCH   4  26
TORSDOF 4
ENDMDL
