MODEL 1
REMARK VINA RESULT: -9.606318059      0.000      0.000
REMARK  4 active torsions:
REMARK  status: ('A' for Active; 'I' for Inactive)
REMARK    1  A    between atoms: C4_4  and  C5_5 
REMARK    2  A    between atoms: C5_5  and  C6_6 
REMARK    3  A    between atoms: C6_6  and  C7_7 
REMARK    4  A    between atoms: C20_23  and  O4_24 
ROOT
HETATM    1  C7  UNL     1      37.081  -0.478  64.706  1.00  0.00     0.074 C 
HETATM    2  C8  UNL     1      35.600  -0.685  64.674  1.00  0.00     0.047 C 
HETATM    3  O1  UNL     1      37.517   0.158  65.891  1.00  0.00    -0.338 OA
HETATM    4  C9  UNL     1      38.857   0.150  66.234  1.00  0.00     0.087 A 
HETATM    5  C10 UNL     1      39.279   0.997  67.219  1.00  0.00    -0.027 A 
HETATM    6  C11 UNL     1      38.309   1.892  67.887  1.00  0.00     0.051 C 
HETATM    7  C12 UNL     1      40.620   1.041  67.615  1.00  0.00     0.024 A 
HETATM    8  C13 UNL     1      41.476   0.202  66.974  1.00  0.00     0.005 A 
HETATM    9  C14 UNL     1      42.823   0.202  67.328  1.00  0.00    -0.043 A 
HETATM   10  C15 UNL     1      43.341   1.100  68.390  1.00  0.00     0.049 C 
HETATM   11  C16 UNL     1      43.696  -0.655  66.673  1.00  0.00     0.090 A 
HETATM   12  C17 UNL     1      43.195  -1.473  65.698  1.00  0.00     0.288 A 
HETATM   13  O2  UNL     1      44.010  -2.249  65.110  1.00  0.00    -0.260 OA
HETATM   14  O3  UNL     1      41.923  -1.440  65.397  1.00  0.00    -0.274 OA
HETATM   15  C18 UNL     1      41.052  -0.649  65.985  1.00  0.00     0.102 A 
HETATM   16  C19 UNL     1      39.720  -0.695  65.588  1.00  0.00     0.040 A 
HETATM   17  C20 UNL     1      39.288  -1.622  64.518  1.00  0.00     0.167 C 
HETATM   18  C21 UNL     1      37.783  -1.810  64.628  1.00  0.00     0.014 C 
HETATM   19  C22 UNL     1      37.268  -2.666  63.487  1.00  0.00     0.021 C 
HETATM   20  C23 UNL     1      37.522  -2.546  65.920  1.00  0.00     0.021 C 
ENDROOT
BRANCH   1  21
HETATM   21  C6  UNL     1      37.465   0.440  63.554  1.00  0.00     0.043 C 
BRANCH  21  22
HETATM   22  C5  UNL     1      36.208   0.716  62.769  1.00  0.00     0.030 C 
BRANCH  22  23
HETATM   23  C4  UNL     1      35.959   2.170  62.599  1.00  0.00    -0.025 C 
HETATM   24  C2  UNL     1      34.809   2.756  62.704  1.00  0.00    -0.091 C 
HETATM   25  C1  UNL     1      33.589   1.978  63.015  1.00  0.00     0.042 C 
HETATM   26  C3  UNL     1      34.679   4.217  62.514  1.00  0.00     0.042 C 
ENDBRANCH  22  23
ENDBRANCH  21  22
ENDBRANCH   1  21
BRANCH  17  27
HETATM   27  O4  UNL     1      39.875  -2.864  64.600  1.00  0.00    -0.390 OA
ATOM     28  H4  UNL     1      39.812  -3.366  63.796  1.00  0.00     0.210 HD
ENDBRANCH  17  27
TORSDOF 4
ENDMDL
MODEL 2
REMARK VINA RESULT: -9.050329012      1.136      1.639
REMARK  4 active torsions:
REMARK  status: ('A' for Active; 'I' for Inactive)
REMARK    1  A    between atoms: C4_4  and  C5_5 
REMARK    2  A    between atoms: C5_5  and  C6_6 
REMARK    3  A    between atoms: C6_6  and  C7_7 
REMARK    4  A    between atoms: C20_23  and  O4_24 
ROOT
HETATM    1  C7  UNL     1      36.553  -0.366  64.358  1.00  0.00     0.074 C 
HETATM    2  C8  UNL     1      35.239  -0.904  63.889  1.00  0.00     0.047 C 
HETATM    3  O1  UNL     1      36.448   0.347  65.574  1.00  0.00    -0.338 OA
HETATM    4  C9  UNL     1      37.581   0.642  66.310  1.00  0.00     0.087 A 
HETATM    5  C10 UNL     1      37.480   1.559  67.318  1.00  0.00    -0.027 A 
HETATM    6  C11 UNL     1      36.180   2.207  67.596  1.00  0.00     0.051 C 
HETATM    7  C12 UNL     1      38.587   1.903  68.100  1.00  0.00     0.024 A 
HETATM    8  C13 UNL     1      39.761   1.283  67.809  1.00  0.00     0.005 A 
HETATM    9  C14 UNL     1      40.896   1.588  68.557  1.00  0.00    -0.043 A 
HETATM   10  C15 UNL     1      40.848   2.575  69.664  1.00  0.00     0.049 C 
HETATM   11  C16 UNL     1      42.094   0.954  68.259  1.00  0.00     0.090 A 
HETATM   12  C17 UNL     1      42.113   0.048  67.235  1.00  0.00     0.288 A 
HETATM   13  O2  UNL     1      43.218  -0.521  66.977  1.00  0.00    -0.260 OA
HETATM   14  O3  UNL     1      41.023  -0.207  66.559  1.00  0.00    -0.274 OA
HETATM   15  C18 UNL     1      39.862   0.363  66.798  1.00  0.00     0.102 A 
HETATM   16  C19 UNL     1      38.764   0.017  66.017  1.00  0.00     0.040 A 
HETATM   17  C20 UNL     1      38.901  -0.979  64.931  1.00  0.00     0.167 C 
HETATM   18  C21 UNL     1      37.515  -1.504  64.588  1.00  0.00     0.014 C 
HETATM   19  C22 UNL     1      37.582  -2.450  63.405  1.00  0.00     0.021 C 
HETATM   20  C23 UNL     1      37.030  -2.286  65.785  1.00  0.00     0.021 C 
ENDROOT
BRANCH   1  21
HETATM   21  C6  UNL     1      37.069   0.620  63.320  1.00  0.00     0.043 C 
BRANCH  21  22
HETATM   22  C5  UNL     1      35.926   0.913  62.381  1.00  0.00     0.030 C 
BRANCH  22  23
HETATM   23  C4  UNL     1      35.605   2.362  62.324  1.00  0.00    -0.025 C 
HETATM   24  C2  UNL     1      34.436   2.884  62.516  1.00  0.00    -0.091 C 
HETATM   25  C1  UNL     1      33.267   2.028  62.823  1.00  0.00     0.042 C 
HETATM   26  C3  UNL     1      34.231   4.347  62.434  1.00  0.00     0.042 C 
ENDBRANCH  22  23
ENDBRANCH  21  22
ENDBRANCH   1  21
BRANCH  17  27
HETATM   27  O4  UNL     1      39.688  -2.056  65.272  1.00  0.00    -0.390 OA
ATOM     28  H4  UNL     1      40.473  -2.133  64.743  1.00  0.00     0.210 HD
ENDBRANCH  17  27
TORSDOF 4
ENDMDL
MODEL 3
REMARK VINA RESULT: -8.836717191      2.004      7.293
REMARK  4 active torsions:
REMARK  status: ('A' for Active; 'I' for Inactive)
REMARK    1  A    between atoms: C4_4  and  C5_5 
REMARK    2  A    between atoms: C5_5  and  C6_6 
REMARK    3  A    between atoms: C6_6  and  C7_7 
REMARK    4  A    between atoms: C20_23  and  O4_24 
ROOT
HETATM    1  C7  UNL     1      38.986  -1.650  64.982  1.00  0.00     0.074 C 
HETATM    2  C8  UNL     1      39.758  -2.891  65.301  1.00  0.00     0.047 C 
HETATM    3  O1  UNL     1      38.063  -1.839  63.929  1.00  0.00    -0.338 OA
HETATM    4  C9  UNL     1      37.059  -0.914  63.707  1.00  0.00     0.087 A 
HETATM    5  C10 UNL     1      36.366  -0.976  62.531  1.00  0.00    -0.027 A 
HETATM    6  C11 UNL     1      36.701  -2.015  61.534  1.00  0.00     0.051 C 
HETATM    7  C12 UNL     1      35.339  -0.071  62.244  1.00  0.00     0.024 A 
HETATM    8  C13 UNL     1      35.066   0.867  63.188  1.00  0.00     0.005 A 
HETATM    9  C14 UNL     1      34.052   1.794  62.956  1.00  0.00    -0.043 A 
HETATM   10  C15 UNL     1      33.266   1.776  61.697  1.00  0.00     0.049 C 
HETATM   11  C16 UNL     1      33.774   2.751  63.921  1.00  0.00     0.090 A 
HETATM   12  C17 UNL     1      34.512   2.746  65.073  1.00  0.00     0.288 A 
HETATM   13  O2  UNL     1      34.243   3.630  65.943  1.00  0.00    -0.260 OA
HETATM   14  O3  UNL     1      35.455   1.858  65.249  1.00  0.00    -0.274 OA
HETATM   15  C18 UNL     1      35.760   0.929  64.370  1.00  0.00     0.102 A 
HETATM   16  C19 UNL     1      36.783   0.032  64.660  1.00  0.00     0.040 A 
HETATM   17  C20 UNL     1      37.517   0.121  65.941  1.00  0.00     0.167 C 
HETATM   18  C21 UNL     1      38.202  -1.213  66.193  1.00  0.00     0.014 C 
HETATM   19  C22 UNL     1      39.060  -1.145  67.441  1.00  0.00     0.021 C 
HETATM   20  C23 UNL     1      37.112  -2.232  66.430  1.00  0.00     0.021 C 
ENDROOT
BRANCH   1  21
HETATM   21  C6  UNL     1      39.963  -0.580  64.515  1.00  0.00     0.043 C 
BRANCH  21  22
HETATM   22  C5  UNL     1      41.348  -1.059  64.871  1.00  0.00     0.030 C 
BRANCH  22  23
HETATM   23  C4  UNL     1      41.923  -0.312  66.018  1.00  0.00    -0.025 C 
HETATM   24  C2  UNL     1      43.033  -0.594  66.622  1.00  0.00    -0.091 C 
HETATM   25  C1  UNL     1      43.856  -1.747  66.192  1.00  0.00     0.042 C 
HETATM   26  C3  UNL     1      43.512   0.224  67.758  1.00  0.00     0.042 C 
ENDBRANCH  22  23
ENDBRANCH  21  22
ENDBRANCH   1  21
BRANCH  17  27
HETATM   27  O4  UNL     1      36.705   0.389  67.020  1.00  0.00    -0.390 OA
ATOM     28  H4  UNL     1      37.177   0.448  67.843  1.00  0.00     0.210 HD
ENDBRANCH  17  27
TORSDOF 4
ENDMDL
MODEL 4
REMARK VINA RESULT: -8.655384242      1.749      2.682
REMARK  4 active torsions:
REMARK  status: ('A' for Active; 'I' for Inactive)
REMARK    1  A    between atoms: C4_4  and  C5_5 
REMARK    2  A    between atoms: C5_5  and  C6_6 
REMARK    3  A    between atoms: C6_6  and  C7_7 
REMARK    4  A    between atoms: C20_23  and  O4_24 
ROOT
HETATM    1  C7  UNL     1      38.260  -0.442  65.756  1.00  0.00     0.074 C 
HETATM    2  C8  UNL     1      37.085  -0.003  66.572  1.00  0.00     0.047 C 
HETATM    3  O1  UNL     1      39.493  -0.189  66.397  1.00  0.00    -0.338 OA
HETATM    4  C9  UNL     1      40.651  -0.798  65.947  1.00  0.00     0.087 A 
HETATM    5  C10 UNL     1      41.851  -0.326  66.399  1.00  0.00    -0.027 A 
HETATM    6  C11 UNL     1      41.886   0.810  67.345  1.00  0.00     0.051 C 
HETATM    7  C12 UNL     1      43.059  -0.896  65.984  1.00  0.00     0.024 A 
HETATM    8  C13 UNL     1      42.979  -1.937  65.115  1.00  0.00     0.005 A 
HETATM    9  C14 UNL     1      44.151  -2.543  64.668  1.00  0.00    -0.043 A 
HETATM   10  C15 UNL     1      45.484  -2.075  65.123  1.00  0.00     0.049 C 
HETATM   11  C16 UNL     1      44.069  -3.607  63.781  1.00  0.00     0.090 A 
HETATM   12  C17 UNL     1      42.829  -4.021  63.375  1.00  0.00     0.288 A 
HETATM   13  O2  UNL     1      42.774  -4.994  62.562  1.00  0.00    -0.260 OA
HETATM   14  O3  UNL     1      41.755  -3.422  63.820  1.00  0.00    -0.274 OA
HETATM   15  C18 UNL     1      41.775  -2.412  64.661  1.00  0.00     0.102 A 
HETATM   16  C19 UNL     1      40.571  -1.848  65.071  1.00  0.00     0.040 A 
HETATM   17  C20 UNL     1      39.285  -2.378  64.566  1.00  0.00     0.167 C 
HETATM   18  C21 UNL     1      38.180  -1.927  65.509  1.00  0.00     0.014 C 
HETATM   19  C22 UNL     1      36.823  -2.351  64.981  1.00  0.00     0.021 C 
HETATM   20  C23 UNL     1      38.409  -2.629  66.826  1.00  0.00     0.021 C 
ENDROOT
BRANCH   1  21
HETATM   21  C6  UNL     1      38.272   0.355  64.460  1.00  0.00     0.043 C 
BRANCH  21  22
HETATM   22  C5  UNL     1      36.982   1.133  64.406  1.00  0.00     0.030 C 
BRANCH  22  23
HETATM   23  C4  UNL     1      36.143   0.748  63.242  1.00  0.00    -0.025 C 
HETATM   24  C2  UNL     1      34.994   1.263  62.937  1.00  0.00    -0.091 C 
HETATM   25  C1  UNL     1      34.398   2.330  63.772  1.00  0.00     0.042 C 
HETATM   26  C3  UNL     1      34.243   0.800  61.749  1.00  0.00     0.042 C 
ENDBRANCH  22  23
ENDBRANCH  21  22
ENDBRANCH   1  21
BRANCH  17  27
HETATM   27  O4  UNL     1      39.248  -3.753  64.499  1.00  0.00    -0.390 OA
ATOM     28  H4  UNL     1      38.905  -4.082  63.677  1.00  0.00     0.210 HD
ENDBRANCH  17  27
TORSDOF 4
ENDMDL
MODEL 5
REMARK VINA RESULT: -8.542746443      2.532      6.718
REMARK  4 active torsions:
REMARK  status: ('A' for Active; 'I' for Inactive)
REMARK    1  A    between atoms: C4_4  and  C5_5 
REMARK    2  A    between atoms: C5_5  and  C6_6 
REMARK    3  A    between atoms: C6_6  and  C7_7 
REMARK    4  A    between atoms: C20_23  and  O4_24 
ROOT
HETATM    1  C7  UNL     1      39.038  -0.621  66.119  1.00  0.00     0.074 C 
HETATM    2  C8  UNL     1      39.048  -0.455  67.605  1.00  0.00     0.047 C 
HETATM    3  O1  UNL     1      39.654  -1.822  65.700  1.00  0.00    -0.338 OA
HETATM    4  C9  UNL     1      39.466  -2.291  64.413  1.00  0.00     0.087 A 
HETATM    5  C10 UNL     1      40.284  -3.286  63.957  1.00  0.00    -0.027 A 
HETATM    6  C11 UNL     1      41.339  -3.832  64.838  1.00  0.00     0.051 C 
HETATM    7  C12 UNL     1      40.148  -3.805  62.666  1.00  0.00     0.024 A 
HETATM    8  C13 UNL     1      39.166  -3.274  61.892  1.00  0.00     0.005 A 
HETATM    9  C14 UNL     1      38.984  -3.753  60.597  1.00  0.00    -0.043 A 
HETATM   10  C15 UNL     1      39.842  -4.832  60.047  1.00  0.00     0.049 C 
HETATM   11  C16 UNL     1      37.981  -3.210  59.807  1.00  0.00     0.090 A 
HETATM   12  C17 UNL     1      37.203  -2.217  60.336  1.00  0.00     0.288 A 
HETATM   13  O2  UNL     1      36.291  -1.732  59.598  1.00  0.00    -0.260 OA
HETATM   14  O3  UNL     1      37.409  -1.796  61.557  1.00  0.00    -0.274 OA
HETATM   15  C18 UNL     1      38.343  -2.275  62.348  1.00  0.00     0.102 A 
HETATM   16  C19 UNL     1      38.476  -1.756  63.632  1.00  0.00     0.040 A 
HETATM   17  C20 UNL     1      37.576  -0.677  64.100  1.00  0.00     0.167 C 
HETATM   18  C21 UNL     1      37.616  -0.650  65.621  1.00  0.00     0.014 C 
HETATM   19  C22 UNL     1      36.795   0.508  66.154  1.00  0.00     0.021 C 
HETATM   20  C23 UNL     1      36.983  -1.933  66.103  1.00  0.00     0.021 C 
ENDROOT
BRANCH   1  21
HETATM   21  C6  UNL     1      39.839   0.516  65.501  1.00  0.00     0.043 C 
BRANCH  21  22
HETATM   22  C5  UNL     1      41.097   0.667  66.318  1.00  0.00     0.030 C 
BRANCH  22  23
HETATM   23  C4  UNL     1      42.160  -0.279  65.893  1.00  0.00    -0.025 C 
HETATM   24  C2  UNL     1      43.177  -0.641  66.608  1.00  0.00    -0.091 C 
HETATM   25  C1  UNL     1      43.369  -0.109  67.976  1.00  0.00     0.042 C 
HETATM   26  C3  UNL     1      44.178  -1.594  66.080  1.00  0.00     0.042 C 
ENDBRANCH  22  23
ENDBRANCH  21  22
ENDBRANCH   1  21
BRANCH  17  27
HETATM   27  O4  UNL     1      36.266  -0.852  63.716  1.00  0.00    -0.390 OA
ATOM     28  H4  UNL     1      35.719  -0.094  63.882  1.00  0.00     0.210 HD
ENDBRANCH  17  27
TORSDOF 4
ENDMDL
