MODEL 1
REMARK VINA RESULT: -8.744789693      0.000      0.000
REMARK  4 active torsions:
REMARK  status: ('A' for Active; 'I' for Inactive)
REMARK    1  A    between atoms: C2_2  and  C3_3 
REMARK    2  A    between atoms: C4_4  and  C5_5 
REMARK    3  A    between atoms: C8_8  and  C10_10 
REMARK    4  A    between atoms: C14_14  and  C15_15 
ROOT
HETATM    1  C5  UNL     1      39.757  -0.681  65.248  1.00  0.00    -0.014 C 
HETATM    2  C6  UNL     1      38.880   0.027  66.031  1.00  0.00    -0.058 C 
HETATM    3  C7  UNL     1      39.538   0.898  66.981  1.00  0.00     0.045 C 
HETATM    4  C8  UNL     1      37.398  -0.016  65.963  1.00  0.00     0.024 C 
HETATM    5  C9  UNL     1      36.870   1.120  66.796  1.00  0.00     0.027 C 
HETATM    6  C12 UNL     1      36.881   0.082  64.576  1.00  0.00     0.049 A 
HETATM    7  C13 UNL     1      35.896   0.955  64.213  1.00  0.00     0.066 A 
HETATM    8  C14 UNL     1      35.669   0.750  62.863  1.00  0.00     0.127 A 
HETATM    9  N1  UNL     1      36.498  -0.208  62.477  1.00  0.00    -0.287 N 
ATOM     10  H1  UNL     1      36.551  -0.568  61.524  1.00  0.00     0.188 HD
HETATM   11  N2  UNL     1      37.244  -0.638  63.469  1.00  0.00    -0.257 N 
HETATM   12  C16 UNL     1      38.261  -1.677  63.398  1.00  0.00     0.081 A 
HETATM   13  C17 UNL     1      39.362  -1.647  64.234  1.00  0.00     0.045 A 
HETATM   14  S1  UNL     1      40.209  -3.050  63.827  1.00  0.00    -0.091 SA
HETATM   15  C18 UNL     1      39.180  -3.662  62.609  1.00  0.00    -0.012 A 
HETATM   16  C19 UNL     1      39.357  -4.918  61.809  1.00  0.00     0.057 C 
HETATM   17  C20 UNL     1      38.182  -2.733  62.559  1.00  0.00    -0.019 A 
HETATM   18  C21 UNL     1      37.035  -2.901  61.580  1.00  0.00     0.052 C 
ENDROOT
BRANCH   1  19
HETATM   19  C4  UNL     1      41.153  -0.478  65.458  1.00  0.00     0.009 C 
HETATM   20  C3  UNL     1      41.962  -1.253  66.122  1.00  0.00    -0.026 C 
BRANCH  20  21
HETATM   21  C2  UNL     1      43.449  -0.864  66.246  1.00  0.00     0.022 C 
HETATM   22  C1  UNL     1      43.550  -0.094  67.548  1.00  0.00     0.009 C 
ENDBRANCH  20  21
ENDBRANCH   1  19
BRANCH   4  23
HETATM   23  C10 UNL     1      36.873  -1.353  66.485  1.00  0.00     0.015 C 
HETATM   24  C11 UNL     1      37.929  -2.126  67.230  1.00  0.00     0.006 C 
ENDBRANCH   4  23
BRANCH   8  25
HETATM   25  C15 UNL     1      34.703   1.445  62.015  1.00  0.00     0.228 C 
HETATM   26  O1  UNL     1      33.654   0.858  61.641  1.00  0.00    -0.643 OA
HETATM   27  O2  UNL     1      34.894   2.736  61.599  1.00  0.00    -0.643 OA
ENDBRANCH   8  25
TORSDOF 4
ENDMDL
MODEL 2
REMARK VINA RESULT: -8.445732893      1.272      1.698
REMARK  4 active torsions:
REMARK  status: ('A' for Active; 'I' for Inactive)
REMARK    1  A    between atoms: C2_2  and  C3_3 
REMARK    2  A    between atoms: C4_4  and  C5_5 
REMARK    3  A    between atoms: C8_8  and  C10_10 
REMARK    4  A    between atoms: C14_14  and  C15_15 
ROOT
HETATM    1  C5  UNL     1      40.988  -1.438  65.180  1.00  0.00    -0.014 C 
HETATM    2  C6  UNL     1      40.359  -0.707  66.157  1.00  0.00    -0.058 C 
HETATM    3  C7  UNL     1      41.276   0.046  66.985  1.00  0.00     0.045 C 
HETATM    4  C8  UNL     1      38.897  -0.619  66.393  1.00  0.00     0.024 C 
HETATM    5  C9  UNL     1      38.658   0.505  67.364  1.00  0.00     0.027 C 
HETATM    6  C12 UNL     1      38.123  -0.394  65.149  1.00  0.00     0.049 A 
HETATM    7  C13 UNL     1      37.173   0.580  65.033  1.00  0.00     0.066 A 
HETATM    8  C14 UNL     1      36.660   0.477  63.752  1.00  0.00     0.127 A 
HETATM    9  N1  UNL     1      37.298  -0.523  63.163  1.00  0.00    -0.287 N 
ATOM     10  H1  UNL     1      37.123  -0.828  62.206  1.00  0.00     0.188 HD
HETATM   11  N2  UNL     1      38.184  -1.074  63.961  1.00  0.00    -0.257 N 
HETATM   12  C16 UNL     1      39.061  -2.190  63.639  1.00  0.00     0.081 A 
HETATM   13  C17 UNL     1      40.306  -2.304  64.230  1.00  0.00     0.045 A 
HETATM   14  S1  UNL     1      40.915  -3.747  63.599  1.00  0.00    -0.091 SA
HETATM   15  C18 UNL     1      39.608  -4.195  62.596  1.00  0.00    -0.012 A 
HETATM   16  C19 UNL     1      39.499  -5.411  61.725  1.00  0.00     0.057 C 
HETATM   17  C20 UNL     1      38.715  -3.182  62.791  1.00  0.00    -0.019 A 
HETATM   18  C21 UNL     1      37.383  -3.193  62.063  1.00  0.00     0.052 C 
ENDROOT
BRANCH   1  19
HETATM   19  C4  UNL     1      42.411  -1.368  65.106  1.00  0.00     0.009 C 
HETATM   20  C3  UNL     1      43.261  -2.193  65.647  1.00  0.00    -0.026 C 
BRANCH  20  21
HETATM   21  C2  UNL     1      44.772  -1.951  65.460  1.00  0.00     0.022 C 
HETATM   22  C1  UNL     1      45.144  -2.718  64.207  1.00  0.00     0.009 C 
ENDBRANCH  20  21
ENDBRANCH   1  19
BRANCH   4  23
HETATM   23  C10 UNL     1      38.361  -1.936  66.957  1.00  0.00     0.015 C 
HETATM   24  C11 UNL     1      36.865  -2.040  66.829  1.00  0.00     0.006 C 
ENDBRANCH   4  23
BRANCH   8  25
HETATM   25  C15 UNL     1      35.613   1.302  63.150  1.00  0.00     0.228 C 
HETATM   26  O1  UNL     1      34.872   2.011  63.878  1.00  0.00    -0.643 OA
HETATM   27  O2  UNL     1      35.400   1.336  61.797  1.00  0.00    -0.643 OA
ENDBRANCH   8  25
TORSDOF 4
ENDMDL
MODEL 3
REMARK VINA RESULT: -8.377409139      3.843      7.022
REMARK  4 active torsions:
REMARK  status: ('A' for Active; 'I' for Inactive)
REMARK    1  A    between atoms: C2_2  and  C3_3 
REMARK    2  A    between atoms: C4_4  and  C5_5 
REMARK    3  A    between atoms: C8_8  and  C10_10 
REMARK    4  A    between atoms: C14_14  and  C15_15 
ROOT
HETATM    1  C5  UNL     1      37.414   0.166  64.471  1.00  0.00    -0.014 C 
HETATM    2  C6  UNL     1      38.105  -0.998  64.245  1.00  0.00    -0.058 C 
HETATM    3  C7  UNL     1      37.995  -1.472  62.882  1.00  0.00     0.045 C 
HETATM    4  C8  UNL     1      38.923  -1.747  65.231  1.00  0.00     0.024 C 
HETATM    5  C9  UNL     1      39.712  -2.782  64.476  1.00  0.00     0.027 C 
HETATM    6  C12 UNL     1      39.835  -0.873  66.007  1.00  0.00     0.049 A 
HETATM    7  C13 UNL     1      41.164  -1.144  66.166  1.00  0.00     0.066 A 
HETATM    8  C14 UNL     1      41.680  -0.129  66.953  1.00  0.00     0.127 A 
HETATM    9  N1  UNL     1      40.675   0.689  67.231  1.00  0.00    -0.287 N 
ATOM     10  H1  UNL     1      40.763   1.530  67.799  1.00  0.00     0.188 HD
HETATM   11  N2  UNL     1      39.551   0.284  66.685  1.00  0.00    -0.257 N 
HETATM   12  C16 UNL     1      38.257   0.942  66.782  1.00  0.00     0.081 A 
HETATM   13  C17 UNL     1      37.333   0.842  65.757  1.00  0.00     0.045 A 
HETATM   14  S1  UNL     1      36.002   1.705  66.335  1.00  0.00    -0.091 SA
HETATM   15  C18 UNL     1      36.613   2.190  67.854  1.00  0.00    -0.012 A 
HETATM   16  C19 UNL     1      35.918   3.010  68.899  1.00  0.00     0.057 C 
HETATM   17  C20 UNL     1      37.865   1.647  67.865  1.00  0.00    -0.019 A 
HETATM   18  C21 UNL     1      38.769   1.849  69.067  1.00  0.00     0.052 C 
ENDROOT
BRANCH   1  19
HETATM   19  C4  UNL     1      36.703   0.743  63.376  1.00  0.00     0.009 C 
HETATM   20  C3  UNL     1      35.412   0.762  63.209  1.00  0.00    -0.026 C 
BRANCH  20  21
HETATM   21  C2  UNL     1      34.823   1.433  61.952  1.00  0.00     0.022 C 
HETATM   22  C1  UNL     1      35.325   2.863  61.994  1.00  0.00     0.009 C 
ENDBRANCH  20  21
ENDBRANCH   1  19
BRANCH   4  23
HETATM   23  C10 UNL     1      38.031  -2.413  66.278  1.00  0.00     0.015 C 
HETATM   24  C11 UNL     1      38.631  -3.690  66.805  1.00  0.00     0.006 C 
ENDBRANCH   4  23
BRANCH   8  25
HETATM   25  C15 UNL     1      43.062   0.024  67.403  1.00  0.00     0.228 C 
HETATM   26  O1  UNL     1      44.006  -0.432  66.709  1.00  0.00    -0.643 OA
HETATM   27  O2  UNL     1      43.380   0.659  68.576  1.00  0.00    -0.643 OA
ENDBRANCH   8  25
TORSDOF 4
ENDMDL
MODEL 4
REMARK VINA RESULT: -8.192582360      3.968      6.962
REMARK  4 active torsions:
REMARK  status: ('A' for Active; 'I' for Inactive)
REMARK    1  A    between atoms: C2_2  and  C3_3 
REMARK    2  A    between atoms: C4_4  and  C5_5 
REMARK    3  A    between atoms: C8_8  and  C10_10 
REMARK    4  A    between atoms: C14_14  and  C15_15 
ROOT
HETATM    1  C5  UNL     1      38.405  -0.306  64.813  1.00  0.00    -0.014 C 
HETATM    2  C6  UNL     1      38.476  -1.577  64.300  1.00  0.00    -0.058 C 
HETATM    3  C7  UNL     1      37.530  -1.814  63.231  1.00  0.00     0.045 C 
HETATM    4  C8  UNL     1      39.411  -2.650  64.721  1.00  0.00     0.024 C 
HETATM    5  C9  UNL     1      39.324  -3.755  63.703  1.00  0.00     0.027 C 
HETATM    6  C12 UNL     1      40.811  -2.179  64.847  1.00  0.00     0.049 A 
HETATM    7  C13 UNL     1      41.867  -2.831  64.276  1.00  0.00     0.066 A 
HETATM    8  C14 UNL     1      43.001  -2.117  64.620  1.00  0.00     0.127 A 
HETATM    9  N1  UNL     1      42.600  -1.094  65.360  1.00  0.00    -0.287 N 
ATOM     10  H1  UNL     1      43.228  -0.395  65.756  1.00  0.00     0.188 HD
HETATM   11  N2  UNL     1      41.297  -1.090  65.522  1.00  0.00    -0.257 N 
HETATM   12  C16 UNL     1      40.523  -0.113  66.273  1.00  0.00     0.081 A 
HETATM   13  C17 UNL     1      39.221   0.188  65.911  1.00  0.00     0.045 A 
HETATM   14  S1  UNL     1      38.733   1.306  67.078  1.00  0.00    -0.091 SA
HETATM   15  C18 UNL     1      40.162   1.392  68.009  1.00  0.00    -0.012 A 
HETATM   16  C19 UNL     1      40.410   2.229  69.228  1.00  0.00     0.057 C 
HETATM   17  C20 UNL     1      40.995   0.523  67.367  1.00  0.00    -0.019 A 
HETATM   18  C21 UNL     1      42.405   0.300  67.883  1.00  0.00     0.052 C 
ENDROOT
BRANCH   1  19
HETATM   19  C4  UNL     1      37.446   0.588  64.250  1.00  0.00     0.009 C 
HETATM   20  C3  UNL     1      36.191   0.695  64.583  1.00  0.00    -0.026 C 
BRANCH  20  21
HETATM   21  C2  UNL     1      35.302   1.723  63.856  1.00  0.00     0.022 C 
HETATM   22  C1  UNL     1      35.575   1.509  62.379  1.00  0.00     0.009 C 
ENDBRANCH  20  21
ENDBRANCH   1  19
BRANCH   4  23
HETATM   23  C10 UNL     1      39.044  -3.171  66.110  1.00  0.00     0.015 C 
HETATM   24  C11 UNL     1      37.667  -2.733  66.534  1.00  0.00     0.006 C 
ENDBRANCH   4  23
BRANCH   8  25
HETATM   25  C15 UNL     1      44.382  -2.420  64.248  1.00  0.00     0.228 C 
HETATM   26  O1  UNL     1      44.647  -2.844  63.094  1.00  0.00    -0.643 OA
HETATM   27  O2  UNL     1      45.424  -2.258  65.123  1.00  0.00    -0.643 OA
ENDBRANCH   8  25
TORSDOF 4
ENDMDL
MODEL 5
REMARK VINA RESULT: -7.982890637      2.035      2.641
REMARK  4 active torsions:
REMARK  status: ('A' for Active; 'I' for Inactive)
REMARK    1  A    between atoms: C2_2  and  C3_3 
REMARK    2  A    between atoms: C4_4  and  C5_5 
REMARK    3  A    between atoms: C8_8  and  C10_10 
REMARK    4  A    between atoms: C14_14  and  C15_15 
ROOT
HETATM    1  C5  UNL     1      40.526  -1.105  65.386  1.00  0.00    -0.014 C 
HETATM    2  C6  UNL     1      39.230  -0.796  65.715  1.00  0.00    -0.058 C 
HETATM    3  C7  UNL     1      39.119   0.369  66.567  1.00  0.00     0.045 C 
HETATM    4  C8  UNL     1      38.009  -1.512  65.269  1.00  0.00     0.024 C 
HETATM    5  C9  UNL     1      36.823  -0.661  65.634  1.00  0.00     0.027 C 
HETATM    6  C12 UNL     1      38.006  -1.797  63.814  1.00  0.00     0.049 A 
HETATM    7  C13 UNL     1      36.946  -1.506  63.004  1.00  0.00     0.066 A 
HETATM    8  C14 UNL     1      37.298  -1.925  61.733  1.00  0.00     0.127 A 
HETATM    9  N1  UNL     1      38.517  -2.437  61.821  1.00  0.00    -0.287 N 
ATOM     10  H1  UNL     1      39.032  -2.827  61.032  1.00  0.00     0.188 HD
HETATM   11  N2  UNL     1      38.981  -2.381  63.049  1.00  0.00    -0.257 N 
HETATM   12  C16 UNL     1      40.283  -2.849  63.502  1.00  0.00     0.081 A 
HETATM   13  C17 UNL     1      40.921  -2.240  64.567  1.00  0.00     0.045 A 
HETATM   14  S1  UNL     1      42.338  -3.141  64.749  1.00  0.00    -0.091 SA
HETATM   15  C18 UNL     1      42.123  -4.271  63.486  1.00  0.00    -0.012 A 
HETATM   16  C19 UNL     1      43.046  -5.383  63.088  1.00  0.00     0.057 C 
HETATM   17  C20 UNL     1      40.922  -3.904  62.952  1.00  0.00    -0.019 A 
HETATM   18  C21 UNL     1      40.349  -4.670  61.774  1.00  0.00     0.052 C 
ENDROOT
BRANCH   1  19
HETATM   19  C4  UNL     1      41.562  -0.272  65.904  1.00  0.00     0.009 C 
HETATM   20  C3  UNL     1      42.392  -0.565  66.864  1.00  0.00    -0.026 C 
BRANCH  20  21
HETATM   21  C2  UNL     1      43.449   0.472  67.292  1.00  0.00     0.022 C 
HETATM   22  C1  UNL     1      42.966   1.003  68.627  1.00  0.00     0.009 C 
ENDBRANCH  20  21
ENDBRANCH   1  19
BRANCH   4  23
HETATM   23  C10 UNL     1      37.912  -2.882  65.939  1.00  0.00     0.015 C 
HETATM   24  C11 UNL     1      37.965  -2.784  67.441  1.00  0.00     0.006 C 
ENDBRANCH   4  23
BRANCH   8  25
HETATM   25  C15 UNL     1      36.492  -1.831  60.517  1.00  0.00     0.228 C 
HETATM   26  O1  UNL     1      35.236  -1.855  60.589  1.00  0.00    -0.643 OA
HETATM   27  O2  UNL     1      37.058  -1.716  59.274  1.00  0.00    -0.643 OA
ENDBRANCH   8  25
TORSDOF 4
ENDMDL
