MODEL 1
REMARK VINA RESULT: -8.914486874      0.000      0.000
REMARK  4 active torsions:
REMARK  status: ('A' for Active; 'I' for Inactive)
REMARK    1  A    between atoms: S1_2  and  C2_3 
REMARK    2  A    between atoms: C5_9  and  C6_10 
REMARK    3  A    between atoms: C6_10  and  O3_12 
REMARK    4  A    between atoms: O3_12  and  C7_13 
ROOT
HETATM    1  C2  UNL     1      38.845  -3.062  62.755  1.00  0.00     0.100 A 
HETATM    2  N1  UNL     1      38.162  -3.304  61.623  1.00  0.00    -0.254 N 
ATOM      3  H1  UNL     1      38.412  -4.012  60.933  1.00  0.00     0.195 HD
HETATM    4  O1  UNL     1      37.141  -2.510  61.534  1.00  0.00    -0.241 OA
HETATM    5  C3  UNL     1      37.122  -1.733  62.590  1.00  0.00     0.086 A 
HETATM    6  C4  UNL     1      38.197  -2.039  63.418  1.00  0.00     0.023 A 
HETATM    7  C5  UNL     1      38.405  -1.312  64.667  1.00  0.00     0.127 C 
HETATM    8  C17 UNL     1      37.134  -0.952  65.385  1.00  0.00    -0.000 C 
HETATM    9  C18 UNL     1      36.819  -1.995  66.461  1.00  0.00     0.011 C 
HETATM   10  C19 UNL     1      35.968  -0.679  64.530  1.00  0.00     0.012 C 
HETATM   11  C20 UNL     1      36.227  -0.644  63.056  1.00  0.00     0.068 C 
ENDROOT
BRANCH   7  12
HETATM   12  C6  UNL     1      39.261  -0.106  64.499  1.00  0.00     0.268 C 
HETATM   13  O2  UNL     1      38.882   0.891  63.844  1.00  0.00    -0.264 OA
BRANCH  12  14
HETATM   14  O3  UNL     1      40.537  -0.031  65.069  1.00  0.00    -0.311 OA
BRANCH  14  15
HETATM   15  C7  UNL     1      40.832   0.706  66.208  1.00  0.00     0.165 C 
HETATM   16  C8  UNL     1      39.768   0.376  67.282  1.00  0.00     0.070 C 
HETATM   17  C9  UNL     1      40.082   1.141  68.516  1.00  0.00    -0.085 C 
HETATM   18  C10 UNL     1      38.880   1.503  69.357  1.00  0.00     0.043 C 
HETATM   19  C11 UNL     1      41.296   1.486  68.867  1.00  0.00    -0.020 C 
HETATM   20  C12 UNL     1      42.494   1.155  68.079  1.00  0.00     0.064 C 
HETATM   21  C13 UNL     1      42.109   0.325  66.861  1.00  0.00    -0.045 C 
HETATM   22  C14 UNL     1      42.922  -0.635  66.522  1.00  0.00    -0.082 C 
HETATM   23  C15 UNL     1      44.164  -0.866  67.299  1.00  0.00     0.043 C 
HETATM   24  C16 UNL     1      42.657  -1.531  65.379  1.00  0.00     0.043 C 
ENDBRANCH  14  15
ENDBRANCH  12  14
ENDBRANCH   7  12
BRANCH   1  25
HETATM   25  S1  UNL     1      40.317  -3.854  63.375  1.00  0.00    -0.114 SA
HETATM   26  C1  UNL     1      41.204  -4.594  62.002  1.00  0.00     0.097 C 
ENDBRANCH   1  25
TORSDOF 4
ENDMDL
MODEL 2
REMARK VINA RESULT: -8.643316823      1.962      2.486
REMARK  4 active torsions:
REMARK  status: ('A' for Active; 'I' for Inactive)
REMARK    1  A    between atoms: S1_2  and  C2_3 
REMARK    2  A    between atoms: C5_9  and  C6_10 
REMARK    3  A    between atoms: C6_10  and  O3_12 
REMARK    4  A    between atoms: O3_12  and  C7_13 
ROOT
HETATM    1  C2  UNL     1      36.387  -0.930  62.884  1.00  0.00     0.100 A 
HETATM    2  N1  UNL     1      35.285  -0.177  62.729  1.00  0.00    -0.254 N 
ATOM      3  H1  UNL     1      34.665  -0.212  61.919  1.00  0.00     0.195 HD
HETATM    4  O1  UNL     1      35.122   0.601  63.753  1.00  0.00    -0.241 OA
HETATM    5  C3  UNL     1      36.098   0.385  64.602  1.00  0.00     0.086 A 
HETATM    6  C4  UNL     1      36.950  -0.593  64.099  1.00  0.00     0.023 A 
HETATM    7  C5  UNL     1      38.123  -1.018  64.856  1.00  0.00     0.127 C 
HETATM    8  C17 UNL     1      37.908  -1.069  66.343  1.00  0.00    -0.000 C 
HETATM    9  C18 UNL     1      37.553  -2.494  66.779  1.00  0.00     0.011 C 
HETATM   10  C19 UNL     1      36.967  -0.080  66.890  1.00  0.00     0.012 C 
HETATM   11  C20 UNL     1      36.460   0.948  65.927  1.00  0.00     0.068 C 
ENDROOT
BRANCH   7  12
HETATM   12  C6  UNL     1      39.338  -0.218  64.538  1.00  0.00     0.268 C 
HETATM   13  O2  UNL     1      39.279   0.846  63.883  1.00  0.00    -0.264 OA
BRANCH  12  14
HETATM   14  O3  UNL     1      40.609  -0.621  64.962  1.00  0.00    -0.311 OA
BRANCH  14  15
HETATM   15  C7  UNL     1      41.401   0.112  65.837  1.00  0.00     0.165 C 
HETATM   16  C8  UNL     1      40.681   0.166  67.205  1.00  0.00     0.070 C 
HETATM   17  C9  UNL     1      41.526   0.928  68.159  1.00  0.00    -0.085 C 
HETATM   18  C10 UNL     1      40.760   1.663  69.233  1.00  0.00     0.043 C 
HETATM   19  C11 UNL     1      42.834   0.977  68.093  1.00  0.00    -0.020 C 
HETATM   20  C12 UNL     1      43.621   0.278  67.064  1.00  0.00     0.064 C 
HETATM   21  C13 UNL     1      42.702  -0.528  66.156  1.00  0.00    -0.045 C 
HETATM   22  C14 UNL     1      43.135  -1.691  65.762  1.00  0.00    -0.082 C 
HETATM   23  C15 UNL     1      44.475  -2.167  66.185  1.00  0.00     0.043 C 
HETATM   24  C16 UNL     1      42.335  -2.586  64.902  1.00  0.00     0.043 C 
ENDBRANCH  14  15
ENDBRANCH  12  14
ENDBRANCH   7  12
BRANCH   1  25
HETATM   25  S1  UNL     1      37.076  -2.158  61.791  1.00  0.00    -0.114 SA
HETATM   26  C1  UNL     1      36.380  -1.939  60.153  1.00  0.00     0.097 C 
ENDBRANCH   1  25
TORSDOF 4
ENDMDL
MODEL 3
REMARK VINA RESULT: -8.248825705      2.572      4.370
REMARK  4 active torsions:
REMARK  status: ('A' for Active; 'I' for Inactive)
REMARK    1  A    between atoms: S1_2  and  C2_3 
REMARK    2  A    between atoms: C5_9  and  C6_10 
REMARK    3  A    between atoms: C6_10  and  O3_12 
REMARK    4  A    between atoms: O3_12  and  C7_13 
ROOT
HETATM    1  C2  UNL     1      35.961   0.479  64.734  1.00  0.00     0.100 A 
HETATM    2  N1  UNL     1      35.375   1.535  65.324  1.00  0.00    -0.254 N 
ATOM      3  H1  UNL     1      34.530   1.995  64.987  1.00  0.00     0.195 HD
HETATM    4  O1  UNL     1      36.038   1.884  66.382  1.00  0.00    -0.241 OA
HETATM    5  C3  UNL     1      37.064   1.080  66.518  1.00  0.00     0.086 A 
HETATM    6  C4  UNL     1      37.071   0.148  65.485  1.00  0.00     0.023 A 
HETATM    7  C5  UNL     1      38.118  -0.866  65.405  1.00  0.00     0.127 C 
HETATM    8  C17 UNL     1      38.560  -1.397  66.740  1.00  0.00    -0.000 C 
HETATM    9  C18 UNL     1      37.820  -2.699  67.063  1.00  0.00     0.011 C 
HETATM   10  C19 UNL     1      38.507  -0.445  67.860  1.00  0.00     0.012 C 
HETATM   11  C20 UNL     1      38.168   0.969  67.506  1.00  0.00     0.068 C 
ENDROOT
BRANCH   7  12
HETATM   12  C6  UNL     1      39.297  -0.419  64.612  1.00  0.00     0.268 C 
HETATM   13  O2  UNL     1      39.433   0.766  64.234  1.00  0.00    -0.264 OA
BRANCH  12  14
HETATM   14  O3  UNL     1      40.314  -1.311  64.252  1.00  0.00    -0.311 OA
BRANCH  14  15
HETATM   15  C7  UNL     1      41.643  -1.160  64.629  1.00  0.00     0.165 C 
HETATM   16  C8  UNL     1      41.696  -1.064  66.172  1.00  0.00     0.070 C 
HETATM   17  C9  UNL     1      43.113  -0.925  66.593  1.00  0.00    -0.085 C 
HETATM   18  C10 UNL     1      43.318  -0.151  67.874  1.00  0.00     0.043 C 
HETATM   19  C11 UNL     1      44.123  -1.424  65.923  1.00  0.00    -0.020 C 
HETATM   20  C12 UNL     1      43.970  -2.183  64.671  1.00  0.00     0.064 C 
HETATM   21  C13 UNL     1      42.495  -2.337  64.327  1.00  0.00    -0.045 C 
HETATM   22  C14 UNL     1      42.125  -3.478  63.819  1.00  0.00    -0.082 C 
HETATM   23  C15 UNL     1      43.127  -4.547  63.584  1.00  0.00     0.043 C 
HETATM   24  C16 UNL     1      40.722  -3.771  63.464  1.00  0.00     0.043 C 
ENDBRANCH  14  15
ENDBRANCH  12  14
ENDBRANCH   7  12
BRANCH   1  25
HETATM   25  S1  UNL     1      35.476  -0.403  63.262  1.00  0.00    -0.114 SA
HETATM   26  C1  UNL     1      35.183   0.779  61.944  1.00  0.00     0.097 C 
ENDBRANCH   1  25
TORSDOF 4
ENDMDL
MODEL 4
REMARK VINA RESULT: -8.033505595      2.945      7.014
REMARK  4 active torsions:
REMARK  status: ('A' for Active; 'I' for Inactive)
REMARK    1  A    between atoms: S1_2  and  C2_3 
REMARK    2  A    between atoms: C5_9  and  C6_10 
REMARK    3  A    between atoms: C6_10  and  O3_12 
REMARK    4  A    between atoms: O3_12  and  C7_13 
ROOT
HETATM    1  C2  UNL     1      40.647   0.718  67.210  1.00  0.00     0.100 A 
HETATM    2  N1  UNL     1      41.983   0.571  67.174  1.00  0.00    -0.254 N 
ATOM      3  H1  UNL     1      42.643   1.110  67.734  1.00  0.00     0.195 HD
HETATM    4  O1  UNL     1      42.311  -0.354  66.327  1.00  0.00    -0.241 OA
HETATM    5  C3  UNL     1      41.218  -0.836  65.788  1.00  0.00     0.086 A 
HETATM    6  C4  UNL     1      40.107  -0.186  66.317  1.00  0.00     0.023 A 
HETATM    7  C5  UNL     1      38.760  -0.538  65.880  1.00  0.00     0.127 C 
HETATM    8  C17 UNL     1      38.567  -2.005  65.612  1.00  0.00    -0.000 C 
HETATM    9  C18 UNL     1      37.963  -2.693  66.840  1.00  0.00     0.011 C 
HETATM   10  C19 UNL     1      39.745  -2.727  65.106  1.00  0.00     0.012 C 
HETATM   11  C20 UNL     1      40.939  -1.886  64.776  1.00  0.00     0.068 C 
ENDROOT
BRANCH   7  12
HETATM   12  C6  UNL     1      38.303   0.263  64.711  1.00  0.00     0.268 C 
HETATM   13  O2  UNL     1      39.102   0.711  63.859  1.00  0.00    -0.264 OA
BRANCH  12  14
HETATM   14  O3  UNL     1      36.948   0.553  64.510  1.00  0.00    -0.311 OA
BRANCH  14  15
HETATM   15  C7  UNL     1      36.269   0.288  63.328  1.00  0.00     0.165 C 
HETATM   16  C8  UNL     1      35.657  -1.129  63.433  1.00  0.00     0.070 C 
HETATM   17  C9  UNL     1      34.908  -1.418  62.184  1.00  0.00    -0.085 C 
HETATM   18  C10 UNL     1      34.856  -2.880  61.803  1.00  0.00     0.043 C 
HETATM   19  C11 UNL     1      34.330  -0.498  61.453  1.00  0.00    -0.020 C 
HETATM   20  C12 UNL     1      34.355   0.936  61.785  1.00  0.00     0.064 C 
HETATM   21  C13 UNL     1      35.088   1.158  63.101  1.00  0.00    -0.045 C 
HETATM   22  C14 UNL     1      34.605   2.069  63.897  1.00  0.00    -0.082 C 
HETATM   23  C15 UNL     1      33.407   2.847  63.496  1.00  0.00     0.043 C 
HETATM   24  C16 UNL     1      35.202   2.368  65.215  1.00  0.00     0.043 C 
ENDBRANCH  14  15
ENDBRANCH  12  14
ENDBRANCH   7  12
BRANCH   1  25
HETATM   25  S1  UNL     1      39.663   1.836  68.190  1.00  0.00    -0.114 SA
HETATM   26  C1  UNL     1      40.559   2.243  69.689  1.00  0.00     0.097 C 
ENDBRANCH   1  25
TORSDOF 4
ENDMDL
MODEL 5
REMARK VINA RESULT: -8.012020238      1.968      3.091
REMARK  4 active torsions:
REMARK  status: ('A' for Active; 'I' for Inactive)
REMARK    1  A    between atoms: S1_2  and  C2_3 
REMARK    2  A    between atoms: C5_9  and  C6_10 
REMARK    3  A    between atoms: C6_10  and  O3_12 
REMARK    4  A    between atoms: O3_12  and  C7_13 
ROOT
HETATM    1  C2  UNL     1      36.211  -0.958  63.897  1.00  0.00     0.100 A 
HETATM    2  N1  UNL     1      35.289  -1.217  64.840  1.00  0.00    -0.254 N 
ATOM      3  H1  UNL     1      34.293  -1.017  64.751  1.00  0.00     0.195 HD
HETATM    4  O1  UNL     1      35.846  -1.758  65.878  1.00  0.00    -0.241 OA
HETATM    5  C3  UNL     1      37.133  -1.870  65.652  1.00  0.00     0.086 A 
HETATM    6  C4  UNL     1      37.433  -1.371  64.388  1.00  0.00     0.023 A 
HETATM    7  C5  UNL     1      38.806  -1.378  63.892  1.00  0.00     0.127 C 
HETATM    8  C17 UNL     1      39.599  -2.589  64.300  1.00  0.00    -0.000 C 
HETATM    9  C18 UNL     1      39.569  -3.641  63.187  1.00  0.00     0.011 C 
HETATM   10  C19 UNL     1      39.259  -3.169  65.609  1.00  0.00     0.012 C 
HETATM   11  C20 UNL     1      38.279  -2.396  66.436  1.00  0.00     0.068 C 
ENDROOT
BRANCH   7  12
HETATM   12  C6  UNL     1      39.552  -0.136  64.235  1.00  0.00     0.268 C 
HETATM   13  O2  UNL     1      39.160   0.996  63.872  1.00  0.00    -0.264 OA
BRANCH  12  14
HETATM   14  O3  UNL     1      40.734  -0.177  64.984  1.00  0.00    -0.311 OA
BRANCH  14  15
HETATM   15  C7  UNL     1      40.964   0.608  66.107  1.00  0.00     0.165 C 
HETATM   16  C8  UNL     1      39.845   0.315  67.134  1.00  0.00     0.070 C 
HETATM   17  C9  UNL     1      40.090   1.130  68.351  1.00  0.00    -0.085 C 
HETATM   18  C10 UNL     1      38.844   1.518  69.112  1.00  0.00     0.043 C 
HETATM   19  C11 UNL     1      41.282   1.497  68.753  1.00  0.00    -0.020 C 
HETATM   20  C12 UNL     1      42.522   1.143  68.043  1.00  0.00     0.064 C 
HETATM   21  C13 UNL     1      42.207   0.262  66.841  1.00  0.00    -0.045 C 
HETATM   22  C14 UNL     1      43.040  -0.705  66.585  1.00  0.00    -0.082 C 
HETATM   23  C15 UNL     1      44.241  -0.896  67.436  1.00  0.00     0.043 C 
HETATM   24  C16 UNL     1      42.841  -1.648  65.467  1.00  0.00     0.043 C 
ENDBRANCH  14  15
ENDBRANCH  12  14
ENDBRANCH   7  12
BRANCH   1  25
HETATM   25  S1  UNL     1      36.000  -0.225  62.285  1.00  0.00    -0.114 SA
HETATM   26  C1  UNL     1      35.639   1.521  62.480  1.00  0.00     0.097 C 
ENDBRANCH   1  25
TORSDOF 4
ENDMDL
