MODEL 1
REMARK VINA RESULT: -7.416940752      0.000      0.000
REMARK  6 active torsions:
REMARK  status: ('A' for Active; 'I' for Inactive)
REMARK    1  A    between atoms: C5_7  and  C6_8 
REMARK    2  A    between atoms: C7_11  and  C8_12 
REMARK    3  A    between atoms: C8_12  and  N3_13 
REMARK    4  A    between atoms: N3_13  and  C9_14 
REMARK    5  A    between atoms: N3_13  and  C12_17 
REMARK    6  A    between atoms: C20_26  and  O1_27 
ROOT
HETATM    1  C6  UNL     1       0.226  25.096  -1.438  1.00  0.00     0.087 A 
HETATM    2  N2  UNL     1      -0.876  25.750  -1.252  1.00  0.00    -0.351 N 
ATOM      3  H2  UNL     1      -1.644  25.593  -1.904  1.00  0.00     0.166 HD
HETATM    4  C7  UNL     1      -1.056  26.584  -0.295  1.00  0.00     0.040 A 
HETATM    5  C16 UNL     1       0.049  26.747   0.562  1.00  0.00     0.005 A 
HETATM    6  C17 UNL     1       0.180  27.626   1.762  1.00  0.00     0.058 C 
HETATM    7  S1  UNL     1       1.184  25.686  -0.124  1.00  0.00    -0.074 SA
ENDROOT
BRANCH   1   8
HETATM    8  C5  UNL     1       0.576  24.128  -2.462  1.00  0.00     0.029 A 
HETATM    9  C3  UNL     1       1.771  24.268  -3.161  1.00  0.00     0.019 A 
HETATM   10  N1  UNL     1       2.041  23.316  -4.103  1.00  0.00    -0.360 N 
HETATM   11  C4  UNL     1       2.748  25.335  -2.977  1.00  0.00     0.069 C 
HETATM   12  C2  UNL     1       1.249  22.292  -4.381  1.00  0.00     0.039 A 
ATOM     13  H1  UNL     1       2.912  23.399  -4.627  1.00  0.00     0.165 HD
HETATM   14  C1  UNL     1       1.646  21.299  -5.441  1.00  0.00     0.071 C 
HETATM   15  C20 UNL     1       0.061  22.121  -3.711  1.00  0.00     0.094 A 
HETATM   16  C18 UNL     1      -0.256  23.074  -2.738  1.00  0.00    -0.012 A 
HETATM   17  C19 UNL     1      -1.547  22.848  -2.044  1.00  0.00     0.052 C 
BRANCH  15  18
HETATM   18  O1  UNL     1      -0.777  21.055  -3.992  1.00  0.00    -0.358 OA
ATOM     19  H1  UNL     1      -1.659  21.014  -3.642  1.00  0.00     0.217 HD
ENDBRANCH  15  18
ENDBRANCH   1   8
BRANCH   4  20
HETATM   20  C8  UNL     1      -2.297  27.339  -0.004  1.00  0.00     0.176 C 
BRANCH  20  21
HETATM   21  N3  UNL     1      -3.344  26.699   0.700  1.00  0.00    -0.396 N 
BRANCH  21  22
HETATM   22  C9  UNL     1      -4.436  26.297  -0.081  1.00  0.00     0.072 C 
HETATM   23  C10 UNL     1      -4.945  27.312  -1.101  1.00  0.00     0.031 C 
HETATM   24  C11 UNL     1      -4.273  24.936  -0.742  1.00  0.00     0.031 C 
ENDBRANCH  21  22
BRANCH  21  25
HETATM   25  C12 UNL     1      -3.521  27.312   1.954  1.00  0.00     0.017 C 
HETATM   26  C13 UNL     1      -2.781  26.601   3.086  1.00  0.00     0.037 C 
HETATM   27  C14 UNL     1      -3.168  28.763   2.099  1.00  0.00     0.037 C 
HETATM   28  C15 UNL     1      -5.004  27.234   2.308  1.00  0.00     0.037 C 
ENDBRANCH  21  25
ENDBRANCH  20  21
ENDBRANCH   4  20
TORSDOF 6
ENDMDL
MODEL 2
REMARK VINA RESULT: -7.336613079      5.202      9.273
REMARK  6 active torsions:
REMARK  status: ('A' for Active; 'I' for Inactive)
REMARK    1  A    between atoms: C5_7  and  C6_8 
REMARK    2  A    between atoms: C7_11  and  C8_12 
REMARK    3  A    between atoms: C8_12  and  N3_13 
REMARK    4  A    between atoms: N3_13  and  C9_14 
REMARK    5  A    between atoms: N3_13  and  C12_17 
REMARK    6  A    between atoms: C20_26  and  O1_27 
ROOT
HETATM    1  C6  UNL     1       4.992  25.423  -2.979  1.00  0.00     0.087 A 
HETATM    2  N2  UNL     1       5.678  26.313  -3.622  1.00  0.00    -0.351 N 
ATOM      3  H2  UNL     1       5.592  26.346  -4.637  1.00  0.00     0.166 HD
HETATM    4  C7  UNL     1       6.461  27.155  -3.054  1.00  0.00     0.040 A 
HETATM    5  C16 UNL     1       6.527  27.047  -1.652  1.00  0.00     0.005 A 
HETATM    6  C17 UNL     1       7.328  27.859  -0.688  1.00  0.00     0.058 C 
HETATM    7  S1  UNL     1       5.463  25.759  -1.350  1.00  0.00    -0.074 SA
ENDROOT
BRANCH   1   8
HETATM    8  C5  UNL     1       4.072  24.416  -3.476  1.00  0.00     0.029 A 
HETATM    9  C3  UNL     1       4.549  23.385  -4.278  1.00  0.00     0.019 A 
HETATM   10  N1  UNL     1       3.630  22.466  -4.701  1.00  0.00    -0.360 N 
HETATM   11  C4  UNL     1       5.932  23.203  -4.702  1.00  0.00     0.069 C 
HETATM   12  C2  UNL     1       2.342  22.502  -4.398  1.00  0.00     0.039 A 
ATOM     13  H1  UNL     1       3.958  21.701  -5.290  1.00  0.00     0.165 HD
HETATM   14  C1  UNL     1       1.415  21.436  -4.920  1.00  0.00     0.071 C 
HETATM   15  C20 UNL     1       1.834  23.506  -3.608  1.00  0.00     0.094 A 
HETATM   16  C18 UNL     1       2.740  24.469  -3.152  1.00  0.00    -0.012 A 
HETATM   17  C19 UNL     1       2.146  25.530  -2.306  1.00  0.00     0.052 C 
BRANCH  15  18
HETATM   18  O1  UNL     1       0.489  23.556  -3.284  1.00  0.00    -0.358 OA
ATOM     19  H1  UNL     1       0.134  24.261  -2.756  1.00  0.00     0.217 HD
ENDBRANCH  15  18
ENDBRANCH   1   8
BRANCH   4  20
HETATM   20  C8  UNL     1       7.249  28.218  -3.722  1.00  0.00     0.176 C 
BRANCH  20  21
HETATM   21  N3  UNL     1       8.404  27.860  -4.456  1.00  0.00    -0.396 N 
BRANCH  21  22
HETATM   22  C9  UNL     1       9.594  28.468  -4.038  1.00  0.00     0.072 C 
HETATM   23  C10 UNL     1       9.560  29.149  -2.672  1.00  0.00     0.031 C 
HETATM   24  C11 UNL     1      10.828  27.583  -4.143  1.00  0.00     0.031 C 
ENDBRANCH  21  22
BRANCH  21  25
HETATM   25  C12 UNL     1       8.082  27.730  -5.820  1.00  0.00     0.017 C 
HETATM   26  C13 UNL     1       6.745  28.369  -6.191  1.00  0.00     0.037 C 
HETATM   27  C14 UNL     1       9.060  28.235  -6.839  1.00  0.00     0.037 C 
HETATM   28  C15 UNL     1       7.934  26.241  -6.125  1.00  0.00     0.037 C 
ENDBRANCH  21  25
ENDBRANCH  20  21
ENDBRANCH   4  20
TORSDOF 6
ENDMDL
MODEL 3
REMARK VINA RESULT: -7.232808086      0.845      2.026
REMARK  6 active torsions:
REMARK  status: ('A' for Active; 'I' for Inactive)
REMARK    1  A    between atoms: C5_7  and  C6_8 
REMARK    2  A    between atoms: C7_11  and  C8_12 
REMARK    3  A    between atoms: C8_12  and  N3_13 
REMARK    4  A    between atoms: N3_13  and  C9_14 
REMARK    5  A    between atoms: N3_13  and  C12_17 
REMARK    6  A    between atoms: C20_26  and  O1_27 
ROOT
HETATM    1  C6  UNL     1       0.371  24.895  -1.401  1.00  0.00     0.087 A 
HETATM    2  N2  UNL     1      -0.782  25.234  -0.920  1.00  0.00    -0.351 N 
ATOM      3  H2  UNL     1      -1.614  24.791  -1.310  1.00  0.00     0.166 HD
HETATM    4  C7  UNL     1      -0.938  26.094   0.019  1.00  0.00     0.040 A 
HETATM    5  C16 UNL     1       0.256  26.660   0.504  1.00  0.00     0.005 A 
HETATM    6  C17 UNL     1       0.437  27.679   1.580  1.00  0.00     0.058 C 
HETATM    7  S1  UNL     1       1.426  25.882  -0.450  1.00  0.00    -0.074 SA
ENDROOT
BRANCH   1   8
HETATM    8  C5  UNL     1       0.705  23.946  -2.447  1.00  0.00     0.029 A 
HETATM    9  C3  UNL     1       1.976  23.964  -3.013  1.00  0.00     0.019 A 
HETATM   10  N1  UNL     1       2.224  23.037  -3.985  1.00  0.00    -0.360 N 
HETATM   11  C4  UNL     1       3.054  24.879  -2.659  1.00  0.00     0.069 C 
HETATM   12  C2  UNL     1       1.343  22.144  -4.410  1.00  0.00     0.039 A 
ATOM     13  H1  UNL     1       3.150  23.031  -4.413  1.00  0.00     0.165 HD
HETATM   14  C1  UNL     1       1.723  21.166  -5.490  1.00  0.00     0.071 C 
HETATM   15  C20 UNL     1       0.077  22.096  -3.876  1.00  0.00     0.094 A 
HETATM   16  C18 UNL     1      -0.220  23.029  -2.876  1.00  0.00    -0.012 A 
HETATM   17  C19 UNL     1      -1.596  22.938  -2.332  1.00  0.00     0.052 C 
BRANCH  15  18
HETATM   18  O1  UNL     1      -0.853  21.168  -4.311  1.00  0.00    -0.358 OA
ATOM     19  H1  UNL     1      -1.032  21.043  -5.235  1.00  0.00     0.217 HD
ENDBRANCH  15  18
ENDBRANCH   1   8
BRANCH   4  20
HETATM   20  C8  UNL     1      -2.220  26.503   0.636  1.00  0.00     0.176 C 
BRANCH  20  21
HETATM   21  N3  UNL     1      -3.194  27.148  -0.161  1.00  0.00    -0.396 N 
BRANCH  21  22
HETATM   22  C9  UNL     1      -3.238  28.544  -0.046  1.00  0.00     0.072 C 
HETATM   23  C10 UNL     1      -2.925  29.116   1.334  1.00  0.00     0.031 C 
HETATM   24  C11 UNL     1      -2.443  29.291  -1.107  1.00  0.00     0.031 C 
ENDBRANCH  21  22
BRANCH  21  25
HETATM   25  C12 UNL     1      -4.369  26.375  -0.200  1.00  0.00     0.017 C 
HETATM   26  C13 UNL     1      -5.538  27.081  -0.884  1.00  0.00     0.037 C 
HETATM   27  C14 UNL     1      -4.310  25.011  -0.822  1.00  0.00     0.037 C 
HETATM   28  C15 UNL     1      -4.813  26.127   1.240  1.00  0.00     0.037 C 
ENDBRANCH  21  25
ENDBRANCH  20  21
ENDBRANCH   4  20
TORSDOF 6
ENDMDL
MODEL 4
REMARK VINA RESULT: -7.154299658      5.045      9.377
REMARK  6 active torsions:
REMARK  status: ('A' for Active; 'I' for Inactive)
REMARK    1  A    between atoms: C5_7  and  C6_8 
REMARK    2  A    between atoms: C7_11  and  C8_12 
REMARK    3  A    between atoms: C8_12  and  N3_13 
REMARK    4  A    between atoms: N3_13  and  C9_14 
REMARK    5  A    between atoms: N3_13  and  C12_17 
REMARK    6  A    between atoms: C20_26  and  O1_27 
ROOT
HETATM    1  C6  UNL     1       4.968  25.574  -2.777  1.00  0.00     0.087 A 
HETATM    2  N2  UNL     1       5.634  26.440  -3.471  1.00  0.00    -0.351 N 
ATOM      3  H2  UNL     1       5.444  26.502  -4.471  1.00  0.00     0.166 HD
HETATM    4  C7  UNL     1       6.518  27.224  -2.974  1.00  0.00     0.040 A 
HETATM    5  C16 UNL     1       6.723  27.079  -1.589  1.00  0.00     0.005 A 
HETATM    6  C17 UNL     1       7.665  27.822  -0.700  1.00  0.00     0.058 C 
HETATM    7  S1  UNL     1       5.624  25.844  -1.199  1.00  0.00    -0.074 SA
ENDROOT
BRANCH   1   8
HETATM    8  C5  UNL     1       3.945  24.631  -3.192  1.00  0.00     0.029 A 
HETATM    9  C3  UNL     1       2.629  24.820  -2.784  1.00  0.00     0.019 A 
HETATM   10  N1  UNL     1       1.717  23.901  -3.220  1.00  0.00    -0.360 N 
HETATM   11  C4  UNL     1       2.145  25.906  -1.939  1.00  0.00     0.069 C 
HETATM   12  C2  UNL     1       2.010  22.864  -3.989  1.00  0.00     0.039 A 
ATOM     13  H1  UNL     1       0.746  24.021  -2.933  1.00  0.00     0.165 HD
HETATM   14  C1  UNL     1       0.925  21.909  -4.411  1.00  0.00     0.071 C 
HETATM   15  C20 UNL     1       3.299  22.644  -4.411  1.00  0.00     0.094 A 
HETATM   16  C18 UNL     1       4.266  23.562  -3.988  1.00  0.00    -0.012 A 
HETATM   17  C19 UNL     1       5.640  23.283  -4.468  1.00  0.00     0.052 C 
BRANCH  15  18
HETATM   18  O1  UNL     1       3.619  21.563  -5.216  1.00  0.00    -0.358 OA
ATOM     19  H1  UNL     1       2.946  20.994  -5.569  1.00  0.00     0.217 HD
ENDBRANCH  15  18
ENDBRANCH   1   8
BRANCH   4  20
HETATM   20  C8  UNL     1       7.291  28.258  -3.702  1.00  0.00     0.176 C 
BRANCH  20  21
HETATM   21  N3  UNL     1       8.418  27.866  -4.462  1.00  0.00    -0.396 N 
BRANCH  21  22
HETATM   22  C9  UNL     1       9.629  28.469  -4.095  1.00  0.00     0.072 C 
HETATM   23  C10 UNL     1       9.641  29.195  -2.753  1.00  0.00     0.031 C 
HETATM   24  C11 UNL     1      10.845  27.560  -4.203  1.00  0.00     0.031 C 
ENDBRANCH  21  22
BRANCH  21  25
HETATM   25  C12 UNL     1       8.052  27.708  -5.811  1.00  0.00     0.017 C 
HETATM   26  C13 UNL     1       6.714  28.357  -6.157  1.00  0.00     0.037 C 
HETATM   27  C14 UNL     1       9.006  28.173  -6.872  1.00  0.00     0.037 C 
HETATM   28  C15 UNL     1       7.874  26.214  -6.075  1.00  0.00     0.037 C 
ENDBRANCH  21  25
ENDBRANCH  20  21
ENDBRANCH   4  20
TORSDOF 6
ENDMDL
MODEL 5
REMARK VINA RESULT: -7.057934760      3.445      8.055
REMARK  6 active torsions:
REMARK  status: ('A' for Active; 'I' for Inactive)
REMARK    1  A    between atoms: C5_7  and  C6_8 
REMARK    2  A    between atoms: C7_11  and  C8_12 
REMARK    3  A    between atoms: C8_12  and  N3_13 
REMARK    4  A    between atoms: N3_13  and  C9_14 
REMARK    5  A    between atoms: N3_13  and  C12_17 
REMARK    6  A    between atoms: C20_26  and  O1_27 
ROOT
HETATM    1  C6  UNL     1       2.819  23.573  -3.645  1.00  0.00     0.087 A 
HETATM    2  N2  UNL     1       3.913  24.232  -3.434  1.00  0.00    -0.351 N 
ATOM      3  H2  UNL     1       3.893  24.990  -2.752  1.00  0.00     0.166 HD
HETATM    4  C7  UNL     1       5.020  23.987  -4.033  1.00  0.00     0.040 A 
HETATM    5  C16 UNL     1       4.968  22.928  -4.959  1.00  0.00     0.005 A 
HETATM    6  C17 UNL     1       6.060  22.384  -5.820  1.00  0.00     0.058 C 
HETATM    7  S1  UNL     1       3.346  22.438  -4.839  1.00  0.00    -0.074 SA
ENDROOT
BRANCH   1   8
HETATM    8  C5  UNL     1       1.505  23.729  -3.050  1.00  0.00     0.029 A 
HETATM    9  C3  UNL     1       1.271  24.775  -2.164  1.00  0.00     0.019 A 
HETATM   10  N1  UNL     1       0.008  24.868  -1.649  1.00  0.00    -0.360 N 
HETATM   11  C4  UNL     1       2.249  25.771  -1.742  1.00  0.00     0.069 C 
HETATM   12  C2  UNL     1      -0.981  24.037  -1.939  1.00  0.00     0.039 A 
ATOM     13  H1  UNL     1      -0.186  25.629  -0.998  1.00  0.00     0.165 HD
HETATM   14  C1  UNL     1      -2.336  24.232  -1.313  1.00  0.00     0.071 C 
HETATM   15  C20 UNL     1      -0.787  22.991  -2.809  1.00  0.00     0.094 A 
HETATM   16  C18 UNL     1       0.492  22.858  -3.361  1.00  0.00    -0.012 A 
HETATM   17  C19 UNL     1       0.652  21.716  -4.292  1.00  0.00     0.052 C 
BRANCH  15  18
HETATM   18  O1  UNL     1      -1.813  22.114  -3.121  1.00  0.00    -0.358 OA
ATOM     19  H1  UNL     1      -2.003  21.876  -4.020  1.00  0.00     0.217 HD
ENDBRANCH  15  18
ENDBRANCH   1   8
BRANCH   4  20
HETATM   20  C8  UNL     1       6.313  24.678  -3.817  1.00  0.00     0.176 C 
BRANCH  20  21
HETATM   21  N3  UNL     1       6.345  26.092  -3.810  1.00  0.00    -0.396 N 
BRANCH  21  22
HETATM   22  C9  UNL     1       7.143  26.680  -4.800  1.00  0.00     0.072 C 
HETATM   23  C10 UNL     1       7.766  25.727  -5.818  1.00  0.00     0.031 C 
HETATM   24  C11 UNL     1       6.494  27.853  -5.520  1.00  0.00     0.031 C 
ENDBRANCH  21  22
BRANCH  21  25
HETATM   25  C12 UNL     1       6.350  26.563  -2.484  1.00  0.00     0.017 C 
HETATM   26  C13 UNL     1       5.218  27.544  -2.186  1.00  0.00     0.037 C 
HETATM   27  C14 UNL     1       6.312  25.561  -1.367  1.00  0.00     0.037 C 
HETATM   28  C15 UNL     1       7.646  27.340  -2.268  1.00  0.00     0.037 C 
ENDBRANCH  21  25
ENDBRANCH  20  21
ENDBRANCH   4  20
TORSDOF 6
ENDMDL
