MODEL 1
REMARK VINA RESULT: -8.911645108      0.000      0.000
REMARK  6 active torsions:
REMARK  status: ('A' for Active; 'I' for Inactive)
REMARK    1  A    between atoms: C2_2  and  O1_5 
REMARK    2  A    between atoms: O1_5  and  C5_6 
REMARK    3  A    between atoms: C5_6  and  C6_7 
REMARK    4  A    between atoms: C6_7  and  C7_8 
REMARK    5  A    between atoms: C7_8  and  C8_9 
REMARK       I    between atoms: C8_9  and  N1_11 
REMARK    6  A    between atoms: N2_25  and  O3_27 
ROOT
HETATM    1  C8  UNL     1       2.489  24.991  -1.763  1.00  0.00     0.229 C 
HETATM    2  O2  UNL     1       1.527  25.704  -1.388  1.00  0.00    -0.273 OA
HETATM    3  N1  UNL     1       2.468  24.132  -2.893  1.00  0.00    -0.280 N 
HETATM    4  C9  UNL     1       3.689  23.771  -3.547  1.00  0.00     0.059 A 
HETATM    5  C10 UNL     1       4.808  24.609  -3.456  1.00  0.00     0.031 A 
HETATM    6  C11 UNL     1       5.969  24.404  -4.165  1.00  0.00     0.002 A 
HETATM    7  C12 UNL     1       6.071  23.339  -5.015  1.00  0.00     0.002 A 
HETATM    8  C13 UNL     1       5.005  22.487  -5.147  1.00  0.00     0.021 A 
HETATM    9  C14 UNL     1       3.868  22.730  -4.420  1.00  0.00     0.033 A 
HETATM   10  S1  UNL     1       2.544  21.582  -4.704  1.00  0.00    -0.086 SA
HETATM   11  C15 UNL     1       1.106  22.317  -3.962  1.00  0.00     0.033 A 
HETATM   12  C16 UNL     1      -0.083  21.689  -4.229  1.00  0.00     0.021 A 
HETATM   13  C17 UNL     1      -1.239  22.127  -3.656  1.00  0.00     0.002 A 
HETATM   14  C18 UNL     1      -1.154  23.203  -2.814  1.00  0.00     0.002 A 
HETATM   15  C19 UNL     1       0.046  23.857  -2.529  1.00  0.00     0.031 A 
HETATM   16  C20 UNL     1       1.211  23.414  -3.111  1.00  0.00     0.059 A 
ENDROOT
BRANCH   1  17
HETATM   17  C7  UNL     1       3.583  25.202  -0.800  1.00  0.00     0.112 C 
BRANCH  17  18
HETATM   18  C6  UNL     1       3.778  26.685  -0.491  1.00  0.00     0.095 C 
BRANCH  18  19
HETATM   19  C5  UNL     1       5.170  27.026  -0.227  1.00  0.00     0.138 C 
HETATM   20  N2  UNL     1       5.478  27.490   0.934  1.00  0.00    -0.251 N 
ATOM     21  H2  UNL     1       6.453  27.729   1.119  1.00  0.00     0.196 HD
BRANCH  19  22
HETATM   22  O1  UNL     1       6.204  26.888  -1.140  1.00  0.00    -0.328 OA
BRANCH  22  23
HETATM   23  C2  UNL     1       6.727  28.027  -1.796  1.00  0.00     0.058 C 
HETATM   24  C1  UNL     1       8.220  28.128  -1.491  1.00  0.00     0.045 C 
HETATM   25  C3  UNL     1       6.589  27.909  -3.300  1.00  0.00     0.045 C 
HETATM   26  C4  UNL     1       6.088  29.293  -1.319  1.00  0.00     0.045 C 
ENDBRANCH  22  23
ENDBRANCH  19  22
BRANCH  20  27
HETATM   27  O3  UNL     1       4.557  27.679   1.932  1.00  0.00    -0.288 OA
ATOM     28  H3  UNL     1       4.343  28.535   2.284  1.00  0.00     0.244 HD
ENDBRANCH  20  27
ENDBRANCH  18  19
ENDBRANCH  17  18
ENDBRANCH   1  17
TORSDOF 6
ENDMDL
MODEL 2
REMARK VINA RESULT: -8.769976564      2.434      4.286
REMARK  6 active torsions:
REMARK  status: ('A' for Active; 'I' for Inactive)
REMARK    1  A    between atoms: C2_2  and  O1_5 
REMARK    2  A    between atoms: O1_5  and  C5_6 
REMARK    3  A    between atoms: C5_6  and  C6_7 
REMARK    4  A    between atoms: C6_7  and  C7_8 
REMARK    5  A    between atoms: C7_8  and  C8_9 
REMARK       I    between atoms: C8_9  and  N1_11 
REMARK    6  A    between atoms: N2_25  and  O3_27 
ROOT
HETATM    1  C8  UNL     1       3.374  24.566  -3.102  1.00  0.00     0.229 C 
HETATM    2  O2  UNL     1       3.914  23.628  -3.739  1.00  0.00    -0.273 OA
HETATM    3  N1  UNL     1       2.184  24.446  -2.339  1.00  0.00    -0.280 N 
HETATM    4  C9  UNL     1       1.920  25.355  -1.266  1.00  0.00     0.059 A 
HETATM    5  C10 UNL     1       2.981  26.002  -0.618  1.00  0.00     0.031 A 
HETATM    6  C11 UNL     1       2.823  26.780   0.506  1.00  0.00     0.002 A 
HETATM    7  C12 UNL     1       1.580  26.950   1.049  1.00  0.00     0.002 A 
HETATM    8  C13 UNL     1       0.506  26.338   0.459  1.00  0.00     0.021 A 
HETATM    9  C14 UNL     1       0.710  25.572  -0.661  1.00  0.00     0.033 A 
HETATM   10  S1  UNL     1      -0.750  24.801  -1.311  1.00  0.00    -0.086 SA
HETATM   11  C15 UNL     1      -0.173  23.598  -2.486  1.00  0.00     0.033 A 
HETATM   12  C16 UNL     1      -1.128  22.744  -2.974  1.00  0.00     0.021 A 
HETATM   13  C17 UNL     1      -0.809  21.828  -3.931  1.00  0.00     0.002 A 
HETATM   14  C18 UNL     1       0.487  21.806  -4.373  1.00  0.00     0.002 A 
HETATM   15  C19 UNL     1       1.473  22.666  -3.889  1.00  0.00     0.031 A 
HETATM   16  C20 UNL     1       1.150  23.589  -2.922  1.00  0.00     0.059 A 
ENDROOT
BRANCH   1  17
HETATM   17  C7  UNL     1       4.187  25.771  -3.337  1.00  0.00     0.112 C 
BRANCH  17  18
HETATM   18  C6  UNL     1       5.680  25.467  -3.235  1.00  0.00     0.095 C 
BRANCH  18  19
HETATM   19  C5  UNL     1       6.511  26.637  -3.492  1.00  0.00     0.138 C 
HETATM   20  N2  UNL     1       7.323  27.027  -2.571  1.00  0.00    -0.251 N 
ATOM     21  H2  UNL     1       7.905  27.846  -2.751  1.00  0.00     0.196 HD
BRANCH  19  22
HETATM   22  O1  UNL     1       6.497  27.373  -4.667  1.00  0.00    -0.328 OA
BRANCH  22  23
HETATM   23  C2  UNL     1       7.522  27.195  -5.626  1.00  0.00     0.058 C 
HETATM   24  C1  UNL     1       7.065  27.801  -6.951  1.00  0.00     0.045 C 
HETATM   25  C3  UNL     1       8.788  27.922  -5.219  1.00  0.00     0.045 C 
HETATM   26  C4  UNL     1       7.815  25.749  -5.874  1.00  0.00     0.045 C 
ENDBRANCH  22  23
ENDBRANCH  19  22
BRANCH  20  27
HETATM   27  O3  UNL     1       7.440  26.393  -1.361  1.00  0.00    -0.288 OA
ATOM     28  H3  UNL     1       8.101  26.623  -0.718  1.00  0.00     0.244 HD
ENDBRANCH  20  27
ENDBRANCH  18  19
ENDBRANCH  17  18
ENDBRANCH   1  17
TORSDOF 6
ENDMDL
MODEL 3
REMARK VINA RESULT: -8.737740622      2.113      4.202
REMARK  6 active torsions:
REMARK  status: ('A' for Active; 'I' for Inactive)
REMARK    1  A    between atoms: C2_2  and  O1_5 
REMARK    2  A    between atoms: O1_5  and  C5_6 
REMARK    3  A    between atoms: C5_6  and  C6_7 
REMARK    4  A    between atoms: C6_7  and  C7_8 
REMARK    5  A    between atoms: C7_8  and  C8_9 
REMARK       I    between atoms: C8_9  and  N1_11 
REMARK    6  A    between atoms: N2_25  and  O3_27 
ROOT
HETATM    1  C8  UNL     1       3.118  24.623  -2.956  1.00  0.00     0.229 C 
HETATM    2  O2  UNL     1       4.281  24.166  -3.083  1.00  0.00    -0.273 OA
HETATM    3  N1  UNL     1       1.942  23.832  -2.877  1.00  0.00    -0.280 N 
HETATM    4  C9  UNL     1       0.770  24.346  -2.236  1.00  0.00     0.059 A 
HETATM    5  C10 UNL     1       0.885  25.342  -1.258  1.00  0.00     0.031 A 
HETATM    6  C11 UNL     1      -0.173  25.788  -0.500  1.00  0.00     0.002 A 
HETATM    7  C12 UNL     1      -1.416  25.250  -0.681  1.00  0.00     0.002 A 
HETATM    8  C13 UNL     1      -1.588  24.269  -1.622  1.00  0.00     0.021 A 
HETATM    9  C14 UNL     1      -0.504  23.856  -2.355  1.00  0.00     0.033 A 
HETATM   10  S1  UNL     1      -0.842  22.555  -3.514  1.00  0.00    -0.086 SA
HETATM   11  C15 UNL     1       0.747  21.959  -4.040  1.00  0.00     0.033 A 
HETATM   12  C16 UNL     1       0.728  20.815  -4.797  1.00  0.00     0.021 A 
HETATM   13  C17 UNL     1       1.884  20.308  -5.311  1.00  0.00     0.002 A 
HETATM   14  C18 UNL     1       3.042  20.987  -5.041  1.00  0.00     0.002 A 
HETATM   15  C19 UNL     1       3.083  22.152  -4.272  1.00  0.00     0.031 A 
HETATM   16  C20 UNL     1       1.915  22.660  -3.753  1.00  0.00     0.059 A 
ENDROOT
BRANCH   1  17
HETATM   17  C7  UNL     1       3.231  26.091  -2.943  1.00  0.00     0.112 C 
BRANCH  17  18
HETATM   18  C6  UNL     1       4.496  26.548  -2.218  1.00  0.00     0.095 C 
BRANCH  18  19
HETATM   19  C5  UNL     1       4.456  26.270  -0.788  1.00  0.00     0.138 C 
HETATM   20  N2  UNL     1       5.248  25.371  -0.315  1.00  0.00    -0.251 N 
ATOM     21  H2  UNL     1       5.220  25.177   0.687  1.00  0.00     0.196 HD
BRANCH  19  22
HETATM   22  O1  UNL     1       3.620  26.907   0.117  1.00  0.00    -0.328 OA
BRANCH  22  23
HETATM   23  C2  UNL     1       4.044  28.095   0.757  1.00  0.00     0.058 C 
HETATM   24  C1  UNL     1       3.532  28.089   2.196  1.00  0.00     0.045 C 
HETATM   25  C3  UNL     1       5.556  28.175   0.825  1.00  0.00     0.045 C 
HETATM   26  C4  UNL     1       3.494  29.318   0.094  1.00  0.00     0.045 C 
ENDBRANCH  22  23
ENDBRANCH  19  22
BRANCH  20  27
HETATM   27  O3  UNL     1       6.126  24.664  -1.095  1.00  0.00    -0.288 OA
ATOM     28  H3  UNL     1       6.947  25.026  -1.409  1.00  0.00     0.244 HD
ENDBRANCH  20  27
ENDBRANCH  18  19
ENDBRANCH  17  18
ENDBRANCH   1  17
TORSDOF 6
ENDMDL
MODEL 4
REMARK VINA RESULT: -8.736162571      2.301      4.151
REMARK  6 active torsions:
REMARK  status: ('A' for Active; 'I' for Inactive)
REMARK    1  A    between atoms: C2_2  and  O1_5 
REMARK    2  A    between atoms: O1_5  and  C5_6 
REMARK    3  A    between atoms: C5_6  and  C6_7 
REMARK    4  A    between atoms: C6_7  and  C7_8 
REMARK    5  A    between atoms: C7_8  and  C8_9 
REMARK       I    between atoms: C8_9  and  N1_11 
REMARK    6  A    between atoms: N2_25  and  O3_27 
ROOT
HETATM    1  C8  UNL     1       4.421  24.820  -2.801  1.00  0.00     0.229 C 
HETATM    2  O2  UNL     1       5.365  24.101  -3.209  1.00  0.00    -0.273 OA
HETATM    3  N1  UNL     1       3.117  24.347  -2.497  1.00  0.00    -0.280 N 
HETATM    4  C9  UNL     1       2.284  25.069  -1.584  1.00  0.00     0.059 A 
HETATM    5  C10 UNL     1       2.861  25.896  -0.611  1.00  0.00     0.031 A 
HETATM    6  C11 UNL     1       2.140  26.511   0.386  1.00  0.00     0.002 A 
HETATM    7  C12 UNL     1       0.788  26.326   0.465  1.00  0.00     0.002 A 
HETATM    8  C13 UNL     1       0.170  25.524  -0.458  1.00  0.00     0.021 A 
HETATM    9  C14 UNL     1       0.928  24.931  -1.436  1.00  0.00     0.033 A 
HETATM   10  S1  UNL     1       0.023  23.887  -2.549  1.00  0.00    -0.086 SA
HETATM   11  C15 UNL     1       1.250  22.968  -3.448  1.00  0.00     0.033 A 
HETATM   12  C16 UNL     1       0.769  21.952  -4.234  1.00  0.00     0.021 A 
HETATM   13  C17 UNL     1       1.616  21.228  -5.018  1.00  0.00     0.002 A 
HETATM   14  C18 UNL     1       2.943  21.560  -4.985  1.00  0.00     0.002 A 
HETATM   15  C19 UNL     1       3.453  22.590  -4.191  1.00  0.00     0.031 A 
HETATM   16  C20 UNL     1       2.597  23.318  -3.399  1.00  0.00     0.059 A 
ENDROOT
BRANCH   1  17
HETATM   17  C7  UNL     1       4.924  26.202  -2.744  1.00  0.00     0.112 C 
BRANCH  17  18
HETATM   18  C6  UNL     1       6.305  26.268  -2.095  1.00  0.00     0.095 C 
BRANCH  18  19
HETATM   19  C5  UNL     1       7.138  27.327  -2.651  1.00  0.00     0.138 C 
HETATM   20  N2  UNL     1       8.210  27.660  -2.019  1.00  0.00    -0.251 N 
ATOM     21  H2  UNL     1       8.793  28.401  -2.409  1.00  0.00     0.196 HD
BRANCH  19  22
HETATM   22  O1  UNL     1       6.864  28.013  -3.825  1.00  0.00    -0.328 OA
BRANCH  22  23
HETATM   23  C2  UNL     1       7.562  27.690  -5.013  1.00  0.00     0.058 C 
HETATM   24  C1  UNL     1       6.827  28.311  -6.198  1.00  0.00     0.045 C 
HETATM   25  C3  UNL     1       8.962  28.270  -5.004  1.00  0.00     0.045 C 
HETATM   26  C4  UNL     1       7.618  26.213  -5.248  1.00  0.00     0.045 C 
ENDBRANCH  22  23
ENDBRANCH  19  22
BRANCH  20  27
HETATM   27  O3  UNL     1       8.602  27.065  -0.848  1.00  0.00    -0.288 OA
ATOM     28  H3  UNL     1       9.489  26.762  -0.693  1.00  0.00     0.244 HD
ENDBRANCH  20  27
ENDBRANCH  18  19
ENDBRANCH  17  18
ENDBRANCH   1  17
TORSDOF 6
ENDMDL
MODEL 5
REMARK VINA RESULT: -8.721903554      2.316      4.218
REMARK  6 active torsions:
REMARK  status: ('A' for Active; 'I' for Inactive)
REMARK    1  A    between atoms: C2_2  and  O1_5 
REMARK    2  A    between atoms: O1_5  and  C5_6 
REMARK    3  A    between atoms: C5_6  and  C6_7 
REMARK    4  A    between atoms: C6_7  and  C7_8 
REMARK    5  A    between atoms: C7_8  and  C8_9 
REMARK       I    between atoms: C8_9  and  N1_11 
REMARK    6  A    between atoms: N2_25  and  O3_27 
ROOT
HETATM    1  C8  UNL     1       4.714  25.054  -3.175  1.00  0.00     0.229 C 
HETATM    2  O2  UNL     1       5.607  24.327  -3.674  1.00  0.00    -0.273 OA
HETATM    3  N1  UNL     1       3.454  24.587  -2.715  1.00  0.00    -0.280 N 
HETATM    4  C9  UNL     1       2.729  25.325  -1.726  1.00  0.00     0.059 A 
HETATM    5  C10 UNL     1       3.412  26.169  -0.840  1.00  0.00     0.031 A 
HETATM    6  C11 UNL     1       2.808  26.802   0.222  1.00  0.00     0.002 A 
HETATM    7  C12 UNL     1       1.475  26.618   0.458  1.00  0.00     0.002 A 
HETATM    8  C13 UNL     1       0.757  25.800  -0.374  1.00  0.00     0.021 A 
HETATM    9  C14 UNL     1       1.400  25.190  -1.422  1.00  0.00     0.033 A 
HETATM   10  S1  UNL     1       0.375  24.126  -2.405  1.00  0.00    -0.086 SA
HETATM   11  C15 UNL     1       1.494  23.191  -3.422  1.00  0.00     0.033 A 
HETATM   12  C16 UNL     1       0.929  22.161  -4.130  1.00  0.00     0.021 A 
HETATM   13  C17 UNL     1       1.681  21.423  -4.993  1.00  0.00     0.002 A 
HETATM   14  C18 UNL     1       3.003  21.755  -5.117  1.00  0.00     0.002 A 
HETATM   15  C19 UNL     1       3.598  22.799  -4.405  1.00  0.00     0.031 A 
HETATM   16  C20 UNL     1       2.837  23.542  -3.533  1.00  0.00     0.059 A 
ENDROOT
BRANCH   1  17
HETATM   17  C7  UNL     1       5.218  26.437  -3.200  1.00  0.00     0.112 C 
BRANCH  17  18
HETATM   18  C6  UNL     1       6.626  26.529  -2.617  1.00  0.00     0.095 C 
BRANCH  18  19
HETATM   19  C5  UNL     1       7.427  27.574  -3.243  1.00  0.00     0.138 C 
HETATM   20  N2  UNL     1       7.223  28.796  -2.893  1.00  0.00    -0.251 N 
ATOM     21  H2  UNL     1       7.784  29.528  -3.330  1.00  0.00     0.196 HD
BRANCH  19  22
HETATM   22  O1  UNL     1       8.405  27.352  -4.200  1.00  0.00    -0.328 OA
BRANCH  22  23
HETATM   23  C2  UNL     1       8.058  27.305  -5.571  1.00  0.00     0.058 C 
HETATM   24  C1  UNL     1       9.244  27.796  -6.397  1.00  0.00     0.045 C 
HETATM   25  C3  UNL     1       7.764  25.886  -6.016  1.00  0.00     0.045 C 
HETATM   26  C4  UNL     1       6.896  28.193  -5.887  1.00  0.00     0.045 C 
ENDBRANCH  22  23
ENDBRANCH  19  22
BRANCH  20  27
HETATM   27  O3  UNL     1       6.288  29.159  -1.958  1.00  0.00    -0.288 OA
ATOM     28  H3  UNL     1       5.887  30.021  -1.934  1.00  0.00     0.244 HD
ENDBRANCH  20  27
ENDBRANCH  18  19
ENDBRANCH  17  18
ENDBRANCH   1  17
TORSDOF 6
ENDMDL
