MODEL 1
REMARK VINA RESULT: -8.167370607      0.000      0.000
REMARK  7 active torsions:
REMARK  status: ('A' for Active; 'I' for Inactive)
REMARK    1  A    between atoms: C2_2  and  C3_3 
REMARK    2  A    between atoms: C3_3  and  C12_12 
REMARK    3  A    between atoms: C4_4  and  C5_5 
REMARK    4  A    between atoms: C12_12  and  O1_13 
REMARK    5  A    between atoms: C12_12  and  C13_15 
REMARK    6  A    between atoms: N1_19  and  C15_20 
REMARK    7  A    between atoms: C19_24  and  O2_25 
ROOT
HETATM    1  C12 UNL     1       3.651  23.570  -2.645  1.00  0.00     0.093 C 
ENDROOT
BRANCH   1   2
HETATM    2  C3  UNL     1       3.288  23.025  -3.896  1.00  0.00    -0.023 C 
HETATM    3  C4  UNL     1       1.972  22.936  -4.207  1.00  0.00     0.021 C 
BRANCH   2   4
HETATM    4  C2  UNL     1       4.173  22.662  -5.061  1.00  0.00     0.037 C 
HETATM    5  C1  UNL     1       4.829  21.334  -4.913  1.00  0.00     0.010 C 
ENDBRANCH   2   4
BRANCH   3   6
HETATM    6  C5  UNL     1       0.797  23.164  -3.454  1.00  0.00    -0.035 A 
HETATM    7  C6  UNL     1      -0.323  22.334  -3.455  1.00  0.00     0.011 A 
HETATM    8  C7  UNL     1      -1.453  22.566  -2.720  1.00  0.00     0.001 A 
HETATM    9  C8  UNL     1      -1.525  23.683  -1.914  1.00  0.00     0.007 A 
HETATM   10  C9  UNL     1      -0.436  24.531  -1.886  1.00  0.00    -0.061 A 
HETATM   11  C10 UNL     1      -0.494  25.754  -1.012  1.00  0.00     0.048 C 
HETATM   12  C11 UNL     1       0.695  24.295  -2.624  1.00  0.00     0.018 A 
ENDBRANCH   3   6
ENDBRANCH   1   2
BRANCH   1  13
HETATM   13  O1  UNL     1       3.561  22.676  -1.643  1.00  0.00    -0.359 OA
ATOM     14  H1  UNL     1       3.891  23.015  -0.818  1.00  0.00     0.217 HD
ENDBRANCH   1  13
BRANCH   1  15
HETATM   15  C13 UNL     1       4.107  24.857  -2.139  1.00  0.00     0.092 A 
HETATM   16  S1  UNL     1       5.298  25.834  -3.025  1.00  0.00    -0.053 SA
HETATM   17  C14 UNL     1       5.440  27.107  -1.934  1.00  0.00     0.148 A 
HETATM   18  S2  UNL     1       6.411  28.465  -2.048  1.00  0.00    -0.052 SA
HETATM   19  N1  UNL     1       4.603  26.781  -0.942  1.00  0.00    -0.303 N 
HETATM   20  C19 UNL     1       3.935  25.640  -1.060  1.00  0.00     0.165 A 
BRANCH  19  21
HETATM   21  C15 UNL     1       4.504  27.750   0.172  1.00  0.00     0.030 C 
HETATM   22  C16 UNL     1       5.839  27.825   0.899  1.00  0.00     0.038 C 
HETATM   23  C17 UNL     1       4.203  29.136  -0.385  1.00  0.00     0.038 C 
HETATM   24  C18 UNL     1       3.457  27.462   1.188  1.00  0.00     0.038 C 
ENDBRANCH  19  21
BRANCH  20  25
HETATM   25  O2  UNL     1       3.019  25.242  -0.028  1.00  0.00    -0.345 OA
ATOM     26  H2  UNL     1       2.121  25.027  -0.251  1.00  0.00     0.219 HD
ENDBRANCH  20  25
ENDBRANCH   1  15
TORSDOF 7
ENDMDL
MODEL 2
REMARK VINA RESULT: -8.147386514      1.100      1.593
REMARK  7 active torsions:
REMARK  status: ('A' for Active; 'I' for Inactive)
REMARK    1  A    between atoms: C2_2  and  C3_3 
REMARK    2  A    between atoms: C3_3  and  C12_12 
REMARK    3  A    between atoms: C4_4  and  C5_5 
REMARK    4  A    between atoms: C12_12  and  O1_13 
REMARK    5  A    between atoms: C12_12  and  C13_15 
REMARK    6  A    between atoms: N1_19  and  C15_20 
REMARK    7  A    between atoms: C19_24  and  O2_25 
ROOT
HETATM    1  C12 UNL     1       3.804  24.010  -2.017  1.00  0.00     0.093 C 
ENDROOT
BRANCH   1   2
HETATM    2  C3  UNL     1       3.865  23.505  -3.334  1.00  0.00    -0.023 C 
HETATM    3  C4  UNL     1       2.706  23.201  -3.966  1.00  0.00     0.021 C 
BRANCH   2   4
HETATM    4  C2  UNL     1       5.057  23.401  -4.251  1.00  0.00     0.037 C 
HETATM    5  C1  UNL     1       4.999  22.226  -5.164  1.00  0.00     0.010 C 
ENDBRANCH   2   4
BRANCH   3   6
HETATM    6  C5  UNL     1       1.364  23.151  -3.523  1.00  0.00    -0.035 A 
HETATM    7  C6  UNL     1       0.445  22.162  -3.876  1.00  0.00     0.011 A 
HETATM    8  C7  UNL     1      -0.850  22.126  -3.438  1.00  0.00     0.001 A 
HETATM    9  C8  UNL     1      -1.313  23.114  -2.594  1.00  0.00     0.007 A 
HETATM   10  C9  UNL     1      -0.434  24.111  -2.223  1.00  0.00    -0.061 A 
HETATM   11  C10 UNL     1      -0.919  25.196  -1.301  1.00  0.00     0.048 C 
HETATM   12  C11 UNL     1       0.863  24.144  -2.663  1.00  0.00     0.018 A 
ENDBRANCH   3   6
ENDBRANCH   1   2
BRANCH   1  13
HETATM   13  O1  UNL     1       3.736  23.037  -1.090  1.00  0.00    -0.359 OA
ATOM     14  H1  UNL     1       4.587  22.811  -0.732  1.00  0.00     0.217 HD
ENDBRANCH   1  13
BRANCH   1  15
HETATM   15  C13 UNL     1       3.799  25.320  -1.380  1.00  0.00     0.092 A 
HETATM   16  S1  UNL     1       4.943  26.591  -1.862  1.00  0.00    -0.053 SA
HETATM   17  C14 UNL     1       4.482  27.776  -0.759  1.00  0.00     0.148 A 
HETATM   18  S2  UNL     1       5.117  29.311  -0.562  1.00  0.00    -0.052 SA
HETATM   19  N1  UNL     1       3.492  27.204  -0.062  1.00  0.00    -0.303 N 
HETATM   20  C19 UNL     1       3.157  25.961  -0.388  1.00  0.00     0.165 A 
BRANCH  19  21
HETATM   21  C15 UNL     1       2.868  28.040   0.987  1.00  0.00     0.030 C 
HETATM   22  C16 UNL     1       1.436  27.577   1.220  1.00  0.00     0.038 C 
HETATM   23  C17 UNL     1       3.628  27.866   2.296  1.00  0.00     0.038 C 
HETATM   24  C18 UNL     1       2.826  29.500   0.708  1.00  0.00     0.038 C 
ENDBRANCH  19  21
BRANCH  20  25
HETATM   25  O2  UNL     1       2.098  25.301   0.322  1.00  0.00    -0.345 OA
ATOM     26  H2  UNL     1       2.269  24.915   1.173  1.00  0.00     0.219 HD
ENDBRANCH  20  25
ENDBRANCH   1  15
TORSDOF 7
ENDMDL
MODEL 3
REMARK VINA RESULT: -8.050898890      1.630      2.270
REMARK  7 active torsions:
REMARK  status: ('A' for Active; 'I' for Inactive)
REMARK    1  A    between atoms: C2_2  and  C3_3 
REMARK    2  A    between atoms: C3_3  and  C12_12 
REMARK    3  A    between atoms: C4_4  and  C5_5 
REMARK    4  A    between atoms: C12_12  and  O1_13 
REMARK    5  A    between atoms: C12_12  and  C13_15 
REMARK    6  A    between atoms: N1_19  and  C15_20 
REMARK    7  A    between atoms: C19_24  and  O2_25 
ROOT
HETATM    1  C12 UNL     1       5.171  23.515  -3.064  1.00  0.00     0.093 C 
ENDROOT
BRANCH   1   2
HETATM    2  C3  UNL     1       4.601  22.861  -4.178  1.00  0.00    -0.023 C 
HETATM    3  C4  UNL     1       3.265  22.968  -4.378  1.00  0.00     0.021 C 
BRANCH   2   4
HETATM    4  C2  UNL     1       5.294  22.170  -5.324  1.00  0.00     0.037 C 
HETATM    5  C1  UNL     1       6.429  22.952  -5.886  1.00  0.00     0.010 C 
ENDBRANCH   2   4
BRANCH   3   6
HETATM    6  C5  UNL     1       2.225  23.518  -3.594  1.00  0.00    -0.035 A 
HETATM    7  C6  UNL     1       2.326  24.692  -2.848  1.00  0.00     0.011 A 
HETATM    8  C7  UNL     1       1.310  25.214  -2.095  1.00  0.00     0.001 A 
HETATM    9  C8  UNL     1       0.094  24.564  -2.046  1.00  0.00     0.007 A 
HETATM   10  C9  UNL     1      -0.046  23.398  -2.771  1.00  0.00    -0.061 A 
HETATM   11  C10 UNL     1      -1.365  22.676  -2.733  1.00  0.00     0.048 C 
HETATM   12  C11 UNL     1       0.975  22.878  -3.525  1.00  0.00     0.018 A 
ENDBRANCH   3   6
ENDBRANCH   1   2
BRANCH   1  13
HETATM   13  O1  UNL     1       5.199  22.740  -1.964  1.00  0.00    -0.359 OA
ATOM     14  H1  UNL     1       5.803  22.011  -2.044  1.00  0.00     0.217 HD
ENDBRANCH   1  13
BRANCH   1  15
HETATM   15  C13 UNL     1       5.751  24.820  -2.780  1.00  0.00     0.092 A 
HETATM   16  S1  UNL     1       6.695  25.702  -4.000  1.00  0.00    -0.053 SA
HETATM   17  C14 UNL     1       7.116  27.042  -3.073  1.00  0.00     0.148 A 
HETATM   18  S2  UNL     1       8.041  28.362  -3.519  1.00  0.00    -0.052 SA
HETATM   19  N1  UNL     1       6.547  26.807  -1.884  1.00  0.00    -0.303 N 
HETATM   20  C19 UNL     1       5.859  25.679  -1.751  1.00  0.00     0.165 A 
BRANCH  19  21
HETATM   21  C15 UNL     1       6.736  27.851  -0.853  1.00  0.00     0.030 C 
HETATM   22  C16 UNL     1       8.224  28.066  -0.616  1.00  0.00     0.038 C 
HETATM   23  C17 UNL     1       6.153  29.168  -1.351  1.00  0.00     0.038 C 
HETATM   24  C18 UNL     1       6.108  27.578   0.466  1.00  0.00     0.038 C 
ENDBRANCH  19  21
BRANCH  20  25
HETATM   25  O2  UNL     1       5.223  25.377  -0.499  1.00  0.00    -0.345 OA
ATOM     26  H2  UNL     1       4.616  25.999  -0.116  1.00  0.00     0.219 HD
ENDBRANCH  20  25
ENDBRANCH   1  15
TORSDOF 7
ENDMDL
MODEL 4
REMARK VINA RESULT: -7.942605061      1.748      2.017
REMARK  7 active torsions:
REMARK  status: ('A' for Active; 'I' for Inactive)
REMARK    1  A    between atoms: C2_2  and  C3_3 
REMARK    2  A    between atoms: C3_3  and  C12_12 
REMARK    3  A    between atoms: C4_4  and  C5_5 
REMARK    4  A    between atoms: C12_12  and  O1_13 
REMARK    5  A    between atoms: C12_12  and  C13_15 
REMARK    6  A    between atoms: N1_19  and  C15_20 
REMARK    7  A    between atoms: C19_24  and  O2_25 
ROOT
HETATM    1  C12 UNL     1       3.869  23.616  -2.243  1.00  0.00     0.093 C 
ENDROOT
BRANCH   1   2
HETATM    2  C3  UNL     1       4.029  23.238  -3.594  1.00  0.00    -0.023 C 
HETATM    3  C4  UNL     1       2.927  22.913  -4.312  1.00  0.00     0.021 C 
BRANCH   2   4
HETATM    4  C2  UNL     1       5.267  23.301  -4.452  1.00  0.00     0.037 C 
HETATM    5  C1  UNL     1       5.370  22.179  -5.425  1.00  0.00     0.010 C 
ENDBRANCH   2   4
BRANCH   3   6
HETATM    6  C5  UNL     1       1.573  22.730  -3.948  1.00  0.00    -0.035 A 
HETATM    7  C6  UNL     1       0.769  21.674  -4.376  1.00  0.00     0.011 A 
HETATM    8  C7  UNL     1      -0.540  21.508  -4.015  1.00  0.00     0.001 A 
HETATM    9  C8  UNL     1      -1.137  22.426  -3.175  1.00  0.00     0.007 A 
HETATM   10  C9  UNL     1      -0.374  23.486  -2.729  1.00  0.00    -0.061 A 
HETATM   11  C10 UNL     1      -1.006  24.496  -1.810  1.00  0.00     0.048 C 
HETATM   12  C11 UNL     1       0.937  23.648  -3.094  1.00  0.00     0.018 A 
ENDBRANCH   3   6
ENDBRANCH   1   2
BRANCH   1  13
HETATM   13  O1  UNL     1       3.673  22.562  -1.429  1.00  0.00    -0.359 OA
ATOM     14  H1  UNL     1       3.890  22.752  -0.524  1.00  0.00     0.217 HD
ENDBRANCH   1  13
BRANCH   1  15
HETATM   15  C13 UNL     1       3.862  24.856  -1.480  1.00  0.00     0.092 A 
HETATM   16  S1  UNL     1       2.542  25.247  -0.356  1.00  0.00    -0.053 SA
HETATM   17  C14 UNL     1       3.072  26.767   0.135  1.00  0.00     0.148 A 
HETATM   18  S2  UNL     1       2.343  27.821   1.210  1.00  0.00    -0.052 SA
HETATM   19  N1  UNL     1       4.213  26.948  -0.542  1.00  0.00    -0.303 N 
HETATM   20  C19 UNL     1       4.600  25.972  -1.355  1.00  0.00     0.165 A 
BRANCH  19  21
HETATM   21  C15 UNL     1       4.926  28.219  -0.286  1.00  0.00     0.030 C 
HETATM   22  C16 UNL     1       5.886  28.036   0.881  1.00  0.00     0.038 C 
HETATM   23  C17 UNL     1       5.753  28.594  -1.510  1.00  0.00     0.038 C 
HETATM   24  C18 UNL     1       4.065  29.391   0.023  1.00  0.00     0.038 C 
ENDBRANCH  19  21
BRANCH  20  25
HETATM   25  O2  UNL     1       5.819  26.110  -2.101  1.00  0.00    -0.345 OA
ATOM     26  H2  UNL     1       5.815  25.970  -3.041  1.00  0.00     0.219 HD
ENDBRANCH  20  25
ENDBRANCH   1  15
TORSDOF 7
ENDMDL
MODEL 5
REMARK VINA RESULT: -7.857195270      1.355      2.163
REMARK  7 active torsions:
REMARK  status: ('A' for Active; 'I' for Inactive)
REMARK    1  A    between atoms: C2_2  and  C3_3 
REMARK    2  A    between atoms: C3_3  and  C12_12 
REMARK    3  A    between atoms: C4_4  and  C5_5 
REMARK    4  A    between atoms: C12_12  and  O1_13 
REMARK    5  A    between atoms: C12_12  and  C13_15 
REMARK    6  A    between atoms: N1_19  and  C15_20 
REMARK    7  A    between atoms: C19_24  and  O2_25 
ROOT
HETATM    1  C12 UNL     1       4.488  23.703  -2.536  1.00  0.00     0.093 C 
ENDROOT
BRANCH   1   2
HETATM    2  C3  UNL     1       3.802  23.052  -3.585  1.00  0.00    -0.023 C 
HETATM    3  C4  UNL     1       2.471  23.268  -3.722  1.00  0.00     0.021 C 
BRANCH   2   4
HETATM    4  C2  UNL     1       4.367  22.249  -4.728  1.00  0.00     0.037 C 
HETATM    5  C1  UNL     1       3.766  20.892  -4.852  1.00  0.00     0.010 C 
ENDBRANCH   2   4
BRANCH   3   6
HETATM    6  C5  UNL     1       1.528  23.945  -2.915  1.00  0.00    -0.035 A 
HETATM    7  C6  UNL     1       1.806  25.065  -2.133  1.00  0.00     0.011 A 
HETATM    8  C7  UNL     1       0.883  25.711  -1.358  1.00  0.00     0.001 A 
HETATM    9  C8  UNL     1      -0.418  25.252  -1.321  1.00  0.00     0.007 A 
HETATM   10  C9  UNL     1      -0.734  24.144  -2.081  1.00  0.00    -0.061 A 
HETATM   11  C10 UNL     1      -2.147  23.630  -2.057  1.00  0.00     0.048 C 
HETATM   12  C11 UNL     1       0.195  23.500  -2.857  1.00  0.00     0.018 A 
ENDBRANCH   3   6
ENDBRANCH   1   2
BRANCH   1  13
HETATM   13  O1  UNL     1       4.453  23.009  -1.383  1.00  0.00    -0.359 OA
ATOM     14  H1  UNL     1       3.810  22.309  -1.395  1.00  0.00     0.217 HD
ENDBRANCH   1  13
BRANCH   1  15
HETATM   15  C13 UNL     1       5.238  24.938  -2.363  1.00  0.00     0.092 A 
HETATM   16  S1  UNL     1       6.320  25.553  -3.632  1.00  0.00    -0.053 SA
HETATM   17  C14 UNL     1       6.905  26.911  -2.827  1.00  0.00     0.148 A 
HETATM   18  S2  UNL     1       8.014  28.039  -3.371  1.00  0.00    -0.052 SA
HETATM   19  N1  UNL     1       6.284  26.879  -1.641  1.00  0.00    -0.303 N 
HETATM   20  C19 UNL     1       5.444  25.875  -1.421  1.00  0.00     0.165 A 
BRANCH  19  21
HETATM   21  C15 UNL     1       6.597  27.988  -0.714  1.00  0.00     0.030 C 
HETATM   22  C16 UNL     1       5.991  29.280  -1.244  1.00  0.00     0.038 C 
HETATM   23  C17 UNL     1       5.968  27.707   0.646  1.00  0.00     0.038 C 
HETATM   24  C18 UNL     1       8.043  28.239  -0.471  1.00  0.00     0.038 C 
ENDBRANCH  19  21
BRANCH  20  25
HETATM   25  O2  UNL     1       4.747  25.793  -0.168  1.00  0.00    -0.345 OA
ATOM     26  H2  UNL     1       5.151  26.133   0.621  1.00  0.00     0.219 HD
ENDBRANCH  20  25
ENDBRANCH   1  15
TORSDOF 7
ENDMDL
