MODEL 1
REMARK VINA RESULT: -8.568447117      0.000      0.000
REMARK  4 active torsions:
REMARK  status: ('A' for Active; 'I' for Inactive)
REMARK    1  A    between atoms: C2_2  and  C3_3 
REMARK    2  A    between atoms: C3_3  and  C4_4 
REMARK    3  A    between atoms: C4_4  and  C5_5 
REMARK    4  A    between atoms: C10_11  and  O2_12 
ROOT
HETATM    1  C5  UNL     1      -0.948  24.207  -1.269  1.00  0.00     0.166 C 
HETATM    2  O1  UNL     1       0.169  24.742  -2.018  1.00  0.00    -0.340 OA
HETATM    3  C6  UNL     1       1.324  25.363  -1.626  1.00  0.00     0.080 A 
HETATM    4  C7  UNL     1       2.233  25.491  -2.675  1.00  0.00     0.051 A 
HETATM    5  C8  UNL     1       3.465  26.095  -2.481  1.00  0.00     0.003 A 
HETATM    6  C9  UNL     1       3.732  26.552  -1.208  1.00  0.00     0.114 A 
HETATM    7  C10 UNL     1       2.846  26.435  -0.155  1.00  0.00     0.109 A 
HETATM    8  C11 UNL     1       1.613  25.828  -0.361  1.00  0.00     0.017 A 
HETATM    9  C12 UNL     1       0.794  25.785   0.855  1.00  0.00     0.112 C 
HETATM   10  C13 UNL     1      -0.677  25.932   0.560  1.00  0.00     0.091 A 
HETATM   11  O3  UNL     1      -1.480  26.756   1.154  1.00  0.00    -0.241 OA
HETATM   12  N1  UNL     1      -2.678  26.661   0.697  1.00  0.00    -0.265 N 
ATOM     13  H1  UNL     1      -3.472  27.215   1.019  1.00  0.00     0.194 HD
HETATM   14  C14 UNL     1      -2.730  25.712  -0.282  1.00  0.00     0.040 A 
HETATM   15  C15 UNL     1      -3.956  25.328  -1.038  1.00  0.00     0.071 C 
HETATM   16  C16 UNL     1      -1.452  25.236  -0.379  1.00  0.00     0.027 A 
HETATM   17  O4  UNL     1       4.968  27.152  -1.035  1.00  0.00    -0.333 OA
HETATM   18  C17 UNL     1       5.945  27.331  -2.009  1.00  0.00     0.078 A 
HETATM   19  C18 UNL     1       6.309  28.800  -2.114  1.00  0.00     0.051 C 
HETATM   20  C19 UNL     1       7.204  26.553  -1.588  1.00  0.00     0.051 C 
HETATM   21  C20 UNL     1       5.605  26.820  -3.355  1.00  0.00     0.011 A 
HETATM   22  C21 UNL     1       4.437  26.244  -3.555  1.00  0.00     0.013 A 
ENDROOT
BRANCH   1  23
HETATM   23  C4  UNL     1      -1.841  23.610  -2.277  1.00  0.00     0.037 C 
BRANCH  23  24
HETATM   24  C3  UNL     1      -1.226  22.214  -2.583  1.00  0.00     0.002 C 
BRANCH  24  25
HETATM   25  C2  UNL     1      -0.957  22.081  -4.053  1.00  0.00    -0.004 C 
HETATM   26  C1  UNL     1       0.528  22.214  -4.299  1.00  0.00     0.005 C 
ENDBRANCH  24  25
ENDBRANCH  23  24
ENDBRANCH   1  23
BRANCH   7  27
HETATM   27  O2  UNL     1       3.139  26.904   1.114  1.00  0.00    -0.357 OA
ATOM     28  H2  UNL     1       2.612  26.680   1.871  1.00  0.00     0.217 HD
ENDBRANCH   7  27
TORSDOF 4
ENDMDL
MODEL 2
REMARK VINA RESULT: -8.393074086      2.858      5.259
REMARK  4 active torsions:
REMARK  status: ('A' for Active; 'I' for Inactive)
REMARK    1  A    between atoms: C2_2  and  C3_3 
REMARK    2  A    between atoms: C3_3  and  C4_4 
REMARK    3  A    between atoms: C4_4  and  C5_5 
REMARK    4  A    between atoms: C10_11  and  O2_12 
ROOT
HETATM    1  C5  UNL     1       1.633  23.581  -4.121  1.00  0.00     0.166 C 
HETATM    2  O1  UNL     1       1.346  24.150  -2.822  1.00  0.00    -0.340 OA
HETATM    3  C6  UNL     1       1.985  25.103  -2.074  1.00  0.00     0.080 A 
HETATM    4  C7  UNL     1       1.218  25.518  -0.988  1.00  0.00     0.051 A 
HETATM    5  C8  UNL     1       1.690  26.480  -0.109  1.00  0.00     0.003 A 
HETATM    6  C9  UNL     1       2.944  26.992  -0.371  1.00  0.00     0.114 A 
HETATM    7  C10 UNL     1       3.719  26.593  -1.443  1.00  0.00     0.109 A 
HETATM    8  C11 UNL     1       3.236  25.628  -2.318  1.00  0.00     0.017 A 
HETATM    9  C12 UNL     1       4.180  25.320  -3.397  1.00  0.00     0.112 C 
HETATM   10  C13 UNL     1       4.126  23.871  -3.810  1.00  0.00     0.091 A 
HETATM   11  O3  UNL     1       5.151  23.090  -3.934  1.00  0.00    -0.241 OA
HETATM   12  N1  UNL     1       4.803  21.908  -4.299  1.00  0.00    -0.265 N 
ATOM     13  H1  UNL     1       5.446  21.132  -4.459  1.00  0.00     0.194 HD
HETATM   14  C14 UNL     1       3.447  21.843  -4.442  1.00  0.00     0.040 A 
HETATM   15  C15 UNL     1       2.686  20.630  -4.855  1.00  0.00     0.071 C 
HETATM   16  C16 UNL     1       3.001  23.098  -4.130  1.00  0.00     0.027 A 
HETATM   17  O4  UNL     1       3.397  27.951   0.518  1.00  0.00    -0.333 OA
HETATM   18  C17 UNL     1       2.717  28.436   1.631  1.00  0.00     0.078 A 
HETATM   19  C18 UNL     1       3.562  28.248   2.877  1.00  0.00     0.051 C 
HETATM   20  C19 UNL     1       2.473  29.942   1.437  1.00  0.00     0.051 C 
HETATM   21  C20 UNL     1       1.378  27.852   1.863  1.00  0.00     0.011 A 
HETATM   22  C21 UNL     1       0.915  26.937   1.036  1.00  0.00     0.013 A 
ENDROOT
BRANCH   1  23
HETATM   23  C4  UNL     1       0.525  22.649  -4.390  1.00  0.00     0.037 C 
BRANCH  23  24
HETATM   24  C3  UNL     1      -0.130  22.391  -3.003  1.00  0.00     0.002 C 
BRANCH  24  25
HETATM   25  C2  UNL     1      -1.610  22.621  -3.082  1.00  0.00    -0.004 C 
HETATM   26  C1  UNL     1      -1.999  23.694  -2.091  1.00  0.00     0.005 C 
ENDBRANCH  24  25
ENDBRANCH  23  24
ENDBRANCH   1  23
BRANCH   7  27
HETATM   27  O2  UNL     1       4.975  27.123  -1.683  1.00  0.00    -0.357 OA
ATOM     28  H2  UNL     1       5.299  27.280  -2.562  1.00  0.00     0.217 HD
ENDBRANCH   7  27
TORSDOF 4
ENDMDL
MODEL 3
REMARK VINA RESULT: -8.271295461      2.720      6.840
REMARK  4 active torsions:
REMARK  status: ('A' for Active; 'I' for Inactive)
REMARK    1  A    between atoms: C2_2  and  C3_3 
REMARK    2  A    between atoms: C3_3  and  C4_4 
REMARK    3  A    between atoms: C4_4  and  C5_5 
REMARK    4  A    between atoms: C10_11  and  O2_12 
ROOT
HETATM    1  C5  UNL     1       1.184  23.540  -2.173  1.00  0.00     0.166 C 
HETATM    2  O1  UNL     1       0.602  24.827  -1.859  1.00  0.00    -0.340 OA
HETATM    3  C6  UNL     1      -0.619  25.185  -1.353  1.00  0.00     0.080 A 
HETATM    4  C7  UNL     1      -0.659  26.527  -0.981  1.00  0.00     0.051 A 
HETATM    5  C8  UNL     1      -1.809  27.084  -0.445  1.00  0.00     0.003 A 
HETATM    6  C9  UNL     1      -2.893  26.242  -0.305  1.00  0.00     0.114 A 
HETATM    7  C10 UNL     1      -2.873  24.909  -0.668  1.00  0.00     0.109 A 
HETATM    8  C11 UNL     1      -1.714  24.361  -1.204  1.00  0.00     0.017 A 
HETATM    9  C12 UNL     1      -1.861  22.940  -1.535  1.00  0.00     0.112 C 
HETATM   10  C13 UNL     1      -1.070  22.551  -2.757  1.00  0.00     0.091 A 
HETATM   11  O3  UNL     1      -1.534  21.890  -3.769  1.00  0.00    -0.241 OA
HETATM   12  N1  UNL     1      -0.632  21.703  -4.665  1.00  0.00    -0.265 N 
ATOM     13  H1  UNL     1      -0.775  21.206  -5.545  1.00  0.00     0.194 HD
HETATM   14  C14 UNL     1       0.546  22.267  -4.268  1.00  0.00     0.040 A 
HETATM   15  C15 UNL     1       1.813  22.247  -5.052  1.00  0.00     0.071 C 
HETATM   16  C16 UNL     1       0.277  22.815  -3.044  1.00  0.00     0.027 A 
HETATM   17  O4  UNL     1      -4.033  26.817   0.231  1.00  0.00    -0.333 OA
HETATM   18  C17 UNL     1      -4.181  28.140   0.634  1.00  0.00     0.078 A 
HETATM   19  C18 UNL     1      -5.354  28.774  -0.090  1.00  0.00     0.051 C 
HETATM   20  C19 UNL     1      -4.479  28.162   2.143  1.00  0.00     0.051 C 
HETATM   21  C20 UNL     1      -2.987  28.997   0.462  1.00  0.00     0.011 A 
HETATM   22  C21 UNL     1      -1.885  28.481  -0.046  1.00  0.00     0.013 A 
ENDROOT
BRANCH   1  23
HETATM   23  C4  UNL     1       2.555  23.832  -2.623  1.00  0.00     0.037 C 
BRANCH  23  24
HETATM   24  C3  UNL     1       2.503  25.297  -3.144  1.00  0.00     0.002 C 
BRANCH  24  25
HETATM   25  C2  UNL     1       3.894  25.837  -3.300  1.00  0.00    -0.004 C 
HETATM   26  C1  UNL     1       4.871  24.684  -3.350  1.00  0.00     0.005 C 
ENDBRANCH  24  25
ENDBRANCH  23  24
ENDBRANCH   1  23
BRANCH   7  27
HETATM   27  O2  UNL     1      -3.976  24.086  -0.517  1.00  0.00    -0.357 OA
ATOM     28  H2  UNL     1      -4.395  23.950   0.324  1.00  0.00     0.217 HD
ENDBRANCH   7  27
TORSDOF 4
ENDMDL
MODEL 4
REMARK VINA RESULT: -8.142747970      2.687      6.877
REMARK  4 active torsions:
REMARK  status: ('A' for Active; 'I' for Inactive)
REMARK    1  A    between atoms: C2_2  and  C3_3 
REMARK    2  A    between atoms: C3_3  and  C4_4 
REMARK    3  A    between atoms: C4_4  and  C5_5 
REMARK    4  A    between atoms: C10_11  and  O2_12 
ROOT
HETATM    1  C5  UNL     1       3.113  23.261  -1.878  1.00  0.00     0.166 C 
HETATM    2  O1  UNL     1       2.407  24.417  -1.369  1.00  0.00    -0.340 OA
HETATM    3  C6  UNL     1       1.073  24.700  -1.246  1.00  0.00     0.080 A 
HETATM    4  C7  UNL     1       0.847  25.836  -0.472  1.00  0.00     0.051 A 
HETATM    5  C8  UNL     1      -0.441  26.287  -0.230  1.00  0.00     0.003 A 
HETATM    6  C9  UNL     1      -1.466  25.555  -0.790  1.00  0.00     0.114 A 
HETATM    7  C10 UNL     1      -1.262  24.426  -1.560  1.00  0.00     0.109 A 
HETATM    8  C11 UNL     1       0.033  23.982  -1.797  1.00  0.00     0.017 A 
HETATM    9  C12 UNL     1       0.074  22.775  -2.629  1.00  0.00     0.112 C 
HETATM   10  C13 UNL     1       1.276  22.746  -3.538  1.00  0.00     0.091 A 
HETATM   11  O3  UNL     1       1.245  22.510  -4.810  1.00  0.00    -0.241 OA
HETATM   12  N1  UNL     1       2.421  22.549  -5.327  1.00  0.00    -0.265 N 
ATOM     13  H1  UNL     1       2.633  22.393  -6.313  1.00  0.00     0.194 HD
HETATM   14  C14 UNL     1       3.346  22.833  -4.363  1.00  0.00     0.040 A 
HETATM   15  C15 UNL     1       4.813  22.957  -4.593  1.00  0.00     0.071 C 
HETATM   16  C16 UNL     1       2.622  22.961  -3.210  1.00  0.00     0.027 A 
HETATM   17  O4  UNL     1      -2.745  26.022  -0.536  1.00  0.00    -0.333 OA
HETATM   18  C17 UNL     1      -3.082  27.141   0.219  1.00  0.00     0.078 A 
HETATM   19  C18 UNL     1      -3.927  28.090  -0.611  1.00  0.00     0.051 C 
HETATM   20  C19 UNL     1      -3.919  26.683   1.425  1.00  0.00     0.051 C 
HETATM   21  C20 UNL     1      -1.943  27.888   0.796  1.00  0.00     0.011 A 
HETATM   22  C21 UNL     1      -0.713  27.470   0.574  1.00  0.00     0.013 A 
ENDROOT
BRANCH   1  23
HETATM   23  C4  UNL     1       4.541  23.556  -1.673  1.00  0.00     0.037 C 
BRANCH  23  24
HETATM   24  C3  UNL     1       4.581  25.031  -1.182  1.00  0.00     0.002 C 
BRANCH  24  25
HETATM   25  C2  UNL     1       5.522  25.832  -2.033  1.00  0.00    -0.004 C 
HETATM   26  C1  UNL     1       4.775  26.358  -3.237  1.00  0.00     0.005 C 
ENDBRANCH  24  25
ENDBRANCH  23  24
ENDBRANCH   1  23
BRANCH   7  27
HETATM   27  O2  UNL     1      -2.310  23.709  -2.111  1.00  0.00    -0.357 OA
ATOM     28  H2  UNL     1      -2.324  23.457  -3.027  1.00  0.00     0.217 HD
ENDBRANCH   7  27
TORSDOF 4
ENDMDL
MODEL 5
REMARK VINA RESULT: -8.054221469      3.289      7.907
REMARK  4 active torsions:
REMARK  status: ('A' for Active; 'I' for Inactive)
REMARK    1  A    between atoms: C2_2  and  C3_3 
REMARK    2  A    between atoms: C3_3  and  C4_4 
REMARK    3  A    between atoms: C4_4  and  C5_5 
REMARK    4  A    between atoms: C10_11  and  O2_12 
ROOT
HETATM    1  C5  UNL     1       5.928  26.298  -1.975  1.00  0.00     0.166 C 
HETATM    2  O1  UNL     1       4.487  26.191  -2.046  1.00  0.00    -0.340 OA
HETATM    3  C6  UNL     1       3.659  25.171  -2.429  1.00  0.00     0.080 A 
HETATM    4  C7  UNL     1       2.328  25.425  -2.103  1.00  0.00     0.051 A 
HETATM    5  C8  UNL     1       1.333  24.511  -2.409  1.00  0.00     0.003 A 
HETATM    6  C9  UNL     1       1.733  23.354  -3.043  1.00  0.00     0.114 A 
HETATM    7  C10 UNL     1       3.047  23.083  -3.374  1.00  0.00     0.109 A 
HETATM    8  C11 UNL     1       4.037  24.006  -3.063  1.00  0.00     0.017 A 
HETATM    9  C12 UNL     1       5.372  23.567  -3.481  1.00  0.00     0.112 C 
HETATM   10  C13 UNL     1       6.241  24.716  -3.924  1.00  0.00     0.091 A 
HETATM   11  O3  UNL     1       6.916  24.761  -5.027  1.00  0.00    -0.241 OA
HETATM   12  N1  UNL     1       7.567  25.864  -5.139  1.00  0.00    -0.265 N 
ATOM     13  H1  UNL     1       8.165  26.114  -5.928  1.00  0.00     0.194 HD
HETATM   14  C14 UNL     1       7.340  26.653  -4.048  1.00  0.00     0.040 A 
HETATM   15  C15 UNL     1       7.929  28.004  -3.831  1.00  0.00     0.071 C 
HETATM   16  C16 UNL     1       6.490  25.926  -3.261  1.00  0.00     0.027 A 
HETATM   17  O4  UNL     1       0.724  22.453  -3.339  1.00  0.00    -0.333 OA
HETATM   18  C17 UNL     1      -0.631  22.607  -3.061  1.00  0.00     0.078 A 
HETATM   19  C18 UNL     1      -1.440  22.477  -4.337  1.00  0.00     0.051 C 
HETATM   20  C19 UNL     1      -1.063  21.485  -2.101  1.00  0.00     0.051 C 
HETATM   21  C20 UNL     1      -1.002  23.866  -2.380  1.00  0.00     0.011 A 
HETATM   22  C21 UNL     1      -0.067  24.745  -2.083  1.00  0.00     0.013 A 
ENDROOT
BRANCH   1  23
HETATM   23  C4  UNL     1       6.192  27.636  -1.421  1.00  0.00     0.037 C 
BRANCH  23  24
HETATM   24  C3  UNL     1       5.860  27.517   0.094  1.00  0.00     0.002 C 
BRANCH  24  25
HETATM   25  C2  UNL     1       4.845  28.552   0.481  1.00  0.00    -0.004 C 
HETATM   26  C1  UNL     1       3.580  27.861   0.935  1.00  0.00     0.005 C 
ENDBRANCH  24  25
ENDBRANCH  23  24
ENDBRANCH   1  23
BRANCH   7  27
HETATM   27  O2  UNL     1       3.422  21.912  -4.011  1.00  0.00    -0.357 OA
ATOM     28  H2  UNL     1       4.314  21.754  -4.294  1.00  0.00     0.217 HD
ENDBRANCH   7  27
TORSDOF 4
ENDMDL
