MODEL 1
REMARK VINA RESULT: -8.306800298      0.000      0.000
REMARK  3 active torsions:
REMARK  status: ('A' for Active; 'I' for Inactive)
REMARK    1  A    between atoms: O1_2  and  C2_3 
REMARK    2  A    between atoms: C6_7  and  O2_8 
REMARK    3  A    between atoms: C8_10  and  O3_11 
ROOT
HETATM    1  C2  UNL     1       0.975  26.810   0.869  1.00  0.00     0.105 A 
HETATM    2  C3  UNL     1       2.254  26.463   0.487  1.00  0.00     0.060 A 
HETATM    3  C4  UNL     1       2.447  25.675  -0.630  1.00  0.00     0.034 A 
HETATM    4  C5  UNL     1       1.420  25.193  -1.414  1.00  0.00     0.086 A 
HETATM    5  C6  UNL     1       0.137  25.544  -1.022  1.00  0.00     0.132 A 
HETATM    6  C8  UNL     1      -0.056  26.335   0.095  1.00  0.00     0.137 A 
HETATM    7  N1  UNL     1       1.430  24.385  -2.580  1.00  0.00    -0.352 N 
ATOM      8  H1  UNL     1       0.526  24.298  -3.045  1.00  0.00     0.166 HD
HETATM    9  C10 UNL     1       2.487  23.678  -3.208  1.00  0.00     0.041 A 
HETATM   10  C11 UNL     1       2.073  22.519  -3.813  1.00  0.00     0.037 A 
HETATM   11  C12 UNL     1       2.975  21.715  -4.472  1.00  0.00    -0.054 A 
HETATM   12  C13 UNL     1       2.483  20.468  -5.114  1.00  0.00     0.049 C 
HETATM   13  C14 UNL     1       4.312  22.021  -4.560  1.00  0.00    -0.055 A 
HETATM   14  C15 UNL     1       5.239  21.129  -5.277  1.00  0.00     0.049 C 
HETATM   15  C16 UNL     1       4.735  23.209  -3.939  1.00  0.00     0.018 A 
HETATM   16  C17 UNL     1       3.836  24.018  -3.278  1.00  0.00    -0.013 A 
HETATM   17  C18 UNL     1       4.467  25.200  -2.707  1.00  0.00     0.035 C 
HETATM   18  C19 UNL     1       3.858  26.415  -3.405  1.00  0.00     0.032 C 
HETATM   19  C20 UNL     1       5.957  25.179  -2.903  1.00  0.00     0.032 C 
HETATM   20  S1  UNL     1       4.187  25.361  -0.921  1.00  0.00    -0.113 SA
ENDROOT
BRANCH   1  21
HETATM   21  O1  UNL     1       0.695  27.598   1.976  1.00  0.00    -0.353 OA
HETATM   22  C1  UNL     1       1.008  28.974   2.022  1.00  0.00     0.210 C 
ENDBRANCH   1  21
BRANCH   6  23
HETATM   23  O3  UNL     1      -1.356  26.663   0.450  1.00  0.00    -0.351 OA
HETATM   24  C9  UNL     1      -1.994  27.788  -0.119  1.00  0.00     0.210 C 
ENDBRANCH   6  23
BRANCH   5  25
HETATM   25  O2  UNL     1      -0.935  25.081  -1.781  1.00  0.00    -0.351 OA
HETATM   26  C7  UNL     1      -1.597  23.877  -1.377  1.00  0.00     0.210 C 
ENDBRANCH   5  25
TORSDOF 3
ENDMDL
MODEL 2
REMARK VINA RESULT: -8.058993095      1.418      1.928
REMARK  3 active torsions:
REMARK  status: ('A' for Active; 'I' for Inactive)
REMARK    1  A    between atoms: O1_2  and  C2_3 
REMARK    2  A    between atoms: C6_7  and  O2_8 
REMARK    3  A    between atoms: C8_10  and  O3_11 
ROOT
HETATM    1  C2  UNL     1       1.671  27.512   1.481  1.00  0.00     0.105 A 
HETATM    2  C3  UNL     1       2.603  26.692   0.883  1.00  0.00     0.060 A 
HETATM    3  C4  UNL     1       2.244  25.924  -0.208  1.00  0.00     0.034 A 
HETATM    4  C5  UNL     1       0.980  25.918  -0.756  1.00  0.00     0.086 A 
HETATM    5  C6  UNL     1       0.046  26.745  -0.149  1.00  0.00     0.132 A 
HETATM    6  C8  UNL     1       0.407  27.515   0.942  1.00  0.00     0.137 A 
HETATM    7  N1  UNL     1       0.439  25.208  -1.860  1.00  0.00    -0.352 N 
ATOM      8  H1  UNL     1      -0.496  25.505  -2.139  1.00  0.00     0.166 HD
HETATM    9  C10 UNL     1       0.982  24.154  -2.637  1.00  0.00     0.041 A 
HETATM   10  C11 UNL     1       0.030  23.277  -3.091  1.00  0.00     0.037 A 
HETATM   11  C12 UNL     1       0.389  22.197  -3.866  1.00  0.00    -0.054 A 
HETATM   12  C13 UNL     1      -0.675  21.272  -4.337  1.00  0.00     0.049 C 
HETATM   13  C14 UNL     1       1.691  21.942  -4.221  1.00  0.00    -0.055 A 
HETATM   14  C15 UNL     1       2.026  20.773  -5.052  1.00  0.00     0.049 C 
HETATM   15  C16 UNL     1       2.666  22.841  -3.755  1.00  0.00     0.018 A 
HETATM   16  C17 UNL     1       2.312  23.924  -2.979  1.00  0.00    -0.013 A 
HETATM   17  C18 UNL     1       3.461  24.737  -2.601  1.00  0.00     0.035 C 
HETATM   18  C19 UNL     1       3.265  26.113  -3.234  1.00  0.00     0.032 C 
HETATM   19  C20 UNL     1       4.749  24.123  -3.073  1.00  0.00     0.032 C 
HETATM   20  S1  UNL     1       3.622  24.946  -0.805  1.00  0.00    -0.113 SA
ENDROOT
BRANCH   1  21
HETATM   21  O1  UNL     1       1.949  28.314   2.578  1.00  0.00    -0.353 OA
HETATM   22  C1  UNL     1       2.661  29.529   2.463  1.00  0.00     0.210 C 
ENDBRANCH   1  21
BRANCH   6  23
HETATM   23  O3  UNL     1      -0.558  28.327   1.519  1.00  0.00    -0.351 OA
HETATM   24  C9  UNL     1      -0.805  29.621   1.009  1.00  0.00     0.210 C 
ENDBRANCH   6  23
BRANCH   5  25
HETATM   25  O2  UNL     1      -1.247  26.773  -0.666  1.00  0.00    -0.351 OA
HETATM   26  C7  UNL     1      -2.267  26.010  -0.014  1.00  0.00     0.210 C 
ENDBRANCH   5  25
TORSDOF 3
ENDMDL
MODEL 3
REMARK VINA RESULT: -7.746609636      3.100      6.604
REMARK  3 active torsions:
REMARK  status: ('A' for Active; 'I' for Inactive)
REMARK    1  A    between atoms: O1_2  and  C2_3 
REMARK    2  A    between atoms: C6_7  and  O2_8 
REMARK    3  A    between atoms: C8_10  and  O3_11 
ROOT
HETATM    1  C2  UNL     1       6.241  24.440  -4.512  1.00  0.00     0.105 A 
HETATM    2  C3  UNL     1       5.617  25.372  -3.711  1.00  0.00     0.060 A 
HETATM    3  C4  UNL     1       4.385  25.087  -3.157  1.00  0.00     0.034 A 
HETATM    4  C5  UNL     1       3.713  23.900  -3.354  1.00  0.00     0.086 A 
HETATM    5  C6  UNL     1       4.346  22.967  -4.162  1.00  0.00     0.132 A 
HETATM    6  C8  UNL     1       5.580  23.252  -4.716  1.00  0.00     0.137 A 
HETATM    7  N1  UNL     1       2.461  23.438  -2.870  1.00  0.00    -0.352 N 
ATOM      8  H1  UNL     1       2.271  22.454  -3.056  1.00  0.00     0.166 HD
HETATM    9  C10 UNL     1       1.432  24.118  -2.171  1.00  0.00     0.041 A 
HETATM   10  C11 UNL     1       0.179  23.649  -2.474  1.00  0.00     0.037 A 
HETATM   11  C12 UNL     1      -0.934  24.199  -1.878  1.00  0.00    -0.054 A 
HETATM   12  C13 UNL     1      -2.273  23.660  -2.234  1.00  0.00     0.049 C 
HETATM   13  C14 UNL     1      -0.854  25.224  -0.967  1.00  0.00    -0.055 A 
HETATM   14  C15 UNL     1      -2.075  25.779  -0.356  1.00  0.00     0.049 C 
HETATM   15  C16 UNL     1       0.429  25.704  -0.658  1.00  0.00     0.018 A 
HETATM   16  C17 UNL     1       1.547  25.157  -1.251  1.00  0.00    -0.013 A 
HETATM   17  C18 UNL     1       2.781  25.786  -0.799  1.00  0.00     0.035 C 
HETATM   18  C19 UNL     1       3.594  24.712  -0.079  1.00  0.00     0.032 C 
HETATM   19  C20 UNL     1       2.506  26.939   0.125  1.00  0.00     0.032 C 
HETATM   20  S1  UNL     1       3.781  26.449  -2.162  1.00  0.00    -0.113 SA
ENDROOT
BRANCH   1  21
HETATM   21  O1  UNL     1       7.478  24.647  -5.107  1.00  0.00    -0.353 OA
HETATM   22  C1  UNL     1       7.788  25.833  -5.807  1.00  0.00     0.210 C 
ENDBRANCH   1  21
BRANCH   6  23
HETATM   23  O3  UNL     1       6.178  22.290  -5.517  1.00  0.00    -0.351 OA
HETATM   24  C9  UNL     1       6.368  22.523  -6.898  1.00  0.00     0.210 C 
ENDBRANCH   6  23
BRANCH   5  25
HETATM   25  O2  UNL     1       3.707  21.751  -4.393  1.00  0.00    -0.351 OA
HETATM   26  C7  UNL     1       2.604  21.714  -5.305  1.00  0.00     0.210 C 
ENDBRANCH   5  25
TORSDOF 3
ENDMDL
MODEL 4
REMARK VINA RESULT: -7.695369625      2.152      4.415
REMARK  3 active torsions:
REMARK  status: ('A' for Active; 'I' for Inactive)
REMARK    1  A    between atoms: O1_2  and  C2_3 
REMARK    2  A    between atoms: C6_7  and  O2_8 
REMARK    3  A    between atoms: C8_10  and  O3_11 
ROOT
HETATM    1  C2  UNL     1       0.995  26.088   0.505  1.00  0.00     0.105 A 
HETATM    2  C3  UNL     1       1.385  25.317  -0.569  1.00  0.00     0.060 A 
HETATM    3  C4  UNL     1       2.617  25.527  -1.155  1.00  0.00     0.034 A 
HETATM    4  C5  UNL     1       3.514  26.483  -0.729  1.00  0.00     0.086 A 
HETATM    5  C6  UNL     1       3.115  27.257   0.351  1.00  0.00     0.132 A 
HETATM    6  C8  UNL     1       1.881  27.045   0.938  1.00  0.00     0.137 A 
HETATM    7  N1  UNL     1       4.806  26.834  -1.200  1.00  0.00    -0.352 N 
ATOM      8  H1  UNL     1       5.313  27.488  -0.604  1.00  0.00     0.166 HD
HETATM    9  C10 UNL     1       5.510  26.426  -2.361  1.00  0.00     0.041 A 
HETATM   10  C11 UNL     1       6.330  27.404  -2.863  1.00  0.00     0.037 A 
HETATM   11  C12 UNL     1       7.088  27.170  -3.988  1.00  0.00    -0.054 A 
HETATM   12  C13 UNL     1       7.964  28.259  -4.497  1.00  0.00     0.049 C 
HETATM   13  C14 UNL     1       7.068  25.970  -4.656  1.00  0.00    -0.055 A 
HETATM   14  C15 UNL     1       7.898  25.767  -5.856  1.00  0.00     0.049 C 
HETATM   15  C16 UNL     1       6.228  24.969  -4.142  1.00  0.00     0.018 A 
HETATM   16  C17 UNL     1       5.466  25.197  -3.016  1.00  0.00    -0.013 A 
HETATM   17  C18 UNL     1       4.667  24.039  -2.639  1.00  0.00     0.035 C 
HETATM   18  C19 UNL     1       5.157  23.583  -1.267  1.00  0.00     0.032 C 
HETATM   19  C20 UNL     1       4.806  22.925  -3.639  1.00  0.00     0.032 C 
HETATM   20  S1  UNL     1       2.893  24.407  -2.526  1.00  0.00    -0.113 SA
ENDROOT
BRANCH   1  21
HETATM   21  O1  UNL     1      -0.225  25.942   1.150  1.00  0.00    -0.353 OA
HETATM   22  C1  UNL     1      -1.448  26.294   0.539  1.00  0.00     0.210 C 
ENDBRANCH   1  21
BRANCH   6  23
HETATM   23  O3  UNL     1       1.523  27.841   2.016  1.00  0.00    -0.351 OA
HETATM   24  C9  UNL     1       0.761  29.014   1.820  1.00  0.00     0.210 C 
ENDBRANCH   6  23
BRANCH   5  25
HETATM   25  O2  UNL     1       3.986  28.238   0.818  1.00  0.00    -0.351 OA
HETATM   26  C7  UNL     1       3.944  29.538   0.220  1.00  0.00     0.210 C 
ENDBRANCH   5  25
TORSDOF 3
ENDMDL
MODEL 5
REMARK VINA RESULT: -7.581955791      2.693      4.949
REMARK  3 active torsions:
REMARK  status: ('A' for Active; 'I' for Inactive)
REMARK    1  A    between atoms: O1_2  and  C2_3 
REMARK    2  A    between atoms: C6_7  and  O2_8 
REMARK    3  A    between atoms: C8_10  and  O3_11 
ROOT
HETATM    1  C2  UNL     1       5.858  27.484   0.184  1.00  0.00     0.105 A 
HETATM    2  C3  UNL     1       5.634  26.342  -0.555  1.00  0.00     0.060 A 
HETATM    3  C4  UNL     1       4.349  26.014  -0.940  1.00  0.00     0.034 A 
HETATM    4  C5  UNL     1       3.239  26.770  -0.627  1.00  0.00     0.086 A 
HETATM    5  C6  UNL     1       3.472  27.917   0.117  1.00  0.00     0.132 A 
HETATM    6  C8  UNL     1       4.759  28.246   0.502  1.00  0.00     0.137 A 
HETATM    7  N1  UNL     1       1.866  26.592  -0.936  1.00  0.00    -0.352 N 
ATOM      8  H1  UNL     1       1.271  27.387  -0.701  1.00  0.00     0.166 HD
HETATM    9  C10 UNL     1       1.182  25.494  -1.515  1.00  0.00     0.041 A 
HETATM   10  C11 UNL     1      -0.098  25.349  -1.044  1.00  0.00     0.037 A 
HETATM   11  C12 UNL     1      -0.902  24.332  -1.507  1.00  0.00    -0.054 A 
HETATM   12  C13 UNL     1      -2.282  24.212  -0.969  1.00  0.00     0.049 C 
HETATM   13  C14 UNL     1      -0.477  23.425  -2.448  1.00  0.00    -0.055 A 
HETATM   14  C15 UNL     1      -1.375  22.353  -2.913  1.00  0.00     0.049 C 
HETATM   15  C16 UNL     1       0.834  23.574  -2.930  1.00  0.00     0.018 A 
HETATM   16  C17 UNL     1       1.643  24.590  -2.470  1.00  0.00    -0.013 A 
HETATM   17  C18 UNL     1       2.960  24.579  -3.092  1.00  0.00     0.035 C 
HETATM   18  C19 UNL     1       3.095  25.879  -3.881  1.00  0.00     0.032 C 
HETATM   19  C20 UNL     1       3.129  23.396  -4.004  1.00  0.00     0.032 C 
HETATM   20  S1  UNL     1       4.315  24.492  -1.886  1.00  0.00    -0.113 SA
ENDROOT
BRANCH   1  21
HETATM   21  O1  UNL     1       7.116  27.885   0.610  1.00  0.00    -0.353 OA
HETATM   22  C1  UNL     1       8.107  28.338  -0.287  1.00  0.00     0.210 C 
ENDBRANCH   1  21
BRANCH   6  23
HETATM   23  O3  UNL     1       4.946  29.401   1.245  1.00  0.00    -0.351 OA
HETATM   24  C9  UNL     1       5.096  30.651   0.604  1.00  0.00     0.210 C 
ENDBRANCH   6  23
BRANCH   5  25
HETATM   25  O2  UNL     1       2.383  28.714   0.461  1.00  0.00    -0.351 OA
HETATM   26  C7  UNL     1       1.798  28.562   1.758  1.00  0.00     0.210 C 
ENDBRANCH   5  25
TORSDOF 3
ENDMDL
