MODEL 1
REMARK VINA RESULT: -8.531044624      0.000      0.000
REMARK  4 active torsions:
REMARK  status: ('A' for Active; 'I' for Inactive)
REMARK    1  A    between atoms: C2_2  and  C3_3 
REMARK    2  A    between atoms: C6_6  and  C7_7 
REMARK       I    between atoms: N1_11  and  C11_12 
REMARK       I    between atoms: C11_12  and  N2_14 
REMARK    3  A    between atoms: N2_14  and  C12_16 
REMARK    4  A    between atoms: C15_19  and  N3_20 
ROOT
HETATM    1  C3  UNL     1       0.742  23.362  -3.113  1.00  0.00    -0.006 A 
HETATM    2  C4  UNL     1       2.038  23.125  -3.493  1.00  0.00    -0.026 A 
HETATM    3  C5  UNL     1       2.408  22.128  -4.515  1.00  0.00     0.051 C 
HETATM    4  C6  UNL     1       2.904  23.995  -2.788  1.00  0.00     0.036 A 
HETATM    5  N1  UNL     1       2.126  24.750  -1.982  1.00  0.00    -0.270 N 
HETATM    6  C11 UNL     1       2.517  25.588  -0.914  1.00  0.00     0.332 C 
HETATM    7  O1  UNL     1       3.593  25.504  -0.245  1.00  0.00    -0.246 OA
HETATM    8  N2  UNL     1       1.725  26.660  -0.469  1.00  0.00    -0.302 N 
ATOM      9  H2  UNL     1       0.838  26.861  -0.931  1.00  0.00     0.171 HD
HETATM   10  C16 UNL     1       0.801  24.363  -2.185  1.00  0.00     0.028 A 
HETATM   11  C17 UNL     1      -0.372  24.929  -1.493  1.00  0.00     0.070 C 
ENDROOT
BRANCH   4  12
HETATM   12  C7  UNL     1       4.349  23.923  -3.073  1.00  0.00    -0.007 C 
HETATM   13  C8  UNL     1       4.818  23.100  -4.220  1.00  0.00     0.021 C 
HETATM   14  C9  UNL     1       5.104  23.392  -1.843  1.00  0.00     0.021 C 
HETATM   15  C10 UNL     1       4.911  25.355  -3.278  1.00  0.00     0.021 C 
ENDBRANCH   4  12
BRANCH   8  16
HETATM   16  C12 UNL     1       2.163  27.483   0.644  1.00  0.00     0.080 A 
HETATM   17  C13 UNL     1       3.429  27.888   0.957  1.00  0.00     0.040 A 
HETATM   18  C14 UNL     1       3.577  28.650   2.045  1.00  0.00     0.046 A 
HETATM   19  C15 UNL     1       2.450  28.962   2.756  1.00  0.00     0.145 A 
HETATM   20  S1  UNL     1       1.216  28.184   1.889  1.00  0.00    -0.048 SA
BRANCH  19  21
HETATM   21  N3  UNL     1       2.390  29.768   3.955  1.00  0.00    -0.108 N 
HETATM   22  O2  UNL     1       1.583  30.708   4.043  1.00  0.00    -0.531 OA
HETATM   23  O3  UNL     1       3.215  29.512   5.007  1.00  0.00    -0.531 OA
ENDBRANCH  19  21
ENDBRANCH   8  16
BRANCH   1  24
HETATM   24  C2  UNL     1      -0.410  22.645  -3.672  1.00  0.00     0.003 C 
HETATM   25  C1  UNL     1      -1.157  21.789  -3.068  1.00  0.00     0.012 C 
ENDBRANCH   1  24
TORSDOF 4
ENDMDL
MODEL 2
REMARK VINA RESULT: -8.285756079      0.917      1.121
REMARK  4 active torsions:
REMARK  status: ('A' for Active; 'I' for Inactive)
REMARK    1  A    between atoms: C2_2  and  C3_3 
REMARK    2  A    between atoms: C6_6  and  C7_7 
REMARK       I    between atoms: N1_11  and  C11_12 
REMARK       I    between atoms: C11_12  and  N2_14 
REMARK    3  A    between atoms: N2_14  and  C12_16 
REMARK    4  A    between atoms: C15_19  and  N3_20 
ROOT
HETATM    1  C3  UNL     1       1.065  23.028  -3.551  1.00  0.00    -0.006 A 
HETATM    2  C4  UNL     1       2.421  22.960  -3.745  1.00  0.00    -0.026 A 
HETATM    3  C5  UNL     1       3.050  22.042  -4.712  1.00  0.00     0.051 C 
HETATM    4  C6  UNL     1       3.064  23.912  -2.918  1.00  0.00     0.036 A 
HETATM    5  N1  UNL     1       2.094  24.546  -2.224  1.00  0.00    -0.270 N 
HETATM    6  C11 UNL     1       2.225  25.398  -1.105  1.00  0.00     0.332 C 
HETATM    7  O1  UNL     1       3.198  25.428  -0.290  1.00  0.00    -0.246 OA
HETATM    8  N2  UNL     1       1.251  26.354  -0.769  1.00  0.00    -0.302 N 
ATOM      9  H2  UNL     1       0.419  26.456  -1.350  1.00  0.00     0.171 HD
HETATM   10  C16 UNL     1       0.868  24.006  -2.617  1.00  0.00     0.028 A 
HETATM   11  C17 UNL     1      -0.451  24.406  -2.094  1.00  0.00     0.070 C 
ENDROOT
BRANCH   4  12
HETATM   12  C7  UNL     1       4.532  24.024  -2.995  1.00  0.00    -0.007 C 
HETATM   13  C8  UNL     1       5.250  23.346  -4.108  1.00  0.00     0.021 C 
HETATM   14  C9  UNL     1       5.172  23.490  -1.702  1.00  0.00     0.021 C 
HETATM   15  C10 UNL     1       4.939  25.521  -3.033  1.00  0.00     0.021 C 
ENDBRANCH   4  12
BRANCH   8  16
HETATM   16  C12 UNL     1       1.423  27.195   0.401  1.00  0.00     0.080 A 
HETATM   17  C13 UNL     1       0.498  27.542   1.344  1.00  0.00     0.040 A 
HETATM   18  C14 UNL     1       0.905  28.338   2.339  1.00  0.00     0.046 A 
HETATM   19  C15 UNL     1       2.213  28.740   2.331  1.00  0.00     0.145 A 
HETATM   20  S1  UNL     1       2.839  27.999   0.938  1.00  0.00    -0.048 SA
BRANCH  19  21
HETATM   21  N3  UNL     1       2.851  29.595   3.306  1.00  0.00    -0.108 N 
HETATM   22  O2  UNL     1       3.110  30.778   3.034  1.00  0.00    -0.531 OA
HETATM   23  O3  UNL     1       3.179  29.121   4.540  1.00  0.00    -0.531 OA
ENDBRANCH  19  21
ENDBRANCH   8  16
BRANCH   1  24
HETATM   24  C2  UNL     1       0.100  22.190  -4.273  1.00  0.00     0.003 C 
HETATM   25  C1  UNL     1      -0.754  21.376  -3.762  1.00  0.00     0.012 C 
ENDBRANCH   1  24
TORSDOF 4
ENDMDL
MODEL 3
REMARK VINA RESULT: -8.146935541      2.897      3.433
REMARK  4 active torsions:
REMARK  status: ('A' for Active; 'I' for Inactive)
REMARK    1  A    between atoms: C2_2  and  C3_3 
REMARK    2  A    between atoms: C6_6  and  C7_7 
REMARK       I    between atoms: N1_11  and  C11_12 
REMARK       I    between atoms: C11_12  and  N2_14 
REMARK    3  A    between atoms: N2_14  and  C12_16 
REMARK    4  A    between atoms: C15_19  and  N3_20 
ROOT
HETATM    1  C3  UNL     1       2.392  22.708  -4.225  1.00  0.00    -0.006 A 
HETATM    2  C4  UNL     1       3.640  23.166  -3.891  1.00  0.00    -0.026 A 
HETATM    3  C5  UNL     1       4.868  22.735  -4.585  1.00  0.00     0.051 C 
HETATM    4  C6  UNL     1       3.532  24.108  -2.840  1.00  0.00     0.036 A 
HETATM    5  N1  UNL     1       2.218  24.210  -2.541  1.00  0.00    -0.270 N 
HETATM    6  C11 UNL     1       1.616  24.823  -1.420  1.00  0.00     0.332 C 
HETATM    7  O1  UNL     1       2.163  25.043  -0.296  1.00  0.00    -0.246 OA
HETATM    8  N2  UNL     1       0.289  25.286  -1.438  1.00  0.00    -0.302 N 
ATOM      9  H2  UNL     1      -0.269  25.194  -2.287  1.00  0.00     0.171 HD
HETATM   10  C16 UNL     1       1.520  23.354  -3.394  1.00  0.00     0.028 A 
HETATM   11  C17 UNL     1       0.060  23.151  -3.395  1.00  0.00     0.070 C 
ENDROOT
BRANCH   4  12
HETATM   12  C7  UNL     1       4.765  24.749  -2.347  1.00  0.00    -0.007 C 
HETATM   13  C8  UNL     1       4.700  26.149  -1.848  1.00  0.00     0.021 C 
HETATM   14  C9  UNL     1       5.837  24.749  -3.450  1.00  0.00     0.021 C 
HETATM   15  C10 UNL     1       5.382  23.887  -1.213  1.00  0.00     0.021 C 
ENDBRANCH   4  12
BRANCH   8  16
HETATM   16  C12 UNL     1      -0.291  25.895  -0.255  1.00  0.00     0.080 A 
HETATM   17  C13 UNL     1       0.339  26.328   0.877  1.00  0.00     0.040 A 
HETATM   18  C14 UNL     1      -0.423  26.859   1.838  1.00  0.00     0.046 A 
HETATM   19  C15 UNL     1      -1.771  26.925   1.612  1.00  0.00     0.145 A 
HETATM   20  S1  UNL     1      -1.938  26.245   0.065  1.00  0.00    -0.048 SA
BRANCH  19  21
HETATM   21  N3  UNL     1      -2.765  27.459   2.515  1.00  0.00    -0.108 N 
HETATM   22  O2  UNL     1      -3.308  28.551   2.281  1.00  0.00    -0.531 OA
HETATM   23  O3  UNL     1      -3.124  26.776   3.637  1.00  0.00    -0.531 OA
ENDBRANCH  19  21
ENDBRANCH   8  16
BRANCH   1  24
HETATM   24  C2  UNL     1       2.145  21.735  -5.296  1.00  0.00     0.003 C 
HETATM   25  C1  UNL     1       1.912  20.477  -5.161  1.00  0.00     0.012 C 
ENDBRANCH   1  24
TORSDOF 4
ENDMDL
MODEL 4
REMARK VINA RESULT: -8.061914264      4.217      4.984
REMARK  4 active torsions:
REMARK  status: ('A' for Active; 'I' for Inactive)
REMARK    1  A    between atoms: C2_2  and  C3_3 
REMARK    2  A    between atoms: C6_6  and  C7_7 
REMARK       I    between atoms: N1_11  and  C11_12 
REMARK       I    between atoms: C11_12  and  N2_14 
REMARK    3  A    between atoms: N2_14  and  C12_16 
REMARK    4  A    between atoms: C15_19  and  N3_20 
ROOT
HETATM    1  C3  UNL     1      -0.106  23.464  -2.715  1.00  0.00    -0.006 A 
HETATM    2  C4  UNL     1       0.386  22.465  -3.515  1.00  0.00    -0.026 A 
HETATM    3  C5  UNL     1      -0.427  21.320  -3.964  1.00  0.00     0.051 C 
HETATM    4  C6  UNL     1       1.735  22.745  -3.843  1.00  0.00     0.036 A 
HETATM    5  N1  UNL     1       2.051  23.908  -3.235  1.00  0.00    -0.270 N 
HETATM    6  C11 UNL     1       3.327  24.487  -3.050  1.00  0.00     0.332 C 
HETATM    7  O1  UNL     1       4.439  23.874  -3.051  1.00  0.00    -0.246 OA
HETATM    8  N2  UNL     1       3.506  25.866  -2.849  1.00  0.00    -0.302 N 
ATOM      9  H2  UNL     1       2.697  26.487  -2.845  1.00  0.00     0.171 HD
HETATM   10  C16 UNL     1       0.920  24.350  -2.546  1.00  0.00     0.028 A 
HETATM   11  C17 UNL     1       0.837  25.580  -1.736  1.00  0.00     0.070 C 
ENDROOT
BRANCH   4  12
HETATM   12  C7  UNL     1       2.447  21.803  -4.726  1.00  0.00    -0.007 C 
HETATM   13  C8  UNL     1       1.657  20.932  -5.639  1.00  0.00     0.021 C 
HETATM   14  C9  UNL     1       3.317  20.849  -3.890  1.00  0.00     0.021 C 
HETATM   15  C10 UNL     1       3.465  22.580  -5.603  1.00  0.00     0.021 C 
ENDBRANCH   4  12
BRANCH   8  16
HETATM   16  C12 UNL     1       4.837  26.410  -2.647  1.00  0.00     0.080 A 
HETATM   17  C13 UNL     1       5.534  26.543  -1.481  1.00  0.00     0.040 A 
HETATM   18  C14 UNL     1       6.756  27.081  -1.555  1.00  0.00     0.046 A 
HETATM   19  C15 UNL     1       7.208  27.453  -2.792  1.00  0.00     0.145 A 
HETATM   20  S1  UNL     1       5.918  27.045  -3.816  1.00  0.00    -0.048 SA
BRANCH  19  21
HETATM   21  N3  UNL     1       8.491  28.049  -3.090  1.00  0.00    -0.108 N 
HETATM   22  O2  UNL     1       9.087  27.768  -4.142  1.00  0.00    -0.531 OA
HETATM   23  O3  UNL     1       9.069  28.927  -2.225  1.00  0.00    -0.531 OA
ENDBRANCH  19  21
ENDBRANCH   8  16
BRANCH   1  24
HETATM   24  C2  UNL     1      -1.485  23.495  -2.212  1.00  0.00     0.003 C 
HETATM   25  C1  UNL     1      -1.960  24.266  -1.299  1.00  0.00     0.012 C 
ENDBRANCH   1  24
TORSDOF 4
ENDMDL
MODEL 5
REMARK VINA RESULT: -7.972390278      4.958      7.543
REMARK  4 active torsions:
REMARK  status: ('A' for Active; 'I' for Inactive)
REMARK    1  A    between atoms: C2_2  and  C3_3 
REMARK    2  A    between atoms: C6_6  and  C7_7 
REMARK       I    between atoms: N1_11  and  C11_12 
REMARK       I    between atoms: C11_12  and  N2_14 
REMARK    3  A    between atoms: N2_14  and  C12_16 
REMARK    4  A    between atoms: C15_19  and  N3_20 
ROOT
HETATM    1  C3  UNL     1       3.300  27.226   0.156  1.00  0.00    -0.006 A 
HETATM    2  C4  UNL     1       2.983  25.996  -0.360  1.00  0.00    -0.026 A 
HETATM    3  C5  UNL     1       1.890  25.159   0.169  1.00  0.00     0.051 C 
HETATM    4  C6  UNL     1       3.829  25.712  -1.459  1.00  0.00     0.036 A 
HETATM    5  N1  UNL     1       4.656  26.771  -1.598  1.00  0.00    -0.270 N 
HETATM    6  C11 UNL     1       5.828  26.876  -2.380  1.00  0.00     0.332 C 
HETATM    7  O1  UNL     1       6.554  25.915  -2.784  1.00  0.00    -0.246 OA
HETATM    8  N2  UNL     1       6.329  28.112  -2.824  1.00  0.00    -0.302 N 
ATOM      9  H2  UNL     1       5.834  28.973  -2.591  1.00  0.00     0.171 HD
HETATM   10  C16 UNL     1       4.329  27.700  -0.609  1.00  0.00     0.028 A 
HETATM   11  C17 UNL     1       4.997  28.997  -0.397  1.00  0.00     0.070 C 
ENDROOT
BRANCH   4  12
HETATM   12  C7  UNL     1       3.633  24.442  -2.181  1.00  0.00    -0.007 C 
HETATM   13  C8  UNL     1       4.027  24.358  -3.614  1.00  0.00     0.021 C 
HETATM   14  C9  UNL     1       2.152  24.028  -2.132  1.00  0.00     0.021 C 
HETATM   15  C10 UNL     1       4.374  23.300  -1.436  1.00  0.00     0.021 C 
ENDBRANCH   4  12
BRANCH   8  16
HETATM   16  C12 UNL     1       7.547  28.169  -3.611  1.00  0.00     0.080 A 
HETATM   17  C13 UNL     1       8.832  28.339  -3.181  1.00  0.00     0.040 A 
HETATM   18  C14 UNL     1       9.792  28.357  -4.111  1.00  0.00     0.046 A 
HETATM   19  C15 UNL     1       9.411  28.204  -5.417  1.00  0.00     0.145 A 
HETATM   20  S1  UNL     1       7.724  28.040  -5.311  1.00  0.00    -0.048 SA
BRANCH  19  21
HETATM   21  N3  UNL     1      10.285  28.194  -6.568  1.00  0.00    -0.108 N 
HETATM   22  O2  UNL     1      10.898  27.162  -6.885  1.00  0.00    -0.531 OA
HETATM   23  O3  UNL     1      10.451  29.313  -7.325  1.00  0.00    -0.531 OA
ENDBRANCH  19  21
ENDBRANCH   8  16
BRANCH   1  24
HETATM   24  C2  UNL     1       2.597  27.834   1.292  1.00  0.00     0.003 C 
HETATM   25  C1  UNL     1       1.629  28.679   1.242  1.00  0.00     0.012 C 
ENDBRANCH   1  24
TORSDOF 4
ENDMDL
