MODEL 1
REMARK VINA RESULT: -9.532602605      0.000      0.000
REMARK  5 active torsions:
REMARK  status: ('A' for Active; 'I' for Inactive)
REMARK       I    between atoms: C2_2  and  N1_4 
REMARK    1  A    between atoms: N1_4  and  C3_6 
REMARK    2  A    between atoms: C6_9  and  C7_10 
REMARK    3  A    between atoms: N2_12  and  N3_14 
REMARK    4  A    between atoms: N3_14  and  C9_16 
REMARK    5  A    between atoms: C11_19  and  C12_20 
ROOT
HETATM    1  C7  UNL     1      32.796  52.896   0.301  1.00  0.00     0.032 C 
HETATM    2  C8  UNL     1      33.072  51.936  -0.867  1.00  0.00     0.070 C 
HETATM    3  N2  UNL     1      33.291  52.643   1.411  1.00  0.00    -0.303 N 
ATOM      4  H2  UNL     1      33.831  51.780   1.339  1.00  0.00     0.186 HD
ENDROOT
BRANCH   3   5
HETATM    5  N3  UNL     1      33.373  53.092   2.663  1.00  0.00    -0.288 N 
ATOM      6  H3  UNL     1      32.508  53.328   3.149  1.00  0.00     0.188 HD
BRANCH   5   7
HETATM    7  C9  UNL     1      34.490  53.243   3.293  1.00  0.00     0.131 A 
HETATM    8  S1  UNL     1      34.789  54.147   4.695  1.00  0.00    -0.074 SA
HETATM    9  C10 UNL     1      36.440  54.015   5.120  1.00  0.00     0.072 A 
HETATM   10  C11 UNL     1      37.118  53.214   4.230  1.00  0.00     0.024 A 
HETATM   11  S2  UNL     1      36.054  52.643   3.020  1.00  0.00    -0.063 SA
BRANCH  10  12
HETATM   12  C12 UNL     1      38.553  52.902   4.317  1.00  0.00    -0.018 A 
HETATM   13  C13 UNL     1      39.094  51.925   3.511  1.00  0.00     0.013 A 
HETATM   14  C14 UNL     1      40.456  51.632   3.598  1.00  0.00     0.001 A 
HETATM   15  C15 UNL     1      41.296  52.289   4.468  1.00  0.00     0.000 A 
HETATM   16  C16 UNL     1      40.731  53.270   5.272  1.00  0.00     0.001 A 
HETATM   17  C17 UNL     1      39.403  53.550   5.182  1.00  0.00     0.013 A 
ENDBRANCH  10  12
ENDBRANCH   5   7
ENDBRANCH   3   5
BRANCH   1  18
HETATM   18  C6  UNL     1      31.962  54.035  -0.014  1.00  0.00    -0.012 A 
HETATM   19  C5  UNL     1      30.631  53.797  -0.362  1.00  0.00     0.015 A 
HETATM   20  C4  UNL     1      29.819  54.895  -0.667  1.00  0.00     0.030 A 
HETATM   21  C3  UNL     1      30.260  56.178  -0.643  1.00  0.00     0.034 A 
HETATM   22  C19 UNL     1      31.602  56.370  -0.290  1.00  0.00     0.030 A 
HETATM   23  C18 UNL     1      32.433  55.308   0.019  1.00  0.00     0.015 A 
BRANCH  21  24
HETATM   24  N1  UNL     1      29.472  57.302  -0.921  1.00  0.00    -0.328 N 
HETATM   25  C2  UNL     1      28.376  57.762  -0.183  1.00  0.00     0.218 C 
HETATM   26  C1  UNL     1      27.630  59.003  -0.642  1.00  0.00     0.117 C 
HETATM   27  O1  UNL     1      27.982  57.191   0.846  1.00  0.00    -0.274 OA
ATOM     28  H1  UNL     1      29.724  57.841  -1.749  1.00  0.00     0.169 HD
ENDBRANCH  21  24
ENDBRANCH   1  18
TORSDOF 5
ENDMDL
MODEL 2
REMARK VINA RESULT: -9.410328002      1.263      1.332
REMARK  5 active torsions:
REMARK  status: ('A' for Active; 'I' for Inactive)
REMARK       I    between atoms: C2_2  and  N1_4 
REMARK    1  A    between atoms: N1_4  and  C3_6 
REMARK    2  A    between atoms: C6_9  and  C7_10 
REMARK    3  A    between atoms: N2_12  and  N3_14 
REMARK    4  A    between atoms: N3_14  and  C9_16 
REMARK    5  A    between atoms: C11_19  and  C12_20 
ROOT
HETATM    1  C7  UNL     1      32.772  51.721  -0.206  1.00  0.00     0.032 C 
HETATM    2  C8  UNL     1      33.024  51.186  -1.625  1.00  0.00     0.070 C 
HETATM    3  N2  UNL     1      33.355  51.179   0.747  1.00  0.00    -0.303 N 
ATOM      4  H2  UNL     1      33.937  50.423   0.386  1.00  0.00     0.186 HD
ENDROOT
BRANCH   3   5
HETATM    5  N3  UNL     1      33.495  51.230   2.070  1.00  0.00    -0.288 N 
ATOM      6  H3  UNL     1      32.772  50.803   2.650  1.00  0.00     0.188 HD
BRANCH   5   7
HETATM    7  C9  UNL     1      34.498  51.791   2.659  1.00  0.00     0.131 A 
HETATM    8  S1  UNL     1      34.508  53.201   3.599  1.00  0.00    -0.074 SA
HETATM    9  C10 UNL     1      36.097  53.512   4.148  1.00  0.00     0.072 A 
HETATM   10  C11 UNL     1      36.973  52.552   3.698  1.00  0.00     0.024 A 
HETATM   11  S2  UNL     1      36.146  51.395   2.751  1.00  0.00    -0.063 SA
BRANCH  10  12
HETATM   12  C12 UNL     1      38.414  52.534   3.997  1.00  0.00    -0.018 A 
HETATM   13  C13 UNL     1      39.232  51.615   3.379  1.00  0.00     0.013 A 
HETATM   14  C14 UNL     1      40.599  51.602   3.665  1.00  0.00     0.001 A 
HETATM   15  C15 UNL     1      41.172  52.483   4.551  1.00  0.00     0.000 A 
HETATM   16  C16 UNL     1      40.330  53.402   5.164  1.00  0.00     0.001 A 
HETATM   17  C17 UNL     1      39.000  53.408   4.881  1.00  0.00     0.013 A 
ENDBRANCH  10  12
ENDBRANCH   5   7
ENDBRANCH   3   5
BRANCH   1  18
HETATM   18  C6  UNL     1      31.854  52.835  -0.115  1.00  0.00    -0.012 A 
HETATM   19  C5  UNL     1      30.635  52.737  -0.787  1.00  0.00     0.015 A 
HETATM   20  C4  UNL     1      29.742  53.812  -0.702  1.00  0.00     0.030 A 
HETATM   21  C3  UNL     1      30.003  54.943  -0.001  1.00  0.00     0.034 A 
HETATM   22  C19 UNL     1      31.239  54.999   0.656  1.00  0.00     0.030 A 
HETATM   23  C18 UNL     1      32.145  53.955   0.595  1.00  0.00     0.015 A 
BRANCH  21  24
HETATM   24  N1  UNL     1      29.127  56.029   0.124  1.00  0.00    -0.328 N 
HETATM   25  C2  UNL     1      28.907  57.043  -0.815  1.00  0.00     0.218 C 
HETATM   26  C1  UNL     1      27.919  58.153  -0.504  1.00  0.00     0.117 C 
HETATM   27  O1  UNL     1      29.495  57.073  -1.908  1.00  0.00    -0.274 OA
ATOM     28  H1  UNL     1      28.594  56.087   0.991  1.00  0.00     0.169 HD
ENDBRANCH  21  24
ENDBRANCH   1  18
TORSDOF 5
ENDMDL
MODEL 3
REMARK VINA RESULT: -9.004679710      1.125      1.854
REMARK  5 active torsions:
REMARK  status: ('A' for Active; 'I' for Inactive)
REMARK       I    between atoms: C2_2  and  N1_4 
REMARK    1  A    between atoms: N1_4  and  C3_6 
REMARK    2  A    between atoms: C6_9  and  C7_10 
REMARK    3  A    between atoms: N2_12  and  N3_14 
REMARK    4  A    between atoms: N3_14  and  C9_16 
REMARK    5  A    between atoms: C11_19  and  C12_20 
ROOT
HETATM    1  C7  UNL     1      32.452  52.508  -0.612  1.00  0.00     0.032 C 
HETATM    2  C8  UNL     1      32.079  51.432  -1.645  1.00  0.00     0.070 C 
HETATM    3  N2  UNL     1      33.346  52.258   0.212  1.00  0.00    -0.303 N 
ATOM      4  H2  UNL     1      33.694  51.314   0.040  1.00  0.00     0.186 HD
ENDROOT
BRANCH   3   5
HETATM    5  N3  UNL     1      34.014  52.777   1.241  1.00  0.00    -0.288 N 
ATOM      6  H3  UNL     1      33.580  53.535   1.767  1.00  0.00     0.188 HD
BRANCH   5   7
HETATM    7  C9  UNL     1      35.184  52.371   1.606  1.00  0.00     0.131 A 
HETATM    8  S1  UNL     1      36.013  50.977   1.112  1.00  0.00    -0.074 SA
HETATM    9  C10 UNL     1      37.531  50.905   1.895  1.00  0.00     0.072 A 
HETATM   10  C11 UNL     1      37.710  51.986   2.727  1.00  0.00     0.024 A 
HETATM   11  S2  UNL     1      36.342  53.007   2.672  1.00  0.00    -0.063 SA
BRANCH  10  12
HETATM   12  C12 UNL     1      38.913  52.217   3.544  1.00  0.00    -0.018 A 
HETATM   13  C13 UNL     1      38.888  53.153   4.554  1.00  0.00     0.013 A 
HETATM   14  C14 UNL     1      40.031  53.369   5.326  1.00  0.00     0.001 A 
HETATM   15  C15 UNL     1      41.200  52.675   5.118  1.00  0.00     0.000 A 
HETATM   16  C16 UNL     1      41.205  51.736   4.095  1.00  0.00     0.001 A 
HETATM   17  C17 UNL     1      40.088  51.531   3.347  1.00  0.00     0.013 A 
ENDBRANCH  10  12
ENDBRANCH   5   7
ENDBRANCH   3   5
BRANCH   1  18
HETATM   18  C6  UNL     1      31.705  53.743  -0.702  1.00  0.00    -0.012 A 
HETATM   19  C5  UNL     1      30.327  53.662  -0.909  1.00  0.00     0.015 A 
HETATM   20  C4  UNL     1      29.598  54.854  -0.997  1.00  0.00     0.030 A 
HETATM   21  C3  UNL     1      30.164  56.083  -0.892  1.00  0.00     0.034 A 
HETATM   22  C19 UNL     1      31.549  56.116  -0.687  1.00  0.00     0.030 A 
HETATM   23  C18 UNL     1      32.301  54.958  -0.594  1.00  0.00     0.015 A 
BRANCH  21  24
HETATM   24  N1  UNL     1      29.466  57.295  -0.954  1.00  0.00    -0.328 N 
HETATM   25  C2  UNL     1      28.409  57.698  -0.129  1.00  0.00     0.218 C 
HETATM   26  C1  UNL     1      27.761  59.054  -0.347  1.00  0.00     0.117 C 
HETATM   27  O1  UNL     1      27.973  56.983   0.787  1.00  0.00    -0.274 OA
ATOM     28  H1  UNL     1      29.757  57.953  -1.675  1.00  0.00     0.169 HD
ENDBRANCH  21  24
ENDBRANCH   1  18
TORSDOF 5
ENDMDL
MODEL 4
REMARK VINA RESULT: -8.988691137      1.517      2.085
REMARK  5 active torsions:
REMARK  status: ('A' for Active; 'I' for Inactive)
REMARK       I    between atoms: C2_2  and  N1_4 
REMARK    1  A    between atoms: N1_4  and  C3_6 
REMARK    2  A    between atoms: C6_9  and  C7_10 
REMARK    3  A    between atoms: N2_12  and  N3_14 
REMARK    4  A    between atoms: N3_14  and  C9_16 
REMARK    5  A    between atoms: C11_19  and  C12_20 
ROOT
HETATM    1  C7  UNL     1      32.147  51.607  -0.492  1.00  0.00     0.032 C 
HETATM    2  C8  UNL     1      31.927  50.864  -1.819  1.00  0.00     0.070 C 
HETATM    3  N2  UNL     1      32.933  51.123   0.339  1.00  0.00    -0.303 N 
ATOM      4  H2  UNL     1      33.316  50.257  -0.040  1.00  0.00     0.186 HD
ENDROOT
BRANCH   3   5
HETATM    5  N3  UNL     1      33.456  51.327   1.547  1.00  0.00    -0.288 N 
ATOM      6  H3  UNL     1      32.820  51.504   2.325  1.00  0.00     0.188 HD
BRANCH   5   7
HETATM    7  C9  UNL     1      34.725  51.312   1.784  1.00  0.00     0.131 A 
HETATM    8  S1  UNL     1      35.928  50.415   0.998  1.00  0.00    -0.074 SA
HETATM    9  C10 UNL     1      37.450  50.760   1.697  1.00  0.00     0.072 A 
HETATM   10  C11 UNL     1      37.329  51.674   2.718  1.00  0.00     0.024 A 
HETATM   11  S2  UNL     1      35.693  52.130   2.913  1.00  0.00    -0.063 SA
BRANCH  10  12
HETATM   12  C12 UNL     1      38.454  52.179   3.521  1.00  0.00    -0.018 A 
HETATM   13  C13 UNL     1      39.714  51.649   3.349  1.00  0.00     0.013 A 
HETATM   14  C14 UNL     1      40.778  52.131   4.112  1.00  0.00     0.001 A 
HETATM   15  C15 UNL     1      40.621  53.129   5.045  1.00  0.00     0.000 A 
HETATM   16  C16 UNL     1      39.344  53.651   5.204  1.00  0.00     0.001 A 
HETATM   17  C17 UNL     1      38.312  53.176   4.456  1.00  0.00     0.013 A 
ENDBRANCH  10  12
ENDBRANCH   5   7
ENDBRANCH   3   5
BRANCH   1  18
HETATM   18  C6  UNL     1      31.397  52.834  -0.334  1.00  0.00    -0.012 A 
HETATM   19  C5  UNL     1      30.114  52.893  -0.882  1.00  0.00     0.015 A 
HETATM   20  C4  UNL     1      29.383  54.077  -0.732  1.00  0.00     0.030 A 
HETATM   21  C3  UNL     1      29.859  55.169  -0.082  1.00  0.00     0.034 A 
HETATM   22  C19 UNL     1      31.150  55.065   0.450  1.00  0.00     0.030 A 
HETATM   23  C18 UNL     1      31.901  53.910   0.322  1.00  0.00     0.015 A 
BRANCH  21  24
HETATM   24  N1  UNL     1      29.149  56.362   0.106  1.00  0.00    -0.328 N 
HETATM   25  C2  UNL     1      28.854  57.325  -0.866  1.00  0.00     0.218 C 
HETATM   26  C1  UNL     1      28.076  58.570  -0.476  1.00  0.00     0.117 C 
HETATM   27  O1  UNL     1      29.206  57.203  -2.049  1.00  0.00    -0.274 OA
ATOM     28  H1  UNL     1      28.813  56.548   1.050  1.00  0.00     0.169 HD
ENDBRANCH  21  24
ENDBRANCH   1  18
TORSDOF 5
ENDMDL
MODEL 5
REMARK VINA RESULT: -8.950190810      2.322      3.558
REMARK  5 active torsions:
REMARK  status: ('A' for Active; 'I' for Inactive)
REMARK       I    between atoms: C2_2  and  N1_4 
REMARK    1  A    between atoms: N1_4  and  C3_6 
REMARK    2  A    between atoms: C6_9  and  C7_10 
REMARK    3  A    between atoms: N2_12  and  N3_14 
REMARK    4  A    between atoms: N3_14  and  C9_16 
REMARK    5  A    between atoms: C11_19  and  C12_20 
ROOT
HETATM    1  C7  UNL     1      33.403  49.538  -0.600  1.00  0.00     0.032 C 
HETATM    2  C8  UNL     1      33.248  48.690  -1.872  1.00  0.00     0.070 C 
HETATM    3  N2  UNL     1      34.132  49.118   0.312  1.00  0.00    -0.303 N 
ATOM      4  H2  UNL     1      34.524  48.219   0.029  1.00  0.00     0.186 HD
ENDROOT
BRANCH   3   5
HETATM    5  N3  UNL     1      34.589  49.416   1.527  1.00  0.00    -0.288 N 
ATOM      6  H3  UNL     1      33.952  49.325   2.319  1.00  0.00     0.188 HD
BRANCH   5   7
HETATM    7  C9  UNL     1      35.795  49.815   1.756  1.00  0.00     0.131 A 
HETATM    8  S1  UNL     1      37.211  49.406   0.920  1.00  0.00    -0.074 SA
HETATM    9  C10 UNL     1      38.546  50.209   1.626  1.00  0.00     0.072 A 
HETATM   10  C11 UNL     1      38.150  50.985   2.690  1.00  0.00     0.024 A 
HETATM   11  S2  UNL     1      36.460  50.860   2.916  1.00  0.00    -0.063 SA
BRANCH  10  12
HETATM   12  C12 UNL     1      39.060  51.801   3.509  1.00  0.00    -0.018 A 
HETATM   13  C13 UNL     1      38.589  52.931   4.142  1.00  0.00     0.013 A 
HETATM   14  C14 UNL     1      39.456  53.702   4.918  1.00  0.00     0.001 A 
HETATM   15  C15 UNL     1      40.782  53.377   5.081  1.00  0.00     0.000 A 
HETATM   16  C16 UNL     1      41.238  52.235   4.435  1.00  0.00     0.001 A 
HETATM   17  C17 UNL     1      40.387  51.489   3.681  1.00  0.00     0.013 A 
ENDBRANCH  10  12
ENDBRANCH   5   7
ENDBRANCH   3   5
BRANCH   1  18
HETATM   18  C6  UNL     1      32.663  50.782  -0.587  1.00  0.00    -0.012 A 
HETATM   19  C5  UNL     1      32.966  51.714   0.406  1.00  0.00     0.015 A 
HETATM   20  C4  UNL     1      32.254  52.920   0.423  1.00  0.00     0.030 A 
HETATM   21  C3  UNL     1      31.285  53.225  -0.476  1.00  0.00     0.034 A 
HETATM   22  C19 UNL     1      31.014  52.260  -1.453  1.00  0.00     0.030 A 
HETATM   23  C18 UNL     1      31.698  51.058  -1.501  1.00  0.00     0.015 A 
BRANCH  21  24
HETATM   24  N1  UNL     1      30.568  54.428  -0.503  1.00  0.00    -0.328 N 
HETATM   25  C2  UNL     1      31.063  55.694  -0.837  1.00  0.00     0.218 C 
HETATM   26  C1  UNL     1      30.135  56.896  -0.804  1.00  0.00     0.117 C 
HETATM   27  O1  UNL     1      32.246  55.878  -1.165  1.00  0.00    -0.274 OA
ATOM     28  H1  UNL     1      29.581  54.376  -0.252  1.00  0.00     0.169 HD
ENDBRANCH  21  24
ENDBRANCH   1  18
TORSDOF 5
ENDMDL
