MODEL 1
REMARK VINA RESULT: -8.250237392      0.000      0.000
REMARK  6 active torsions:
REMARK  status: ('A' for Active; 'I' for Inactive)
REMARK    1  A    between atoms: C3_3  and  C6_6 
REMARK    2  A    between atoms: C10_10  and  C11_11 
REMARK    3  A    between atoms: C11_11  and  C12_13 
REMARK    4  A    between atoms: C13_14  and  C14_15 
REMARK    5  A    between atoms: C17_18  and  N1_19 
REMARK    6  A    between atoms: C18_22  and  O4_23 
ROOT
HETATM    1  C1  UNL     1      40.655  51.481   4.002  1.00  0.00     0.013 C 
HETATM    2  C2  UNL     1      39.739  52.264   4.175  1.00  0.00    -0.103 C 
HETATM    3  C3  UNL     1      38.630  53.175   4.373  1.00  0.00     0.049 C 
HETATM    4  C4  UNL     1      38.230  53.319   5.822  1.00  0.00     0.034 C 
HETATM    5  C5  UNL     1      38.880  54.537   3.804  1.00  0.00     0.034 C 
ENDROOT
BRANCH   3   6
HETATM    6  C6  UNL     1      37.445  52.579   3.655  1.00  0.00     0.004 A 
HETATM    7  C7  UNL     1      36.475  51.765   4.160  1.00  0.00     0.024 A 
HETATM    8  C8  UNL     1      35.500  51.342   3.315  1.00  0.00    -0.040 A 
HETATM    9  C9  UNL     1      34.390  50.408   3.804  1.00  0.00     0.049 C 
HETATM   10  C10 UNL     1      35.558  51.761   2.022  1.00  0.00     0.061 A 
HETATM   11  S1  UNL     1      36.991  52.744   2.030  1.00  0.00    -0.088 SA
BRANCH  10  12
HETATM   12  C11 UNL     1      34.724  51.570   0.848  1.00  0.00     0.189 C 
HETATM   13  O1  UNL     1      35.065  50.606   0.057  1.00  0.00    -0.287 OA
BRANCH  12  14
HETATM   14  C12 UNL     1      33.570  52.300   0.428  1.00  0.00     0.057 C 
HETATM   15  C13 UNL     1      33.583  53.632   0.403  1.00  0.00     0.015 C 
BRANCH  15  16
HETATM   16  C14 UNL     1      32.507  54.481   0.009  1.00  0.00    -0.033 A 
HETATM   17  C15 UNL     1      32.650  55.852  -0.011  1.00  0.00     0.014 A 
HETATM   18  C16 UNL     1      31.641  56.705  -0.379  1.00  0.00     0.040 A 
HETATM   19  C17 UNL     1      30.381  56.208  -0.764  1.00  0.00     0.136 A 
HETATM   20  C18 UNL     1      30.225  54.848  -0.749  1.00  0.00     0.099 A 
HETATM   21  C19 UNL     1      31.272  53.999  -0.369  1.00  0.00     0.050 A 
BRANCH  19  22
HETATM   22  N1  UNL     1      29.402  57.154  -1.123  1.00  0.00    -0.113 N 
HETATM   23  O2  UNL     1      28.987  58.073  -0.401  1.00  0.00    -0.532 OA
HETATM   24  O3  UNL     1      28.780  57.097  -2.375  1.00  0.00    -0.532 OA
ENDBRANCH  19  22
BRANCH  20  25
HETATM   25  O4  UNL     1      29.010  54.268  -1.112  1.00  0.00    -0.358 OA
ATOM     26  H4  UNL     1      28.957  53.682  -1.858  1.00  0.00     0.217 HD
ENDBRANCH  20  25
ENDBRANCH  15  16
ENDBRANCH  12  14
ENDBRANCH  10  12
ENDBRANCH   3   6
TORSDOF 6
ENDMDL
MODEL 2
REMARK VINA RESULT: -8.054721088      6.877     10.487
REMARK  6 active torsions:
REMARK  status: ('A' for Active; 'I' for Inactive)
REMARK    1  A    between atoms: C3_3  and  C6_6 
REMARK    2  A    between atoms: C10_10  and  C11_11 
REMARK    3  A    between atoms: C11_11  and  C12_13 
REMARK    4  A    between atoms: C13_14  and  C14_15 
REMARK    5  A    between atoms: C17_18  and  N1_19 
REMARK    6  A    between atoms: C18_22  and  O4_23 
ROOT
HETATM    1  C1  UNL     1      34.320  50.277   3.816  1.00  0.00     0.013 C 
HETATM    2  C2  UNL     1      34.627  51.425   3.554  1.00  0.00    -0.103 C 
HETATM    3  C3  UNL     1      35.021  52.786   3.250  1.00  0.00     0.049 C 
HETATM    4  C4  UNL     1      35.288  53.014   1.782  1.00  0.00     0.034 C 
HETATM    5  C5  UNL     1      34.030  53.804   3.724  1.00  0.00     0.034 C 
ENDROOT
BRANCH   3   6
HETATM    6  C6  UNL     1      36.323  53.032   3.970  1.00  0.00     0.004 A 
HETATM    7  C7  UNL     1      36.542  53.791   5.082  1.00  0.00     0.024 A 
HETATM    8  C8  UNL     1      37.812  53.871   5.554  1.00  0.00    -0.040 A 
HETATM    9  C9  UNL     1      38.139  54.722   6.783  1.00  0.00     0.049 C 
HETATM   10  C10 UNL     1      38.780  53.187   4.886  1.00  0.00     0.061 A 
HETATM   11  S1  UNL     1      37.871  52.445   3.603  1.00  0.00    -0.088 SA
BRANCH  10  12
HETATM   12  C11 UNL     1      40.207  52.990   5.074  1.00  0.00     0.189 C 
HETATM   13  O1  UNL     1      40.698  53.412   6.193  1.00  0.00    -0.287 OA
BRANCH  12  14
HETATM   14  C12 UNL     1      41.163  52.397   4.193  1.00  0.00     0.057 C 
HETATM   15  C13 UNL     1      40.895  51.247   3.577  1.00  0.00     0.015 C 
BRANCH  15  16
HETATM   16  C14 UNL     1      41.755  50.548   2.679  1.00  0.00    -0.033 A 
HETATM   17  C15 UNL     1      41.247  49.832   1.617  1.00  0.00     0.014 A 
HETATM   18  C16 UNL     1      42.037  49.144   0.732  1.00  0.00     0.040 A 
HETATM   19  C17 UNL     1      43.438  49.135   0.871  1.00  0.00     0.136 A 
HETATM   20  C18 UNL     1      43.956  49.842   1.922  1.00  0.00     0.099 A 
HETATM   21  C19 UNL     1      43.128  50.538   2.812  1.00  0.00     0.050 A 
BRANCH  19  22
HETATM   22  N1  UNL     1      44.172  48.399  -0.078  1.00  0.00    -0.113 N 
HETATM   23  O2  UNL     1      45.363  48.583  -0.372  1.00  0.00    -0.532 OA
HETATM   24  O3  UNL     1      43.563  47.374  -0.813  1.00  0.00    -0.532 OA
ENDBRANCH  19  22
BRANCH  20  25
HETATM   25  O4  UNL     1      45.333  49.887   2.139  1.00  0.00    -0.358 OA
ATOM     26  H4  UNL     1      45.817  50.695   2.013  1.00  0.00     0.217 HD
ENDBRANCH  20  25
ENDBRANCH  15  16
ENDBRANCH  12  14
ENDBRANCH  10  12
ENDBRANCH   3   6
TORSDOF 6
ENDMDL
MODEL 3
REMARK VINA RESULT: -7.981324198      4.259      9.216
REMARK  6 active torsions:
REMARK  status: ('A' for Active; 'I' for Inactive)
REMARK    1  A    between atoms: C3_3  and  C6_6 
REMARK    2  A    between atoms: C10_10  and  C11_11 
REMARK    3  A    between atoms: C11_11  and  C12_13 
REMARK    4  A    between atoms: C13_14  and  C14_15 
REMARK    5  A    between atoms: C17_18  and  N1_19 
REMARK    6  A    between atoms: C18_22  and  O4_23 
ROOT
HETATM    1  C1  UNL     1      27.288  56.400  -2.197  1.00  0.00     0.013 C 
HETATM    2  C2  UNL     1      27.480  55.274  -1.777  1.00  0.00    -0.103 C 
HETATM    3  C3  UNL     1      27.734  53.943  -1.262  1.00  0.00     0.049 C 
HETATM    4  C4  UNL     1      26.892  53.602  -0.056  1.00  0.00     0.034 C 
HETATM    5  C5  UNL     1      27.557  52.872  -2.293  1.00  0.00     0.034 C 
ENDROOT
BRANCH   3   6
HETATM    6  C6  UNL     1      29.172  53.921  -0.807  1.00  0.00     0.004 A 
HETATM    7  C7  UNL     1      29.805  54.790   0.032  1.00  0.00     0.024 A 
HETATM    8  C8  UNL     1      31.118  54.571   0.296  1.00  0.00    -0.040 A 
HETATM    9  C9  UNL     1      31.901  55.517   1.210  1.00  0.00     0.049 C 
HETATM   10  C10 UNL     1      31.712  53.499  -0.293  1.00  0.00     0.061 A 
HETATM   11  S1  UNL     1      30.399  52.823  -1.210  1.00  0.00    -0.088 SA
BRANCH  10  12
HETATM   12  C11 UNL     1      33.042  52.916  -0.250  1.00  0.00     0.189 C 
HETATM   13  O1  UNL     1      33.274  51.961  -1.089  1.00  0.00    -0.287 OA
BRANCH  12  14
HETATM   14  C12 UNL     1      34.147  53.242   0.597  1.00  0.00     0.057 C 
HETATM   15  C13 UNL     1      34.183  52.815   1.858  1.00  0.00     0.015 C 
BRANCH  15  16
HETATM   16  C14 UNL     1      35.218  53.066   2.806  1.00  0.00    -0.033 A 
HETATM   17  C15 UNL     1      36.546  52.904   2.473  1.00  0.00     0.014 A 
HETATM   18  C16 UNL     1      37.572  53.132   3.354  1.00  0.00     0.040 A 
HETATM   19  C17 UNL     1      37.311  53.552   4.672  1.00  0.00     0.136 A 
HETATM   20  C18 UNL     1      35.996  53.717   5.017  1.00  0.00     0.099 A 
HETATM   21  C19 UNL     1      34.967  53.479   4.098  1.00  0.00     0.050 A 
BRANCH  19  22
HETATM   22  N1  UNL     1      38.423  53.758   5.511  1.00  0.00    -0.113 N 
HETATM   23  O2  UNL     1      38.393  54.283   6.634  1.00  0.00    -0.532 OA
HETATM   24  O3  UNL     1      39.708  53.387   5.097  1.00  0.00    -0.532 OA
ENDBRANCH  19  22
BRANCH  20  25
HETATM   25  O4  UNL     1      35.645  54.128   6.302  1.00  0.00    -0.358 OA
ATOM     26  H4  UNL     1      34.812  54.557   6.462  1.00  0.00     0.217 HD
ENDBRANCH  20  25
ENDBRANCH  15  16
ENDBRANCH  12  14
ENDBRANCH  10  12
ENDBRANCH   3   6
TORSDOF 6
ENDMDL
MODEL 4
REMARK VINA RESULT: -7.975853167      4.928      9.340
REMARK  6 active torsions:
REMARK  status: ('A' for Active; 'I' for Inactive)
REMARK    1  A    between atoms: C3_3  and  C6_6 
REMARK    2  A    between atoms: C10_10  and  C11_11 
REMARK    3  A    between atoms: C11_11  and  C12_13 
REMARK    4  A    between atoms: C13_14  and  C14_15 
REMARK    5  A    between atoms: C17_18  and  N1_19 
REMARK    6  A    between atoms: C18_22  and  O4_23 
ROOT
HETATM    1  C1  UNL     1      31.594  52.044  -0.810  1.00  0.00     0.013 C 
HETATM    2  C2  UNL     1      31.606  53.178  -0.368  1.00  0.00    -0.103 C 
HETATM    3  C3  UNL     1      31.642  54.520   0.177  1.00  0.00     0.049 C 
HETATM    4  C4  UNL     1      32.408  55.492  -0.686  1.00  0.00     0.034 C 
HETATM    5  C5  UNL     1      30.280  55.082   0.444  1.00  0.00     0.034 C 
ENDROOT
BRANCH   3   6
HETATM    6  C6  UNL     1      32.378  54.435   1.491  1.00  0.00     0.004 A 
HETATM    7  C7  UNL     1      32.225  55.220   2.595  1.00  0.00     0.024 A 
HETATM    8  C8  UNL     1      33.009  54.958   3.672  1.00  0.00    -0.040 A 
HETATM    9  C9  UNL     1      32.911  55.811   4.939  1.00  0.00     0.049 C 
HETATM   10  C10 UNL     1      33.893  53.929   3.575  1.00  0.00     0.061 A 
HETATM   11  S1  UNL     1      33.596  53.354   1.962  1.00  0.00    -0.088 SA
BRANCH  10  12
HETATM   12  C11 UNL     1      34.857  53.322   4.476  1.00  0.00     0.189 C 
HETATM   13  O1  UNL     1      34.694  53.568   5.735  1.00  0.00    -0.287 OA
BRANCH  12  14
HETATM   14  C12 UNL     1      35.977  52.486   4.176  1.00  0.00     0.057 C 
HETATM   15  C13 UNL     1      37.104  53.010   3.698  1.00  0.00     0.015 C 
BRANCH  15  16
HETATM   16  C14 UNL     1      38.290  52.294   3.356  1.00  0.00    -0.033 A 
HETATM   17  C15 UNL     1      38.340  51.487   2.240  1.00  0.00     0.014 A 
HETATM   18  C16 UNL     1      39.458  50.780   1.877  1.00  0.00     0.040 A 
HETATM   19  C17 UNL     1      40.635  50.847   2.645  1.00  0.00     0.136 A 
HETATM   20  C18 UNL     1      40.599  51.645   3.757  1.00  0.00     0.099 A 
HETATM   21  C19 UNL     1      39.446  52.358   4.106  1.00  0.00     0.050 A 
BRANCH  19  22
HETATM   22  N1  UNL     1      41.733  50.086   2.203  1.00  0.00    -0.113 N 
HETATM   23  O2  UNL     1      41.685  49.155   1.384  1.00  0.00    -0.532 OA
HETATM   24  O3  UNL     1      43.017  50.325   2.707  1.00  0.00    -0.532 OA
ENDBRANCH  19  22
BRANCH  20  25
HETATM   25  O4  UNL     1      41.719  51.769   4.579  1.00  0.00    -0.358 OA
ATOM     26  H4  UNL     1      41.817  52.520   5.153  1.00  0.00     0.217 HD
ENDBRANCH  20  25
ENDBRANCH  15  16
ENDBRANCH  12  14
ENDBRANCH  10  12
ENDBRANCH   3   6
TORSDOF 6
ENDMDL
MODEL 5
REMARK VINA RESULT: -7.965784705      1.154      1.411
REMARK  6 active torsions:
REMARK  status: ('A' for Active; 'I' for Inactive)
REMARK    1  A    between atoms: C3_3  and  C6_6 
REMARK    2  A    between atoms: C10_10  and  C11_11 
REMARK    3  A    between atoms: C11_11  and  C12_13 
REMARK    4  A    between atoms: C13_14  and  C14_15 
REMARK    5  A    between atoms: C17_18  and  N1_19 
REMARK    6  A    between atoms: C18_22  and  O4_23 
ROOT
HETATM    1  C1  UNL     1      40.305  53.278   5.251  1.00  0.00     0.013 C 
HETATM    2  C2  UNL     1      39.122  53.551   5.345  1.00  0.00    -0.103 C 
HETATM    3  C3  UNL     1      37.708  53.851   5.440  1.00  0.00     0.049 C 
HETATM    4  C4  UNL     1      37.081  53.363   6.723  1.00  0.00     0.034 C 
HETATM    5  C5  UNL     1      37.407  55.310   5.281  1.00  0.00     0.034 C 
ENDROOT
BRANCH   3   6
HETATM    6  C6  UNL     1      37.030  53.109   4.317  1.00  0.00     0.004 A 
HETATM    7  C7  UNL     1      37.594  52.282   3.391  1.00  0.00     0.024 A 
HETATM    8  C8  UNL     1      36.779  51.723   2.461  1.00  0.00    -0.040 A 
HETATM    9  C9  UNL     1      37.343  50.803   1.375  1.00  0.00     0.049 C 
HETATM   10  C10 UNL     1      35.454  52.025   2.517  1.00  0.00     0.061 A 
HETATM   11  S1  UNL     1      35.391  53.095   3.885  1.00  0.00    -0.088 SA
BRANCH  10  12
HETATM   12  C11 UNL     1      34.282  51.628   1.756  1.00  0.00     0.189 C 
HETATM   13  O1  UNL     1      34.228  50.386   1.399  1.00  0.00    -0.287 OA
BRANCH  12  14
HETATM   14  C12 UNL     1      33.167  52.415   1.333  1.00  0.00     0.057 C 
HETATM   15  C13 UNL     1      33.355  53.566   0.689  1.00  0.00     0.015 C 
BRANCH  15  16
HETATM   16  C14 UNL     1      32.337  54.446   0.215  1.00  0.00    -0.033 A 
HETATM   17  C15 UNL     1      32.585  55.789   0.030  1.00  0.00     0.014 A 
HETATM   18  C16 UNL     1      31.636  56.670  -0.421  1.00  0.00     0.040 A 
HETATM   19  C17 UNL     1      30.332  56.234  -0.723  1.00  0.00     0.136 A 
HETATM   20  C18 UNL     1      30.072  54.901  -0.544  1.00  0.00     0.099 A 
HETATM   21  C19 UNL     1      31.060  54.022  -0.083  1.00  0.00     0.050 A 
BRANCH  19  22
HETATM   22  N1  UNL     1      29.420  57.205  -1.175  1.00  0.00    -0.113 N 
HETATM   23  O2  UNL     1      29.101  58.238  -0.565  1.00  0.00    -0.532 OA
HETATM   24  O3  UNL     1      28.755  57.047  -2.397  1.00  0.00    -0.532 OA
ENDBRANCH  19  22
BRANCH  20  25
HETATM   25  O4  UNL     1      28.807  54.381  -0.816  1.00  0.00    -0.358 OA
ATOM     26  H4  UNL     1      28.507  53.589  -0.385  1.00  0.00     0.217 HD
ENDBRANCH  20  25
ENDBRANCH  15  16
ENDBRANCH  12  14
ENDBRANCH  10  12
ENDBRANCH   3   6
TORSDOF 6
ENDMDL
