MODEL 1
REMARK VINA RESULT: -8.972550617      0.000      0.000
REMARK  7 active torsions:
REMARK  status: ('A' for Active; 'I' for Inactive)
REMARK    1  A    between atoms: C1_2  and  O2_3 
REMARK    2  A    between atoms: C1_2  and  C15_24 
REMARK    3  A    between atoms: O2_3  and  C2_4 
REMARK    4  A    between atoms: C7_9  and  N1_10 
REMARK    5  A    between atoms: N2_12  and  C8_14 
REMARK    6  A    between atoms: C8_14  and  N3_16 
REMARK    7  A    between atoms: N3_16  and  C9_18 
ROOT
HETATM    1  C2  UNL     1      33.273  53.992   3.098  1.00  0.00     0.107 A 
HETATM    2  C3  UNL     1      32.567  55.090   3.543  1.00  0.00     0.040 A 
HETATM    3  C4  UNL     1      33.001  55.729   4.704  1.00  0.00     0.003 A 
HETATM    4  C5  UNL     1      34.105  55.300   5.412  1.00  0.00     0.002 A 
HETATM    5  C6  UNL     1      34.794  54.193   4.938  1.00  0.00     0.034 A 
HETATM    6  C7  UNL     1      34.379  53.541   3.786  1.00  0.00     0.082 A 
ENDROOT
BRANCH   6   7
HETATM    7  N1  UNL     1      35.132  52.413   3.358  1.00  0.00    -0.296 N 
HETATM    8  N2  UNL     1      35.749  52.532   2.250  1.00  0.00    -0.276 N 
ATOM      9  H2  UNL     1      35.683  53.405   1.727  1.00  0.00     0.189 HD
ATOM     10  H1  UNL     1      35.176  51.555   3.909  1.00  0.00     0.187 HD
BRANCH   8  11
HETATM   11  C8  UNL     1      36.542  51.443   1.727  1.00  0.00     0.191 C 
HETATM   12  S1  UNL     1      35.721  50.145   1.243  1.00  0.00    -0.039 SA
BRANCH  11  13
HETATM   13  N3  UNL     1      37.916  51.590   1.651  1.00  0.00    -0.332 N 
ATOM     14  H3  UNL     1      38.307  51.492   0.714  1.00  0.00     0.168 HD
BRANCH  13  15
HETATM   15  C9  UNL     1      38.858  51.853   2.664  1.00  0.00     0.034 A 
HETATM   16  C10 UNL     1      38.740  52.849   3.599  1.00  0.00     0.029 A 
HETATM   17  C11 UNL     1      39.698  53.044   4.605  1.00  0.00     0.002 A 
HETATM   18  C12 UNL     1      40.808  52.242   4.705  1.00  0.00     0.000 A 
HETATM   19  C13 UNL     1      40.927  51.242   3.764  1.00  0.00     0.002 A 
HETATM   20  C14 UNL     1      40.003  51.038   2.777  1.00  0.00     0.029 A 
ENDBRANCH  13  15
ENDBRANCH  11  13
ENDBRANCH   8  11
ENDBRANCH   6   7
BRANCH   1  21
HETATM   21  O2  UNL     1      32.889  53.327   1.963  1.00  0.00    -0.271 OA
BRANCH  21  22
HETATM   22  C1  UNL     1      32.815  53.890   0.708  1.00  0.00     0.315 C 
HETATM   23  O1  UNL     1      33.784  53.781  -0.064  1.00  0.00    -0.257 OA
BRANCH  22  24
HETATM   24  C15 UNL     1      31.618  54.615   0.258  1.00  0.00     0.108 A 
HETATM   25  C16 UNL     1      31.713  55.887  -0.267  1.00  0.00     0.036 A 
HETATM   26  C17 UNL     1      30.587  56.590  -0.700  1.00  0.00     0.004 A 
HETATM   27  C18 UNL     1      29.356  55.987  -0.594  1.00  0.00     0.017 A 
HETATM   28  C19 UNL     1      29.282  54.711  -0.062  1.00  0.00     0.088 A 
HETATM   29  N4  UNL     1      30.395  54.068   0.343  1.00  0.00    -0.361 N 
ATOM     30  H4  UNL     1      30.305  53.128   0.730  1.00  0.00     0.165 HD
ENDBRANCH  22  24
ENDBRANCH  21  22
ENDBRANCH   1  21
TORSDOF 7
ENDMDL
MODEL 2
REMARK VINA RESULT: -8.635535139      2.816      5.987
REMARK  7 active torsions:
REMARK  status: ('A' for Active; 'I' for Inactive)
REMARK    1  A    between atoms: C1_2  and  O2_3 
REMARK    2  A    between atoms: C1_2  and  C15_24 
REMARK    3  A    between atoms: O2_3  and  C2_4 
REMARK    4  A    between atoms: C7_9  and  N1_10 
REMARK    5  A    between atoms: N2_12  and  C8_14 
REMARK    6  A    between atoms: C8_14  and  N3_16 
REMARK    7  A    between atoms: N3_16  and  C9_18 
ROOT
HETATM    1  C2  UNL     1      38.546  52.733   3.588  1.00  0.00     0.107 A 
HETATM    2  C3  UNL     1      39.048  53.482   4.632  1.00  0.00     0.040 A 
HETATM    3  C4  UNL     1      40.344  53.214   5.072  1.00  0.00     0.003 A 
HETATM    4  C5  UNL     1      41.129  52.233   4.501  1.00  0.00     0.002 A 
HETATM    5  C6  UNL     1      40.594  51.498   3.452  1.00  0.00     0.034 A 
HETATM    6  C7  UNL     1      39.307  51.747   2.998  1.00  0.00     0.082 A 
ENDROOT
BRANCH   6   7
HETATM    7  N1  UNL     1      38.822  50.955   1.921  1.00  0.00    -0.296 N 
HETATM    8  N2  UNL     1      37.993  50.036   2.223  1.00  0.00    -0.276 N 
ATOM      9  H2  UNL     1      37.716  49.906   3.196  1.00  0.00     0.189 HD
ATOM     10  H1  UNL     1      39.121  51.115   0.959  1.00  0.00     0.187 HD
BRANCH   8  11
HETATM   11  C8  UNL     1      37.442  49.177   1.201  1.00  0.00     0.191 C 
HETATM   12  S1  UNL     1      38.505  48.524   0.182  1.00  0.00    -0.039 SA
BRANCH  11  13
HETATM   13  N3  UNL     1      36.076  48.951   1.179  1.00  0.00    -0.332 N 
ATOM     14  H3  UNL     1      35.765  48.147   1.722  1.00  0.00     0.168 HD
BRANCH  13  15
HETATM   15  C9  UNL     1      35.051  49.659   0.524  1.00  0.00     0.034 A 
HETATM   16  C10 UNL     1      34.857  51.013   0.615  1.00  0.00     0.029 A 
HETATM   17  C11 UNL     1      33.833  51.668  -0.087  1.00  0.00     0.002 A 
HETATM   18  C12 UNL     1      32.970  50.981  -0.905  1.00  0.00     0.000 A 
HETATM   19  C13 UNL     1      33.165  49.620  -0.995  1.00  0.00     0.002 A 
HETATM   20  C14 UNL     1      34.156  48.966  -0.318  1.00  0.00     0.029 A 
ENDBRANCH  13  15
ENDBRANCH  11  13
ENDBRANCH   8  11
ENDBRANCH   6   7
BRANCH   1  21
HETATM   21  O2  UNL     1      37.277  52.955   3.117  1.00  0.00    -0.271 OA
BRANCH  21  22
HETATM   22  C1  UNL     1      36.121  52.588   3.768  1.00  0.00     0.315 C 
HETATM   23  O1  UNL     1      36.009  51.426   4.198  1.00  0.00    -0.257 OA
BRANCH  22  24
HETATM   24  C15 UNL     1      35.015  53.536   3.968  1.00  0.00     0.108 A 
HETATM   25  C16 UNL     1      35.017  54.417   5.030  1.00  0.00     0.036 A 
HETATM   26  C17 UNL     1      33.976  55.325   5.234  1.00  0.00     0.004 A 
HETATM   27  C18 UNL     1      32.926  55.331   4.347  1.00  0.00     0.017 A 
HETATM   28  C19 UNL     1      32.943  54.439   3.288  1.00  0.00     0.088 A 
HETATM   29  N4  UNL     1      33.969  53.578   3.128  1.00  0.00    -0.361 N 
ATOM     30  H4  UNL     1      33.949  52.935   2.337  1.00  0.00     0.165 HD
ENDBRANCH  22  24
ENDBRANCH  21  22
ENDBRANCH   1  21
TORSDOF 7
ENDMDL
MODEL 3
REMARK VINA RESULT: -8.594289603      3.360      8.117
REMARK  7 active torsions:
REMARK  status: ('A' for Active; 'I' for Inactive)
REMARK    1  A    between atoms: C1_2  and  O2_3 
REMARK    2  A    between atoms: C1_2  and  C15_24 
REMARK    3  A    between atoms: O2_3  and  C2_4 
REMARK    4  A    between atoms: C7_9  and  N1_10 
REMARK    5  A    between atoms: N2_12  and  C8_14 
REMARK    6  A    between atoms: C8_14  and  N3_16 
REMARK    7  A    between atoms: N3_16  and  C9_18 
ROOT
HETATM    1  C2  UNL     1      39.255  49.120   1.186  1.00  0.00     0.107 A 
HETATM    2  C3  UNL     1      40.612  49.180   0.949  1.00  0.00     0.040 A 
HETATM    3  C4  UNL     1      41.117  48.511  -0.166  1.00  0.00     0.003 A 
HETATM    4  C5  UNL     1      40.307  47.800  -1.028  1.00  0.00     0.002 A 
HETATM    5  C6  UNL     1      38.946  47.761  -0.761  1.00  0.00     0.034 A 
HETATM    6  C7  UNL     1      38.422  48.418   0.342  1.00  0.00     0.082 A 
ENDROOT
BRANCH   6   7
HETATM    7  N1  UNL     1      37.018  48.334   0.556  1.00  0.00    -0.296 N 
HETATM    8  N2  UNL     1      36.343  49.382   0.295  1.00  0.00    -0.276 N 
ATOM      9  H2  UNL     1      36.820  50.217  -0.046  1.00  0.00     0.189 HD
ATOM     10  H1  UNL     1      36.576  47.481   0.898  1.00  0.00     0.187 HD
BRANCH   8  11
HETATM   11  C8  UNL     1      34.910  49.400   0.478  1.00  0.00     0.191 C 
HETATM   12  S1  UNL     1      34.031  49.027  -0.818  1.00  0.00    -0.039 SA
BRANCH  11  13
HETATM   13  N3  UNL     1      34.397  49.701   1.728  1.00  0.00    -0.332 N 
ATOM     14  H3  UNL     1      33.930  48.926   2.198  1.00  0.00     0.168 HD
BRANCH  13  15
HETATM   15  C9  UNL     1      34.420  50.908   2.452  1.00  0.00     0.034 A 
HETATM   16  C10 UNL     1      35.107  51.102   3.623  1.00  0.00     0.029 A 
HETATM   17  C11 UNL     1      35.117  52.341   4.283  1.00  0.00     0.002 A 
HETATM   18  C12 UNL     1      34.437  53.425   3.788  1.00  0.00     0.000 A 
HETATM   19  C13 UNL     1      33.746  53.229   2.612  1.00  0.00     0.002 A 
HETATM   20  C14 UNL     1      33.724  52.030   1.955  1.00  0.00     0.029 A 
ENDBRANCH  13  15
ENDBRANCH  11  13
ENDBRANCH   8  11
ENDBRANCH   6   7
BRANCH   1  21
HETATM   21  O2  UNL     1      38.706  49.759   2.269  1.00  0.00    -0.271 OA
BRANCH  21  22
HETATM   22  C1  UNL     1      38.561  51.123   2.387  1.00  0.00     0.315 C 
HETATM   23  O1  UNL     1      37.795  51.722   1.611  1.00  0.00    -0.257 OA
BRANCH  22  24
HETATM   24  C15 UNL     1      39.290  51.890   3.408  1.00  0.00     0.108 A 
HETATM   25  C16 UNL     1      38.725  52.999   4.003  1.00  0.00     0.036 A 
HETATM   26  C17 UNL     1      39.402  53.738   4.975  1.00  0.00     0.004 A 
HETATM   27  C18 UNL     1      40.666  53.339   5.340  1.00  0.00     0.017 A 
HETATM   28  C19 UNL     1      41.216  52.224   4.731  1.00  0.00     0.088 A 
HETATM   29  N4  UNL     1      40.527  51.539   3.796  1.00  0.00    -0.361 N 
ATOM     30  H4  UNL     1      40.961  50.722   3.368  1.00  0.00     0.165 HD
ENDBRANCH  22  24
ENDBRANCH  21  22
ENDBRANCH   1  21
TORSDOF 7
ENDMDL
MODEL 4
REMARK VINA RESULT: -8.590598993      2.778      6.092
REMARK  7 active torsions:
REMARK  status: ('A' for Active; 'I' for Inactive)
REMARK    1  A    between atoms: C1_2  and  O2_3 
REMARK    2  A    between atoms: C1_2  and  C15_24 
REMARK    3  A    between atoms: O2_3  and  C2_4 
REMARK    4  A    between atoms: C7_9  and  N1_10 
REMARK    5  A    between atoms: N2_12  and  C8_14 
REMARK    6  A    between atoms: C8_14  and  N3_16 
REMARK    7  A    between atoms: N3_16  and  C9_18 
ROOT
HETATM    1  C2  UNL     1      34.858  53.603   4.155  1.00  0.00     0.107 A 
HETATM    2  C3  UNL     1      34.777  54.391   5.284  1.00  0.00     0.040 A 
HETATM    3  C4  UNL     1      33.727  55.304   5.379  1.00  0.00     0.003 A 
HETATM    4  C5  UNL     1      32.777  55.440   4.388  1.00  0.00     0.002 A 
HETATM    5  C6  UNL     1      32.886  54.633   3.264  1.00  0.00     0.034 A 
HETATM    6  C7  UNL     1      33.923  53.718   3.148  1.00  0.00     0.082 A 
ENDROOT
BRANCH   6   7
HETATM    7  N1  UNL     1      33.974  52.923   1.970  1.00  0.00    -0.296 N 
HETATM    8  N2  UNL     1      34.056  51.664   2.141  1.00  0.00    -0.276 N 
ATOM      9  H2  UNL     1      34.082  51.283   3.087  1.00  0.00     0.189 HD
ATOM     10  H1  UNL     1      33.946  53.340   1.039  1.00  0.00     0.187 HD
BRANCH   8  11
HETATM   11  C8  UNL     1      34.114  50.769   1.008  1.00  0.00     0.191 C 
HETATM   12  S1  UNL     1      33.396  51.290  -0.337  1.00  0.00    -0.039 SA
BRANCH  11  13
HETATM   13  N3  UNL     1      34.787  49.567   1.136  1.00  0.00    -0.332 N 
ATOM     14  H3  UNL     1      34.194  48.761   1.332  1.00  0.00     0.168 HD
BRANCH  13  15
HETATM   15  C9  UNL     1      36.162  49.282   1.037  1.00  0.00     0.034 A 
HETATM   16  C10 UNL     1      37.078  49.506   2.033  1.00  0.00     0.029 A 
HETATM   17  C11 UNL     1      38.434  49.172   1.887  1.00  0.00     0.002 A 
HETATM   18  C12 UNL     1      38.913  48.602   0.734  1.00  0.00     0.000 A 
HETATM   19  C13 UNL     1      37.992  48.378  -0.267  1.00  0.00     0.002 A 
HETATM   20  C14 UNL     1      36.669  48.697  -0.142  1.00  0.00     0.029 A 
ENDBRANCH  13  15
ENDBRANCH  11  13
ENDBRANCH   8  11
ENDBRANCH   6   7
BRANCH   1  21
HETATM   21  O2  UNL     1      35.870  52.690   4.011  1.00  0.00    -0.271 OA
BRANCH  21  22
HETATM   22  C1  UNL     1      37.052  52.925   3.344  1.00  0.00     0.315 C 
HETATM   23  O1  UNL     1      37.031  53.100   2.114  1.00  0.00    -0.257 OA
BRANCH  22  24
HETATM   24  C15 UNL     1      38.340  52.974   4.053  1.00  0.00     0.108 A 
HETATM   25  C16 UNL     1      39.440  52.291   3.577  1.00  0.00     0.036 A 
HETATM   26  C17 UNL     1      40.670  52.328   4.237  1.00  0.00     0.004 A 
HETATM   27  C18 UNL     1      40.774  53.066   5.392  1.00  0.00     0.017 A 
HETATM   28  C19 UNL     1      39.658  53.743   5.854  1.00  0.00     0.088 A 
HETATM   29  N4  UNL     1      38.489  53.681   5.185  1.00  0.00    -0.361 N 
ATOM     30  H4  UNL     1      37.686  54.192   5.552  1.00  0.00     0.165 HD
ENDBRANCH  22  24
ENDBRANCH  21  22
ENDBRANCH   1  21
TORSDOF 7
ENDMDL
MODEL 5
REMARK VINA RESULT: -8.578651948      3.048      5.520
REMARK  7 active torsions:
REMARK  status: ('A' for Active; 'I' for Inactive)
REMARK    1  A    between atoms: C1_2  and  O2_3 
REMARK    2  A    between atoms: C1_2  and  C15_24 
REMARK    3  A    between atoms: O2_3  and  C2_4 
REMARK    4  A    between atoms: C7_9  and  N1_10 
REMARK    5  A    between atoms: N2_12  and  C8_14 
REMARK    6  A    between atoms: C8_14  and  N3_16 
REMARK    7  A    between atoms: N3_16  and  C9_18 
ROOT
HETATM    1  C2  UNL     1      35.951  49.672   0.852  1.00  0.00     0.107 A 
HETATM    2  C3  UNL     1      34.717  49.584   0.244  1.00  0.00     0.040 A 
HETATM    3  C4  UNL     1      34.505  48.556  -0.675  1.00  0.00     0.003 A 
HETATM    4  C5  UNL     1      35.484  47.636  -0.990  1.00  0.00     0.002 A 
HETATM    5  C6  UNL     1      36.715  47.752  -0.360  1.00  0.00     0.034 A 
HETATM    6  C7  UNL     1      36.948  48.767   0.557  1.00  0.00     0.082 A 
ENDROOT
BRANCH   6   7
HETATM    7  N1  UNL     1      38.233  48.827   1.164  1.00  0.00    -0.296 N 
HETATM    8  N2  UNL     1      39.012  49.744   0.747  1.00  0.00    -0.276 N 
ATOM      9  H2  UNL     1      38.696  50.382   0.017  1.00  0.00     0.189 HD
ATOM     10  H1  UNL     1      38.514  48.172   1.893  1.00  0.00     0.187 HD
BRANCH   8  11
HETATM   11  C8  UNL     1      40.339  49.890   1.299  1.00  0.00     0.191 C 
HETATM   12  S1  UNL     1      41.555  49.754   0.252  1.00  0.00    -0.039 SA
BRANCH  11  13
HETATM   13  N3  UNL     1      40.479  50.159   2.650  1.00  0.00    -0.332 N 
ATOM     14  H3  UNL     1      40.842  49.386   3.206  1.00  0.00     0.168 HD
BRANCH  13  15
HETATM   15  C9  UNL     1      40.198  51.332   3.375  1.00  0.00     0.034 A 
HETATM   16  C10 UNL     1      39.050  52.072   3.247  1.00  0.00     0.029 A 
HETATM   17  C11 UNL     1      38.813  53.218   4.022  1.00  0.00     0.002 A 
HETATM   18  C12 UNL     1      39.722  53.658   4.952  1.00  0.00     0.000 A 
HETATM   19  C13 UNL     1      40.875  52.914   5.079  1.00  0.00     0.002 A 
HETATM   20  C14 UNL     1      41.123  51.796   4.333  1.00  0.00     0.029 A 
ENDBRANCH  13  15
ENDBRANCH  11  13
ENDBRANCH   8  11
ENDBRANCH   6   7
BRANCH   1  21
HETATM   21  O2  UNL     1      36.212  50.664   1.762  1.00  0.00    -0.271 OA
BRANCH  21  22
HETATM   22  C1  UNL     1      35.567  50.813   2.969  1.00  0.00     0.315 C 
HETATM   23  O1  UNL     1      35.505  49.846   3.749  1.00  0.00    -0.257 OA
BRANCH  22  24
HETATM   24  C15 UNL     1      34.949  52.089   3.360  1.00  0.00     0.108 A 
HETATM   25  C16 UNL     1      35.395  52.787   4.463  1.00  0.00     0.036 A 
HETATM   26  C17 UNL     1      34.821  54.000   4.847  1.00  0.00     0.004 A 
HETATM   27  C18 UNL     1      33.782  54.502   4.099  1.00  0.00     0.017 A 
HETATM   28  C19 UNL     1      33.349  53.786   2.996  1.00  0.00     0.088 A 
HETATM   29  N4  UNL     1      33.932  52.617   2.660  1.00  0.00    -0.361 N 
ATOM     30  H4  UNL     1      33.588  52.116   1.842  1.00  0.00     0.165 HD
ENDBRANCH  22  24
ENDBRANCH  21  22
ENDBRANCH   1  21
TORSDOF 7
ENDMDL
