MODEL 1
REMARK VINA RESULT: -7.962212970      0.000      0.000
REMARK  5 active torsions:
REMARK  status: ('A' for Active; 'I' for Inactive)
REMARK    1  A    between atoms: C7_7  and  O1_8 
REMARK    2  A    between atoms: C8_10  and  N1_11 
REMARK    3  A    between atoms: C9_13  and  C10_14 
REMARK    4  A    between atoms: C13_19  and  O2_20 
REMARK    5  A    between atoms: O2_20  and  C14_21 
ROOT
HETATM    1  C1  UNL     1      37.507  53.488   5.862  1.00  0.00     0.018 C 
HETATM    2  C2  UNL     1      36.384  53.822   5.578  1.00  0.00    -0.075 C 
HETATM    3  C3  UNL     1      35.033  54.256   5.227  1.00  0.00     0.053 A 
HETATM    4  C4  UNL     1      34.388  55.002   6.192  1.00  0.00     0.033 A 
HETATM    5  C5  UNL     1      33.121  55.482   5.934  1.00  0.00    -0.025 A 
HETATM    6  C6  UNL     1      32.433  56.285   6.980  1.00  0.00     0.051 C 
HETATM    7  C7  UNL     1      32.529  55.206   4.722  1.00  0.00     0.101 A 
HETATM    8  C8  UNL     1      33.168  54.465   3.761  1.00  0.00     0.101 A 
HETATM    9  C13 UNL     1      34.462  53.971   4.015  1.00  0.00     0.124 A 
ENDROOT
BRANCH   9  10
HETATM   10  O2  UNL     1      35.065  53.249   3.080  1.00  0.00    -0.306 OA
BRANCH  10  11
HETATM   11  C14 UNL     1      35.751  52.157   2.829  1.00  0.00     0.088 A 
HETATM   12  C15 UNL     1      36.993  52.253   2.183  1.00  0.00    -0.027 A 
HETATM   13  C16 UNL     1      37.554  53.583   1.852  1.00  0.00     0.051 C 
HETATM   14  C17 UNL     1      37.778  51.171   1.869  1.00  0.00     0.016 A 
HETATM   15  C18 UNL     1      37.361  49.924   2.189  1.00  0.00    -0.061 A 
HETATM   16  C19 UNL     1      38.202  48.747   1.853  1.00  0.00     0.048 C 
HETATM   17  C20 UNL     1      36.171  49.761   2.816  1.00  0.00     0.016 A 
HETATM   18  C21 UNL     1      35.369  50.871   3.135  1.00  0.00    -0.027 A 
HETATM   19  C22 UNL     1      34.092  50.628   3.792  1.00  0.00     0.051 C 
ENDBRANCH  10  11
ENDBRANCH   9  10
BRANCH   8  20
HETATM   20  N1  UNL     1      32.500  54.167   2.509  1.00  0.00    -0.363 N 
HETATM   21  C9  UNL     1      32.357  55.171   1.711  1.00  0.00     0.095 C 
ATOM     22  H1  UNL     1      32.169  53.231   2.275  1.00  0.00     0.165 HD
BRANCH  21  23
HETATM   23  C10 UNL     1      31.677  54.966   0.388  1.00  0.00     0.237 C 
HETATM   24  C11 UNL     1      31.727  53.566  -0.022  1.00  0.00     0.084 C 
HETATM   25  N2  UNL     1      31.756  52.456  -0.355  1.00  0.00    -0.195 NA
HETATM   26  C12 UNL     1      30.247  55.324   0.499  1.00  0.00     0.084 C 
HETATM   27  N3  UNL     1      29.130  55.584   0.585  1.00  0.00    -0.195 NA
ENDBRANCH  21  23
ENDBRANCH   8  20
BRANCH   7  28
HETATM   28  O1  UNL     1      31.253  55.700   4.480  1.00  0.00    -0.358 OA
ATOM     29  H1  UNL     1      31.146  56.384   3.830  1.00  0.00     0.217 HD
ENDBRANCH   7  28
TORSDOF 5
ENDMDL
MODEL 2
REMARK VINA RESULT: -7.930835126      3.355      7.266
REMARK  5 active torsions:
REMARK  status: ('A' for Active; 'I' for Inactive)
REMARK    1  A    between atoms: C7_7  and  O1_8 
REMARK    2  A    between atoms: C8_10  and  N1_11 
REMARK    3  A    between atoms: C9_13  and  C10_14 
REMARK    4  A    between atoms: C13_19  and  O2_20 
REMARK    5  A    between atoms: O2_20  and  C14_21 
ROOT
HETATM    1  C1  UNL     1      40.865  51.884   4.177  1.00  0.00     0.018 C 
HETATM    2  C2  UNL     1      40.457  51.155   3.309  1.00  0.00    -0.075 C 
HETATM    3  C3  UNL     1      39.970  50.245   2.274  1.00  0.00     0.053 A 
HETATM    4  C4  UNL     1      40.948  49.693   1.471  1.00  0.00     0.033 A 
HETATM    5  C5  UNL     1      40.584  48.797   0.489  1.00  0.00    -0.025 A 
HETATM    6  C6  UNL     1      41.645  48.207  -0.371  1.00  0.00     0.051 C 
HETATM    7  C7  UNL     1      39.255  48.474   0.329  1.00  0.00     0.101 A 
HETATM    8  C8  UNL     1      38.281  49.021   1.124  1.00  0.00     0.101 A 
HETATM    9  C13 UNL     1      38.643  49.936   2.131  1.00  0.00     0.124 A 
ENDROOT
BRANCH   9  10
HETATM   10  O2  UNL     1      37.690  50.464   2.888  1.00  0.00    -0.306 OA
BRANCH  10  11
HETATM   11  C14 UNL     1      36.694  51.318   2.937  1.00  0.00     0.088 A 
HETATM   12  C15 UNL     1      35.451  50.904   3.440  1.00  0.00    -0.027 A 
HETATM   13  C16 UNL     1      35.290  49.533   3.975  1.00  0.00     0.051 C 
HETATM   14  C17 UNL     1      34.349  51.718   3.521  1.00  0.00     0.016 A 
HETATM   15  C18 UNL     1      34.431  53.003   3.103  1.00  0.00    -0.061 A 
HETATM   16  C19 UNL     1      33.244  53.891   3.187  1.00  0.00     0.048 C 
HETATM   17  C20 UNL     1      35.603  53.467   2.608  1.00  0.00     0.016 A 
HETATM   18  C21 UNL     1      36.730  52.630   2.525  1.00  0.00    -0.027 A 
HETATM   19  C22 UNL     1      37.955  53.184   1.966  1.00  0.00     0.051 C 
ENDBRANCH  10  11
ENDBRANCH   9  10
BRANCH   8  20
HETATM   20  N1  UNL     1      36.888  48.683   0.905  1.00  0.00    -0.363 N 
HETATM   21  C9  UNL     1      36.291  49.378  -0.002  1.00  0.00     0.095 C 
ATOM     22  H1  UNL     1      36.415  47.948   1.431  1.00  0.00     0.165 HD
BRANCH  21  23
HETATM   23  C10 UNL     1      34.845  49.104  -0.304  1.00  0.00     0.237 C 
HETATM   24  C11 UNL     1      34.244  50.205  -1.051  1.00  0.00     0.084 C 
HETATM   25  N2  UNL     1      33.757  51.071  -1.648  1.00  0.00    -0.195 NA
HETATM   26  C12 UNL     1      34.730  47.902  -1.156  1.00  0.00     0.084 C 
HETATM   27  N3  UNL     1      34.636  46.977  -1.834  1.00  0.00    -0.195 NA
ENDBRANCH  21  23
ENDBRANCH   8  20
BRANCH   7  28
HETATM   28  O1  UNL     1      38.909  47.568  -0.667  1.00  0.00    -0.358 OA
ATOM     29  H1  UNL     1      38.096  47.084  -0.576  1.00  0.00     0.217 HD
ENDBRANCH   7  28
TORSDOF 5
ENDMDL
MODEL 3
REMARK VINA RESULT: -7.869276344      1.993      3.125
REMARK  5 active torsions:
REMARK  status: ('A' for Active; 'I' for Inactive)
REMARK    1  A    between atoms: C7_7  and  O1_8 
REMARK    2  A    between atoms: C8_10  and  N1_11 
REMARK    3  A    between atoms: C9_13  and  C10_14 
REMARK    4  A    between atoms: C13_19  and  O2_20 
REMARK    5  A    between atoms: O2_20  and  C14_21 
ROOT
HETATM    1  C1  UNL     1      38.178  54.149   6.786  1.00  0.00     0.018 C 
HETATM    2  C2  UNL     1      37.144  54.159   6.168  1.00  0.00    -0.075 C 
HETATM    3  C3  UNL     1      35.903  54.189   5.396  1.00  0.00     0.053 A 
HETATM    4  C4  UNL     1      35.135  55.324   5.566  1.00  0.00     0.033 A 
HETATM    5  C5  UNL     1      33.963  55.454   4.852  1.00  0.00    -0.025 A 
HETATM    6  C6  UNL     1      33.142  56.680   5.042  1.00  0.00     0.051 C 
HETATM    7  C7  UNL     1      33.584  54.452   3.988  1.00  0.00     0.101 A 
HETATM    8  C8  UNL     1      34.344  53.323   3.817  1.00  0.00     0.101 A 
HETATM    9  C13 UNL     1      35.544  53.182   4.541  1.00  0.00     0.124 A 
ENDROOT
BRANCH   9  10
HETATM   10  O2  UNL     1      36.266  52.082   4.372  1.00  0.00    -0.306 OA
BRANCH  10  11
HETATM   11  C14 UNL     1      37.027  51.401   3.546  1.00  0.00     0.088 A 
HETATM   12  C15 UNL     1      36.659  50.098   3.179  1.00  0.00    -0.027 A 
HETATM   13  C16 UNL     1      35.384  49.524   3.669  1.00  0.00     0.051 C 
HETATM   14  C17 UNL     1      37.392  49.305   2.332  1.00  0.00     0.016 A 
HETATM   15  C18 UNL     1      38.542  49.778   1.798  1.00  0.00    -0.061 A 
HETATM   16  C19 UNL     1      39.344  48.928   0.880  1.00  0.00     0.048 C 
HETATM   17  C20 UNL     1      38.955  51.030   2.109  1.00  0.00     0.016 A 
HETATM   18  C21 UNL     1      38.202  51.839   2.979  1.00  0.00    -0.027 A 
HETATM   19  C22 UNL     1      38.709  53.169   3.288  1.00  0.00     0.051 C 
ENDBRANCH  10  11
ENDBRANCH   9  10
BRANCH   8  20
HETATM   20  N1  UNL     1      33.898  52.274   2.923  1.00  0.00    -0.363 N 
HETATM   21  C9  UNL     1      34.047  52.524   1.666  1.00  0.00     0.095 C 
ATOM     22  H1  UNL     1      33.495  51.400   3.262  1.00  0.00     0.165 HD
BRANCH  21  23
HETATM   23  C10 UNL     1      33.614  51.499   0.656  1.00  0.00     0.237 C 
HETATM   24  C11 UNL     1      32.912  52.121  -0.462  1.00  0.00     0.084 C 
HETATM   25  N2  UNL     1      32.357  52.605  -1.357  1.00  0.00    -0.195 NA
HETATM   26  C12 UNL     1      34.801  50.825   0.088  1.00  0.00     0.084 C 
HETATM   27  N3  UNL     1      35.722  50.310  -0.371  1.00  0.00    -0.195 NA
ENDBRANCH  21  23
ENDBRANCH   8  20
BRANCH   7  28
HETATM   28  O1  UNL     1      32.399  54.602   3.277  1.00  0.00    -0.358 OA
ATOM     29  H1  UNL     1      32.346  54.236   2.402  1.00  0.00     0.217 HD
ENDBRANCH   7  28
TORSDOF 5
ENDMDL
MODEL 4
REMARK VINA RESULT: -7.844406602      2.423      4.913
REMARK  5 active torsions:
REMARK  status: ('A' for Active; 'I' for Inactive)
REMARK    1  A    between atoms: C7_7  and  O1_8 
REMARK    2  A    between atoms: C8_10  and  N1_11 
REMARK    3  A    between atoms: C9_13  and  C10_14 
REMARK    4  A    between atoms: C13_19  and  O2_20 
REMARK    5  A    between atoms: O2_20  and  C14_21 
ROOT
HETATM    1  C1  UNL     1      38.327  50.636   1.550  1.00  0.00     0.018 C 
HETATM    2  C2  UNL     1      38.169  51.366   2.496  1.00  0.00    -0.075 C 
HETATM    3  C3  UNL     1      37.987  52.276   3.626  1.00  0.00     0.053 A 
HETATM    4  C4  UNL     1      39.146  52.622   4.292  1.00  0.00     0.033 A 
HETATM    5  C5  UNL     1      39.074  53.503   5.350  1.00  0.00    -0.025 A 
HETATM    6  C6  UNL     1      40.328  53.871   6.061  1.00  0.00     0.051 C 
HETATM    7  C7  UNL     1      37.851  54.015   5.720  1.00  0.00     0.101 A 
HETATM    8  C8  UNL     1      36.698  53.672   5.062  1.00  0.00     0.101 A 
HETATM    9  C13 UNL     1      36.761  52.775   3.978  1.00  0.00     0.124 A 
ENDROOT
BRANCH   9  10
HETATM   10  O2  UNL     1      35.638  52.445   3.355  1.00  0.00    -0.306 OA
BRANCH  10  11
HETATM   11  C14 UNL     1      35.110  51.776   2.356  1.00  0.00     0.088 A 
HETATM   12  C15 UNL     1      34.935  50.388   2.467  1.00  0.00    -0.027 A 
HETATM   13  C16 UNL     1      35.281  49.699   3.731  1.00  0.00     0.051 C 
HETATM   14  C17 UNL     1      34.403  49.602   1.476  1.00  0.00     0.016 A 
HETATM   15  C18 UNL     1      34.009  50.166   0.310  1.00  0.00    -0.061 A 
HETATM   16  C19 UNL     1      33.433  49.324  -0.769  1.00  0.00     0.048 C 
HETATM   17  C20 UNL     1      34.149  51.502   0.138  1.00  0.00     0.016 A 
HETATM   18  C21 UNL     1      34.696  52.305   1.154  1.00  0.00    -0.027 A 
HETATM   19  C22 UNL     1      34.836  53.732   0.900  1.00  0.00     0.051 C 
ENDBRANCH  10  11
ENDBRANCH   9  10
BRANCH   8  20
HETATM   20  N1  UNL     1      35.424  54.206   5.500  1.00  0.00    -0.363 N 
HETATM   21  C9  UNL     1      35.031  55.267   4.880  1.00  0.00     0.095 C 
ATOM     22  H1  UNL     1      34.877  53.775   6.244  1.00  0.00     0.165 HD
BRANCH  21  23
HETATM   23  C10 UNL     1      33.723  55.899   5.260  1.00  0.00     0.237 C 
HETATM   24  C11 UNL     1      32.703  55.655   4.245  1.00  0.00     0.084 C 
HETATM   25  N2  UNL     1      31.884  55.463   3.447  1.00  0.00    -0.195 NA
HETATM   26  C12 UNL     1      33.223  55.298   6.514  1.00  0.00     0.084 C 
HETATM   27  N3  UNL     1      32.821  54.821   7.481  1.00  0.00    -0.195 NA
ENDBRANCH  21  23
ENDBRANCH   8  20
BRANCH   7  28
HETATM   28  O1  UNL     1      37.800  54.902   6.789  1.00  0.00    -0.358 OA
ATOM     29  H1  UNL     1      36.989  55.368   6.953  1.00  0.00     0.217 HD
ENDBRANCH   7  28
TORSDOF 5
ENDMDL
MODEL 5
REMARK VINA RESULT: -7.824291302      2.980      6.879
REMARK  5 active torsions:
REMARK  status: ('A' for Active; 'I' for Inactive)
REMARK    1  A    between atoms: C7_7  and  O1_8 
REMARK    2  A    between atoms: C8_10  and  N1_11 
REMARK    3  A    between atoms: C9_13  and  C10_14 
REMARK    4  A    between atoms: C13_19  and  O2_20 
REMARK    5  A    between atoms: O2_20  and  C14_21 
ROOT
HETATM    1  C1  UNL     1      41.139  50.695   3.766  1.00  0.00     0.018 C 
HETATM    2  C2  UNL     1      40.418  50.269   2.899  1.00  0.00    -0.075 C 
HETATM    3  C3  UNL     1      39.547  49.723   1.860  1.00  0.00     0.053 A 
HETATM    4  C4  UNL     1      40.202  49.133   0.798  1.00  0.00     0.033 A 
HETATM    5  C5  UNL     1      39.459  48.561  -0.214  1.00  0.00    -0.025 A 
HETATM    6  C6  UNL     1      40.173  47.927  -1.355  1.00  0.00     0.051 C 
HETATM    7  C7  UNL     1      38.085  48.592  -0.143  1.00  0.00     0.101 A 
HETATM    8  C8  UNL     1      37.432  49.178   0.910  1.00  0.00     0.101 A 
HETATM    9  C13 UNL     1      38.181  49.764   1.949  1.00  0.00     0.124 A 
ENDROOT
BRANCH   9  10
HETATM   10  O2  UNL     1      37.537  50.334   2.959  1.00  0.00    -0.306 OA
BRANCH  10  11
HETATM   11  C14 UNL     1      36.813  51.362   3.340  1.00  0.00     0.088 A 
HETATM   12  C15 UNL     1      35.501  51.155   3.792  1.00  0.00    -0.027 A 
HETATM   13  C16 UNL     1      34.965  49.779   3.903  1.00  0.00     0.051 C 
HETATM   14  C17 UNL     1      34.665  52.164   4.201  1.00  0.00     0.016 A 
HETATM   15  C18 UNL     1      35.101  53.446   4.183  1.00  0.00    -0.061 A 
HETATM   16  C19 UNL     1      34.203  54.545   4.623  1.00  0.00     0.048 C 
HETATM   17  C20 UNL     1      36.358  53.714   3.759  1.00  0.00     0.016 A 
HETATM   18  C21 UNL     1      37.212  52.679   3.339  1.00  0.00    -0.027 A 
HETATM   19  C22 UNL     1      38.546  53.035   2.877  1.00  0.00     0.051 C 
ENDBRANCH  10  11
ENDBRANCH   9  10
BRANCH   8  20
HETATM   20  N1  UNL     1      35.983  49.221   0.935  1.00  0.00    -0.363 N 
HETATM   21  C9  UNL     1      35.448  50.124   0.185  1.00  0.00     0.095 C 
ATOM     22  H1  UNL     1      35.427  48.584   1.505  1.00  0.00     0.165 HD
BRANCH  21  23
HETATM   23  C10 UNL     1      33.952  50.251   0.141  1.00  0.00     0.237 C 
HETATM   24  C11 UNL     1      33.547  51.547  -0.394  1.00  0.00     0.084 C 
HETATM   25  N2  UNL     1      33.213  52.572  -0.823  1.00  0.00    -0.195 NA
HETATM   26  C12 UNL     1      33.389  49.226  -0.763  1.00  0.00     0.084 C 
HETATM   27  N3  UNL     1      32.948  48.441  -1.479  1.00  0.00    -0.195 NA
ENDBRANCH  21  23
ENDBRANCH   8  20
BRANCH   7  28
HETATM   28  O1  UNL     1      37.355  48.010  -1.173  1.00  0.00    -0.358 OA
ATOM     29  H1  UNL     1      36.667  48.519  -1.585  1.00  0.00     0.217 HD
ENDBRANCH   7  28
TORSDOF 5
ENDMDL
