MODEL 1
REMARK VINA RESULT: -8.256125322      0.000      0.000
REMARK  6 active torsions:
REMARK  status: ('A' for Active; 'I' for Inactive)
REMARK    1  A    between atoms: C2_2  and  C15_23 
REMARK    2  A    between atoms: C3_3  and  C4_4 
REMARK    3  A    between atoms: C4_4  and  C5_5 
REMARK    4  A    between atoms: N2_8  and  N3_10 
REMARK    5  A    between atoms: N3_10  and  C7_12 
REMARK    6  A    between atoms: C10_17  and  C11_18 
ROOT
HETATM    1  C5  UNL     1      36.193  49.986   1.290  1.00  0.00     0.109 C 
HETATM    2  C6  UNL     1      37.041  48.979   0.718  1.00  0.00     0.115 C 
HETATM    3  N1  UNL     1      37.739  48.171   0.268  1.00  0.00    -0.190 NA
HETATM    4  N2  UNL     1      35.097  49.626   1.867  1.00  0.00    -0.292 N 
ATOM      5  H2  UNL     1      34.879  48.629   1.891  1.00  0.00     0.187 HD
ENDROOT
BRANCH   1   6
HETATM    6  C4  UNL     1      36.617  51.410   1.191  1.00  0.00     0.098 C 
BRANCH   6   7
HETATM    7  C3  UNL     1      37.811  51.617   2.045  1.00  0.00    -0.012 C 
HETATM    8  C2  UNL     1      37.813  52.408   3.086  1.00  0.00    -0.048 C 
HETATM    9  C1  UNL     1      36.573  53.142   3.445  1.00  0.00     0.049 C 
BRANCH   8  10
HETATM   10  C15 UNL     1      39.013  52.600   3.921  1.00  0.00     0.010 A 
HETATM   11  C16 UNL     1      40.217  51.957   3.827  1.00  0.00     0.020 A 
HETATM   12  C17 UNL     1      41.168  52.296   4.700  1.00  0.00     0.008 A 
HETATM   13  C18 UNL     1      40.863  53.263   5.623  1.00  0.00     0.050 A 
HETATM   14  S2  UNL     1      39.249  53.661   5.232  1.00  0.00    -0.102 SA
ENDBRANCH   8  10
ENDBRANCH   6   7
ENDBRANCH   1   6
BRANCH   4  15
HETATM   15  N3  UNL     1      34.202  50.490   2.452  1.00  0.00    -0.279 N 
ATOM     16  H3  UNL     1      34.048  50.438   3.459  1.00  0.00     0.189 HD
BRANCH  15  17
HETATM   17  C7  UNL     1      33.535  51.387   1.749  1.00  0.00     0.164 A 
HETATM   18  N4  UNL     1      32.883  51.189   0.603  1.00  0.00    -0.338 N 
HETATM   19  C8  UNL     1      32.275  52.205   0.044  1.00  0.00     0.021 A 
ATOM     20  H4  UNL     1      32.858  50.266   0.171  1.00  0.00     0.168 HD
HETATM   21  C9  UNL     1      31.497  52.110  -1.263  1.00  0.00     0.069 C 
HETATM   22  C10 UNL     1      32.352  53.415   0.681  1.00  0.00     0.016 A 
HETATM   23  S1  UNL     1      33.292  53.043   2.055  1.00  0.00    -0.054 SA
BRANCH  22  24
HETATM   24  C11 UNL     1      31.747  54.731   0.254  1.00  0.00    -0.016 C 
HETATM   25  C12 UNL     1      31.803  55.609   1.509  1.00  0.00     0.020 C 
HETATM   26  C13 UNL     1      30.313  54.576  -0.141  1.00  0.00     0.020 C 
HETATM   27  C14 UNL     1      32.562  55.408  -0.799  1.00  0.00     0.020 C 
ENDBRANCH  22  24
ENDBRANCH  15  17
ENDBRANCH   4  15
TORSDOF 6
ENDMDL
MODEL 2
REMARK VINA RESULT: -8.194324741      2.477      3.675
REMARK  6 active torsions:
REMARK  status: ('A' for Active; 'I' for Inactive)
REMARK    1  A    between atoms: C2_2  and  C15_23 
REMARK    2  A    between atoms: C3_3  and  C4_4 
REMARK    3  A    between atoms: C4_4  and  C5_5 
REMARK    4  A    between atoms: N2_8  and  N3_10 
REMARK    5  A    between atoms: N3_10  and  C7_12 
REMARK    6  A    between atoms: C10_17  and  C11_18 
ROOT
HETATM    1  C5  UNL     1      33.740  52.572   1.154  1.00  0.00     0.109 C 
HETATM    2  C6  UNL     1      34.178  51.247   0.816  1.00  0.00     0.115 C 
HETATM    3  N1  UNL     1      34.520  50.171   0.556  1.00  0.00    -0.190 NA
HETATM    4  N2  UNL     1      33.207  53.306   0.237  1.00  0.00    -0.292 N 
ATOM      5  H2  UNL     1      33.119  52.908  -0.698  1.00  0.00     0.187 HD
ENDROOT
BRANCH   1   6
HETATM    6  C4  UNL     1      33.924  53.044   2.554  1.00  0.00     0.098 C 
BRANCH   6   7
HETATM    7  C3  UNL     1      35.362  52.957   2.906  1.00  0.00    -0.012 C 
HETATM    8  C2  UNL     1      35.863  53.488   3.990  1.00  0.00    -0.048 C 
HETATM    9  C1  UNL     1      34.969  54.217   4.925  1.00  0.00     0.049 C 
BRANCH   8  10
HETATM   10  C15 UNL     1      37.297  53.389   4.320  1.00  0.00     0.010 A 
HETATM   11  C16 UNL     1      38.267  52.684   3.661  1.00  0.00     0.020 A 
HETATM   12  C17 UNL     1      39.509  52.741   4.146  1.00  0.00     0.008 A 
HETATM   13  C18 UNL     1      39.715  53.503   5.267  1.00  0.00     0.050 A 
HETATM   14  S2  UNL     1      38.155  54.111   5.601  1.00  0.00    -0.102 SA
ENDBRANCH   8  10
ENDBRANCH   6   7
ENDBRANCH   1   6
BRANCH   4  15
HETATM   15  N3  UNL     1      32.748  54.588   0.432  1.00  0.00    -0.279 N 
ATOM     16  H3  UNL     1      33.396  55.300   0.770  1.00  0.00     0.189 HD
BRANCH  15  17
HETATM   17  C7  UNL     1      31.494  54.924   0.195  1.00  0.00     0.164 A 
HETATM   18  N4  UNL     1      30.414  54.156   0.333  1.00  0.00    -0.338 N 
HETATM   19  C8  UNL     1      29.242  54.663   0.048  1.00  0.00     0.021 A 
ATOM     20  H4  UNL     1      30.498  53.191   0.654  1.00  0.00     0.168 HD
HETATM   21  C9  UNL     1      27.934  53.890   0.164  1.00  0.00     0.069 C 
HETATM   22  C10 UNL     1      29.204  55.965  -0.378  1.00  0.00     0.016 A 
HETATM   23  S1  UNL     1      30.853  56.403  -0.351  1.00  0.00    -0.054 SA
BRANCH  22  24
HETATM   24  C11 UNL     1      27.996  56.782  -0.767  1.00  0.00    -0.016 C 
HETATM   25  C12 UNL     1      28.484  58.235  -0.741  1.00  0.00     0.020 C 
HETATM   26  C13 UNL     1      26.892  56.645   0.233  1.00  0.00     0.020 C 
HETATM   27  C14 UNL     1      27.545  56.490  -2.161  1.00  0.00     0.020 C 
ENDBRANCH  22  24
ENDBRANCH  15  17
ENDBRANCH   4  15
TORSDOF 6
ENDMDL
MODEL 3
REMARK VINA RESULT: -8.136331022      2.196      3.408
REMARK  6 active torsions:
REMARK  status: ('A' for Active; 'I' for Inactive)
REMARK    1  A    between atoms: C2_2  and  C15_23 
REMARK    2  A    between atoms: C3_3  and  C4_4 
REMARK    3  A    between atoms: C4_4  and  C5_5 
REMARK    4  A    between atoms: N2_8  and  N3_10 
REMARK    5  A    between atoms: N3_10  and  C7_12 
REMARK    6  A    between atoms: C10_17  and  C11_18 
ROOT
HETATM    1  C5  UNL     1      34.105  52.498   2.020  1.00  0.00     0.109 C 
HETATM    2  C6  UNL     1      34.158  51.577   3.120  1.00  0.00     0.115 C 
HETATM    3  N1  UNL     1      34.214  50.844   4.016  1.00  0.00    -0.190 NA
HETATM    4  N2  UNL     1      32.980  53.057   1.728  1.00  0.00    -0.292 N 
ATOM      5  H2  UNL     1      32.169  52.817   2.298  1.00  0.00     0.187 HD
ENDROOT
BRANCH   1   6
HETATM    6  C4  UNL     1      35.357  52.767   1.260  1.00  0.00     0.098 C 
BRANCH   6   7
HETATM    7  C3  UNL     1      36.457  53.024   2.221  1.00  0.00    -0.012 C 
HETATM    8  C2  UNL     1      37.459  52.202   2.392  1.00  0.00    -0.048 C 
HETATM    9  C1  UNL     1      37.516  50.947   1.598  1.00  0.00     0.049 C 
BRANCH   8  10
HETATM   10  C15 UNL     1      38.543  52.477   3.353  1.00  0.00     0.010 A 
HETATM   11  C16 UNL     1      39.760  51.861   3.448  1.00  0.00     0.020 A 
HETATM   12  C17 UNL     1      40.590  52.279   4.407  1.00  0.00     0.008 A 
HETATM   13  C18 UNL     1      40.157  53.295   5.219  1.00  0.00     0.050 A 
HETATM   14  S2  UNL     1      38.597  53.625   4.609  1.00  0.00    -0.102 SA
ENDBRANCH   8  10
ENDBRANCH   6   7
ENDBRANCH   1   6
BRANCH   4  15
HETATM   15  N3  UNL     1      32.798  53.954   0.702  1.00  0.00    -0.279 N 
ATOM     16  H3  UNL     1      33.612  54.287   0.185  1.00  0.00     0.189 HD
BRANCH  15  17
HETATM   17  C7  UNL     1      31.600  54.397   0.367  1.00  0.00     0.164 A 
HETATM   18  N4  UNL     1      30.480  53.684   0.253  1.00  0.00    -0.338 N 
HETATM   19  C8  UNL     1      29.378  54.298  -0.094  1.00  0.00     0.021 A 
ATOM     20  H4  UNL     1      30.481  52.680   0.432  1.00  0.00     0.168 HD
HETATM   21  C9  UNL     1      28.034  53.597  -0.258  1.00  0.00     0.069 C 
HETATM   22  C10 UNL     1      29.450  55.648  -0.319  1.00  0.00     0.016 A 
HETATM   23  S1  UNL     1      31.098  55.976  -0.023  1.00  0.00    -0.054 SA
BRANCH  22  24
HETATM   24  C11 UNL     1      28.339  56.585  -0.725  1.00  0.00    -0.016 C 
HETATM   25  C12 UNL     1      28.982  57.976  -0.721  1.00  0.00     0.020 C 
HETATM   26  C13 UNL     1      27.225  56.585   0.273  1.00  0.00     0.020 C 
HETATM   27  C14 UNL     1      27.862  56.320  -2.116  1.00  0.00     0.020 C 
ENDBRANCH  22  24
ENDBRANCH  15  17
ENDBRANCH   4  15
TORSDOF 6
ENDMDL
MODEL 4
REMARK VINA RESULT: -8.107237982      2.743      4.084
REMARK  6 active torsions:
REMARK  status: ('A' for Active; 'I' for Inactive)
REMARK    1  A    between atoms: C2_2  and  C15_23 
REMARK    2  A    between atoms: C3_3  and  C4_4 
REMARK    3  A    between atoms: C4_4  and  C5_5 
REMARK    4  A    between atoms: N2_8  and  N3_10 
REMARK    5  A    between atoms: N3_10  and  C7_12 
REMARK    6  A    between atoms: C10_17  and  C11_18 
ROOT
HETATM    1  C5  UNL     1      33.964  53.296   2.192  1.00  0.00     0.109 C 
HETATM    2  C6  UNL     1      34.314  53.234   3.583  1.00  0.00     0.115 C 
HETATM    3  N1  UNL     1      34.610  53.194   4.702  1.00  0.00    -0.190 NA
HETATM    4  N2  UNL     1      32.830  53.809   1.855  1.00  0.00    -0.292 N 
ATOM      5  H2  UNL     1      32.224  54.151   2.601  1.00  0.00     0.187 HD
ENDROOT
BRANCH   1   6
HETATM    6  C4  UNL     1      34.931  52.761   1.194  1.00  0.00     0.098 C 
BRANCH   6   7
HETATM    7  C3  UNL     1      36.275  52.689   1.817  1.00  0.00    -0.012 C 
HETATM    8  C2  UNL     1      37.002  51.603   1.818  1.00  0.00    -0.048 C 
HETATM    9  C1  UNL     1      36.475  50.373   1.172  1.00  0.00     0.049 C 
BRANCH   8  10
HETATM   10  C15 UNL     1      38.336  51.553   2.444  1.00  0.00     0.010 A 
HETATM   11  C16 UNL     1      38.826  52.345   3.446  1.00  0.00     0.020 A 
HETATM   12  C17 UNL     1      40.075  52.118   3.858  1.00  0.00     0.008 A 
HETATM   13  C18 UNL     1      40.768  51.106   3.245  1.00  0.00     0.050 A 
HETATM   14  S2  UNL     1      39.640  50.511   2.109  1.00  0.00    -0.102 SA
ENDBRANCH   8  10
ENDBRANCH   6   7
ENDBRANCH   1   6
BRANCH   4  15
HETATM   15  N3  UNL     1      32.379  53.926   0.561  1.00  0.00    -0.279 N 
ATOM     16  H3  UNL     1      32.976  53.605  -0.202  1.00  0.00     0.189 HD
BRANCH  15  17
HETATM   17  C7  UNL     1      31.198  54.442   0.277  1.00  0.00     0.164 A 
HETATM   18  N4  UNL     1      30.014  53.834   0.351  1.00  0.00    -0.338 N 
HETATM   19  C8  UNL     1      28.941  54.508   0.026  1.00  0.00     0.021 A 
ATOM     20  H4  UNL     1      29.946  52.863   0.655  1.00  0.00     0.168 HD
HETATM   21  C9  UNL     1      27.532  53.928   0.068  1.00  0.00     0.069 C 
HETATM   22  C10 UNL     1      29.108  55.808  -0.373  1.00  0.00     0.016 A 
HETATM   23  S1  UNL     1      30.799  56.006  -0.264  1.00  0.00    -0.054 SA
BRANCH  22  24
HETATM   24  C11 UNL     1      28.048  56.796  -0.796  1.00  0.00    -0.016 C 
HETATM   25  C12 UNL     1      28.737  58.163  -0.721  1.00  0.00     0.020 C 
HETATM   26  C13 UNL     1      26.892  56.805   0.153  1.00  0.00     0.020 C 
HETATM   27  C14 UNL     1      27.623  56.590  -2.214  1.00  0.00     0.020 C 
ENDBRANCH  22  24
ENDBRANCH  15  17
ENDBRANCH   4  15
TORSDOF 6
ENDMDL
MODEL 5
REMARK VINA RESULT: -8.037005816      2.347      3.430
REMARK  6 active torsions:
REMARK  status: ('A' for Active; 'I' for Inactive)
REMARK    1  A    between atoms: C2_2  and  C15_23 
REMARK    2  A    between atoms: C3_3  and  C4_4 
REMARK    3  A    between atoms: C4_4  and  C5_5 
REMARK    4  A    between atoms: N2_8  and  N3_10 
REMARK    5  A    between atoms: N3_10  and  C7_12 
REMARK    6  A    between atoms: C10_17  and  C11_18 
ROOT
HETATM    1  C5  UNL     1      34.043  52.321   0.911  1.00  0.00     0.109 C 
HETATM    2  C6  UNL     1      34.361  50.928   0.761  1.00  0.00     0.115 C 
HETATM    3  N1  UNL     1      34.608  49.802   0.656  1.00  0.00    -0.190 NA
HETATM    4  N2  UNL     1      33.361  52.909  -0.012  1.00  0.00    -0.292 N 
ATOM      5  H2  UNL     1      33.074  52.351  -0.818  1.00  0.00     0.187 HD
ENDROOT
BRANCH   1   6
HETATM    6  C4  UNL     1      34.520  53.029   2.131  1.00  0.00     0.098 C 
BRANCH   6   7
HETATM    7  C3  UNL     1      35.954  52.713   2.341  1.00  0.00    -0.012 C 
HETATM    8  C2  UNL     1      36.600  53.031   3.431  1.00  0.00    -0.048 C 
HETATM    9  C1  UNL     1      35.885  53.743   4.521  1.00  0.00     0.049 C 
BRANCH   8  10
HETATM   10  C15 UNL     1      38.027  52.707   3.619  1.00  0.00     0.010 A 
HETATM   11  C16 UNL     1      38.923  53.308   4.460  1.00  0.00     0.020 A 
HETATM   12  C17 UNL     1      40.175  52.843   4.462  1.00  0.00     0.008 A 
HETATM   13  C18 UNL     1      40.462  51.799   3.621  1.00  0.00     0.050 A 
HETATM   14  S2  UNL     1      38.964  51.508   2.856  1.00  0.00    -0.102 SA
ENDBRANCH   8  10
ENDBRANCH   6   7
ENDBRANCH   1   6
BRANCH   4  15
HETATM   15  N3  UNL     1      32.993  54.233   0.013  1.00  0.00    -0.279 N 
ATOM     16  H3  UNL     1      33.712  54.945   0.147  1.00  0.00     0.189 HD
BRANCH  15  17
HETATM   17  C7  UNL     1      31.737  54.612  -0.132  1.00  0.00     0.164 A 
HETATM   18  N4  UNL     1      30.650  53.844  -0.055  1.00  0.00    -0.338 N 
HETATM   19  C8  UNL     1      29.477  54.398  -0.228  1.00  0.00     0.021 A 
ATOM     20  H4  UNL     1      30.730  52.846   0.136  1.00  0.00     0.168 HD
HETATM   21  C9  UNL     1      28.162  53.632  -0.164  1.00  0.00     0.069 C 
HETATM   22  C10 UNL     1      29.445  55.745  -0.481  1.00  0.00     0.016 A 
HETATM   23  S1  UNL     1      31.101  56.156  -0.459  1.00  0.00    -0.054 SA
BRANCH  22  24
HETATM   24  C11 UNL     1      28.238  56.619  -0.716  1.00  0.00    -0.016 C 
HETATM   25  C12 UNL     1      28.790  58.049  -0.728  1.00  0.00     0.020 C 
HETATM   26  C13 UNL     1      27.251  56.510   0.403  1.00  0.00     0.020 C 
HETATM   27  C14 UNL     1      27.617  56.372  -2.053  1.00  0.00     0.020 C 
ENDBRANCH  22  24
ENDBRANCH  15  17
ENDBRANCH   4  15
TORSDOF 6
ENDMDL
