MODEL 1
REMARK VINA RESULT: -6.102838611      0.000      0.000
REMARK  2 active torsions:
REMARK  status: ('A' for Active; 'I' for Inactive)
REMARK    1  A    between atoms: N1_2  and  C2_3 
REMARK    2  A    between atoms: N1_2  and  C7_14 
ROOT
HETATM    1  C2  UNL     1     -15.520  -3.393 -38.362  1.00  0.00     0.166 A 
HETATM    2  O1  UNL     1     -15.273  -3.798 -37.147  1.00  0.00    -0.274 OA
HETATM    3  C3  UNL     1     -14.081  -3.770 -36.599  1.00  0.00     0.168 A 
HETATM    4  N2  UNL     1     -13.836  -4.176 -35.389  1.00  0.00    -0.378 N 
ATOM      5  H21 UNL     1     -12.909  -4.155 -34.964  1.00  0.00     0.158 HD
ATOM      6  H22 UNL     1     -14.623  -4.530 -34.846  1.00  0.00     0.158 HD
HETATM    7  C4  UNL     1     -13.024  -3.295 -37.329  1.00  0.00     0.098 A 
HETATM    8  N3  UNL     1     -11.721  -3.255 -36.747  1.00  0.00    -0.098 NA
HETATM    9  C5  UNL     1     -13.218  -2.848 -38.631  1.00  0.00     0.054 A 
HETATM   10  C6  UNL     1     -14.508  -2.904 -39.152  1.00  0.00     0.065 A 
HETATM   11  S1  UNL     1     -14.758  -2.322 -40.817  1.00  0.00    -0.048 SA
ENDROOT
BRANCH   1  12
HETATM   12  N1  UNL     1     -16.840  -3.459 -38.864  1.00  0.00    -0.360 N 
HETATM   13  C1  UNL     1     -17.706  -2.320 -38.539  1.00  0.00     0.152 C 
BRANCH  12  14
HETATM   14  C7  UNL     1     -17.414  -4.501 -39.639  1.00  0.00     0.086 C 
HETATM   15  C8  UNL     1     -18.924  -4.598 -39.536  1.00  0.00     0.025 C 
HETATM   16  C9  UNL     1     -19.135  -5.834 -40.420  1.00  0.00     0.002 C 
HETATM   17  C10 UNL     1     -17.967  -6.732 -40.051  1.00  0.00     0.002 C 
HETATM   18  C11 UNL     1     -17.048  -5.889 -39.167  1.00  0.00     0.025 C 
ENDBRANCH  12  14
ENDBRANCH   1  12
TORSDOF 2
ENDMDL
MODEL 2
REMARK VINA RESULT: -6.097173742      1.162      2.997
REMARK  2 active torsions:
REMARK  status: ('A' for Active; 'I' for Inactive)
REMARK    1  A    between atoms: N1_2  and  C2_3 
REMARK    2  A    between atoms: N1_2  and  C7_14 
ROOT
HETATM    1  C2  UNL     1     -15.587  -3.202 -38.185  1.00  0.00     0.166 A 
HETATM    2  O1  UNL     1     -15.284  -3.600 -36.981  1.00  0.00    -0.274 OA
HETATM    3  C3  UNL     1     -14.052  -3.757 -36.555  1.00  0.00     0.168 A 
HETATM    4  N2  UNL     1     -13.752  -4.156 -35.356  1.00  0.00    -0.378 N 
ATOM      5  H21 UNL     1     -12.795  -4.278 -35.025  1.00  0.00     0.158 HD
ATOM      6  H22 UNL     1     -14.525  -4.352 -34.720  1.00  0.00     0.158 HD
HETATM    7  C4  UNL     1     -13.014  -3.494 -37.409  1.00  0.00     0.098 A 
HETATM    8  N3  UNL     1     -11.669  -3.655 -36.960  1.00  0.00    -0.098 NA
HETATM    9  C5  UNL     1     -13.268  -3.065 -38.707  1.00  0.00     0.054 A 
HETATM   10  C6  UNL     1     -14.596  -2.919 -39.095  1.00  0.00     0.065 A 
HETATM   11  S1  UNL     1     -14.921  -2.362 -40.756  1.00  0.00    -0.048 SA
ENDROOT
BRANCH   1  12
HETATM   12  N1  UNL     1     -16.945  -3.060 -38.552  1.00  0.00    -0.360 N 
HETATM   13  C1  UNL     1     -17.619  -4.286 -38.995  1.00  0.00     0.152 C 
BRANCH  12  14
HETATM   14  C7  UNL     1     -17.719  -1.870 -38.540  1.00  0.00     0.086 C 
HETATM   15  C8  UNL     1     -17.217  -0.807 -37.583  1.00  0.00     0.025 C 
HETATM   16  C9  UNL     1     -18.315   0.241 -37.807  1.00  0.00     0.002 C 
HETATM   17  C10 UNL     1     -19.577  -0.596 -37.927  1.00  0.00     0.002 C 
HETATM   18  C11 UNL     1     -19.115  -2.052 -37.993  1.00  0.00     0.025 C 
ENDBRANCH  12  14
ENDBRANCH   1  12
TORSDOF 2
ENDMDL
MODEL 3
REMARK VINA RESULT: -6.088767849      2.192      2.915
REMARK  2 active torsions:
REMARK  status: ('A' for Active; 'I' for Inactive)
REMARK    1  A    between atoms: N1_2  and  C2_3 
REMARK    2  A    between atoms: N1_2  and  C7_14 
ROOT
HETATM    1  C2  UNL     1     -15.410  -2.980 -39.174  1.00  0.00     0.166 A 
HETATM    2  O1  UNL     1     -15.049  -2.512 -40.337  1.00  0.00    -0.274 OA
HETATM    3  C3  UNL     1     -13.823  -2.140 -40.621  1.00  0.00     0.168 A 
HETATM    4  N2  UNL     1     -13.465  -1.671 -41.779  1.00  0.00    -0.378 N 
ATOM      5  H21 UNL     1     -12.512  -1.381 -42.000  1.00  0.00     0.158 HD
ATOM      6  H22 UNL     1     -14.185  -1.596 -42.497  1.00  0.00     0.158 HD
HETATM    7  C4  UNL     1     -12.856  -2.240 -39.656  1.00  0.00     0.098 A 
HETATM    8  N3  UNL     1     -11.516  -1.842 -39.951  1.00  0.00    -0.098 NA
HETATM    9  C5  UNL     1     -13.174  -2.732 -38.396  1.00  0.00     0.054 A 
HETATM   10  C6  UNL     1     -14.492  -3.110 -38.160  1.00  0.00     0.065 A 
HETATM   11  S1  UNL     1     -14.898  -3.748 -36.546  1.00  0.00    -0.048 SA
ENDROOT
BRANCH   1  12
HETATM   12  N1  UNL     1     -16.756  -3.359 -38.963  1.00  0.00    -0.360 N 
HETATM   13  C1  UNL     1     -17.688  -2.266 -38.666  1.00  0.00     0.152 C 
BRANCH  12  14
HETATM   14  C7  UNL     1     -17.297  -4.671 -39.003  1.00  0.00     0.086 C 
HETATM   15  C8  UNL     1     -16.573  -5.617 -39.942  1.00  0.00     0.025 C 
HETATM   16  C9  UNL     1     -17.467  -6.851 -39.759  1.00  0.00     0.002 C 
HETATM   17  C10 UNL     1     -18.865  -6.260 -39.685  1.00  0.00     0.002 C 
HETATM   18  C11 UNL     1     -18.682  -4.745 -39.603  1.00  0.00     0.025 C 
ENDBRANCH  12  14
ENDBRANCH   1  12
TORSDOF 2
ENDMDL
MODEL 4
REMARK VINA RESULT: -6.083899940      2.635      4.057
REMARK  2 active torsions:
REMARK  status: ('A' for Active; 'I' for Inactive)
REMARK    1  A    between atoms: N1_2  and  C2_3 
REMARK    2  A    between atoms: N1_2  and  C7_14 
ROOT
HETATM    1  C2  UNL     1     -13.972  -3.025 -38.614  1.00  0.00     0.166 A 
HETATM    2  O1  UNL     1     -13.413  -2.725 -39.753  1.00  0.00    -0.274 OA
HETATM    3  C3  UNL     1     -12.120  -2.790 -39.967  1.00  0.00     0.168 A 
HETATM    4  N2  UNL     1     -11.564  -2.489 -41.101  1.00  0.00    -0.378 N 
ATOM      5  H21 UNL     1     -10.558  -2.538 -41.268  1.00  0.00     0.158 HD
ATOM      6  H22 UNL     1     -12.177  -2.190 -41.859  1.00  0.00     0.158 HD
HETATM    7  C4  UNL     1     -11.296  -3.191 -38.949  1.00  0.00     0.098 A 
HETATM    8  N3  UNL     1      -9.887  -3.270 -39.166  1.00  0.00    -0.098 NA
HETATM    9  C5  UNL     1     -11.828  -3.525 -37.709  1.00  0.00     0.054 A 
HETATM   10  C6  UNL     1     -13.208  -3.436 -37.549  1.00  0.00     0.065 A 
HETATM   11  S1  UNL     1     -13.890  -3.873 -35.962  1.00  0.00    -0.048 SA
ENDROOT
BRANCH   1  12
HETATM   12  N1  UNL     1     -15.377  -2.927 -38.480  1.00  0.00    -0.360 N 
HETATM   13  C1  UNL     1     -16.126  -4.173 -38.676  1.00  0.00     0.152 C 
BRANCH  12  14
HETATM   14  C7  UNL     1     -16.133  -1.763 -38.183  1.00  0.00     0.086 C 
HETATM   15  C8  UNL     1     -16.985  -1.874 -36.933  1.00  0.00     0.025 C 
HETATM   16  C9  UNL     1     -17.669  -0.501 -37.000  1.00  0.00     0.002 C 
HETATM   17  C10 UNL     1     -17.943  -0.319 -38.483  1.00  0.00     0.002 C 
HETATM   18  C11 UNL     1     -17.217  -1.462 -39.192  1.00  0.00     0.025 C 
ENDBRANCH  12  14
ENDBRANCH   1  12
TORSDOF 2
ENDMDL
MODEL 5
REMARK VINA RESULT: -6.026141359      2.072      5.451
REMARK  2 active torsions:
REMARK  status: ('A' for Active; 'I' for Inactive)
REMARK    1  A    between atoms: N1_2  and  C2_3 
REMARK    2  A    between atoms: N1_2  and  C7_14 
ROOT
HETATM    1  C2  UNL     1     -15.773  -3.654 -38.504  1.00  0.00     0.166 A 
HETATM    2  O1  UNL     1     -15.727  -4.736 -39.230  1.00  0.00    -0.274 OA
HETATM    3  C3  UNL     1     -16.766  -5.236 -39.856  1.00  0.00     0.168 A 
HETATM    4  N2  UNL     1     -16.719  -6.315 -40.578  1.00  0.00    -0.378 N 
ATOM      5  H21 UNL     1     -17.527  -6.704 -41.064  1.00  0.00     0.158 HD
ATOM      6  H22 UNL     1     -15.819  -6.788 -40.656  1.00  0.00     0.158 HD
HETATM    7  C4  UNL     1     -17.976  -4.602 -39.751  1.00  0.00     0.098 A 
HETATM    8  N3  UNL     1     -19.116  -5.131 -40.429  1.00  0.00    -0.098 NA
HETATM    9  C5  UNL     1     -18.094  -3.443 -38.992  1.00  0.00     0.054 A 
HETATM   10  C6  UNL     1     -16.953  -2.965 -38.354  1.00  0.00     0.065 A 
HETATM   11  S1  UNL     1     -17.102  -1.476 -37.388  1.00  0.00    -0.048 SA
ENDROOT
BRANCH   1  12
HETATM   12  N1  UNL     1     -14.598  -3.190 -37.869  1.00  0.00    -0.360 N 
HETATM   13  C1  UNL     1     -14.351  -3.711 -36.520  1.00  0.00     0.152 C 
BRANCH  12  14
HETATM   14  C7  UNL     1     -13.641  -2.279 -38.390  1.00  0.00     0.086 C 
HETATM   15  C8  UNL     1     -13.246  -2.544 -39.830  1.00  0.00     0.025 C 
HETATM   16  C9  UNL     1     -12.192  -1.438 -39.985  1.00  0.00     0.002 C 
HETATM   17  C10 UNL     1     -11.474  -1.451 -38.647  1.00  0.00     0.002 C 
HETATM   18  C11 UNL     1     -12.281  -2.380 -37.741  1.00  0.00     0.025 C 
ENDBRANCH  12  14
ENDBRANCH   1  12
TORSDOF 2
ENDMDL
