MODEL 1
REMARK VINA RESULT: -7.555949875      0.000      0.000
REMARK  2 active torsions:
REMARK  status: ('A' for Active; 'I' for Inactive)
REMARK    1  A    between atoms: C2_2  and  C3_3 
REMARK    2  A    between atoms: C3_3  and  C4_4 
ROOT
HETATM    1  C4  UNL     1     -15.181  -2.828 -39.375  1.00  0.00     0.086 A 
HETATM    2  N1  UNL     1     -15.534  -4.170 -39.427  1.00  0.00    -0.320 N 
ATOM      3  H1  UNL     1     -14.785  -4.823 -39.657  1.00  0.00     0.169 HD
HETATM    4  C5  UNL     1     -16.660  -4.674 -39.224  1.00  0.00     0.196 A 
HETATM    5  N2  UNL     1     -16.916  -6.098 -39.310  1.00  0.00    -0.063 NA
HETATM    6  N3  UNL     1     -17.754  -3.829 -38.871  1.00  0.00    -0.304 N 
ATOM      7  H3  UNL     1     -18.681  -4.222 -38.704  1.00  0.00     0.171 HD
HETATM    8  C6  UNL     1     -17.552  -2.559 -38.765  1.00  0.00     0.196 A 
HETATM    9  N4  UNL     1     -18.675  -1.763 -38.413  1.00  0.00    -0.063 NA
HETATM   10  N5  UNL     1     -16.272  -1.994 -38.966  1.00  0.00    -0.320 N 
ATOM     11  H5  UNL     1     -16.125  -0.995 -38.821  1.00  0.00     0.169 HD
ENDROOT
BRANCH   1  12
HETATM   12  C3  UNL     1     -13.856  -2.488 -38.777  1.00  0.00     0.086 C 
BRANCH  12  13
HETATM   13  C2  UNL     1     -12.665  -2.357 -39.612  1.00  0.00    -0.024 C 
HETATM   14  C1  UNL     1     -12.950  -1.867 -41.036  1.00  0.00     0.016 C 
HETATM   15  C7  UNL     1     -11.829  -1.208 -39.017  1.00  0.00     0.011 C 
HETATM   16  C8  UNL     1     -10.849  -1.587 -38.001  1.00  0.00     0.001 C 
HETATM   17  C9  UNL     1     -10.877  -2.958 -37.453  1.00  0.00     0.001 C 
HETATM   18  C10 UNL     1     -11.206  -4.035 -38.417  1.00  0.00     0.017 C 
HETATM   19  C11 UNL     1     -11.824  -3.577 -39.709  1.00  0.00     0.067 C 
HETATM   20  S1  UNL     1     -10.489  -3.357 -40.957  1.00  0.00    -0.092 SA
ENDBRANCH  12  13
ENDBRANCH   1  12
TORSDOF 2
ENDMDL
MODEL 2
REMARK VINA RESULT: -7.524578830      1.760      3.105
REMARK  2 active torsions:
REMARK  status: ('A' for Active; 'I' for Inactive)
REMARK    1  A    between atoms: C2_2  and  C3_3 
REMARK    2  A    between atoms: C3_3  and  C4_4 
ROOT
HETATM    1  C4  UNL     1     -15.128  -3.345 -38.080  1.00  0.00     0.086 A 
HETATM    2  N1  UNL     1     -15.772  -2.117 -37.995  1.00  0.00    -0.320 N 
ATOM      3  H1  UNL     1     -15.202  -1.332 -37.682  1.00  0.00     0.169 HD
HETATM    4  C5  UNL     1     -16.967  -1.859 -38.258  1.00  0.00     0.196 A 
HETATM    5  N2  UNL     1     -17.536  -0.533 -38.130  1.00  0.00    -0.063 NA
HETATM    6  N3  UNL     1     -17.823  -2.900 -38.727  1.00  0.00    -0.304 N 
ATOM      7  H3  UNL     1     -18.801  -2.709 -38.944  1.00  0.00     0.171 HD
HETATM    8  C6  UNL     1     -17.339  -4.088 -38.873  1.00  0.00     0.196 A 
HETATM    9  N4  UNL     1     -18.234  -5.087 -39.340  1.00  0.00    -0.063 NA
HETATM   10  N5  UNL     1     -15.980  -4.371 -38.603  1.00  0.00    -0.320 N 
ATOM     11  H5  UNL     1     -15.607  -5.304 -38.780  1.00  0.00     0.169 HD
ENDROOT
BRANCH   1  12
HETATM   12  C3  UNL     1     -13.726  -3.353 -38.593  1.00  0.00     0.086 C 
BRANCH  12  13
HETATM   13  C2  UNL     1     -12.590  -3.294 -37.678  1.00  0.00    -0.024 C 
HETATM   14  C1  UNL     1     -12.902  -3.785 -36.261  1.00  0.00     0.016 C 
HETATM   15  C7  UNL     1     -11.562  -4.327 -38.179  1.00  0.00     0.011 C 
HETATM   16  C8  UNL     1     -10.576  -3.837 -39.141  1.00  0.00     0.001 C 
HETATM   17  C9  UNL     1     -10.757  -2.497 -39.734  1.00  0.00     0.001 C 
HETATM   18  C10 UNL     1     -11.300  -1.455 -38.830  1.00  0.00     0.017 C 
HETATM   19  C11 UNL     1     -11.936  -1.965 -37.567  1.00  0.00     0.067 C 
HETATM   20  S1  UNL     1     -10.674  -1.965 -36.228  1.00  0.00    -0.092 SA
ENDBRANCH  12  13
ENDBRANCH   1  12
TORSDOF 2
ENDMDL
MODEL 3
REMARK VINA RESULT: -6.541515043      1.213      2.444
REMARK  2 active torsions:
REMARK  status: ('A' for Active; 'I' for Inactive)
REMARK    1  A    between atoms: C2_2  and  C3_3 
REMARK    2  A    between atoms: C3_3  and  C4_4 
ROOT
HETATM    1  C4  UNL     1     -14.655  -2.913 -38.712  1.00  0.00     0.086 A 
HETATM    2  N1  UNL     1     -15.594  -1.890 -38.719  1.00  0.00    -0.320 N 
ATOM      3  H1  UNL     1     -15.222  -0.940 -38.713  1.00  0.00     0.169 HD
HETATM    4  C5  UNL     1     -16.840  -1.992 -38.734  1.00  0.00     0.196 A 
HETATM    5  N2  UNL     1     -17.727  -0.847 -38.737  1.00  0.00    -0.063 NA
HETATM    6  N3  UNL     1     -17.437  -3.288 -38.770  1.00  0.00    -0.304 N 
ATOM      7  H3  UNL     1     -18.451  -3.391 -38.780  1.00  0.00     0.171 HD
HETATM    8  C6  UNL     1     -16.671  -4.327 -38.791  1.00  0.00     0.196 A 
HETATM    9  N4  UNL     1     -17.317  -5.592 -38.824  1.00  0.00    -0.063 NA
HETATM   10  N5  UNL     1     -15.263  -4.208 -38.803  1.00  0.00    -0.320 N 
ATOM     11  H5  UNL     1     -14.680  -5.042 -38.877  1.00  0.00     0.169 HD
ENDROOT
BRANCH   1  12
HETATM   12  C3  UNL     1     -13.423  -2.725 -39.534  1.00  0.00     0.086 C 
BRANCH  12  13
HETATM   13  C2  UNL     1     -12.166  -2.309 -38.918  1.00  0.00    -0.024 C 
HETATM   14  C1  UNL     1     -11.790  -0.849 -39.186  1.00  0.00     0.016 C 
HETATM   15  C7  UNL     1     -12.390  -2.330 -37.394  1.00  0.00     0.011 C 
HETATM   16  C8  UNL     1     -12.090  -3.592 -36.718  1.00  0.00     0.001 C 
HETATM   17  C9  UNL     1     -11.828  -4.796 -37.530  1.00  0.00     0.001 C 
HETATM   18  C10 UNL     1     -11.069  -4.579 -38.786  1.00  0.00     0.017 C 
HETATM   19  C11 UNL     1     -10.990  -3.152 -39.252  1.00  0.00     0.067 C 
HETATM   20  S1  UNL     1      -9.439  -2.402 -38.604  1.00  0.00    -0.092 SA
ENDBRANCH  12  13
ENDBRANCH   1  12
TORSDOF 2
ENDMDL
MODEL 4
REMARK VINA RESULT: -6.503585886      3.571      5.927
REMARK  2 active torsions:
REMARK  status: ('A' for Active; 'I' for Inactive)
REMARK    1  A    between atoms: C2_2  and  C3_3 
REMARK    2  A    between atoms: C3_3  and  C4_4 
ROOT
HETATM    1  C4  UNL     1     -13.459  -2.978 -38.107  1.00  0.00     0.086 A 
HETATM    2  N1  UNL     1     -12.710  -2.550 -37.018  1.00  0.00    -0.320 N 
ATOM      3  H1  UNL     1     -13.238  -2.178 -36.229  1.00  0.00     0.169 HD
HETATM    4  C5  UNL     1     -11.467  -2.567 -36.890  1.00  0.00     0.196 A 
HETATM    5  N2  UNL     1     -10.788  -2.089 -35.703  1.00  0.00    -0.063 NA
HETATM    6  N3  UNL     1     -10.660  -3.098 -37.941  1.00  0.00    -0.304 N 
ATOM      7  H3  UNL     1      -9.644  -3.118 -37.855  1.00  0.00     0.171 HD
HETATM    8  C6  UNL     1     -11.237  -3.552 -39.002  1.00  0.00     0.196 A 
HETATM    9  N4  UNL     1     -10.388  -4.067 -40.018  1.00  0.00    -0.063 NA
HETATM   10  N5  UNL     1     -12.645  -3.558 -39.133  1.00  0.00    -0.320 N 
ATOM     11  H5  UNL     1     -13.080  -3.975 -39.956  1.00  0.00     0.169 HD
ENDROOT
BRANCH   1  12
HETATM   12  C3  UNL     1     -14.739  -3.693 -37.824  1.00  0.00     0.086 C 
BRANCH  12  13
HETATM   13  C2  UNL     1     -16.007  -3.206 -38.359  1.00  0.00    -0.024 C 
HETATM   14  C1  UNL     1     -16.339  -1.763 -37.968  1.00  0.00     0.016 C 
HETATM   15  C7  UNL     1     -15.836  -3.114 -39.888  1.00  0.00     0.011 C 
HETATM   16  C8  UNL     1     -16.188  -4.313 -40.647  1.00  0.00     0.001 C 
HETATM   17  C9  UNL     1     -16.451  -5.571 -39.920  1.00  0.00     0.001 C 
HETATM   18  C10 UNL     1     -17.161  -5.436 -38.625  1.00  0.00     0.017 C 
HETATM   19  C11 UNL     1     -17.190  -4.048 -38.048  1.00  0.00     0.067 C 
HETATM   20  S1  UNL     1     -18.744  -3.218 -38.581  1.00  0.00    -0.092 SA
ENDBRANCH  12  13
ENDBRANCH   1  12
TORSDOF 2
ENDMDL
MODEL 5
REMARK VINA RESULT: -6.439075006      1.694      2.325
REMARK  2 active torsions:
REMARK  status: ('A' for Active; 'I' for Inactive)
REMARK    1  A    between atoms: C2_2  and  C3_3 
REMARK    2  A    between atoms: C3_3  and  C4_4 
ROOT
HETATM    1  C4  UNL     1     -14.898  -2.922 -39.407  1.00  0.00     0.086 A 
HETATM    2  N1  UNL     1     -15.563  -4.141 -39.410  1.00  0.00    -0.320 N 
ATOM      3  H1  UNL     1     -15.169  -4.865 -40.011  1.00  0.00     0.169 HD
HETATM    4  C5  UNL     1     -16.586  -4.458 -38.765  1.00  0.00     0.196 A 
HETATM    5  N2  UNL     1     -17.199  -5.767 -38.849  1.00  0.00    -0.063 NA
HETATM    6  N3  UNL     1     -17.180  -3.507 -37.882  1.00  0.00    -0.304 N 
ATOM      7  H3  UNL     1     -18.017  -3.747 -37.349  1.00  0.00     0.171 HD
HETATM    8  C6  UNL     1     -16.643  -2.340 -37.769  1.00  0.00     0.196 A 
HETATM    9  N4  UNL     1     -17.276  -1.431 -36.879  1.00  0.00    -0.063 NA
HETATM   10  N5  UNL     1     -15.470  -1.993 -38.478  1.00  0.00    -0.320 N 
ATOM     11  H5  UNL     1     -15.032  -1.084 -38.329  1.00  0.00     0.169 HD
ENDROOT
BRANCH   1  12
HETATM   12  C3  UNL     1     -13.406  -2.951 -39.447  1.00  0.00     0.086 C 
BRANCH  12  13
HETATM   13  C2  UNL     1     -12.625  -3.113 -38.224  1.00  0.00    -0.024 C 
HETATM   14  C1  UNL     1     -13.439  -3.598 -37.020  1.00  0.00     0.016 C 
HETATM   15  C7  UNL     1     -11.652  -4.283 -38.471  1.00  0.00     0.011 C 
HETATM   16  C8  UNL     1     -10.351  -3.927 -39.035  1.00  0.00     0.001 C 
HETATM   17  C9  UNL     1     -10.137  -2.555 -39.537  1.00  0.00     0.001 C 
HETATM   18  C10 UNL     1     -10.783  -1.471 -38.758  1.00  0.00     0.017 C 
HETATM   19  C11 UNL     1     -11.854  -1.916 -37.802  1.00  0.00     0.067 C 
HETATM   20  S1  UNL     1     -11.099  -2.172 -36.144  1.00  0.00    -0.092 SA
ENDBRANCH  12  13
ENDBRANCH   1  12
TORSDOF 2
ENDMDL
