MODEL 1
REMARK VINA RESULT: -6.280057810      0.000      0.000
REMARK  4 active torsions:
REMARK  status: ('A' for Active; 'I' for Inactive)
REMARK    1  A    between atoms: C2_2  and  C5_6 
REMARK    2  A    between atoms: C5_6  and  C6_7 
REMARK    3  A    between atoms: C7_8  and  O1_9 
REMARK    4  A    between atoms: C9_16  and  N3_17 
ROOT
HETATM    1  C1  UNL     1     -10.357  -3.254 -41.243  1.00  0.00     0.031 C 
HETATM    2  C2  UNL     1     -10.748  -2.972 -39.836  1.00  0.00     0.046 C 
HETATM    3  C3  UNL     1      -9.439  -2.448 -39.171  1.00  0.00     0.031 C 
HETATM    4  C4  UNL     1     -10.963  -4.263 -39.180  1.00  0.00     0.068 C 
HETATM    5  N1  UNL     1     -11.148  -5.281 -38.654  1.00  0.00    -0.196 NA
ENDROOT
BRANCH   2   6
HETATM    6  C5  UNL     1     -11.757  -1.936 -39.566  1.00  0.00     0.069 C 
BRANCH   6   7
HETATM    7  C6  UNL     1     -13.134  -2.349 -39.253  1.00  0.00     0.028 A 
HETATM    8  C7  UNL     1     -14.057  -2.392 -40.269  1.00  0.00     0.150 A 
HETATM    9  N2  UNL     1     -15.333  -2.785 -40.197  1.00  0.00    -0.322 N 
HETATM   10  C8  UNL     1     -15.998  -3.221 -39.124  1.00  0.00     0.146 A 
ATOM     11  H2  UNL     1     -15.862  -2.747 -41.069  1.00  0.00     0.169 HD
HETATM   12  S1  UNL     1     -17.583  -3.670 -39.215  1.00  0.00    -0.052 SA
HETATM   13  S2  UNL     1     -15.069  -3.262 -37.703  1.00  0.00    -0.043 SA
HETATM   14  C9  UNL     1     -13.438  -2.722 -37.966  1.00  0.00     0.081 A 
BRANCH   8  15
HETATM   15  O1  UNL     1     -13.672  -1.975 -41.579  1.00  0.00    -0.346 OA
ATOM     16  H1  UNL     1     -14.341  -1.846 -42.240  1.00  0.00     0.219 HD
ENDBRANCH   8  15
BRANCH  14  17
HETATM   17  N3  UNL     1     -12.659  -2.674 -36.948  1.00  0.00    -0.393 N 
ATOM     18  H32 UNL     1     -12.933  -2.070 -36.173  1.00  0.00     0.156 HD
ATOM     19  H31 UNL     1     -11.767  -3.156 -36.838  1.00  0.00     0.156 HD
ENDBRANCH  14  17
ENDBRANCH   6   7
ENDBRANCH   2   6
TORSDOF 4
ENDMDL
MODEL 2
REMARK VINA RESULT: -6.165429880      1.725      2.190
REMARK  4 active torsions:
REMARK  status: ('A' for Active; 'I' for Inactive)
REMARK    1  A    between atoms: C2_2  and  C5_6 
REMARK    2  A    between atoms: C5_6  and  C6_7 
REMARK    3  A    between atoms: C7_8  and  O1_9 
REMARK    4  A    between atoms: C9_16  and  N3_17 
ROOT
HETATM    1  C1  UNL     1     -10.031  -3.002 -40.772  1.00  0.00     0.031 C 
HETATM    2  C2  UNL     1     -10.626  -2.883 -39.414  1.00  0.00     0.046 C 
HETATM    3  C3  UNL     1      -9.437  -2.436 -38.510  1.00  0.00     0.031 C 
HETATM    4  C4  UNL     1     -10.911  -4.241 -38.945  1.00  0.00     0.068 C 
HETATM    5  N1  UNL     1     -11.151  -5.312 -38.570  1.00  0.00    -0.196 NA
ENDROOT
BRANCH   2   6
HETATM    6  C5  UNL     1     -11.683  -1.886 -39.179  1.00  0.00     0.069 C 
BRANCH   6   7
HETATM    7  C6  UNL     1     -13.090  -2.308 -39.263  1.00  0.00     0.028 A 
HETATM    8  C7  UNL     1     -13.695  -2.815 -38.139  1.00  0.00     0.150 A 
HETATM    9  N2  UNL     1     -14.966  -3.204 -37.999  1.00  0.00    -0.322 N 
HETATM   10  C8  UNL     1     -15.933  -3.189 -38.921  1.00  0.00     0.146 A 
ATOM     11  H2  UNL     1     -15.229  -3.553 -37.078  1.00  0.00     0.169 HD
HETATM   12  S1  UNL     1     -17.461  -3.709 -38.576  1.00  0.00    -0.052 SA
HETATM   13  S2  UNL     1     -15.440  -2.600 -40.434  1.00  0.00    -0.043 SA
HETATM   14  C9  UNL     1     -13.764  -2.139 -40.448  1.00  0.00     0.081 A 
BRANCH   8  15
HETATM   15  O1  UNL     1     -12.926  -2.976 -36.946  1.00  0.00    -0.346 OA
ATOM     16  H1  UNL     1     -13.062  -3.746 -36.407  1.00  0.00     0.219 HD
ENDBRANCH   8  15
BRANCH  14  17
HETATM   17  N3  UNL     1     -13.275  -1.717 -41.556  1.00  0.00    -0.393 N 
ATOM     18  H32 UNL     1     -13.235  -0.708 -41.699  1.00  0.00     0.156 HD
ATOM     19  H31 UNL     1     -12.945  -2.287 -42.335  1.00  0.00     0.156 HD
ENDBRANCH  14  17
ENDBRANCH   6   7
ENDBRANCH   2   6
TORSDOF 4
ENDMDL
MODEL 3
REMARK VINA RESULT: -6.029423224      1.892      2.306
REMARK  4 active torsions:
REMARK  status: ('A' for Active; 'I' for Inactive)
REMARK    1  A    between atoms: C2_2  and  C5_6 
REMARK    2  A    between atoms: C5_6  and  C6_7 
REMARK    3  A    between atoms: C7_8  and  O1_9 
REMARK    4  A    between atoms: C9_16  and  N3_17 
ROOT
HETATM    1  C1  UNL     1     -11.930  -3.892 -38.718  1.00  0.00     0.031 C 
HETATM    2  C2  UNL     1     -12.197  -2.537 -38.167  1.00  0.00     0.046 C 
HETATM    3  C3  UNL     1     -11.322  -1.587 -39.039  1.00  0.00     0.031 C 
HETATM    4  C4  UNL     1     -11.556  -2.470 -36.852  1.00  0.00     0.068 C 
HETATM    5  N1  UNL     1     -11.062  -2.412 -35.804  1.00  0.00    -0.196 NA
ENDROOT
BRANCH   2   6
HETATM    6  C5  UNL     1     -13.560  -1.987 -38.248  1.00  0.00     0.069 C 
BRANCH   6   7
HETATM    7  C6  UNL     1     -14.675  -2.892 -38.567  1.00  0.00     0.028 A 
HETATM    8  C7  UNL     1     -15.099  -2.984 -39.870  1.00  0.00     0.150 A 
HETATM    9  N2  UNL     1     -16.053  -3.777 -40.365  1.00  0.00    -0.322 N 
HETATM   10  C8  UNL     1     -16.811  -4.658 -39.706  1.00  0.00     0.146 A 
ATOM     11  H2  UNL     1     -16.224  -3.701 -41.368  1.00  0.00     0.169 HD
HETATM   12  S1  UNL     1     -17.952  -5.565 -40.480  1.00  0.00    -0.052 SA
HETATM   13  S2  UNL     1     -16.486  -4.742 -38.042  1.00  0.00    -0.043 SA
HETATM   14  C9  UNL     1     -15.223  -3.650 -37.560  1.00  0.00     0.081 A 
BRANCH   8  15
HETATM   15  O1  UNL     1     -14.491  -2.153 -40.860  1.00  0.00    -0.346 OA
ATOM     16  H1  UNL     1     -13.553  -2.003 -40.828  1.00  0.00     0.219 HD
ENDBRANCH   8  15
BRANCH  14  17
HETATM   17  N3  UNL     1     -14.924  -3.602 -36.313  1.00  0.00    -0.393 N 
ATOM     18  H32 UNL     1     -13.963  -3.365 -36.068  1.00  0.00     0.156 HD
ATOM     19  H31 UNL     1     -15.543  -3.809 -35.529  1.00  0.00     0.156 HD
ENDBRANCH  14  17
ENDBRANCH   6   7
ENDBRANCH   2   6
TORSDOF 4
ENDMDL
MODEL 4
REMARK VINA RESULT: -5.975095187      2.432      3.143
REMARK  4 active torsions:
REMARK  status: ('A' for Active; 'I' for Inactive)
REMARK    1  A    between atoms: C2_2  and  C5_6 
REMARK    2  A    between atoms: C5_6  and  C6_7 
REMARK    3  A    between atoms: C7_8  and  O1_9 
REMARK    4  A    between atoms: C9_16  and  N3_17 
ROOT
HETATM    1  C1  UNL     1     -12.202  -1.419 -38.784  1.00  0.00     0.031 C 
HETATM    2  C2  UNL     1     -12.090  -2.849 -39.178  1.00  0.00     0.046 C 
HETATM    3  C3  UNL     1     -11.064  -3.447 -38.168  1.00  0.00     0.031 C 
HETATM    4  C4  UNL     1     -11.368  -2.892 -40.452  1.00  0.00     0.068 C 
HETATM    5  N1  UNL     1     -10.808  -2.935 -41.467  1.00  0.00    -0.196 NA
ENDROOT
BRANCH   2   6
HETATM    6  C5  UNL     1     -13.276  -3.715 -39.080  1.00  0.00     0.069 C 
BRANCH   6   7
HETATM    7  C6  UNL     1     -14.582  -3.102 -38.796  1.00  0.00     0.028 A 
HETATM    8  C7  UNL     1     -15.051  -3.116 -37.505  1.00  0.00     0.150 A 
HETATM    9  N2  UNL     1     -16.180  -2.573 -37.040  1.00  0.00    -0.322 N 
HETATM   10  C8  UNL     1     -17.108  -1.898 -37.724  1.00  0.00     0.146 A 
ATOM     11  H2  UNL     1     -16.355  -2.689 -36.042  1.00  0.00     0.169 HD
HETATM   12  S1  UNL     1     -18.453  -1.290 -36.986  1.00  0.00    -0.052 SA
HETATM   13  S2  UNL     1     -16.768  -1.737 -39.380  1.00  0.00    -0.043 SA
HETATM   14  C9  UNL     1     -15.268  -2.496 -39.821  1.00  0.00     0.081 A 
BRANCH   8  15
HETATM   15  O1  UNL     1     -14.290  -3.778 -36.495  1.00  0.00    -0.346 OA
ATOM     16  H1  UNL     1     -13.950  -4.649 -36.667  1.00  0.00     0.219 HD
ENDBRANCH   8  15
BRANCH  14  17
HETATM   17  N3  UNL     1     -14.933  -2.470 -41.059  1.00  0.00    -0.393 N 
ATOM     18  H32 UNL     1     -15.334  -3.180 -41.671  1.00  0.00     0.156 HD
ATOM     19  H31 UNL     1     -14.275  -1.826 -41.500  1.00  0.00     0.156 HD
ENDBRANCH  14  17
ENDBRANCH   6   7
ENDBRANCH   2   6
TORSDOF 4
ENDMDL
MODEL 5
REMARK VINA RESULT: -5.848040286      1.546      2.072
REMARK  4 active torsions:
REMARK  status: ('A' for Active; 'I' for Inactive)
REMARK    1  A    between atoms: C2_2  and  C5_6 
REMARK    2  A    between atoms: C5_6  and  C6_7 
REMARK    3  A    between atoms: C7_8  and  O1_9 
REMARK    4  A    between atoms: C9_16  and  N3_17 
ROOT
HETATM    1  C1  UNL     1      -9.252  -2.459 -38.741  1.00  0.00     0.031 C 
HETATM    2  C2  UNL     1     -10.636  -2.423 -38.197  1.00  0.00     0.046 C 
HETATM    3  C3  UNL     1     -11.252  -1.123 -38.797  1.00  0.00     0.031 C 
HETATM    4  C4  UNL     1     -10.532  -2.115 -36.769  1.00  0.00     0.068 C 
HETATM    5  N1  UNL     1     -10.460  -1.884 -35.634  1.00  0.00    -0.196 NA
ENDROOT
BRANCH   2   6
HETATM    6  C5  UNL     1     -11.577  -3.496 -38.558  1.00  0.00     0.069 C 
BRANCH   6   7
HETATM    7  C6  UNL     1     -13.013  -3.294 -38.311  1.00  0.00     0.028 A 
HETATM    8  C7  UNL     1     -13.799  -2.824 -39.335  1.00  0.00     0.150 A 
HETATM    9  N2  UNL     1     -15.120  -2.624 -39.325  1.00  0.00    -0.322 N 
HETATM   10  C8  UNL     1     -15.974  -2.832 -38.318  1.00  0.00     0.146 A 
ATOM     11  H2  UNL     1     -15.526  -2.268 -40.191  1.00  0.00     0.169 HD
HETATM   12  S1  UNL     1     -17.588  -2.530 -38.479  1.00  0.00    -0.052 SA
HETATM   13  S2  UNL     1     -15.245  -3.422 -36.903  1.00  0.00    -0.043 SA
HETATM   14  C9  UNL     1     -13.528  -3.626 -37.081  1.00  0.00     0.081 A 
BRANCH   8  15
HETATM   15  O1  UNL     1     -13.190  -2.486 -40.581  1.00  0.00    -0.346 OA
ATOM     16  H1  UNL     1     -12.370  -2.899 -40.824  1.00  0.00     0.219 HD
ENDBRANCH   8  15
BRANCH  14  17
HETATM   17  N3  UNL     1     -12.870  -4.030 -36.056  1.00  0.00    -0.393 N 
ATOM     18  H32 UNL     1     -13.395  -4.478 -35.306  1.00  0.00     0.156 HD
ATOM     19  H31 UNL     1     -11.869  -3.923 -35.893  1.00  0.00     0.156 HD
ENDBRANCH  14  17
ENDBRANCH   6   7
ENDBRANCH   2   6
TORSDOF 4
ENDMDL
