MODEL 1
REMARK VINA RESULT: -6.960560106      0.000      0.000
REMARK  1 active torsions:
REMARK  status: ('A' for Active; 'I' for Inactive)
REMARK    1  A    between atoms: C7_8  and  C8_10 
ROOT
HETATM    1  C1  UNL     1     -10.870   1.570  36.244  1.00  0.00     0.015 C 
HETATM    2  C2  UNL     1     -11.068   2.444  37.454  1.00  0.00    -0.036 C 
HETATM    3  C3  UNL     1      -9.798   2.526  38.286  1.00  0.00     0.039 C 
HETATM    4  C4  UNL     1     -10.146   3.286  39.541  1.00  0.00     0.278 C 
HETATM    5  N1  UNL     1     -11.504   3.761  39.543  1.00  0.00     0.134 N 
HETATM    6  C5  UNL     1     -11.644   4.625  38.381  1.00  0.00     0.278 C 
HETATM    7  C6  UNL     1     -11.409   3.874  37.085  1.00  0.00     0.039 C 
HETATM    8  C7  UNL     1     -12.490   2.736  39.451  1.00  0.00     0.356 C 
HETATM    9  F1  UNL     1     -13.720   3.364  39.266  1.00  0.00    -0.202 F 
HETATM   10  C9  UNL     1     -12.216   1.867  38.251  1.00  0.00     0.092 C 
ENDROOT
BRANCH   8  11
HETATM   11  C8  UNL     1     -12.581   1.848  40.656  1.00  0.00     0.424 C 
HETATM   12  F2  UNL     1     -13.839   1.830  41.225  1.00  0.00    -0.209 F 
HETATM   13  F3  UNL     1     -12.223   0.561  40.231  1.00  0.00    -0.209 F 
ENDBRANCH   8  11
TORSDOF 1
ENDMDL
MODEL 2
REMARK VINA RESULT: -6.917869098      2.061      3.693
REMARK  1 active torsions:
REMARK  status: ('A' for Active; 'I' for Inactive)
REMARK    1  A    between atoms: C7_8  and  C8_10 
ROOT
HETATM    1  C1  UNL     1     -10.735   3.472  40.619  1.00  0.00     0.015 C 
HETATM    2  C2  UNL     1     -11.055   2.792  39.314  1.00  0.00    -0.036 C 
HETATM    3  C3  UNL     1      -9.800   2.583  38.481  1.00  0.00     0.039 C 
HETATM    4  C4  UNL     1     -10.247   2.045  37.145  1.00  0.00     0.278 C 
HETATM    5  N1  UNL     1     -11.668   1.823  37.083  1.00  0.00     0.134 N 
HETATM    6  C5  UNL     1     -11.985   0.869  38.135  1.00  0.00     0.278 C 
HETATM    7  C6  UNL     1     -11.652   1.412  39.511  1.00  0.00     0.039 C 
HETATM    8  C7  UNL     1     -12.459   2.989  37.292  1.00  0.00     0.356 C 
HETATM    9  F1  UNL     1     -13.785   2.573  37.399  1.00  0.00    -0.202 F 
HETATM   10  C9  UNL     1     -12.065   3.652  38.587  1.00  0.00     0.092 C 
ENDROOT
BRANCH   8  11
HETATM   11  C8  UNL     1     -12.365   4.012  36.200  1.00  0.00     0.424 C 
HETATM   12  F2  UNL     1     -13.586   4.318  35.634  1.00  0.00    -0.209 F 
HETATM   13  F3  UNL     1     -11.796   5.157  36.774  1.00  0.00    -0.209 F 
ENDBRANCH   8  11
TORSDOF 1
ENDMDL
MODEL 3
REMARK VINA RESULT: -6.804920850      1.416      2.381
REMARK  1 active torsions:
REMARK  status: ('A' for Active; 'I' for Inactive)
REMARK    1  A    between atoms: C7_8  and  C8_10 
ROOT
HETATM    1  C1  UNL     1     -10.547   1.787  35.794  1.00  0.00     0.015 C 
HETATM    2  C2  UNL     1     -10.989   2.114  37.195  1.00  0.00    -0.036 C 
HETATM    3  C3  UNL     1     -11.563   0.889  37.890  1.00  0.00     0.039 C 
HETATM    4  C4  UNL     1     -12.114   1.356  39.214  1.00  0.00     0.278 C 
HETATM    5  N1  UNL     1     -11.871   2.754  39.454  1.00  0.00     0.134 N 
HETATM    6  C5  UNL     1     -10.429   2.938  39.422  1.00  0.00     0.278 C 
HETATM    7  C6  UNL     1      -9.842   2.582  38.070  1.00  0.00     0.039 C 
HETATM    8  C7  UNL     1     -12.448   3.629  38.488  1.00  0.00     0.356 C 
HETATM    9  F1  UNL     1     -11.961   4.909  38.749  1.00  0.00    -0.202 F 
HETATM   10  C9  UNL     1     -12.008   3.227  37.104  1.00  0.00     0.092 C 
ENDROOT
BRANCH   8  11
HETATM   11  C8  UNL     1     -13.947   3.675  38.504  1.00  0.00     0.424 C 
HETATM   12  F2  UNL     1     -14.524   2.983  37.459  1.00  0.00    -0.209 F 
HETATM   13  F3  UNL     1     -14.350   3.127  39.729  1.00  0.00    -0.209 F 
ENDBRANCH   8  11
TORSDOF 1
ENDMDL
MODEL 4
REMARK VINA RESULT: -6.500902086      1.510      3.017
REMARK  1 active torsions:
REMARK  status: ('A' for Active; 'I' for Inactive)
REMARK    1  A    between atoms: C7_8  and  C8_10 
ROOT
HETATM    1  C1  UNL     1     -10.460   3.370  40.778  1.00  0.00     0.015 C 
HETATM    2  C2  UNL     1     -10.992   3.226  39.377  1.00  0.00    -0.036 C 
HETATM    3  C3  UNL     1     -11.235   4.585  38.739  1.00  0.00     0.039 C 
HETATM    4  C4  UNL     1     -11.907   4.333  37.413  1.00  0.00     0.278 C 
HETATM    5  N1  UNL     1     -12.041   2.931  37.118  1.00  0.00     0.134 N 
HETATM    6  C5  UNL     1     -10.697   2.376  37.109  1.00  0.00     0.278 C 
HETATM    7  C6  UNL     1     -10.019   2.511  38.459  1.00  0.00     0.039 C 
HETATM    8  C7  UNL     1     -12.814   2.198  38.065  1.00  0.00     0.356 C 
HETATM    9  F1  UNL     1     -12.682   0.848  37.747  1.00  0.00    -0.202 F 
HETATM   10  C9  UNL     1     -12.266   2.415  39.452  1.00  0.00     0.092 C 
ENDROOT
BRANCH   8  11
HETATM   11  C8  UNL     1     -14.273   2.545  38.083  1.00  0.00     0.424 C 
HETATM   12  F2  UNL     1     -14.621   3.375  39.129  1.00  0.00    -0.209 F 
HETATM   13  F3  UNL     1     -14.550   3.167  36.858  1.00  0.00    -0.209 F 
ENDBRANCH   8  11
TORSDOF 1
ENDMDL
MODEL 5
REMARK VINA RESULT: -6.399856919      2.337      3.691
REMARK  1 active torsions:
REMARK  status: ('A' for Active; 'I' for Inactive)
REMARK    1  A    between atoms: C7_8  and  C8_10 
ROOT
HETATM    1  C1  UNL     1     -12.658   1.823  40.761  1.00  0.00     0.015 C 
HETATM    2  C2  UNL     1     -12.304   2.609  39.527  1.00  0.00    -0.036 C 
HETATM    3  C3  UNL     1     -13.553   3.052  38.780  1.00  0.00     0.039 C 
HETATM    4  C4  UNL     1     -13.091   3.687  37.493  1.00  0.00     0.278 C 
HETATM    5  N1  UNL     1     -11.657   3.757  37.392  1.00  0.00     0.134 N 
HETATM    6  C5  UNL     1     -11.197   4.540  38.528  1.00  0.00     0.278 C 
HETATM    7  C6  UNL     1     -11.546   3.882  39.849  1.00  0.00     0.039 C 
HETATM    8  C7  UNL     1     -10.999   2.493  37.434  1.00  0.00     0.356 C 
HETATM    9  F1  UNL     1      -9.631   2.744  37.525  1.00  0.00    -0.202 F 
HETATM   10  C9  UNL     1     -11.425   1.733  38.664  1.00  0.00     0.092 C 
ENDROOT
BRANCH   8  11
HETATM   11  C8  UNL     1     -11.247   1.621  36.240  1.00  0.00     0.424 C 
HETATM   12  F2  UNL     1     -10.090   1.261  35.579  1.00  0.00    -0.209 F 
HETATM   13  F3  UNL     1     -11.911   0.480  36.710  1.00  0.00    -0.209 F 
ENDBRANCH   8  11
TORSDOF 1
ENDMDL
