MODEL 1
REMARK VINA RESULT: -6.086821234      0.000      0.000
REMARK  1 active torsions:
REMARK  status: ('A' for Active; 'I' for Inactive)
REMARK    1  A    between atoms: C2_2  and  C3_3 
ROOT
HETATM    1  C1  UNL     1     -14.616   3.445  37.260  1.00  0.00     0.056 C 
HETATM    2  C2  UNL     1     -13.085   3.428  37.425  1.00  0.00     0.158 C 
HETATM    3  C4  UNL     1     -12.779   4.476  38.459  1.00  0.00     0.075 C 
HETATM    4  C5  UNL     1     -11.431   4.265  39.047  1.00  0.00     0.242 C 
HETATM    5  N1  UNL     1     -11.198   2.887  39.402  1.00  0.00    -0.054 N 
HETATM    6  C6  UNL     1      -9.752   2.771  39.642  1.00  0.00     0.274 C 
HETATM    7  C7  UNL     1     -11.843   2.507  40.643  1.00  0.00     0.274 C 
HETATM    8  C8  UNL     1     -11.551   1.958  38.362  1.00  0.00     0.405 C 
HETATM    9  O1  UNL     1     -12.760   2.156  37.786  1.00  0.00    -0.344 OA
ENDROOT
BRANCH   2  10
HETATM   10  C3  UNL     1     -12.561   3.819  36.044  1.00  0.00     0.418 C 
HETATM   11  F1  UNL     1     -11.972   5.068  36.187  1.00  0.00    -0.168 F 
HETATM   12  F2  UNL     1     -13.706   3.983  35.253  1.00  0.00    -0.168 F 
HETATM   13  F3  UNL     1     -11.728   2.891  35.511  1.00  0.00    -0.168 F 
ENDBRANCH   2  10
TORSDOF 1
ENDMDL
MODEL 2
REMARK VINA RESULT: -5.864306542      3.192      4.001
REMARK  1 active torsions:
REMARK  status: ('A' for Active; 'I' for Inactive)
REMARK    1  A    between atoms: C2_2  and  C3_3 
ROOT
HETATM    1  C1  UNL     1     -14.619   2.807  39.475  1.00  0.00     0.056 C 
HETATM    2  C2  UNL     1     -13.126   2.468  39.311  1.00  0.00     0.158 C 
HETATM    3  C4  UNL     1     -13.072   1.365  38.289  1.00  0.00     0.075 C 
HETATM    4  C5  UNL     1     -11.713   1.253  37.700  1.00  0.00     0.242 C 
HETATM    5  N1  UNL     1     -11.169   2.535  37.329  1.00  0.00    -0.054 N 
HETATM    6  C6  UNL     1      -9.735   2.311  37.089  1.00  0.00     0.274 C 
HETATM    7  C7  UNL     1     -11.711   3.040  36.084  1.00  0.00     0.274 C 
HETATM    8  C8  UNL     1     -11.295   3.533  38.358  1.00  0.00     0.405 C 
HETATM    9  O1  UNL     1     -12.516   3.626  38.936  1.00  0.00    -0.344 OA
ENDROOT
BRANCH   2  10
HETATM   10  C3  UNL     1     -12.703   1.982  40.697  1.00  0.00     0.418 C 
HETATM   11  F1  UNL     1     -12.397   0.634  40.564  1.00  0.00    -0.168 F 
HETATM   12  F2  UNL     1     -13.859   2.074  41.483  1.00  0.00    -0.168 F 
HETATM   13  F3  UNL     1     -11.691   2.711  41.228  1.00  0.00    -0.168 F 
ENDBRANCH   2  10
TORSDOF 1
ENDMDL
MODEL 3
REMARK VINA RESULT: -5.771983934      1.698      2.620
REMARK  1 active torsions:
REMARK  status: ('A' for Active; 'I' for Inactive)
REMARK    1  A    between atoms: C2_2  and  C3_3 
ROOT
HETATM    1  C1  UNL     1     -12.763   3.565  35.839  1.00  0.00     0.056 C 
HETATM    2  C2  UNL     1     -12.781   3.418  37.372  1.00  0.00     0.158 C 
HETATM    3  C4  UNL     1     -12.229   2.047  37.653  1.00  0.00     0.075 C 
HETATM    4  C5  UNL     1     -11.766   1.939  39.060  1.00  0.00     0.242 C 
HETATM    5  N1  UNL     1     -10.975   3.075  39.465  1.00  0.00    -0.054 N 
HETATM    6  C6  UNL     1     -10.879   2.998  40.931  1.00  0.00     0.274 C 
HETATM    7  C7  UNL     1      -9.614   3.021  38.970  1.00  0.00     0.274 C 
HETATM    8  C8  UNL     1     -11.569   4.340  39.125  1.00  0.00     0.405 C 
HETATM    9  O1  UNL     1     -12.034   4.447  37.858  1.00  0.00    -0.344 OA
ENDROOT
BRANCH   2  10
HETATM   10  C3  UNL     1     -14.263   3.522  37.735  1.00  0.00     0.418 C 
HETATM   11  F1  UNL     1     -14.742   2.220  37.800  1.00  0.00    -0.168 F 
HETATM   12  F2  UNL     1     -14.866   4.136  36.630  1.00  0.00    -0.168 F 
HETATM   13  F3  UNL     1     -14.482   4.231  38.869  1.00  0.00    -0.168 F 
ENDBRANCH   2  10
TORSDOF 1
ENDMDL
MODEL 4
REMARK VINA RESULT: -5.588557643      2.034      3.500
REMARK  1 active torsions:
REMARK  status: ('A' for Active; 'I' for Inactive)
REMARK    1  A    between atoms: C2_2  and  C3_3 
ROOT
HETATM    1  C1  UNL     1     -11.272   4.512  38.223  1.00  0.00     0.056 C 
HETATM    2  C2  UNL     1     -12.339   3.460  37.868  1.00  0.00     0.158 C 
HETATM    3  C4  UNL     1     -12.913   3.006  39.183  1.00  0.00     0.075 C 
HETATM    4  C5  UNL     1     -14.233   2.354  38.989  1.00  0.00     0.242 C 
HETATM    5  N1  UNL     1     -15.092   3.105  38.108  1.00  0.00    -0.054 N 
HETATM    6  C6  UNL     1     -16.193   2.199  37.749  1.00  0.00     0.274 C 
HETATM    7  C7  UNL     1     -15.705   4.247  38.757  1.00  0.00     0.274 C 
HETATM    8  C8  UNL     1     -14.446   3.522  36.892  1.00  0.00     0.405 C 
HETATM    9  O1  UNL     1     -13.223   4.085  37.043  1.00  0.00    -0.344 OA
ENDROOT
BRANCH   2  10
HETATM   10  C3  UNL     1     -11.547   2.349  37.178  1.00  0.00     0.418 C 
HETATM   11  F1  UNL     1     -10.241   2.454  37.639  1.00  0.00    -0.168 F 
HETATM   12  F2  UNL     1     -11.541   2.695  35.821  1.00  0.00    -0.168 F 
HETATM   13  F3  UNL     1     -12.085   1.119  37.367  1.00  0.00    -0.168 F 
ENDBRANCH   2  10
TORSDOF 1
ENDMDL
MODEL 5
REMARK VINA RESULT: -5.576649168      2.260      3.690
REMARK  1 active torsions:
REMARK  status: ('A' for Active; 'I' for Inactive)
REMARK    1  A    between atoms: C2_2  and  C3_3 
ROOT
HETATM    1  C1  UNL     1     -11.139   1.516  37.626  1.00  0.00     0.056 C 
HETATM    2  C2  UNL     1     -12.032   2.636  38.191  1.00  0.00     0.158 C 
HETATM    3  C4  UNL     1     -12.761   3.207  37.006  1.00  0.00     0.075 C 
HETATM    4  C5  UNL     1     -13.966   3.961  37.437  1.00  0.00     0.242 C 
HETATM    5  N1  UNL     1     -14.742   3.241  38.416  1.00  0.00    -0.054 N 
HETATM    6  C6  UNL     1     -15.682   4.219  38.986  1.00  0.00     0.274 C 
HETATM    7  C7  UNL     1     -15.556   2.194  37.833  1.00  0.00     0.274 C 
HETATM    8  C8  UNL     1     -13.953   2.705  39.494  1.00  0.00     0.405 C 
HETATM    9  O1  UNL     1     -12.829   2.047  39.124  1.00  0.00    -0.344 OA
ENDROOT
BRANCH   2  10
HETATM   10  C3  UNL     1     -11.039   3.635  38.786  1.00  0.00     0.418 C 
HETATM   11  F1  UNL     1     -11.139   4.789  38.021  1.00  0.00    -0.168 F 
HETATM   12  F2  UNL     1      -9.776   3.080  38.544  1.00  0.00    -0.168 F 
HETATM   13  F3  UNL     1     -11.233   3.850  40.110  1.00  0.00    -0.168 F 
ENDBRANCH   2  10
TORSDOF 1
ENDMDL
