MODEL 1
REMARK VINA RESULT: -6.636901294      0.000      0.000
REMARK  4 active torsions:
REMARK  status: ('A' for Active; 'I' for Inactive)
REMARK    1  A    between atoms: C2_2  and  C3_3 
REMARK    2  A    between atoms: C6_8  and  C7_9 
REMARK    3  A    between atoms: C7_9  and  N2_11 
REMARK    4  A    between atoms: N2_11  and  C8_14 
ROOT
HETATM    1  C7  UNL     1       3.805   5.733  -0.539  1.00  0.00     0.317 C 
HETATM    2 CL1  UNL     1       4.297   5.356  -2.112  1.00  0.00    -0.089 Cl
ENDROOT
BRANCH   1   3
HETATM    3  C6  UNL     1       4.098   7.063   0.069  1.00  0.00     0.025 A 
HETATM    4  C3  UNL     1       4.885   8.056  -0.371  1.00  0.00    -0.040 A 
HETATM    5  C4  UNL     1       4.936   9.207   0.400  1.00  0.00     0.059 A 
HETATM    6  S1  UNL     1       3.907   8.893   1.707  1.00  0.00    -0.086 SA
HETATM    7  C5  UNL     1       3.423   7.332   1.276  1.00  0.00     0.097 A 
HETATM    8  N1  UNL     1       2.516   6.458   1.986  1.00  0.00    -0.094 NA
BRANCH   4   9
HETATM    9  C2  UNL     1       5.755   7.993  -1.627  1.00  0.00     0.035 C 
HETATM   10  C1  UNL     1       7.180   8.357  -1.317  1.00  0.00     0.010 C 
ENDBRANCH   4   9
ENDBRANCH   1   3
BRANCH   1  11
HETATM   11  N2  UNL     1       4.343   4.676   0.345  1.00  0.00    -0.050 N 
ATOM     12  H22 UNL     1       5.357   4.741   0.437  1.00  0.00     0.279 HD
ATOM     13  H21 UNL     1       4.089   4.833   1.319  1.00  0.00     0.279 HD
BRANCH  11  14
HETATM   14  C8  UNL     1       3.934   3.377  -0.107  1.00  0.00     0.188 C 
HETATM   15  C9  UNL     1       2.495   3.124   0.202  1.00  0.00     0.033 C 
HETATM   16  C10 UNL     1       2.374   1.701   0.692  1.00  0.00     0.002 C 
HETATM   17  C11 UNL     1       3.699   1.428   1.321  1.00  0.00     0.002 C 
HETATM   18  C12 UNL     1       4.697   2.264   0.577  1.00  0.00     0.033 C 
ENDBRANCH  11  14
ENDBRANCH   1  11
TORSDOF 4
ENDMDL
MODEL 2
REMARK VINA RESULT: -6.613662742      2.515      3.577
REMARK  4 active torsions:
REMARK  status: ('A' for Active; 'I' for Inactive)
REMARK    1  A    between atoms: C2_2  and  C3_3 
REMARK    2  A    between atoms: C6_8  and  C7_9 
REMARK    3  A    between atoms: C7_9  and  N2_11 
REMARK    4  A    between atoms: N2_11  and  C8_14 
ROOT
HETATM    1  C7  UNL     1       3.066   6.147   0.573  1.00  0.00     0.317 C 
HETATM    2 CL1  UNL     1       2.493   6.402   2.144  1.00  0.00    -0.089 Cl
ENDROOT
BRANCH   1   3
HETATM    3  C6  UNL     1       4.035   7.086  -0.063  1.00  0.00     0.025 A 
HETATM    4  C3  UNL     1       4.473   8.283   0.354  1.00  0.00    -0.040 A 
HETATM    5  C4  UNL     1       5.414   8.920  -0.441  1.00  0.00     0.059 A 
HETATM    6  S1  UNL     1       5.670   7.859  -1.735  1.00  0.00    -0.086 SA
HETATM    7  C5  UNL     1       4.602   6.635  -1.271  1.00  0.00     0.097 A 
HETATM    8  N1  UNL     1       4.325   5.393  -1.958  1.00  0.00    -0.094 NA
BRANCH   4   9
HETATM    9  C2  UNL     1       3.980   9.009   1.605  1.00  0.00     0.035 C 
HETATM   10  C1  UNL     1       3.655  10.446   1.306  1.00  0.00     0.010 C 
ENDBRANCH   4   9
ENDBRANCH   1   3
BRANCH   1  11
HETATM   11  N2  UNL     1       1.879   6.022  -0.302  1.00  0.00    -0.050 N 
ATOM     12  H22 UNL     1       1.399   6.914  -0.416  1.00  0.00     0.279 HD
ATOM     13  H21 UNL     1       2.143   5.863  -1.274  1.00  0.00     0.279 HD
BRANCH  11  14
HETATM   14  C8  UNL     1       0.995   5.001   0.182  1.00  0.00     0.188 C 
HETATM   15  C9  UNL     1       1.454   3.643  -0.238  1.00  0.00     0.033 C 
HETATM   16  C10 UNL     1       0.236   2.857  -0.659  1.00  0.00     0.002 C 
HETATM   17  C11 UNL     1      -0.707   3.901  -1.154  1.00  0.00     0.002 C 
HETATM   18  C12 UNL     1      -0.406   5.144  -0.371  1.00  0.00     0.033 C 
ENDBRANCH  11  14
ENDBRANCH   1  11
TORSDOF 4
ENDMDL
MODEL 3
REMARK VINA RESULT: -6.342051765      2.315      5.687
REMARK  4 active torsions:
REMARK  status: ('A' for Active; 'I' for Inactive)
REMARK    1  A    between atoms: C2_2  and  C3_3 
REMARK    2  A    between atoms: C6_8  and  C7_9 
REMARK    3  A    between atoms: C7_9  and  N2_11 
REMARK    4  A    between atoms: N2_11  and  C8_14 
ROOT
HETATM    1  C7  UNL     1       3.745   4.978  -0.535  1.00  0.00     0.317 C 
HETATM    2 CL1  UNL     1       4.224   5.278  -2.129  1.00  0.00    -0.089 Cl
ENDROOT
BRANCH   1   3
HETATM    3  C6  UNL     1       2.919   3.787  -0.183  1.00  0.00     0.025 A 
HETATM    4  C3  UNL     1       3.221   2.726   0.580  1.00  0.00    -0.040 A 
HETATM    5  C4  UNL     1       2.225   1.778   0.759  1.00  0.00     0.059 A 
HETATM    6  S1  UNL     1       0.907   2.368  -0.123  1.00  0.00    -0.086 SA
HETATM    7  C5  UNL     1       1.611   3.790  -0.705  1.00  0.00     0.097 A 
HETATM    8  N1  UNL     1       1.008   4.794  -1.553  1.00  0.00    -0.094 NA
BRANCH   4   9
HETATM    9  C2  UNL     1       4.584   2.468   1.221  1.00  0.00     0.035 C 
HETATM   10  C1  UNL     1       4.497   1.386   2.262  1.00  0.00     0.010 C 
ENDBRANCH   4   9
ENDBRANCH   1   3
BRANCH   1  11
HETATM   11  N2  UNL     1       3.055   6.196  -0.058  1.00  0.00    -0.050 N 
ATOM     12  H22 UNL     1       2.446   6.590  -0.774  1.00  0.00     0.279 HD
ATOM     13  H21 UNL     1       2.348   5.979   0.644  1.00  0.00     0.279 HD
BRANCH  11  14
HETATM   14  C8  UNL     1       4.000   7.162   0.424  1.00  0.00     0.188 C 
HETATM   15  C9  UNL     1       3.570   7.733   1.736  1.00  0.00     0.033 C 
HETATM   16  C10 UNL     1       3.844   9.217   1.703  1.00  0.00     0.002 C 
HETATM   17  C11 UNL     1       3.724   9.568   0.258  1.00  0.00     0.002 C 
HETATM   18  C12 UNL     1       4.138   8.347  -0.506  1.00  0.00     0.033 C 
ENDBRANCH  11  14
ENDBRANCH   1  11
TORSDOF 4
ENDMDL
MODEL 4
REMARK VINA RESULT: -6.309526645      2.744      5.672
REMARK  4 active torsions:
REMARK  status: ('A' for Active; 'I' for Inactive)
REMARK    1  A    between atoms: C2_2  and  C3_3 
REMARK    2  A    between atoms: C6_8  and  C7_9 
REMARK    3  A    between atoms: C7_9  and  N2_11 
REMARK    4  A    between atoms: N2_11  and  C8_14 
ROOT
HETATM    1  C7  UNL     1       2.186   5.992   0.578  1.00  0.00     0.317 C 
HETATM    2 CL1  UNL     1       2.530   6.427   2.175  1.00  0.00    -0.089 Cl
ENDROOT
BRANCH   1   3
HETATM    3  C6  UNL     1       1.790   4.599   0.220  1.00  0.00     0.025 A 
HETATM    4  C3  UNL     1       2.474   3.452   0.342  1.00  0.00    -0.040 A 
HETATM    5  C4  UNL     1       1.827   2.289  -0.049  1.00  0.00     0.059 A 
HETATM    6  S1  UNL     1       0.302   2.804  -0.572  1.00  0.00    -0.086 SA
HETATM    7  C5  UNL     1       0.487   4.460  -0.298  1.00  0.00     0.097 A 
HETATM    8  N1  UNL     1      -0.475   5.512  -0.539  1.00  0.00    -0.094 NA
BRANCH   4   9
HETATM    9  C2  UNL     1       3.917   3.340   0.833  1.00  0.00     0.035 C 
HETATM   10  C1  UNL     1       4.083   2.175   1.768  1.00  0.00     0.010 C 
ENDBRANCH   4   9
ENDBRANCH   1   3
BRANCH   1  11
HETATM   11  N2  UNL     1       3.361   6.377  -0.235  1.00  0.00    -0.050 N 
ATOM     12  H22 UNL     1       4.034   5.615  -0.312  1.00  0.00     0.279 HD
ATOM     13  H21 UNL     1       3.122   6.473  -1.221  1.00  0.00     0.279 HD
BRANCH  11  14
HETATM   14  C8  UNL     1       3.968   7.570   0.281  1.00  0.00     0.188 C 
HETATM   15  C9  UNL     1       3.724   8.736  -0.620  1.00  0.00     0.033 C 
HETATM   16  C10 UNL     1       5.008   9.525  -0.708  1.00  0.00     0.002 C 
HETATM   17  C11 UNL     1       6.070   8.500  -0.500  1.00  0.00     0.002 C 
HETATM   18  C12 UNL     1       5.472   7.450   0.388  1.00  0.00     0.033 C 
ENDBRANCH  11  14
ENDBRANCH   1  11
TORSDOF 4
ENDMDL
MODEL 5
REMARK VINA RESULT: -6.293173602      2.951      5.880
REMARK  4 active torsions:
REMARK  status: ('A' for Active; 'I' for Inactive)
REMARK    1  A    between atoms: C2_2  and  C3_3 
REMARK    2  A    between atoms: C6_8  and  C7_9 
REMARK    3  A    between atoms: C7_9  and  N2_11 
REMARK    4  A    between atoms: N2_11  and  C8_14 
ROOT
HETATM    1  C7  UNL     1       2.247   6.179   0.571  1.00  0.00     0.317 C 
HETATM    2 CL1  UNL     1       2.567   6.579   2.182  1.00  0.00    -0.089 Cl
ENDROOT
BRANCH   1   3
HETATM    3  C6  UNL     1       1.776   4.816   0.187  1.00  0.00     0.025 A 
HETATM    4  C3  UNL     1       0.604   4.428  -0.337  1.00  0.00    -0.040 A 
HETATM    5  C4  UNL     1       0.462   3.079  -0.627  1.00  0.00     0.059 A 
HETATM    6  S1  UNL     1       1.937   2.385  -0.172  1.00  0.00    -0.086 SA
HETATM    7  C5  UNL     1       2.714   3.783   0.373  1.00  0.00     0.097 A 
HETATM    8  N1  UNL     1       4.050   3.900   0.913  1.00  0.00    -0.094 NA
BRANCH   4   9
HETATM    9  C2  UNL     1      -0.590   5.348  -0.591  1.00  0.00     0.035 C 
HETATM   10  C1  UNL     1      -1.410   4.862  -1.754  1.00  0.00     0.010 C 
ENDBRANCH   4   9
ENDBRANCH   1   3
BRANCH   1  11
HETATM   11  N2  UNL     1       3.468   6.496  -0.202  1.00  0.00    -0.050 N 
ATOM     12  H22 UNL     1       4.108   5.703  -0.239  1.00  0.00     0.279 HD
ATOM     13  H21 UNL     1       3.272   6.584  -1.198  1.00  0.00     0.279 HD
BRANCH  11  14
HETATM   14  C8  UNL     1       4.109   7.670   0.318  1.00  0.00     0.188 C 
HETATM   15  C9  UNL     1       3.963   8.826  -0.617  1.00  0.00     0.033 C 
HETATM   16  C10 UNL     1       5.286   9.551  -0.661  1.00  0.00     0.002 C 
HETATM   17  C11 UNL     1       6.287   8.481  -0.385  1.00  0.00     0.002 C 
HETATM   18  C12 UNL     1       5.599   7.480   0.496  1.00  0.00     0.033 C 
ENDBRANCH  11  14
ENDBRANCH   1  11
TORSDOF 4
ENDMDL
