MODEL 1
REMARK VINA RESULT: -7.837439319      0.000      0.000
REMARK  5 active torsions:
REMARK  status: ('A' for Active; 'I' for Inactive)
REMARK    1  A    between atoms: O1_1  and  C1_3 
REMARK    2  A    between atoms: C4_6  and  O2_7 
REMARK    3  A    between atoms: N1_9  and  C5_10 
REMARK    4  A    between atoms: C5_10  and  C6_11 
REMARK    5  A    between atoms: C6_11  and  C7_12 
ROOT
HETATM    1  C1  UNL     1       4.375   6.864  -0.881  1.00  0.00     0.151 A 
HETATM    2  C2  UNL     1       4.500   8.111  -0.307  1.00  0.00     0.004 A 
HETATM    3  C3  UNL     1       3.853   8.031   0.899  1.00  0.00     0.004 A 
HETATM    4  C4  UNL     1       3.367   6.758   1.012  1.00  0.00     0.151 A 
HETATM    5  N1  UNL     1       3.686   6.046  -0.077  1.00  0.00    -0.308 N 
HETATM    6  C12 UNL     1       3.754   9.173   1.845  1.00  0.00     0.044 C 
HETATM    7  C13 UNL     1       3.983  10.494   1.226  1.00  0.00     0.005 C 
HETATM    8  C14 UNL     1       4.222  10.503  -0.237  1.00  0.00     0.005 C 
HETATM    9  C15 UNL     1       5.129   9.381  -0.697  1.00  0.00     0.044 C 
ENDROOT
BRANCH   5  10
HETATM   10  C5  UNL     1       3.341   4.630  -0.335  1.00  0.00     0.134 C 
BRANCH  10  11
HETATM   11  C6  UNL     1       2.158   4.508  -1.216  1.00  0.00     0.029 C 
BRANCH  11  12
HETATM   12  C7  UNL     1       0.920   4.230  -0.407  1.00  0.00     0.013 C 
HETATM   13  C8  UNL     1       0.170   5.496  -0.123  1.00  0.00     0.015 C 
HETATM   14  C9  UNL     1      -0.777   5.665  -1.011  1.00  0.00     0.090 C 
HETATM   15  F1  UNL     1      -1.650   6.688  -1.073  1.00  0.00    -0.211 F 
HETATM   16  C10 UNL     1      -0.774   4.518  -1.990  1.00  0.00     0.070 C 
HETATM   17  C11 UNL     1      -0.102   3.426  -1.152  1.00  0.00     0.015 C 
ENDBRANCH  11  12
ENDBRANCH  10  11
ENDBRANCH   5  10
BRANCH   1  18
HETATM   18  O1  UNL     1       4.891   6.511  -2.120  1.00  0.00    -0.345 OA
ATOM     19  H1  UNL     1       4.792   7.023  -2.913  1.00  0.00     0.219 HD
ENDBRANCH   1  18
BRANCH   4  20
HETATM   20  O2  UNL     1       2.643   6.229   2.074  1.00  0.00    -0.345 OA
ATOM     21  H2  UNL     1       2.728   5.360   2.450  1.00  0.00     0.219 HD
ENDBRANCH   4  20
TORSDOF 5
ENDMDL
MODEL 2
REMARK VINA RESULT: -7.823249590      3.222      4.020
REMARK  5 active torsions:
REMARK  status: ('A' for Active; 'I' for Inactive)
REMARK    1  A    between atoms: O1_1  and  C1_3 
REMARK    2  A    between atoms: C4_6  and  O2_7 
REMARK    3  A    between atoms: N1_9  and  C5_10 
REMARK    4  A    between atoms: C5_10  and  C6_11 
REMARK    5  A    between atoms: C6_11  and  C7_12 
ROOT
HETATM    1  C1  UNL     1       3.854   6.152  -0.541  1.00  0.00     0.151 A 
HETATM    2  C2  UNL     1       4.261   7.444  -0.285  1.00  0.00     0.004 A 
HETATM    3  C3  UNL     1       3.707   7.775   0.923  1.00  0.00     0.004 A 
HETATM    4  C4  UNL     1       2.995   6.689   1.353  1.00  0.00     0.151 A 
HETATM    5  N1  UNL     1       3.086   5.698   0.456  1.00  0.00    -0.308 N 
HETATM    6  C12 UNL     1       3.902   9.098   1.572  1.00  0.00     0.044 C 
HETATM    7  C13 UNL     1       4.332  10.168   0.649  1.00  0.00     0.005 C 
HETATM    8  C14 UNL     1       4.453   9.793  -0.781  1.00  0.00     0.005 C 
HETATM    9  C15 UNL     1       5.089   8.435  -0.987  1.00  0.00     0.044 C 
ENDROOT
BRANCH   5  10
HETATM   10  C5  UNL     1       2.456   4.362   0.554  1.00  0.00     0.134 C 
BRANCH  10  11
HETATM   11  C6  UNL     1       3.264   3.436   1.380  1.00  0.00     0.029 C 
BRANCH  11  12
HETATM   12  C7  UNL     1       4.025   2.474   0.509  1.00  0.00     0.013 C 
HETATM   13  C8  UNL     1       5.135   1.820   1.276  1.00  0.00     0.015 C 
HETATM   14  C9  UNL     1       4.737   0.662   1.741  1.00  0.00     0.090 C 
HETATM   15  F1  UNL     1       5.461  -0.203   2.475  1.00  0.00    -0.211 F 
HETATM   16  C10 UNL     1       3.309   0.405   1.325  1.00  0.00     0.070 C 
HETATM   17  C11 UNL     1       3.208   1.293   0.081  1.00  0.00     0.015 C 
ENDBRANCH  11  12
ENDBRANCH  10  11
ENDBRANCH   5  10
BRANCH   1  18
HETATM   18  O1  UNL     1       4.195   5.427  -1.674  1.00  0.00    -0.345 OA
ATOM     19  H1  UNL     1       3.946   4.524  -1.833  1.00  0.00     0.219 HD
ENDBRANCH   1  18
BRANCH   4  20
HETATM   20  O2  UNL     1       2.268   6.576   2.532  1.00  0.00    -0.345 OA
ATOM     21  H2  UNL     1       1.322   6.558   2.623  1.00  0.00     0.219 HD
ENDBRANCH   4  20
TORSDOF 5
ENDMDL
MODEL 3
REMARK VINA RESULT: -7.806837459      1.308      2.564
REMARK  5 active torsions:
REMARK  status: ('A' for Active; 'I' for Inactive)
REMARK    1  A    between atoms: O1_1  and  C1_3 
REMARK    2  A    between atoms: C4_6  and  O2_7 
REMARK    3  A    between atoms: N1_9  and  C5_10 
REMARK    4  A    between atoms: C5_10  and  C6_11 
REMARK    5  A    between atoms: C6_11  and  C7_12 
ROOT
HETATM    1  C1  UNL     1       3.366   6.364   0.542  1.00  0.00     0.151 A 
HETATM    2  C2  UNL     1       4.267   7.380   0.306  1.00  0.00     0.004 A 
HETATM    3  C3  UNL     1       4.843   7.091  -0.904  1.00  0.00     0.004 A 
HETATM    4  C4  UNL     1       4.280   5.929  -1.352  1.00  0.00     0.151 A 
HETATM    5  N1  UNL     1       3.377   5.485  -0.467  1.00  0.00    -0.308 N 
HETATM    6  C12 UNL     1       5.882   7.948  -1.534  1.00  0.00     0.044 C 
HETATM    7  C13 UNL     1       6.573   8.853  -0.594  1.00  0.00     0.005 C 
HETATM    8  C14 UNL     1       6.181   8.745   0.831  1.00  0.00     0.005 C 
HETATM    9  C15 UNL     1       4.687   8.590   1.026  1.00  0.00     0.044 C 
ENDROOT
BRANCH   5  10
HETATM   10  C5  UNL     1       2.555   4.261  -0.587  1.00  0.00     0.134 C 
BRANCH  10  11
HETATM   11  C6  UNL     1       1.343   4.493  -1.403  1.00  0.00     0.029 C 
BRANCH  11  12
HETATM   12  C7  UNL     1       0.140   4.692  -0.522  1.00  0.00     0.013 C 
HETATM   13  C8  UNL     1      -0.980   5.337  -1.282  1.00  0.00     0.015 C 
HETATM   14  C9  UNL     1      -1.801   4.422  -1.735  1.00  0.00     0.090 C 
HETATM   15  F1  UNL     1      -2.916   4.628  -2.460  1.00  0.00    -0.211 F 
HETATM   16  C10 UNL     1      -1.324   3.053  -1.316  1.00  0.00     0.070 C 
HETATM   17  C11 UNL     1      -0.489   3.405  -0.082  1.00  0.00     0.015 C 
ENDBRANCH  11  12
ENDBRANCH  10  11
ENDBRANCH   5  10
BRANCH   1  18
HETATM   18  O1  UNL     1       2.562   6.269   1.669  1.00  0.00    -0.345 OA
ATOM     19  H1  UNL     1       1.639   6.489   1.695  1.00  0.00     0.219 HD
ENDBRANCH   1  18
BRANCH   4  20
HETATM   20  O2  UNL     1       4.564   5.263  -2.539  1.00  0.00    -0.345 OA
ATOM     21  H2  UNL     1       4.418   5.579  -3.423  1.00  0.00     0.219 HD
ENDBRANCH   4  20
TORSDOF 5
ENDMDL
MODEL 4
REMARK VINA RESULT: -7.800934902      2.988      4.414
REMARK  5 active torsions:
REMARK  status: ('A' for Active; 'I' for Inactive)
REMARK    1  A    between atoms: O1_1  and  C1_3 
REMARK    2  A    between atoms: C4_6  and  O2_7 
REMARK    3  A    between atoms: N1_9  and  C5_10 
REMARK    4  A    between atoms: C5_10  and  C6_11 
REMARK    5  A    between atoms: C6_11  and  C7_12 
ROOT
HETATM    1  C1  UNL     1       3.701   7.169   0.846  1.00  0.00     0.151 A 
HETATM    2  C2  UNL     1       4.716   7.924   0.299  1.00  0.00     0.004 A 
HETATM    3  C3  UNL     1       5.012   7.333  -0.902  1.00  0.00     0.004 A 
HETATM    4  C4  UNL     1       4.179   6.257  -1.039  1.00  0.00     0.151 A 
HETATM    5  N1  UNL     1       3.378   6.158   0.031  1.00  0.00    -0.308 N 
HETATM    6  C12 UNL     1       6.063   7.842  -1.821  1.00  0.00     0.044 C 
HETATM    7  C13 UNL     1       7.059   8.722  -1.176  1.00  0.00     0.005 C 
HETATM    8  C14 UNL     1       6.906   8.926   0.285  1.00  0.00     0.005 C 
HETATM    9  C15 UNL     1       5.466   9.118   0.711  1.00  0.00     0.044 C 
ENDROOT
BRANCH   5  10
HETATM   10  C5  UNL     1       2.341   5.128   0.261  1.00  0.00     0.134 C 
BRANCH  10  11
HETATM   11  C6  UNL     1       2.814   4.071   1.182  1.00  0.00     0.029 C 
BRANCH  11  12
HETATM   12  C7  UNL     1       3.202   2.835   0.419  1.00  0.00     0.013 C 
HETATM   13  C8  UNL     1       4.666   2.841   0.097  1.00  0.00     0.015 C 
HETATM   14  C9  UNL     1       5.327   2.161   1.000  1.00  0.00     0.090 C 
HETATM   15  F1  UNL     1       6.656   1.952   1.037  1.00  0.00    -0.211 F 
HETATM   16  C10 UNL     1       4.371   1.611   2.029  1.00  0.00     0.070 C 
HETATM   17  C11 UNL     1       3.069   1.578   1.224  1.00  0.00     0.015 C 
ENDBRANCH  11  12
ENDBRANCH  10  11
ENDBRANCH   5  10
BRANCH   1  18
HETATM   18  O1  UNL     1       3.101   7.423   2.071  1.00  0.00    -0.345 OA
ATOM     19  H1  UNL     1       2.781   6.754   2.666  1.00  0.00     0.219 HD
ENDBRANCH   1  18
BRANCH   4  20
HETATM   20  O2  UNL     1       4.127   5.367  -2.105  1.00  0.00    -0.345 OA
ATOM     21  H2  UNL     1       3.525   4.640  -2.217  1.00  0.00     0.219 HD
ENDBRANCH   4  20
TORSDOF 5
ENDMDL
MODEL 5
REMARK VINA RESULT: -7.737564250      3.234      4.512
REMARK  5 active torsions:
REMARK  status: ('A' for Active; 'I' for Inactive)
REMARK    1  A    between atoms: O1_1  and  C1_3 
REMARK    2  A    between atoms: C4_6  and  O2_7 
REMARK    3  A    between atoms: N1_9  and  C5_10 
REMARK    4  A    between atoms: C5_10  and  C6_11 
REMARK    5  A    between atoms: C6_11  and  C7_12 
ROOT
HETATM    1  C1  UNL     1       3.083   6.700   1.217  1.00  0.00     0.151 A 
HETATM    2  C2  UNL     1       3.815   7.755   0.718  1.00  0.00     0.004 A 
HETATM    3  C3  UNL     1       4.282   7.340  -0.502  1.00  0.00     0.004 A 
HETATM    4  C4  UNL     1       3.822   6.067  -0.698  1.00  0.00     0.151 A 
HETATM    5  N1  UNL     1       3.089   5.677   0.354  1.00  0.00    -0.308 N 
HETATM    6  C12 UNL     1       5.125   8.190  -1.382  1.00  0.00     0.044 C 
HETATM    7  C13 UNL     1       5.799   9.304  -0.683  1.00  0.00     0.005 C 
HETATM    8  C14 UNL     1       5.589   9.384   0.782  1.00  0.00     0.005 C 
HETATM    9  C15 UNL     1       4.159   9.103   1.193  1.00  0.00     0.044 C 
ENDROOT
BRANCH   5  10
HETATM   10  C5  UNL     1       2.420   4.368   0.524  1.00  0.00     0.134 C 
BRANCH  10  11
HETATM   11  C6  UNL     1       3.224   3.447   1.358  1.00  0.00     0.029 C 
BRANCH  11  12
HETATM   12  C7  UNL     1       3.994   2.484   0.497  1.00  0.00     0.013 C 
HETATM   13  C8  UNL     1       5.102   1.838   1.273  1.00  0.00     0.015 C 
HETATM   14  C9  UNL     1       4.707   0.681   1.741  1.00  0.00     0.090 C 
HETATM   15  F1  UNL     1       5.432  -0.176   2.484  1.00  0.00    -0.211 F 
HETATM   16  C10 UNL     1       3.283   0.415   1.320  1.00  0.00     0.070 C 
HETATM   17  C11 UNL     1       3.184   1.296   0.071  1.00  0.00     0.015 C 
ENDBRANCH  11  12
ENDBRANCH  10  11
ENDBRANCH   5  10
BRANCH   1  18
HETATM   18  O1  UNL     1       2.431   6.700   2.442  1.00  0.00    -0.345 OA
ATOM     19  H1  UNL     1       1.551   6.374   2.587  1.00  0.00     0.219 HD
ENDBRANCH   1  18
BRANCH   4  20
HETATM   20  O2  UNL     1       4.050   5.254  -1.802  1.00  0.00    -0.345 OA
ATOM     21  H2  UNL     1       3.963   4.309  -1.845  1.00  0.00     0.219 HD
ENDBRANCH   4  20
TORSDOF 5
ENDMDL
