MODEL 1
REMARK VINA RESULT: -6.269123264      0.000      0.000
REMARK  4 active torsions:
REMARK  status: ('A' for Active; 'I' for Inactive)
REMARK    1  A    between atoms: C2_2  and  N1_3 
REMARK    2  A    between atoms: C2_2  and  C7_10 
REMARK    3  A    between atoms: C2_2  and  C10_13 
REMARK    4  A    between atoms: N1_3  and  C3_5 
ROOT
HETATM    1  C1  UNL     1     -11.808  -4.826 -38.349  1.00  0.00     0.046 C 
HETATM    2  C2  UNL     1     -11.778  -3.284 -38.366  1.00  0.00     0.107 C 
ENDROOT
BRANCH   2   3
HETATM    3  N1  UNL     1     -13.114  -2.858 -38.239  1.00  0.00    -0.402 N 
ATOM      4  H1  UNL     1     -13.304  -1.873 -38.058  1.00  0.00     0.154 HD
BRANCH   3   5
HETATM    5  C3  UNL     1     -14.195  -3.752 -38.354  1.00  0.00     0.087 C 
HETATM    6  C4  UNL     1     -15.076  -3.131 -39.444  1.00  0.00     0.035 C 
HETATM    7  C5  UNL     1     -16.316  -3.920 -39.557  1.00  0.00     0.076 C 
HETATM    8  S1  UNL     1     -16.560  -4.593 -37.887  1.00  0.00    -0.167 SA
HETATM    9  C6  UNL     1     -15.103  -3.767 -37.114  1.00  0.00     0.098 C 
ENDBRANCH   3   5
ENDBRANCH   2   3
BRANCH   2  10
HETATM   10  C7  UNL     1     -10.799  -2.868 -37.359  1.00  0.00     0.020 A 
HETATM   11  C8  UNL     1     -10.625  -1.500 -36.880  1.00  0.00     0.008 A 
HETATM   12  C9  UNL     1     -11.226  -2.473 -35.953  1.00  0.00     0.008 A 
ENDBRANCH   2  10
BRANCH   2  13
HETATM   13  C10 UNL     1     -11.332  -2.939 -39.774  1.00  0.00     0.344 C 
HETATM   14  F1  UNL     1      -9.978  -2.553 -39.811  1.00  0.00    -0.185 F 
HETATM   15  F2  UNL     1     -11.516  -3.976 -40.653  1.00  0.00    -0.185 F 
HETATM   16 CL1  UNL     1     -12.226  -1.528 -40.409  1.00  0.00    -0.045 Cl
ENDBRANCH   2  13
TORSDOF 4
ENDMDL
MODEL 2
REMARK VINA RESULT: -6.188965754      0.978      1.141
REMARK  4 active torsions:
REMARK  status: ('A' for Active; 'I' for Inactive)
REMARK    1  A    between atoms: C2_2  and  N1_3 
REMARK    2  A    between atoms: C2_2  and  C7_10 
REMARK    3  A    between atoms: C2_2  and  C10_13 
REMARK    4  A    between atoms: N1_3  and  C3_5 
ROOT
HETATM    1  C1  UNL     1     -11.699  -4.712 -38.510  1.00  0.00     0.046 C 
HETATM    2  C2  UNL     1     -11.617  -3.179 -38.376  1.00  0.00     0.107 C 
ENDROOT
BRANCH   2   3
HETATM    3  N1  UNL     1     -12.945  -2.708 -38.367  1.00  0.00    -0.402 N 
ATOM      4  H1  UNL     1     -13.113  -1.705 -38.291  1.00  0.00     0.154 HD
BRANCH   3   5
HETATM    5  C3  UNL     1     -14.045  -3.580 -38.458  1.00  0.00     0.087 C 
HETATM    6  C4  UNL     1     -14.935  -2.943 -39.531  1.00  0.00     0.035 C 
HETATM    7  C5  UNL     1     -16.192  -3.707 -39.619  1.00  0.00     0.076 C 
HETATM    8  S1  UNL     1     -16.416  -4.373 -37.943  1.00  0.00    -0.167 SA
HETATM    9  C6  UNL     1     -14.928  -3.575 -37.201  1.00  0.00     0.098 C 
ENDBRANCH   3   5
ENDBRANCH   2   3
BRANCH   2  10
HETATM   10  C7  UNL     1     -10.755  -2.899 -37.225  1.00  0.00     0.020 A 
HETATM   11  C8  UNL     1     -10.513  -1.572 -36.666  1.00  0.00     0.008 A 
HETATM   12  C9  UNL     1     -11.336  -2.503 -35.875  1.00  0.00     0.008 A 
ENDBRANCH   2  10
BRANCH   2  13
HETATM   13  C10 UNL     1     -10.992  -2.726 -39.682  1.00  0.00     0.344 C 
HETATM   14  F1  UNL     1     -11.682  -1.631 -40.236  1.00  0.00    -0.185 F 
HETATM   15  F2  UNL     1      -9.671  -2.388 -39.543  1.00  0.00    -0.185 F 
HETATM   16 CL1  UNL     1     -11.094  -4.005 -40.925  1.00  0.00    -0.045 Cl
ENDBRANCH   2  13
TORSDOF 4
ENDMDL
MODEL 3
REMARK VINA RESULT: -6.165976713      1.610      1.982
REMARK  4 active torsions:
REMARK  status: ('A' for Active; 'I' for Inactive)
REMARK    1  A    between atoms: C2_2  and  N1_3 
REMARK    2  A    between atoms: C2_2  and  C7_10 
REMARK    3  A    between atoms: C2_2  and  C10_13 
REMARK    4  A    between atoms: N1_3  and  C3_5 
ROOT
HETATM    1  C1  UNL     1     -12.076  -4.524 -38.794  1.00  0.00     0.046 C 
HETATM    2  C2  UNL     1     -12.954  -3.290 -38.503  1.00  0.00     0.107 C 
ENDROOT
BRANCH   2   3
HETATM    3  N1  UNL     1     -14.168  -3.495 -39.188  1.00  0.00    -0.402 N 
ATOM      4  H1  UNL     1     -14.147  -3.647 -40.196  1.00  0.00     0.154 HD
BRANCH   3   5
HETATM    5  C3  UNL     1     -15.407  -3.495 -38.523  1.00  0.00     0.087 C 
HETATM    6  C4  UNL     1     -16.096  -4.771 -39.020  1.00  0.00     0.035 C 
HETATM    7  C5  UNL     1     -17.469  -4.808 -38.486  1.00  0.00     0.076 C 
HETATM    8  S1  UNL     1     -17.912  -3.056 -38.300  1.00  0.00    -0.167 SA
HETATM    9  C6  UNL     1     -16.344  -2.369 -38.987  1.00  0.00     0.098 C 
ENDBRANCH   3   5
ENDBRANCH   2   3
BRANCH   2  10
HETATM   10  C7  UNL     1     -12.978  -3.121 -37.048  1.00  0.00     0.020 A 
HETATM   11  C8  UNL     1     -12.675  -4.172 -36.080  1.00  0.00     0.008 A 
HETATM   12  C9  UNL     1     -11.694  -3.084 -36.232  1.00  0.00     0.008 A 
ENDBRANCH   2  10
BRANCH   2  13
HETATM   13  C10 UNL     1     -12.235  -2.151 -39.200  1.00  0.00     0.344 C 
HETATM   14  F1  UNL     1     -12.374  -0.940 -38.496  1.00  0.00    -0.185 F 
HETATM   15  F2  UNL     1     -10.899  -2.405 -39.378  1.00  0.00    -0.185 F 
HETATM   16 CL1  UNL     1     -12.942  -1.828 -40.808  1.00  0.00    -0.045 Cl
ENDBRANCH   2  13
TORSDOF 4
ENDMDL
MODEL 4
REMARK VINA RESULT: -6.063722067      2.216      3.080
REMARK  4 active torsions:
REMARK  status: ('A' for Active; 'I' for Inactive)
REMARK    1  A    between atoms: C2_2  and  N1_3 
REMARK    2  A    between atoms: C2_2  and  C7_10 
REMARK    3  A    between atoms: C2_2  and  C10_13 
REMARK    4  A    between atoms: N1_3  and  C3_5 
ROOT
HETATM    1  C1  UNL     1     -12.435  -1.588 -37.938  1.00  0.00     0.046 C 
HETATM    2  C2  UNL     1     -12.995  -2.969 -38.332  1.00  0.00     0.107 C 
ENDROOT
BRANCH   2   3
HETATM    3  N1  UNL     1     -14.200  -3.128 -37.619  1.00  0.00    -0.402 N 
ATOM      4  H1  UNL     1     -14.166  -3.211 -36.603  1.00  0.00     0.154 HD
BRANCH   3   5
HETATM    5  C3  UNL     1     -15.447  -3.177 -38.266  1.00  0.00     0.087 C 
HETATM    6  C4  UNL     1     -16.262  -2.068 -37.590  1.00  0.00     0.035 C 
HETATM    7  C5  UNL     1     -17.643  -2.114 -38.102  1.00  0.00     0.076 C 
HETATM    8  S1  UNL     1     -17.893  -3.864 -38.526  1.00  0.00    -0.167 SA
HETATM    9  C6  UNL     1     -16.242  -4.456 -37.955  1.00  0.00     0.098 C 
ENDBRANCH   3   5
ENDBRANCH   2   3
BRANCH   2  10
HETATM   10  C7  UNL     1     -13.024  -3.014 -39.795  1.00  0.00     0.020 A 
HETATM   11  C8  UNL     1     -12.934  -1.846 -40.668  1.00  0.00     0.008 A 
HETATM   12  C9  UNL     1     -11.773  -2.751 -40.622  1.00  0.00     0.008 A 
ENDBRANCH   2  10
BRANCH   2  13
HETATM   13  C10 UNL     1     -11.999  -3.953 -37.748  1.00  0.00     0.344 C 
HETATM   14  F1  UNL     1     -11.916  -5.128 -38.519  1.00  0.00    -0.185 F 
HETATM   15  F2  UNL     1     -10.742  -3.417 -37.628  1.00  0.00    -0.185 F 
HETATM   16 CL1  UNL     1     -12.507  -4.505 -36.127  1.00  0.00    -0.045 Cl
ENDBRANCH   2  13
TORSDOF 4
ENDMDL
MODEL 5
REMARK VINA RESULT: -5.971173445      2.119      3.177
REMARK  4 active torsions:
REMARK  status: ('A' for Active; 'I' for Inactive)
REMARK    1  A    between atoms: C2_2  and  N1_3 
REMARK    2  A    between atoms: C2_2  and  C7_10 
REMARK    3  A    between atoms: C2_2  and  C10_13 
REMARK    4  A    between atoms: N1_3  and  C3_5 
ROOT
HETATM    1  C1  UNL     1     -12.561  -1.779 -37.387  1.00  0.00     0.046 C 
HETATM    2  C2  UNL     1     -12.510  -2.914 -38.429  1.00  0.00     0.107 C 
ENDROOT
BRANCH   2   3
HETATM    3  N1  UNL     1     -13.826  -3.401 -38.552  1.00  0.00    -0.402 N 
ATOM      4  H1  UNL     1     -13.971  -4.381 -38.794  1.00  0.00     0.154 HD
BRANCH   3   5
HETATM    5  C3  UNL     1     -14.947  -2.576 -38.352  1.00  0.00     0.087 C 
HETATM    6  C4  UNL     1     -15.708  -3.252 -37.206  1.00  0.00     0.035 C 
HETATM    7  C5  UNL     1     -16.981  -2.540 -36.996  1.00  0.00     0.076 C 
HETATM    8  S1  UNL     1     -17.387  -1.878 -38.639  1.00  0.00    -0.167 SA
HETATM    9  C6  UNL     1     -15.943  -2.611 -39.522  1.00  0.00     0.098 C 
ENDBRANCH   3   5
ENDBRANCH   2   3
BRANCH   2  10
HETATM   10  C7  UNL     1     -11.838  -2.374 -39.612  1.00  0.00     0.020 A 
HETATM   11  C8  UNL     1     -11.435  -3.160 -40.775  1.00  0.00     0.008 A 
HETATM   12  C9  UNL     1     -12.564  -2.229 -40.942  1.00  0.00     0.008 A 
ENDBRANCH   2  10
BRANCH   2  13
HETATM   13  C10 UNL     1     -11.695  -4.000 -37.753  1.00  0.00     0.344 C 
HETATM   14  F1  UNL     1     -11.733  -5.207 -38.477  1.00  0.00    -0.185 F 
HETATM   15  F2  UNL     1     -10.384  -3.637 -37.573  1.00  0.00    -0.185 F 
HETATM   16 CL1  UNL     1     -12.366  -4.410 -36.149  1.00  0.00    -0.045 Cl
ENDBRANCH   2  13
TORSDOF 4
ENDMDL
