MODEL 1
REMARK VINA RESULT: -5.980905896      0.000      0.000
REMARK  6 active torsions:
REMARK  status: ('A' for Active; 'I' for Inactive)
REMARK    1  A    between atoms: C1_2  and  C2_5 
REMARK    2  A    between atoms: C2_5  and  S1_6 
REMARK    3  A    between atoms: C2_5  and  C7_14 
REMARK    4  A    between atoms: S1_6  and  C3_7 
REMARK    5  A    between atoms: C3_7  and  N1_9 
REMARK    6  A    between atoms: N1_9  and  C4_11 
ROOT
HETATM    1  C2  UNL     1     -12.599  -2.392 -38.086  1.00  0.00     0.166 C 
ENDROOT
BRANCH   1   2
HETATM    2  C1  UNL     1     -11.407  -2.925 -37.277  1.00  0.00     0.400 C 
HETATM    3  F1  UNL     1     -11.339  -4.285 -37.609  1.00  0.00    -0.170 F 
HETATM    4  F2  UNL     1     -11.678  -2.890 -35.932  1.00  0.00    -0.170 F 
HETATM    5  F3  UNL     1     -10.230  -2.356 -37.645  1.00  0.00    -0.170 F 
ENDBRANCH   1   2
BRANCH   1   6
HETATM    6  S1  UNL     1     -13.728  -3.750 -38.387  1.00  0.00    -0.086 SA
BRANCH   6   7
HETATM    7  C3  UNL     1     -15.439  -3.324 -38.391  1.00  0.00     0.135 C 
HETATM    8  S2  UNL     1     -16.526  -4.183 -39.246  1.00  0.00    -0.053 SA
BRANCH   7   9
HETATM    9  N1  UNL     1     -15.916  -2.192 -37.644  1.00  0.00    -0.371 N 
ATOM     10  H1  UNL     1     -15.250  -1.479 -37.347  1.00  0.00     0.161 HD
BRANCH   9  11
HETATM   11  C4  UNL     1     -17.300  -2.034 -37.306  1.00  0.00     0.083 A 
HETATM   12  C5  UNL     1     -17.706  -0.848 -36.461  1.00  0.00     0.027 A 
HETATM   13  C6  UNL     1     -18.031  -0.879 -37.911  1.00  0.00     0.027 A 
ENDBRANCH   9  11
ENDBRANCH   7   9
ENDBRANCH   6   7
ENDBRANCH   1   6
BRANCH   1  14
HETATM   14  C7  UNL     1     -12.105  -1.766 -39.369  1.00  0.00     0.008 A 
HETATM   15  C8  UNL     1     -12.924  -1.631 -40.578  1.00  0.00     0.006 A 
HETATM   16  C9  UNL     1     -11.882  -2.739 -40.506  1.00  0.00     0.006 A 
ENDBRANCH   1  14
TORSDOF 6
ENDMDL
MODEL 2
REMARK VINA RESULT: -5.978280199      2.246      3.601
REMARK  6 active torsions:
REMARK  status: ('A' for Active; 'I' for Inactive)
REMARK    1  A    between atoms: C1_2  and  C2_5 
REMARK    2  A    between atoms: C2_5  and  S1_6 
REMARK    3  A    between atoms: C2_5  and  C7_14 
REMARK    4  A    between atoms: S1_6  and  C3_7 
REMARK    5  A    between atoms: C3_7  and  N1_9 
REMARK    6  A    between atoms: N1_9  and  C4_11 
ROOT
HETATM    1  C2  UNL     1     -12.504  -3.385 -38.695  1.00  0.00     0.166 C 
ENDROOT
BRANCH   1   2
HETATM    2  C1  UNL     1     -11.500  -2.538 -39.491  1.00  0.00     0.400 C 
HETATM    3  F1  UNL     1     -11.766  -1.219 -39.100  1.00  0.00    -0.170 F 
HETATM    4  F2  UNL     1     -11.781  -2.587 -40.834  1.00  0.00    -0.170 F 
HETATM    5  F3  UNL     1     -10.211  -2.810 -39.159  1.00  0.00    -0.170 F 
ENDBRANCH   1   2
BRANCH   1   6
HETATM    6  S1  UNL     1     -13.892  -2.342 -38.252  1.00  0.00    -0.086 SA
BRANCH   6   7
HETATM    7  C3  UNL     1     -15.469  -3.130 -38.278  1.00  0.00     0.135 C 
HETATM    8  S2  UNL     1     -16.752  -2.487 -37.510  1.00  0.00    -0.053 SA
BRANCH   7   9
HETATM    9  N1  UNL     1     -15.657  -4.374 -38.972  1.00  0.00    -0.371 N 
ATOM     10  H1  UNL     1     -14.842  -4.947 -39.192  1.00  0.00     0.161 HD
BRANCH   9  11
HETATM   11  C4  UNL     1     -16.956  -4.836 -39.365  1.00  0.00     0.083 A 
HETATM   12  C5  UNL     1     -17.057  -6.123 -40.152  1.00  0.00     0.027 A 
HETATM   13  C6  UNL     1     -17.467  -6.087 -38.724  1.00  0.00     0.027 A 
ENDBRANCH   9  11
ENDBRANCH   7   9
ENDBRANCH   6   7
ENDBRANCH   1   6
BRANCH   1  14
HETATM   14  C7  UNL     1     -11.825  -3.975 -37.482  1.00  0.00     0.008 A 
HETATM   15  C8  UNL     1     -12.537  -4.382 -36.266  1.00  0.00     0.006 A 
HETATM   16  C9  UNL     1     -11.775  -3.064 -36.275  1.00  0.00     0.006 A 
ENDBRANCH   1  14
TORSDOF 6
ENDMDL
MODEL 3
REMARK VINA RESULT: -5.941857941      0.220      1.043
REMARK  6 active torsions:
REMARK  status: ('A' for Active; 'I' for Inactive)
REMARK    1  A    between atoms: C1_2  and  C2_5 
REMARK    2  A    between atoms: C2_5  and  S1_6 
REMARK    3  A    between atoms: C2_5  and  C7_14 
REMARK    4  A    between atoms: S1_6  and  C3_7 
REMARK    5  A    between atoms: C3_7  and  N1_9 
REMARK    6  A    between atoms: N1_9  and  C4_11 
ROOT
HETATM    1  C2  UNL     1     -12.639  -2.272 -38.107  1.00  0.00     0.166 C 
ENDROOT
BRANCH   1   2
HETATM    2  C1  UNL     1     -11.428  -2.718 -37.273  1.00  0.00     0.400 C 
HETATM    3  F1  UNL     1     -10.394  -1.860 -37.670  1.00  0.00    -0.170 F 
HETATM    4  F2  UNL     1     -11.023  -3.976 -37.643  1.00  0.00    -0.170 F 
HETATM    5  F3  UNL     1     -11.618  -2.539 -35.941  1.00  0.00    -0.170 F 
ENDBRANCH   1   2
BRANCH   1   6
HETATM    6  S1  UNL     1     -13.720  -3.683 -38.330  1.00  0.00    -0.086 SA
BRANCH   6   7
HETATM    7  C3  UNL     1     -15.446  -3.322 -38.327  1.00  0.00     0.135 C 
HETATM    8  S2  UNL     1     -16.512  -4.267 -39.113  1.00  0.00    -0.053 SA
BRANCH   7   9
HETATM    9  N1  UNL     1     -15.953  -2.168 -37.637  1.00  0.00    -0.371 N 
ATOM     10  H1  UNL     1     -15.305  -1.429 -37.365  1.00  0.00     0.161 HD
BRANCH   9  11
HETATM   11  C4  UNL     1     -17.343  -2.024 -37.320  1.00  0.00     0.083 A 
HETATM   12  C5  UNL     1     -17.765  -0.877 -36.430  1.00  0.00     0.027 A 
HETATM   13  C6  UNL     1     -18.062  -0.841 -37.886  1.00  0.00     0.027 A 
ENDBRANCH   9  11
ENDBRANCH   7   9
ENDBRANCH   6   7
ENDBRANCH   1   6
BRANCH   1  14
HETATM   14  C7  UNL     1     -12.168  -1.701 -39.424  1.00  0.00     0.008 A 
HETATM   15  C8  UNL     1     -12.996  -1.648 -40.633  1.00  0.00     0.006 A 
HETATM   16  C9  UNL     1     -11.926  -2.725 -40.511  1.00  0.00     0.006 A 
ENDBRANCH   1  14
TORSDOF 6
ENDMDL
MODEL 4
REMARK VINA RESULT: -5.934517585      2.313      3.615
REMARK  6 active torsions:
REMARK  status: ('A' for Active; 'I' for Inactive)
REMARK    1  A    between atoms: C1_2  and  C2_5 
REMARK    2  A    between atoms: C2_5  and  S1_6 
REMARK    3  A    between atoms: C2_5  and  C7_14 
REMARK    4  A    between atoms: S1_6  and  C3_7 
REMARK    5  A    between atoms: C3_7  and  N1_9 
REMARK    6  A    between atoms: N1_9  and  C4_11 
ROOT
HETATM    1  C2  UNL     1     -12.710  -3.245 -38.642  1.00  0.00     0.166 C 
ENDROOT
BRANCH   1   2
HETATM    2  C1  UNL     1     -11.859  -2.191 -39.367  1.00  0.00     0.400 C 
HETATM    3  F1  UNL     1     -12.246  -2.292 -40.710  1.00  0.00    -0.170 F 
HETATM    4  F2  UNL     1     -10.532  -2.539 -39.340  1.00  0.00    -0.170 F 
HETATM    5  F3  UNL     1     -12.135  -0.926 -38.957  1.00  0.00    -0.170 F 
ENDBRANCH   1   2
BRANCH   1   6
HETATM    6  S1  UNL     1     -14.199  -2.450 -38.041  1.00  0.00    -0.086 SA
BRANCH   6   7
HETATM    7  C3  UNL     1     -15.712  -3.113 -38.657  1.00  0.00     0.135 C 
HETATM    8  S2  UNL     1     -17.103  -2.271 -38.575  1.00  0.00    -0.053 SA
BRANCH   7   9
HETATM    9  N1  UNL     1     -15.756  -4.427 -39.237  1.00  0.00    -0.371 N 
ATOM     10  H1  UNL     1     -14.881  -4.923 -39.406  1.00  0.00     0.161 HD
BRANCH   9  11
HETATM   11  C4  UNL     1     -16.993  -5.062 -39.585  1.00  0.00     0.083 A 
HETATM   12  C5  UNL     1     -16.956  -6.488 -40.084  1.00  0.00     0.027 A 
HETATM   13  C6  UNL     1     -17.459  -6.187 -38.718  1.00  0.00     0.027 A 
ENDBRANCH   9  11
ENDBRANCH   7   9
ENDBRANCH   6   7
ENDBRANCH   1   6
BRANCH   1  14
HETATM   14  C7  UNL     1     -11.907  -3.868 -37.525  1.00  0.00     0.008 A 
HETATM   15  C8  UNL     1     -12.488  -4.322 -36.257  1.00  0.00     0.006 A 
HETATM   16  C9  UNL     1     -11.738  -2.997 -36.300  1.00  0.00     0.006 A 
ENDBRANCH   1  14
TORSDOF 6
ENDMDL
MODEL 5
REMARK VINA RESULT: -5.921638212      1.090      1.476
REMARK  6 active torsions:
REMARK  status: ('A' for Active; 'I' for Inactive)
REMARK    1  A    between atoms: C1_2  and  C2_5 
REMARK    2  A    between atoms: C2_5  and  S1_6 
REMARK    3  A    between atoms: C2_5  and  C7_14 
REMARK    4  A    between atoms: S1_6  and  C3_7 
REMARK    5  A    between atoms: C3_7  and  N1_9 
REMARK    6  A    between atoms: N1_9  and  C4_11 
ROOT
HETATM    1  C2  UNL     1     -13.167  -2.828 -37.353  1.00  0.00     0.166 C 
ENDROOT
BRANCH   1   2
HETATM    2  C1  UNL     1     -12.423  -3.725 -36.353  1.00  0.00     0.400 C 
HETATM    3  F1  UNL     1     -13.384  -4.045 -35.385  1.00  0.00    -0.170 F 
HETATM    4  F2  UNL     1     -11.456  -3.012 -35.688  1.00  0.00    -0.170 F 
HETATM    5  F3  UNL     1     -12.002  -4.890 -36.910  1.00  0.00    -0.170 F 
ENDBRANCH   1   2
BRANCH   1   6
HETATM    6  S1  UNL     1     -13.916  -3.874 -38.599  1.00  0.00    -0.086 SA
BRANCH   6   7
HETATM    7  C3  UNL     1     -15.637  -3.608 -38.876  1.00  0.00     0.135 C 
HETATM    8  S2  UNL     1     -16.610  -4.808 -39.387  1.00  0.00    -0.053 SA
BRANCH   7   9
HETATM    9  N1  UNL     1     -16.222  -2.311 -38.670  1.00  0.00    -0.371 N 
ATOM     10  H1  UNL     1     -15.785  -1.497 -39.102  1.00  0.00     0.161 HD
BRANCH   9  11
HETATM   11  C4  UNL     1     -17.400  -2.127 -37.877  1.00  0.00     0.083 A 
HETATM   12  C5  UNL     1     -17.378  -1.086 -36.781  1.00  0.00     0.027 A 
HETATM   13  C6  UNL     1     -18.143  -0.839 -38.031  1.00  0.00     0.027 A 
ENDBRANCH   9  11
ENDBRANCH   7   9
ENDBRANCH   6   7
ENDBRANCH   1   6
BRANCH   1  14
HETATM   14  C7  UNL     1     -12.207  -1.827 -37.951  1.00  0.00     0.008 A 
HETATM   15  C8  UNL     1     -12.275  -1.362 -39.340  1.00  0.00     0.006 A 
HETATM   16  C9  UNL     1     -11.231  -2.402 -38.954  1.00  0.00     0.006 A 
ENDBRANCH   1  14
TORSDOF 6
ENDMDL
