MODEL 1
REMARK VINA RESULT: -7.158860161      0.000      0.000
REMARK  5 active torsions:
REMARK  status: ('A' for Active; 'I' for Inactive)
REMARK    1  A    between atoms: C2_2  and  C4_4 
REMARK    2  A    between atoms: C4_4  and  C5_5 
REMARK    3  A    between atoms: C5_5  and  N2_10 
REMARK    4  A    between atoms: N1_6  and  O1_8 
REMARK    5  A    between atoms: C8_13  and  C9_14 
ROOT
HETATM    1  N2  UNL     1     -13.402  -2.863 -37.495  1.00  0.00    -0.369 N 
HETATM    2  C6  UNL     1     -14.114  -3.798 -36.628  1.00  0.00     0.125 C 
HETATM    3  C7  UNL     1     -15.548  -3.832 -37.114  1.00  0.00     0.033 C 
HETATM    4  C8  UNL     1     -15.514  -4.216 -38.574  1.00  0.00     0.096 C 
HETATM    5  C10 UNL     1     -14.988  -3.071 -39.365  1.00  0.00     0.033 C 
HETATM    6  C11 UNL     1     -14.038  -2.188 -38.605  1.00  0.00     0.125 C 
ENDROOT
BRANCH   1   7
HETATM    7  C5  UNL     1     -12.033  -2.612 -37.230  1.00  0.00     0.099 C 
HETATM    8  N1  UNL     1     -11.663  -2.598 -36.000  1.00  0.00    -0.257 N 
ATOM      9  H1  UNL     1     -12.360  -2.766 -35.274  1.00  0.00     0.195 HD
BRANCH   7  10
HETATM   10  C4  UNL     1     -11.023  -2.370 -38.269  1.00  0.00     0.082 C 
BRANCH  10  11
HETATM   11  C2  UNL     1     -10.670  -3.585 -39.073  1.00  0.00    -0.016 C 
HETATM   12  C1  UNL     1     -11.402  -4.816 -38.671  1.00  0.00     0.010 C 
HETATM   13  C3  UNL     1     -10.997  -3.281 -40.524  1.00  0.00     0.010 C 
ENDBRANCH  10  11
ENDBRANCH   7  10
BRANCH   8  14
HETATM   14  O1  UNL     1     -10.358  -2.365 -35.629  1.00  0.00    -0.288 OA
ATOM     15  H1  UNL     1     -10.060  -1.513 -35.333  1.00  0.00     0.244 HD
ENDBRANCH   8  14
ENDBRANCH   1   7
BRANCH   4  16
HETATM   16  C9  UNL     1     -16.899  -4.647 -39.009  1.00  0.00     0.391 C 
HETATM   17  F1  UNL     1     -16.838  -5.136 -40.298  1.00  0.00    -0.171 F 
HETATM   18  F2  UNL     1     -17.792  -3.614 -39.001  1.00  0.00    -0.171 F 
HETATM   19  F3  UNL     1     -17.342  -5.636 -38.135  1.00  0.00    -0.171 F 
ENDBRANCH   4  16
TORSDOF 5
ENDMDL
MODEL 2
REMARK VINA RESULT: -7.049009683      2.276      3.363
REMARK  5 active torsions:
REMARK  status: ('A' for Active; 'I' for Inactive)
REMARK    1  A    between atoms: C2_2  and  C4_4 
REMARK    2  A    between atoms: C4_4  and  C5_5 
REMARK    3  A    between atoms: C5_5  and  N2_10 
REMARK    4  A    between atoms: N1_6  and  O1_8 
REMARK    5  A    between atoms: C8_13  and  C9_14 
ROOT
HETATM    1  N2  UNL     1     -13.350  -3.294 -39.300  1.00  0.00    -0.369 N 
HETATM    2  C6  UNL     1     -14.220  -2.485 -40.151  1.00  0.00     0.125 C 
HETATM    3  C7  UNL     1     -15.634  -2.699 -39.651  1.00  0.00     0.033 C 
HETATM    4  C8  UNL     1     -15.649  -2.327 -38.187  1.00  0.00     0.096 C 
HETATM    5  C10 UNL     1     -14.927  -3.374 -37.413  1.00  0.00     0.033 C 
HETATM    6  C11 UNL     1     -13.851  -4.077 -38.191  1.00  0.00     0.125 C 
ENDROOT
BRANCH   1   7
HETATM    7  C5  UNL     1     -11.961  -3.307 -39.580  1.00  0.00     0.099 C 
HETATM    8  N1  UNL     1     -11.607  -3.207 -40.811  1.00  0.00    -0.257 N 
ATOM      9  H1  UNL     1     -12.330  -3.125 -41.527  1.00  0.00     0.195 HD
BRANCH   7  10
HETATM   10  C4  UNL     1     -10.915  -3.426 -38.557  1.00  0.00     0.082 C 
BRANCH  10  11
HETATM   11  C2  UNL     1     -10.702  -2.180 -37.752  1.00  0.00    -0.016 C 
HETATM   12  C1  UNL     1     -11.552  -1.033 -38.170  1.00  0.00     0.010 C 
HETATM   13  C3  UNL     1     -11.018  -2.513 -36.305  1.00  0.00     0.010 C 
ENDBRANCH  10  11
ENDBRANCH   7  10
BRANCH   8  14
HETATM   14  O1  UNL     1     -10.285  -3.209 -41.197  1.00  0.00    -0.288 OA
ATOM     15  H1  UNL     1     -10.024  -3.274 -42.108  1.00  0.00     0.244 HD
ENDBRANCH   8  14
ENDBRANCH   1   7
BRANCH   4  16
HETATM   16  C9  UNL     1     -17.082  -2.142 -37.735  1.00  0.00     0.391 C 
HETATM   17  F1  UNL     1     -17.090  -1.611 -36.460  1.00  0.00    -0.171 F 
HETATM   18  F2  UNL     1     -17.773  -3.318 -37.697  1.00  0.00    -0.171 F 
HETATM   19  F3  UNL     1     -17.710  -1.274 -38.625  1.00  0.00    -0.171 F 
ENDBRANCH   4  16
TORSDOF 5
ENDMDL
MODEL 3
REMARK VINA RESULT: -6.707628407      4.335      6.014
REMARK  5 active torsions:
REMARK  status: ('A' for Active; 'I' for Inactive)
REMARK    1  A    between atoms: C2_2  and  C4_4 
REMARK    2  A    between atoms: C4_4  and  C5_5 
REMARK    3  A    between atoms: C5_5  and  N2_10 
REMARK    4  A    between atoms: N1_6  and  O1_8 
REMARK    5  A    between atoms: C8_13  and  C9_14 
ROOT
HETATM    1  N2  UNL     1     -14.309  -3.440 -38.458  1.00  0.00    -0.369 N 
HETATM    2  C6  UNL     1     -13.996  -3.890 -37.103  1.00  0.00     0.125 C 
HETATM    3  C7  UNL     1     -12.498  -3.739 -36.934  1.00  0.00     0.033 C 
HETATM    4  C8  UNL     1     -12.161  -2.295 -37.220  1.00  0.00     0.096 C 
HETATM    5  C10 UNL     1     -12.294  -2.045 -38.681  1.00  0.00     0.033 C 
HETATM    6  C11 UNL     1     -13.304  -2.925 -39.362  1.00  0.00     0.125 C 
ENDROOT
BRANCH   1   7
HETATM    7  C5  UNL     1     -15.655  -3.514 -38.894  1.00  0.00     0.099 C 
HETATM    8  N1  UNL     1     -16.062  -4.639 -39.363  1.00  0.00    -0.257 N 
ATOM      9  H1  UNL     1     -15.409  -5.422 -39.401  1.00  0.00     0.195 HD
BRANCH   7  10
HETATM   10  C4  UNL     1     -16.602  -2.392 -38.844  1.00  0.00     0.082 C 
BRANCH  10  11
HETATM   11  C2  UNL     1     -17.350  -2.282 -37.550  1.00  0.00    -0.016 C 
HETATM   12  C1  UNL     1     -17.127  -1.002 -36.825  1.00  0.00     0.010 C 
HETATM   13  C3  UNL     1     -18.830  -2.405 -37.867  1.00  0.00     0.010 C 
ENDBRANCH  10  11
ENDBRANCH   7  10
BRANCH   8  14
HETATM   14  O1  UNL     1     -17.349  -4.823 -39.815  1.00  0.00    -0.288 OA
ATOM     15  H1  UNL     1     -17.947  -4.096 -39.948  1.00  0.00     0.244 HD
ENDBRANCH   8  14
ENDBRANCH   1   7
BRANCH   4  16
HETATM   16  C9  UNL     1     -10.774  -1.993 -36.693  1.00  0.00     0.391 C 
HETATM   17  F1  UNL     1     -10.748  -2.215 -35.331  1.00  0.00    -0.171 F 
HETATM   18  F2  UNL     1     -10.406  -0.697 -36.907  1.00  0.00    -0.171 F 
HETATM   19  F3  UNL     1      -9.871  -2.834 -37.338  1.00  0.00    -0.171 F 
ENDBRANCH   4  16
TORSDOF 5
ENDMDL
MODEL 4
REMARK VINA RESULT: -6.707527255      1.134      2.119
REMARK  5 active torsions:
REMARK  status: ('A' for Active; 'I' for Inactive)
REMARK    1  A    between atoms: C2_2  and  C4_4 
REMARK    2  A    between atoms: C4_4  and  C5_5 
REMARK    3  A    between atoms: C5_5  and  N2_10 
REMARK    4  A    between atoms: N1_6  and  O1_8 
REMARK    5  A    between atoms: C8_13  and  C9_14 
ROOT
HETATM    1  N2  UNL     1     -13.474  -2.896 -37.753  1.00  0.00    -0.369 N 
HETATM    2  C6  UNL     1     -13.937  -2.318 -39.012  1.00  0.00     0.125 C 
HETATM    3  C7  UNL     1     -15.370  -2.775 -39.196  1.00  0.00     0.033 C 
HETATM    4  C8  UNL     1     -16.137  -2.335 -37.972  1.00  0.00     0.096 C 
HETATM    5  C10 UNL     1     -15.731  -3.179 -36.815  1.00  0.00     0.033 C 
HETATM    6  C11 UNL     1     -14.325  -3.700 -36.902  1.00  0.00     0.125 C 
ENDROOT
BRANCH   1   7
HETATM    7  C5  UNL     1     -12.135  -2.654 -37.356  1.00  0.00     0.099 C 
HETATM    8  N1  UNL     1     -11.885  -2.652 -36.096  1.00  0.00    -0.257 N 
ATOM      9  H1  UNL     1     -12.650  -2.822 -35.441  1.00  0.00     0.195 HD
BRANCH   7  10
HETATM   10  C4  UNL     1     -11.030  -2.409 -38.290  1.00  0.00     0.082 C 
BRANCH  10  11
HETATM   11  C2  UNL     1     -10.552  -3.634 -39.009  1.00  0.00    -0.016 C 
HETATM   12  C1  UNL     1     -11.327  -4.865 -38.695  1.00  0.00     0.010 C 
HETATM   13  C3  UNL     1     -10.663  -3.362 -40.498  1.00  0.00     0.010 C 
ENDBRANCH  10  11
ENDBRANCH   7  10
BRANCH   8  14
HETATM   14  O1  UNL     1     -10.621  -2.428 -35.599  1.00  0.00    -0.288 OA
ATOM     15  H1  UNL     1      -9.867  -2.927 -35.892  1.00  0.00     0.244 HD
ENDBRANCH   8  14
ENDBRANCH   1   7
BRANCH   4  16
HETATM   16  C9  UNL     1     -17.622  -2.407 -38.263  1.00  0.00     0.391 C 
HETATM   17  F1  UNL     1     -18.312  -2.513 -37.072  1.00  0.00    -0.171 F 
HETATM   18  F2  UNL     1     -17.951  -3.487 -39.028  1.00  0.00    -0.171 F 
HETATM   19  F3  UNL     1     -17.990  -1.244 -38.935  1.00  0.00    -0.171 F 
ENDBRANCH   4  16
TORSDOF 5
ENDMDL
MODEL 5
REMARK VINA RESULT: -6.692642807      4.179      5.699
REMARK  5 active torsions:
REMARK  status: ('A' for Active; 'I' for Inactive)
REMARK    1  A    between atoms: C2_2  and  C4_4 
REMARK    2  A    between atoms: C4_4  and  C5_5 
REMARK    3  A    between atoms: C5_5  and  N2_10 
REMARK    4  A    between atoms: N1_6  and  O1_8 
REMARK    5  A    between atoms: C8_13  and  C9_14 
ROOT
HETATM    1  N2  UNL     1     -14.474  -3.055 -38.411  1.00  0.00    -0.369 N 
HETATM    2  C6  UNL     1     -14.108  -3.650 -37.128  1.00  0.00     0.125 C 
HETATM    3  C7  UNL     1     -12.594  -3.657 -37.072  1.00  0.00     0.033 C 
HETATM    4  C8  UNL     1     -12.135  -2.231 -37.268  1.00  0.00     0.096 C 
HETATM    5  C10 UNL     1     -12.351  -1.843 -38.689  1.00  0.00     0.033 C 
HETATM    6  C11 UNL     1     -13.493  -2.560 -39.352  1.00  0.00     0.125 C 
ENDROOT
BRANCH   1   7
HETATM    7  C5  UNL     1     -15.850  -2.962 -38.739  1.00  0.00     0.099 C 
HETATM    8  N1  UNL     1     -16.551  -2.094 -38.102  1.00  0.00    -0.257 N 
ATOM      9  H1  UNL     1     -16.095  -1.515 -37.396  1.00  0.00     0.195 HD
BRANCH   7  10
HETATM   10  C4  UNL     1     -16.514  -3.791 -39.753  1.00  0.00     0.082 C 
BRANCH  10  11
HETATM   11  C2  UNL     1     -16.562  -5.250 -39.414  1.00  0.00    -0.016 C 
HETATM   12  C1  UNL     1     -17.268  -5.557 -38.141  1.00  0.00     0.010 C 
HETATM   13  C3  UNL     1     -17.281  -5.959 -40.547  1.00  0.00     0.010 C 
ENDBRANCH  10  11
ENDBRANCH   7  10
BRANCH   8  14
HETATM   14  O1  UNL     1     -17.895  -1.919 -38.340  1.00  0.00    -0.288 OA
ATOM     15  H1  UNL     1     -18.259  -1.079 -38.592  1.00  0.00     0.244 HD
ENDBRANCH   8  14
ENDBRANCH   1   7
BRANCH   4  16
HETATM   16  C9  UNL     1     -10.688  -2.110 -36.836  1.00  0.00     0.391 C 
HETATM   17  F1  UNL     1     -10.279  -0.800 -36.987  1.00  0.00    -0.171 F 
HETATM   18  F2  UNL     1      -9.855  -2.891 -37.582  1.00  0.00    -0.171 F 
HETATM   19  F3  UNL     1     -10.599  -2.495 -35.502  1.00  0.00    -0.171 F 
ENDBRANCH   4  16
TORSDOF 5
ENDMDL
