MODEL 1
REMARK VINA RESULT: -7.131058011      0.000      0.000
REMARK  8 active torsions:
REMARK  status: ('A' for Active; 'I' for Inactive)
REMARK    1  A    between atoms: C5_5  and  C6_6 
REMARK    2  A    between atoms: C6_6  and  N1_7 
REMARK    3  A    between atoms: C8_10  and  O2_11 
REMARK    4  A    between atoms: C8_10  and  O3_13 
REMARK    5  A    between atoms: C9_15  and  C11_17 
REMARK    6  A    between atoms: C11_17  and  O4_19 
REMARK    7  A    between atoms: C11_17  and  C13_21 
REMARK    8  A    between atoms: C13_21  and  C14_22 
ROOT
HETATM    1  N1  UNL     1      14.826  -2.716  38.347  1.00  0.00    -0.277 N 
HETATM    2  C7  UNL     1      15.280  -3.716  37.407  1.00  0.00     0.290 C 
HETATM    3  O1  UNL     1      14.976  -3.811  36.187  1.00  0.00    -0.267 OA
HETATM    4  C8  UNL     1      16.172  -4.585  38.218  1.00  0.00     0.263 C 
HETATM    5  C9  UNL     1      16.861  -3.585  39.066  1.00  0.00     0.134 C 
HETATM    6  C10 UNL     1      17.452  -4.236  40.274  1.00  0.00     0.035 C 
HETATM    7  C19 UNL     1      15.655  -2.799  39.528  1.00  0.00     0.244 C 
HETATM    8  O5  UNL     1      15.370  -2.314  40.624  1.00  0.00    -0.272 OA
ENDROOT
BRANCH   5   9
HETATM    9  C11 UNL     1      17.771  -2.606  38.373  1.00  0.00     0.080 C 
HETATM   10  C12 UNL     1      17.354  -1.243  38.802  1.00  0.00     0.047 C 
BRANCH   9  11
HETATM   11  O4  UNL     1      17.432  -2.633  36.967  1.00  0.00    -0.388 OA
ATOM     12  H4  UNL     1      17.154  -3.518  36.764  1.00  0.00     0.210 HD
ENDBRANCH   9  11
BRANCH   9  13
HETATM   13  C13 UNL     1      19.188  -2.910  38.440  1.00  0.00     0.079 C 
BRANCH  13  14
HETATM   14  C14 UNL     1      19.993  -2.628  37.243  1.00  0.00    -0.037 A 
HETATM   15  C15 UNL     1      20.645  -3.590  36.528  1.00  0.00    -0.014 A 
HETATM   16  C16 UNL     1      21.374  -3.015  35.392  1.00  0.00     0.056 A 
HETATM   17  C17 UNL     1      21.143  -1.588  35.525  1.00  0.00     0.001 A 
HETATM   18  C18 UNL     1      20.349  -1.395  36.585  1.00  0.00     0.036 A 
HETATM   19 CL1  UNL     1      19.979   0.281  37.047  1.00  0.00    -0.084 Cl
ENDBRANCH  13  14
ENDBRANCH   9  13
ENDBRANCH   5   9
BRANCH   4  20
HETATM   20  O2  UNL     1      16.891  -5.513  37.565  1.00  0.00    -0.357 OA
ATOM     21  H2  UNL     1      16.929  -6.383  37.945  1.00  0.00     0.213 HD
ENDBRANCH   4  20
BRANCH   4  22
HETATM   22  O3  UNL     1      15.291  -5.291  39.084  1.00  0.00    -0.357 OA
ATOM     23  H3  UNL     1      15.760  -6.088  39.301  1.00  0.00     0.213 HD
ENDBRANCH   4  22
BRANCH   1  24
HETATM   24  C6  UNL     1      13.725  -1.832  38.064  1.00  0.00     0.200 C 
BRANCH  24  25
HETATM   25  C5  UNL     1      12.465  -2.263  38.682  1.00  0.00     0.071 A 
HETATM   26  C4  UNL     1      11.212  -1.903  38.238  1.00  0.00     0.037 A 
HETATM   27  C3  UNL     1      10.287  -2.499  39.066  1.00  0.00     0.035 A 
HETATM   28  C2  UNL     1      11.035  -3.208  39.995  1.00  0.00     0.049 A 
HETATM   29  C1  UNL     1      10.410  -4.005  41.082  1.00  0.00     0.076 C 
HETATM   30  O6  UNL     1      12.303  -3.034  39.721  1.00  0.00    -0.318 OA
ENDBRANCH  24  25
ENDBRANCH   1  24
TORSDOF 8
ENDMDL
MODEL 2
REMARK VINA RESULT: -6.942877308      2.562      4.061
REMARK  8 active torsions:
REMARK  status: ('A' for Active; 'I' for Inactive)
REMARK    1  A    between atoms: C5_5  and  C6_6 
REMARK    2  A    between atoms: C6_6  and  N1_7 
REMARK    3  A    between atoms: C8_10  and  O2_11 
REMARK    4  A    between atoms: C8_10  and  O3_13 
REMARK    5  A    between atoms: C9_15  and  C11_17 
REMARK    6  A    between atoms: C11_17  and  O4_19 
REMARK    7  A    between atoms: C11_17  and  C13_21 
REMARK    8  A    between atoms: C13_21  and  C14_22 
ROOT
HETATM    1  N1  UNL     1      14.884  -3.400  38.521  1.00  0.00    -0.277 N 
HETATM    2  C7  UNL     1      15.566  -2.549  39.469  1.00  0.00     0.290 C 
HETATM    3  O1  UNL     1      15.284  -2.383  40.688  1.00  0.00    -0.267 OA
HETATM    4  C8  UNL     1      16.655  -1.930  38.670  1.00  0.00     0.263 C 
HETATM    5  C9  UNL     1      17.079  -3.069  37.824  1.00  0.00     0.134 C 
HETATM    6  C10 UNL     1      17.826  -2.585  36.625  1.00  0.00     0.035 C 
HETATM    7  C19 UNL     1      15.719  -3.525  37.348  1.00  0.00     0.244 C 
HETATM    8  O5  UNL     1      15.332  -3.921  36.247  1.00  0.00    -0.272 OA
ENDROOT
BRANCH   5   9
HETATM    9  C11 UNL     1      17.708  -4.247  38.520  1.00  0.00     0.080 C 
HETATM   10  C12 UNL     1      16.956  -5.458  38.094  1.00  0.00     0.047 C 
BRANCH   9  11
HETATM   11  O4  UNL     1      17.386  -4.130  39.926  1.00  0.00    -0.388 OA
ATOM     12  H4  UNL     1      16.684  -3.495  39.999  1.00  0.00     0.210 HD
ENDBRANCH   9  11
BRANCH   9  13
HETATM   13  C13 UNL     1      19.155  -4.316  38.454  1.00  0.00     0.079 C 
BRANCH  13  14
HETATM   14  C14 UNL     1      19.862  -4.763  39.662  1.00  0.00    -0.037 A 
HETATM   15  C15 UNL     1      20.684  -3.959  40.396  1.00  0.00    -0.014 A 
HETATM   16  C16 UNL     1      21.258  -4.677  41.541  1.00  0.00     0.056 A 
HETATM   17  C17 UNL     1      20.741  -6.025  41.393  1.00  0.00     0.001 A 
HETATM   18  C18 UNL     1      19.944  -6.046  40.317  1.00  0.00     0.036 A 
HETATM   19 CL1  UNL     1      19.245  -7.607  39.836  1.00  0.00    -0.084 Cl
ENDBRANCH  13  14
ENDBRANCH   9  13
ENDBRANCH   5   9
BRANCH   4  20
HETATM   20  O2  UNL     1      17.578  -1.214  39.334  1.00  0.00    -0.357 OA
ATOM     21  H2  UNL     1      17.840  -0.383  38.957  1.00  0.00     0.213 HD
ENDBRANCH   4  20
BRANCH   4  22
HETATM   22  O3  UNL     1      15.989  -1.024  37.801  1.00  0.00    -0.357 OA
ATOM     23  H3  UNL     1      16.605  -0.877  37.092  1.00  0.00     0.213 HD
ENDBRANCH   4  22
BRANCH   1  24
HETATM   24  C6  UNL     1      13.594  -3.981  38.790  1.00  0.00     0.200 C 
BRANCH  24  25
HETATM   25  C5  UNL     1      12.481  -3.180  38.266  1.00  0.00     0.071 A 
HETATM   26  C4  UNL     1      11.522  -2.569  39.044  1.00  0.00     0.037 A 
HETATM   27  C3  UNL     1      10.652  -1.915  38.199  1.00  0.00     0.035 A 
HETATM   28  C2  UNL     1      11.131  -2.164  36.921  1.00  0.00     0.049 A 
HETATM   29  C1  UNL     1      10.470  -1.630  35.703  1.00  0.00     0.076 C 
HETATM   30  O6  UNL     1      12.203  -2.909  37.021  1.00  0.00    -0.318 OA
ENDBRANCH  24  25
ENDBRANCH   1  24
TORSDOF 8
ENDMDL
MODEL 3
REMARK VINA RESULT: -6.793635275      1.117      1.328
REMARK  8 active torsions:
REMARK  status: ('A' for Active; 'I' for Inactive)
REMARK    1  A    between atoms: C5_5  and  C6_6 
REMARK    2  A    between atoms: C6_6  and  N1_7 
REMARK    3  A    between atoms: C8_10  and  O2_11 
REMARK    4  A    between atoms: C8_10  and  O3_13 
REMARK    5  A    between atoms: C9_15  and  C11_17 
REMARK    6  A    between atoms: C11_17  and  O4_19 
REMARK    7  A    between atoms: C11_17  and  C13_21 
REMARK    8  A    between atoms: C13_21  and  C14_22 
ROOT
HETATM    1  N1  UNL     1      14.725  -2.693  38.219  1.00  0.00    -0.277 N 
HETATM    2  C7  UNL     1      15.096  -3.756  37.312  1.00  0.00     0.290 C 
HETATM    3  O1  UNL     1      14.691  -3.926  36.130  1.00  0.00    -0.267 OA
HETATM    4  C8  UNL     1      16.050  -4.578  38.101  1.00  0.00     0.263 C 
HETATM    5  C9  UNL     1      16.810  -3.532  38.821  1.00  0.00     0.134 C 
HETATM    6  C10 UNL     1      17.498  -4.109  40.016  1.00  0.00     0.035 C 
HETATM    7  C19 UNL     1      15.649  -2.707  39.331  1.00  0.00     0.244 C 
HETATM    8  O5  UNL     1      15.459  -2.151  40.413  1.00  0.00    -0.272 OA
ENDROOT
BRANCH   5   9
HETATM    9  C11 UNL     1      17.663  -2.607  37.994  1.00  0.00     0.080 C 
HETATM   10  C12 UNL     1      17.702  -1.299  38.701  1.00  0.00     0.047 C 
BRANCH   9  11
HETATM   11  O4  UNL     1      16.922  -2.313  36.786  1.00  0.00    -0.388 OA
ATOM     12  H4  UNL     1      17.501  -1.821  36.217  1.00  0.00     0.210 HD
ENDBRANCH   9  11
BRANCH   9  13
HETATM   13  C13 UNL     1      18.932  -3.151  37.550  1.00  0.00     0.079 C 
BRANCH  13  14
HETATM   14  C14 UNL     1      20.076  -2.231  37.495  1.00  0.00    -0.037 A 
HETATM   15  C15 UNL     1      20.278  -1.338  36.483  1.00  0.00    -0.014 A 
HETATM   16  C16 UNL     1      21.505  -0.559  36.691  1.00  0.00     0.056 A 
HETATM   17  C17 UNL     1      22.060  -1.113  37.912  1.00  0.00     0.001 A 
HETATM   18  C18 UNL     1      21.224  -2.061  38.353  1.00  0.00     0.036 A 
HETATM   19 CL1  UNL     1      21.705  -2.984  39.793  1.00  0.00    -0.084 Cl
ENDBRANCH  13  14
ENDBRANCH   9  13
ENDBRANCH   5   9
BRANCH   4  20
HETATM   20  O2  UNL     1      16.708  -5.552  37.451  1.00  0.00    -0.357 OA
ATOM     21  H2  UNL     1      16.721  -6.413  37.852  1.00  0.00     0.213 HD
ENDBRANCH   4  20
BRANCH   4  22
HETATM   22  O3  UNL     1      15.242  -5.219  39.080  1.00  0.00    -0.357 OA
ATOM     23  H3  UNL     1      15.066  -6.079  38.717  1.00  0.00     0.213 HD
ENDBRANCH   4  22
BRANCH   1  24
HETATM   24  C6  UNL     1      13.608  -1.819  37.972  1.00  0.00     0.200 C 
BRANCH  24  25
HETATM   25  C5  UNL     1      12.373  -2.260  38.633  1.00  0.00     0.071 A 
HETATM   26  C4  UNL     1      11.102  -1.930  38.218  1.00  0.00     0.037 A 
HETATM   27  C3  UNL     1      10.211  -2.527  39.082  1.00  0.00     0.035 A 
HETATM   28  C2  UNL     1      10.997  -3.206  40.003  1.00  0.00     0.049 A 
HETATM   29  C1  UNL     1      10.417  -3.993  41.121  1.00  0.00     0.076 C 
HETATM   30  O6  UNL     1      12.254  -3.015  39.691  1.00  0.00    -0.318 OA
ENDBRANCH  24  25
ENDBRANCH   1  24
TORSDOF 8
ENDMDL
MODEL 4
REMARK VINA RESULT: -6.522356553      1.271      1.922
REMARK  8 active torsions:
REMARK  status: ('A' for Active; 'I' for Inactive)
REMARK    1  A    between atoms: C5_5  and  C6_6 
REMARK    2  A    between atoms: C6_6  and  N1_7 
REMARK    3  A    between atoms: C8_10  and  O2_11 
REMARK    4  A    between atoms: C8_10  and  O3_13 
REMARK    5  A    between atoms: C9_15  and  C11_17 
REMARK    6  A    between atoms: C11_17  and  O4_19 
REMARK    7  A    between atoms: C11_17  and  C13_21 
REMARK    8  A    between atoms: C13_21  and  C14_22 
ROOT
HETATM    1  N1  UNL     1      15.197  -2.902  38.373  1.00  0.00    -0.277 N 
HETATM    2  C7  UNL     1      15.526  -3.980  37.468  1.00  0.00     0.290 C 
HETATM    3  O1  UNL     1      15.224  -4.070  36.247  1.00  0.00    -0.267 OA
HETATM    4  C8  UNL     1      16.289  -4.933  38.315  1.00  0.00     0.263 C 
HETATM    5  C9  UNL     1      17.095  -4.007  39.143  1.00  0.00     0.134 C 
HETATM    6  C10 UNL     1      17.584  -4.693  40.376  1.00  0.00     0.035 C 
HETATM    7  C19 UNL     1      15.997  -3.057  39.567  1.00  0.00     0.244 C 
HETATM    8  O5  UNL     1      15.768  -2.507  40.645  1.00  0.00    -0.272 OA
ENDROOT
BRANCH   5   9
HETATM    9  C11 UNL     1      18.132  -3.176  38.435  1.00  0.00     0.080 C 
HETATM   10  C12 UNL     1      18.899  -4.094  37.551  1.00  0.00     0.047 C 
BRANCH   9  11
HETATM   11  O4  UNL     1      19.106  -2.777  39.429  1.00  0.00    -0.388 OA
ATOM     12  H4  UNL     1      19.793  -2.307  38.972  1.00  0.00     0.210 HD
ENDBRANCH   9  11
BRANCH   9  13
HETATM   13  C13 UNL     1      17.652  -1.943  37.842  1.00  0.00     0.079 C 
BRANCH  13  14
HETATM   14  C14 UNL     1      18.616  -0.844  37.701  1.00  0.00    -0.037 A 
HETATM   15  C15 UNL     1      18.522   0.335  38.381  1.00  0.00    -0.014 A 
HETATM   16  C16 UNL     1      19.619   1.246  38.033  1.00  0.00     0.056 A 
HETATM   17  C17 UNL     1      20.363   0.516  37.023  1.00  0.00     0.001 A 
HETATM   18  C18 UNL     1      19.773  -0.674  36.856  1.00  0.00     0.036 A 
HETATM   19 CL1  UNL     1      20.421  -1.748  35.597  1.00  0.00    -0.084 Cl
ENDBRANCH  13  14
ENDBRANCH   9  13
ENDBRANCH   5   9
BRANCH   4  20
HETATM   20  O2  UNL     1      16.887  -5.965  37.697  1.00  0.00    -0.357 OA
ATOM     21  H2  UNL     1      17.816  -6.089  37.853  1.00  0.00     0.213 HD
ENDBRANCH   4  20
BRANCH   4  22
HETATM   22  O3  UNL     1      15.316  -5.492  39.188  1.00  0.00    -0.357 OA
ATOM     23  H3  UNL     1      15.075  -4.777  39.766  1.00  0.00     0.213 HD
ENDBRANCH   4  22
BRANCH   1  24
HETATM   24  C6  UNL     1      14.225  -1.890  38.051  1.00  0.00     0.200 C 
BRANCH  24  25
HETATM   25  C5  UNL     1      12.893  -2.175  38.599  1.00  0.00     0.071 A 
HETATM   26  C4  UNL     1      11.715  -1.664  38.101  1.00  0.00     0.037 A 
HETATM   27  C3  UNL     1      10.685  -2.155  38.872  1.00  0.00     0.035 A 
HETATM   28  C2  UNL     1      11.297  -2.958  39.825  1.00  0.00     0.049 A 
HETATM   29  C1  UNL     1      10.528  -3.687  40.866  1.00  0.00     0.076 C 
HETATM   30  O6  UNL     1      12.588  -2.933  39.617  1.00  0.00    -0.318 OA
ENDBRANCH  24  25
ENDBRANCH   1  24
TORSDOF 8
ENDMDL
MODEL 5
REMARK VINA RESULT: -6.306475102      1.764      2.146
REMARK  8 active torsions:
REMARK  status: ('A' for Active; 'I' for Inactive)
REMARK    1  A    between atoms: C5_5  and  C6_6 
REMARK    2  A    between atoms: C6_6  and  N1_7 
REMARK    3  A    between atoms: C8_10  and  O2_11 
REMARK    4  A    between atoms: C8_10  and  O3_13 
REMARK    5  A    between atoms: C9_15  and  C11_17 
REMARK    6  A    between atoms: C11_17  and  O4_19 
REMARK    7  A    between atoms: C11_17  and  C13_21 
REMARK    8  A    between atoms: C13_21  and  C14_22 
ROOT
HETATM    1  N1  UNL     1      15.512  -3.638  37.413  1.00  0.00    -0.277 N 
HETATM    2  C7  UNL     1      16.557  -4.488  37.940  1.00  0.00     0.290 C 
HETATM    3  O1  UNL     1      16.907  -5.622  37.512  1.00  0.00    -0.267 OA
HETATM    4  C8  UNL     1      17.102  -3.711  39.083  1.00  0.00     0.263 C 
HETATM    5  C9  UNL     1      17.075  -2.335  38.541  1.00  0.00     0.134 C 
HETATM    6  C10 UNL     1      17.128  -1.331  39.646  1.00  0.00     0.035 C 
HETATM    7  C19 UNL     1      15.665  -2.324  37.996  1.00  0.00     0.244 C 
HETATM    8  O5  UNL     1      14.795  -1.453  38.007  1.00  0.00    -0.272 OA
ENDROOT
BRANCH   5   9
HETATM    9  C11 UNL     1      17.986  -2.035  37.379  1.00  0.00     0.080 C 
HETATM   10  C12 UNL     1      18.488  -0.646  37.565  1.00  0.00     0.047 C 
BRANCH   9  11
HETATM   11  O4  UNL     1      17.151  -1.934  36.201  1.00  0.00    -0.388 OA
ATOM     12  H4  UNL     1      17.726  -1.992  35.447  1.00  0.00     0.210 HD
ENDBRANCH   9  11
BRANCH   9  13
HETATM   13  C13 UNL     1      18.971  -3.053  37.074  1.00  0.00     0.079 C 
BRANCH  13  14
HETATM   14  C14 UNL     1      20.320  -2.597  36.713  1.00  0.00    -0.037 A 
HETATM   15  C15 UNL     1      20.711  -2.335  35.432  1.00  0.00    -0.014 A 
HETATM   16  C16 UNL     1      22.113  -1.905  35.375  1.00  0.00     0.056 A 
HETATM   17  C17 UNL     1      22.554  -1.989  36.755  1.00  0.00     0.001 A 
HETATM   18  C18 UNL     1      21.512  -2.381  37.498  1.00  0.00     0.036 A 
HETATM   19 CL1  UNL     1      21.791  -2.664  39.230  1.00  0.00    -0.084 Cl
ENDBRANCH  13  14
ENDBRANCH   9  13
ENDBRANCH   5   9
BRANCH   4  20
HETATM   20  O2  UNL     1      18.219  -4.176  39.668  1.00  0.00    -0.357 OA
ATOM     21  H2  UNL     1      18.454  -5.081  39.503  1.00  0.00     0.213 HD
ENDBRANCH   4  20
BRANCH   4  22
HETATM   22  O3  UNL     1      16.078  -3.763  40.069  1.00  0.00    -0.357 OA
ATOM     23  H3  UNL     1      16.453  -4.277  40.775  1.00  0.00     0.213 HD
ENDBRANCH   4  22
BRANCH   1  24
HETATM   24  C6  UNL     1      14.532  -4.111  36.471  1.00  0.00     0.200 C 
BRANCH  24  25
HETATM   25  C5  UNL     1      13.150  -3.895  36.919  1.00  0.00     0.071 A 
HETATM   26  C4  UNL     1      12.145  -3.375  36.135  1.00  0.00     0.037 A 
HETATM   27  C3  UNL     1      11.000  -3.325  36.899  1.00  0.00     0.035 A 
HETATM   28  C2  UNL     1      11.370  -3.827  38.139  1.00  0.00     0.049 A 
HETATM   29  C1  UNL     1      10.413  -3.947  39.269  1.00  0.00     0.076 C 
HETATM   30  O6  UNL     1      12.638  -4.145  38.093  1.00  0.00    -0.318 OA
ENDBRANCH  24  25
ENDBRANCH   1  24
TORSDOF 8
ENDMDL
