MODEL 1
REMARK VINA RESULT: -6.927103406      0.000      0.000
REMARK  9 active torsions:
REMARK  status: ('A' for Active; 'I' for Inactive)
REMARK    1  A    between atoms: C3_3  and  C4_4 
REMARK    2  A    between atoms: C3_3  and  C19_29 
REMARK    3  A    between atoms: C10_11  and  C11_12 
REMARK       I    between atoms: C11_12  and  N1_14 
REMARK    4  A    between atoms: N1_14  and  C12_16 
REMARK    5  A    between atoms: C12_16  and  C13_17 
REMARK    6  A    between atoms: C13_17  and  O3_19 
REMARK    7  A    between atoms: C15_21  and  O4_22 
REMARK    8  A    between atoms: O4_22  and  C16_23 
REMARK    9  A    between atoms: C18_26  and  O6_27 
ROOT
HETATM    1  C4  UNL     1      13.537  -2.087  38.495  1.00  0.00     0.015 C 
HETATM    2  C5  UNL     1      14.541  -2.639  37.962  1.00  0.00    -0.023 C 
HETATM    3  C6  UNL     1      15.680  -1.685  37.443  1.00  0.00     0.213 C 
HETATM    4  O1  UNL     1      16.874  -2.136  38.014  1.00  0.00    -0.344 OA
HETATM    5  C7  UNL     1      17.044  -3.438  38.440  1.00  0.00     0.109 A 
HETATM    6  C8  UNL     1      16.145  -4.399  38.313  1.00  0.00    -0.007 A 
HETATM    7  C9  UNL     1      16.700  -5.637  38.888  1.00  0.00     0.087 A 
HETATM    8  C10 UNL     1      18.048  -5.277  39.372  1.00  0.00     0.051 A 
HETATM    9  C15 UNL     1      18.248  -4.009  39.114  1.00  0.00     0.124 A 
HETATM   10  C18 UNL     1      14.847  -4.031  37.655  1.00  0.00     0.181 C 
ENDROOT
BRANCH   8  11
HETATM   11  C11 UNL     1      19.005  -6.213  40.038  1.00  0.00     0.254 C 
HETATM   12  O2  UNL     1      18.891  -7.427  39.757  1.00  0.00    -0.268 OA
HETATM   13  N1  UNL     1      19.957  -5.720  40.920  1.00  0.00    -0.334 N 
ATOM     14  H1  UNL     1      19.902  -4.711  41.055  1.00  0.00     0.168 HD
BRANCH  13  15
HETATM   15  C12 UNL     1      20.982  -6.331  41.664  1.00  0.00     0.095 C 
BRANCH  15  16
HETATM   16  C13 UNL     1      21.879  -5.471  42.458  1.00  0.00     0.152 C 
HETATM   17  C14 UNL     1      21.629  -5.439  43.924  1.00  0.00     0.045 C 
BRANCH  16  18
HETATM   18  O3  UNL     1      21.724  -4.125  41.961  1.00  0.00    -0.391 OA
ATOM     19  H3  UNL     1      21.458  -4.192  41.052  1.00  0.00     0.210 HD
ENDBRANCH  16  18
ENDBRANCH  15  16
ENDBRANCH  13  15
ENDBRANCH   8  11
BRANCH   9  20
HETATM   20  O4  UNL     1      19.413  -3.310  39.426  1.00  0.00    -0.276 OA
BRANCH  20  21
HETATM   21  C16 UNL     1      20.517  -3.263  38.597  1.00  0.00     0.260 C 
HETATM   22  C17 UNL     1      20.469  -2.760  37.202  1.00  0.00     0.126 C 
HETATM   23  O5  UNL     1      21.610  -3.670  39.054  1.00  0.00    -0.265 OA
ENDBRANCH  20  21
ENDBRANCH   9  20
BRANCH  10  24
HETATM   24  O6  UNL     1      15.037  -4.175  36.237  1.00  0.00    -0.387 OA
ATOM     25  H6  UNL     1      15.912  -4.504  36.069  1.00  0.00     0.210 HD
ENDBRANCH  10  24
BRANCH   1  26
HETATM   26  C3  UNL     1      12.335  -2.551  39.082  1.00  0.00    -0.048 C 
HETATM   27  C2  UNL     1      12.152  -2.341  40.405  1.00  0.00    -0.023 C 
HETATM   28  C1  UNL     1      13.180  -1.655  41.177  1.00  0.00     0.036 C 
BRANCH  26  29
HETATM   29  C19 UNL     1      11.232  -3.260  38.429  1.00  0.00     0.152 C 
HETATM   30 CL1  UNL     1      11.463  -5.025  38.692  1.00  0.00    -0.126 Cl
ENDBRANCH  26  29
ENDBRANCH   1  26
TORSDOF 9
ENDMDL
MODEL 2
REMARK VINA RESULT: -6.822180419      2.699      4.973
REMARK  9 active torsions:
REMARK  status: ('A' for Active; 'I' for Inactive)
REMARK    1  A    between atoms: C3_3  and  C4_4 
REMARK    2  A    between atoms: C3_3  and  C19_29 
REMARK    3  A    between atoms: C10_11  and  C11_12 
REMARK       I    between atoms: C11_12  and  N1_14 
REMARK    4  A    between atoms: N1_14  and  C12_16 
REMARK    5  A    between atoms: C12_16  and  C13_17 
REMARK    6  A    between atoms: C13_17  and  O3_19 
REMARK    7  A    between atoms: C15_21  and  O4_22 
REMARK    8  A    between atoms: O4_22  and  C16_23 
REMARK    9  A    between atoms: C18_26  and  O6_27 
ROOT
HETATM    1  C4  UNL     1      13.574  -4.070  38.308  1.00  0.00     0.015 C 
HETATM    2  C5  UNL     1      14.655  -3.699  38.844  1.00  0.00    -0.023 C 
HETATM    3  C6  UNL     1      15.616  -4.833  39.360  1.00  0.00     0.213 C 
HETATM    4  O1  UNL     1      16.871  -4.587  38.793  1.00  0.00    -0.344 OA
HETATM    5  C7  UNL     1      17.259  -3.330  38.374  1.00  0.00     0.109 A 
HETATM    6  C8  UNL     1      16.533  -2.231  38.505  1.00  0.00    -0.007 A 
HETATM    7  C9  UNL     1      17.290  -1.102  37.937  1.00  0.00     0.087 A 
HETATM    8  C10 UNL     1      18.560  -1.682  37.453  1.00  0.00     0.051 A 
HETATM    9  C15 UNL     1      18.543  -2.967  37.705  1.00  0.00     0.124 A 
HETATM   10  C18 UNL     1      15.191  -2.380  39.159  1.00  0.00     0.181 C 
ENDROOT
BRANCH   8  11
HETATM   11  C11 UNL     1      19.662  -0.917  36.793  1.00  0.00     0.254 C 
HETATM   12  O2  UNL     1      19.731   0.306  37.052  1.00  0.00    -0.268 OA
HETATM   13  N1  UNL     1      20.543  -1.567  35.941  1.00  0.00    -0.334 N 
ATOM     14  H1  UNL     1      20.336  -2.558  35.820  1.00  0.00     0.168 HD
BRANCH  13  15
HETATM   15  C12 UNL     1      21.665  -1.136  35.209  1.00  0.00     0.095 C 
BRANCH  15  16
HETATM   16  C13 UNL     1      22.399  -2.128  34.402  1.00  0.00     0.152 C 
HETATM   17  C14 UNL     1      22.023  -2.212  32.966  1.00  0.00     0.045 C 
BRANCH  16  18
HETATM   18  O3  UNL     1      22.152  -3.421  34.993  1.00  0.00    -0.391 OA
ATOM     19  H3  UNL     1      22.697  -4.047  34.532  1.00  0.00     0.210 HD
ENDBRANCH  16  18
ENDBRANCH  15  16
ENDBRANCH  13  15
ENDBRANCH   8  11
BRANCH   9  20
HETATM   20  O4  UNL     1      19.574  -3.850  37.391  1.00  0.00    -0.276 OA
BRANCH  20  21
HETATM   21  C16 UNL     1      20.630  -4.120  38.240  1.00  0.00     0.260 C 
HETATM   22  C17 UNL     1      20.464  -4.753  39.573  1.00  0.00     0.126 C 
HETATM   23  O5  UNL     1      21.782  -3.810  37.860  1.00  0.00    -0.265 OA
ENDBRANCH  20  21
ENDBRANCH   9  20
BRANCH  10  24
HETATM   24  O6  UNL     1      15.399  -2.276  40.578  1.00  0.00    -0.387 OA
ATOM     25  H6  UNL     1      15.300  -1.370  40.845  1.00  0.00     0.210 HD
ENDBRANCH  10  24
BRANCH   1  26
HETATM   26  C3  UNL     1      12.469  -3.409  37.721  1.00  0.00    -0.048 C 
HETATM   27  C2  UNL     1      12.311  -3.499  36.381  1.00  0.00    -0.023 C 
HETATM   28  C1  UNL     1      13.269  -4.263  35.592  1.00  0.00     0.036 C 
BRANCH  26  29
HETATM   29  C19 UNL     1      11.446  -2.603  38.392  1.00  0.00     0.152 C 
HETATM   30 CL1  UNL     1      11.989  -0.888  38.394  1.00  0.00    -0.126 Cl
ENDBRANCH  26  29
ENDBRANCH   1  26
TORSDOF 9
ENDMDL
MODEL 3
REMARK VINA RESULT: -6.715092075      0.813      1.280
REMARK  9 active torsions:
REMARK  status: ('A' for Active; 'I' for Inactive)
REMARK    1  A    between atoms: C3_3  and  C4_4 
REMARK    2  A    between atoms: C3_3  and  C19_29 
REMARK    3  A    between atoms: C10_11  and  C11_12 
REMARK       I    between atoms: C11_12  and  N1_14 
REMARK    4  A    between atoms: N1_14  and  C12_16 
REMARK    5  A    between atoms: C12_16  and  C13_17 
REMARK    6  A    between atoms: C13_17  and  O3_19 
REMARK    7  A    between atoms: C15_21  and  O4_22 
REMARK    8  A    between atoms: O4_22  and  C16_23 
REMARK    9  A    between atoms: C18_26  and  O6_27 
ROOT
HETATM    1  C4  UNL     1      13.193  -1.808  38.771  1.00  0.00     0.015 C 
HETATM    2  C5  UNL     1      14.133  -2.413  38.184  1.00  0.00    -0.023 C 
HETATM    3  C6  UNL     1      15.251  -1.519  37.531  1.00  0.00     0.213 C 
HETATM    4  O1  UNL     1      16.476  -1.982  38.022  1.00  0.00    -0.344 OA
HETATM    5  C7  UNL     1      16.645  -3.269  38.492  1.00  0.00     0.109 A 
HETATM    6  C8  UNL     1      15.711  -4.206  38.482  1.00  0.00    -0.007 A 
HETATM    7  C9  UNL     1      16.277  -5.435  39.065  1.00  0.00     0.087 A 
HETATM    8  C10 UNL     1      17.671  -5.097  39.420  1.00  0.00     0.051 A 
HETATM    9  C15 UNL     1      17.884  -3.848  39.090  1.00  0.00     0.124 A 
HETATM   10  C18 UNL     1      14.374  -3.825  37.916  1.00  0.00     0.181 C 
ENDROOT
BRANCH   8  11
HETATM   11  C11 UNL     1      18.653  -6.033  40.048  1.00  0.00     0.254 C 
HETATM   12  O2  UNL     1      18.454  -7.257  39.873  1.00  0.00    -0.268 OA
HETATM   13  N1  UNL     1      19.718  -5.532  40.782  1.00  0.00    -0.334 N 
ATOM     14  H1  UNL     1      19.724  -4.514  40.846  1.00  0.00     0.168 HD
BRANCH  13  15
HETATM   15  C12 UNL     1      20.792  -6.142  41.455  1.00  0.00     0.095 C 
BRANCH  15  16
HETATM   16  C13 UNL     1      21.688  -5.292  42.260  1.00  0.00     0.152 C 
HETATM   17  C14 UNL     1      21.335  -5.140  43.696  1.00  0.00     0.045 C 
BRANCH  16  18
HETATM   18  O3  UNL     1      21.670  -3.976  41.667  1.00  0.00    -0.391 OA
ATOM     19  H3  UNL     1      21.663  -3.349  42.379  1.00  0.00     0.210 HD
ENDBRANCH  16  18
ENDBRANCH  15  16
ENDBRANCH  13  15
ENDBRANCH   8  11
BRANCH   9  20
HETATM   20  O4  UNL     1      19.089  -3.174  39.274  1.00  0.00    -0.276 OA
BRANCH  20  21
HETATM   21  C16 UNL     1      20.119  -3.192  38.353  1.00  0.00     0.260 C 
HETATM   22  C17 UNL     1      19.990  -2.660  36.973  1.00  0.00     0.126 C 
HETATM   23  O5  UNL     1      21.214  -3.686  38.708  1.00  0.00    -0.265 OA
ENDBRANCH  20  21
ENDBRANCH   9  20
BRANCH  10  24
HETATM   24  O6  UNL     1      14.441  -4.036  36.496  1.00  0.00    -0.387 OA
ATOM     25  H6  UNL     1      14.567  -3.202  36.059  1.00  0.00     0.210 HD
ENDBRANCH  10  24
BRANCH   1  26
HETATM   26  C3  UNL     1      12.031  -2.207  39.475  1.00  0.00    -0.048 C 
HETATM   27  C2  UNL     1      10.861  -2.248  38.799  1.00  0.00    -0.023 C 
HETATM   28  C1  UNL     1      10.829  -1.885  37.388  1.00  0.00     0.036 C 
BRANCH  26  29
HETATM   29  C19 UNL     1      11.922  -2.584  40.886  1.00  0.00     0.152 C 
HETATM   30 CL1  UNL     1      10.575  -3.765  41.052  1.00  0.00    -0.126 Cl
ENDBRANCH  26  29
ENDBRANCH   1  26
TORSDOF 9
ENDMDL
MODEL 4
REMARK VINA RESULT: -6.699816436      2.655      4.774
REMARK  9 active torsions:
REMARK  status: ('A' for Active; 'I' for Inactive)
REMARK    1  A    between atoms: C3_3  and  C4_4 
REMARK    2  A    between atoms: C3_3  and  C19_29 
REMARK    3  A    between atoms: C10_11  and  C11_12 
REMARK       I    between atoms: C11_12  and  N1_14 
REMARK    4  A    between atoms: N1_14  and  C12_16 
REMARK    5  A    between atoms: C12_16  and  C13_17 
REMARK    6  A    between atoms: C13_17  and  O3_19 
REMARK    7  A    between atoms: C15_21  and  O4_22 
REMARK    8  A    between atoms: O4_22  and  C16_23 
REMARK    9  A    between atoms: C18_26  and  O6_27 
ROOT
HETATM    1  C4  UNL     1      13.021  -4.249  38.117  1.00  0.00     0.015 C 
HETATM    2  C5  UNL     1      14.053  -3.811  38.699  1.00  0.00    -0.023 C 
HETATM    3  C6  UNL     1      14.993  -4.879  39.372  1.00  0.00     0.213 C 
HETATM    4  O1  UNL     1      16.282  -4.647  38.880  1.00  0.00    -0.344 OA
HETATM    5  C7  UNL     1      16.677  -3.418  38.392  1.00  0.00     0.109 A 
HETATM    6  C8  UNL     1      15.924  -2.330  38.382  1.00  0.00    -0.007 A 
HETATM    7  C9  UNL     1      16.700  -1.230  37.783  1.00  0.00     0.087 A 
HETATM    8  C10 UNL     1      18.013  -1.815  37.441  1.00  0.00     0.051 A 
HETATM    9  C15 UNL     1      18.000  -3.077  37.791  1.00  0.00     0.124 A 
HETATM   10  C18 UNL     1      14.539  -2.459  38.947  1.00  0.00     0.181 C 
ENDROOT
BRANCH   8  11
HETATM   11  C11 UNL     1      19.147  -1.078  36.804  1.00  0.00     0.254 C 
HETATM   12  O2  UNL     1      19.185   0.160  36.986  1.00  0.00    -0.268 OA
HETATM   13  N1  UNL     1      20.089  -1.767  36.054  1.00  0.00    -0.334 N 
ATOM     14  H1  UNL     1      19.901  -2.767  35.986  1.00  0.00     0.168 HD
BRANCH  13  15
HETATM   15  C12 UNL     1      21.250  -1.367  35.369  1.00  0.00     0.095 C 
BRANCH  15  16
HETATM   16  C13 UNL     1      22.001  -2.383  34.609  1.00  0.00     0.152 C 
HETATM   17  C14 UNL     1      21.710  -2.461  33.153  1.00  0.00     0.045 C 
BRANCH  16  18
HETATM   18  O3  UNL     1      21.679  -3.666  35.186  1.00  0.00    -0.391 OA
ATOM     19  H3  UNL     1      20.764  -3.638  35.437  1.00  0.00     0.210 HD
ENDBRANCH  16  18
ENDBRANCH  15  16
ENDBRANCH  13  15
ENDBRANCH   8  11
BRANCH   9  20
HETATM   20  O4  UNL     1      19.068  -3.957  37.623  1.00  0.00    -0.276 OA
BRANCH  20  21
HETATM   21  C16 UNL     1      20.091  -4.095  38.542  1.00  0.00     0.260 C 
HETATM   22  C17 UNL     1      19.883  -4.585  39.927  1.00  0.00     0.126 C 
HETATM   23  O5  UNL     1      21.250  -3.788  38.179  1.00  0.00    -0.265 OA
ENDBRANCH  20  21
ENDBRANCH   9  20
BRANCH  10  24
HETATM   24  O6  UNL     1      14.640  -2.241  40.365  1.00  0.00    -0.387 OA
ATOM     25  H6  UNL     1      14.406  -1.342  40.562  1.00  0.00     0.210 HD
ENDBRANCH  10  24
BRANCH   1  26
HETATM   26  C3  UNL     1      11.951  -3.661  37.401  1.00  0.00    -0.048 C 
HETATM   27  C2  UNL     1      10.763  -3.525  38.033  1.00  0.00    -0.023 C 
HETATM   28  C1  UNL     1      10.621  -3.980  39.410  1.00  0.00     0.036 C 
BRANCH  26  29
HETATM   29  C19 UNL     1      11.954  -3.176  36.019  1.00  0.00     0.152 C 
HETATM   30 CL1  UNL     1      10.743  -1.852  35.883  1.00  0.00    -0.126 Cl
ENDBRANCH  26  29
ENDBRANCH   1  26
TORSDOF 9
ENDMDL
MODEL 5
REMARK VINA RESULT: -6.562671691      2.126      2.798
REMARK  9 active torsions:
REMARK  status: ('A' for Active; 'I' for Inactive)
REMARK    1  A    between atoms: C3_3  and  C4_4 
REMARK    2  A    between atoms: C3_3  and  C19_29 
REMARK    3  A    between atoms: C10_11  and  C11_12 
REMARK       I    between atoms: C11_12  and  N1_14 
REMARK    4  A    between atoms: N1_14  and  C12_16 
REMARK    5  A    between atoms: C12_16  and  C13_17 
REMARK    6  A    between atoms: C13_17  and  O3_19 
REMARK    7  A    between atoms: C15_21  and  O4_22 
REMARK    8  A    between atoms: O4_22  and  C16_23 
REMARK    9  A    between atoms: C18_26  and  O6_27 
ROOT
HETATM    1  C4  UNL     1      13.312  -3.338  38.885  1.00  0.00     0.015 C 
HETATM    2  C5  UNL     1      14.558  -3.308  38.682  1.00  0.00    -0.023 C 
HETATM    3  C6  UNL     1      15.431  -2.550  39.749  1.00  0.00     0.213 C 
HETATM    4  O1  UNL     1      16.436  -3.436  40.151  1.00  0.00    -0.344 OA
HETATM    5  C7  UNL     1      16.862  -4.480  39.356  1.00  0.00     0.109 A 
HETATM    6  C8  UNL     1      16.424  -4.727  38.132  1.00  0.00    -0.007 A 
HETATM    7  C9  UNL     1      17.118  -5.922  37.620  1.00  0.00     0.087 A 
HETATM    8  C10 UNL     1      18.025  -6.346  38.706  1.00  0.00     0.051 A 
HETATM    9  C15 UNL     1      17.878  -5.516  39.707  1.00  0.00     0.124 A 
HETATM   10  C18 UNL     1      15.385  -3.794  37.583  1.00  0.00     0.181 C 
ENDROOT
BRANCH   8  11
HETATM   11  C11 UNL     1      18.945  -7.524  38.652  1.00  0.00     0.254 C 
HETATM   12  O2  UNL     1      18.436  -8.619  38.320  1.00  0.00    -0.268 OA
HETATM   13  N1  UNL     1      20.288  -7.371  38.962  1.00  0.00    -0.334 N 
ATOM     14  H1  UNL     1      20.537  -6.420  39.232  1.00  0.00     0.168 HD
BRANCH  13  15
HETATM   15  C12 UNL     1      21.377  -8.261  38.979  1.00  0.00     0.095 C 
BRANCH  15  16
HETATM   16  C13 UNL     1      21.536  -9.151  40.144  1.00  0.00     0.152 C 
HETATM   17  C14 UNL     1      20.806 -10.445  40.085  1.00  0.00     0.045 C 
BRANCH  16  18
HETATM   18  O3  UNL     1      21.052  -8.431  41.297  1.00  0.00    -0.391 OA
ATOM     19  H3  UNL     1      20.569  -9.050  41.830  1.00  0.00     0.210 HD
ENDBRANCH  16  18
ENDBRANCH  15  16
ENDBRANCH  13  15
ENDBRANCH   8  11
BRANCH   9  20
HETATM   20  O4  UNL     1      18.572  -5.597  40.913  1.00  0.00    -0.276 OA
BRANCH  20  21
HETATM   21  C16 UNL     1      19.869  -5.149  41.076  1.00  0.00     0.260 C 
HETATM   22  C17 UNL     1      20.450  -4.030  40.293  1.00  0.00     0.126 C 
HETATM   23  O5  UNL     1      20.585  -5.722  41.929  1.00  0.00    -0.265 OA
ENDBRANCH  20  21
ENDBRANCH   9  20
BRANCH  10  24
HETATM   24  O6  UNL     1      16.084  -2.687  36.988  1.00  0.00    -0.387 OA
ATOM     25  H6  UNL     1      16.869  -2.505  37.490  1.00  0.00     0.210 HD
ENDBRANCH  10  24
BRANCH   1  26
HETATM   26  C3  UNL     1      12.201  -3.898  38.209  1.00  0.00    -0.048 C 
HETATM   27  C2  UNL     1      11.102  -4.203  38.935  1.00  0.00    -0.023 C 
HETATM   28  C1  UNL     1      11.093  -3.950  40.371  1.00  0.00     0.036 C 
BRANCH  26  29
HETATM   29  C19 UNL     1      12.084  -4.212  36.783  1.00  0.00     0.152 C 
HETATM   30 CL1  UNL     1      11.375  -2.785  35.947  1.00  0.00    -0.126 Cl
ENDBRANCH  26  29
ENDBRANCH   1  26
TORSDOF 9
ENDMDL
