MODEL 1
REMARK VINA RESULT: -7.229332100      0.000      0.000
REMARK  5 active torsions:
REMARK  status: ('A' for Active; 'I' for Inactive)
REMARK    1  A    between atoms: C2_3  and  N2_4 
REMARK    2  A    between atoms: N2_4  and  C3_7 
REMARK    3  A    between atoms: C3_7  and  C4_8 
REMARK    4  A    between atoms: C4_8  and  C5_9 
REMARK    5  A    between atoms: C4_8  and  N3_13 
ROOT
HETATM    1  N1  UNL     1      -3.783   0.937  16.430  1.00  0.00    -0.195 NA
HETATM    2  C1  UNL     1      -4.744   1.554  16.275  1.00  0.00     0.099 C 
HETATM    3  C2  UNL     1      -5.945   2.354  16.088  1.00  0.00     0.213 C 
HETATM    4  C15 UNL     1      -6.163   3.150  17.373  1.00  0.00     0.055 C 
HETATM    5  C16 UNL     1      -6.330   1.990  18.363  1.00  0.00     0.004 C 
HETATM    6  C17 UNL     1      -7.024   0.900  17.575  1.00  0.00     0.004 C 
HETATM    7  C18 UNL     1      -7.134   1.422  16.158  1.00  0.00     0.055 C 
ENDROOT
BRANCH   3   8
HETATM    8  N2  UNL     1      -5.922   3.185  14.933  1.00  0.00    -0.048 N 
ATOM      9  H22 UNL     1      -6.625   2.892  14.255  1.00  0.00     0.279 HD
ATOM     10  H21 UNL     1      -6.277   4.118  15.143  1.00  0.00     0.279 HD
BRANCH   8  11
HETATM   11  C3  UNL     1      -4.626   3.247  14.338  1.00  0.00     0.287 C 
BRANCH  11  12
HETATM   12  C4  UNL     1      -4.582   3.335  12.858  1.00  0.00     0.018 C 
BRANCH  12  13
HETATM   13  C5  UNL     1      -4.283   2.121  12.079  1.00  0.00     0.033 C 
HETATM   14  C6  UNL     1      -4.313   0.801  12.836  1.00  0.00     0.010 C 
HETATM   15  C7  UNL     1      -4.575   0.171  11.456  1.00  0.00     0.001 C 
HETATM   16  C8  UNL     1      -5.248   1.526  11.136  1.00  0.00     0.010 C 
ENDBRANCH  12  13
BRANCH  12  17
HETATM   17  N3  UNL     1      -3.902   4.447  12.316  1.00  0.00    -0.365 N 
HETATM   18  C9  UNL     1      -4.283   5.749  12.617  1.00  0.00     0.063 C 
HETATM   19  C10 UNL     1      -3.226   6.650  13.175  1.00  0.00     0.044 C 
HETATM   20  C11 UNL     1      -2.093   6.982  12.283  1.00  0.00     0.005 C 
HETATM   21  C12 UNL     1      -2.269   6.476  10.896  1.00  0.00     0.002 C 
HETATM   22  C13 UNL     1      -2.088   4.986  10.748  1.00  0.00     0.020 C 
HETATM   23  C14 UNL     1      -2.549   4.219  11.933  1.00  0.00     0.128 C 
ENDBRANCH  12  17
ENDBRANCH  11  12
ENDBRANCH   8  11
ENDBRANCH   3   8
TORSDOF 5
ENDMDL
MODEL 2
REMARK VINA RESULT: -7.175977004      0.797      1.240
REMARK  5 active torsions:
REMARK  status: ('A' for Active; 'I' for Inactive)
REMARK    1  A    between atoms: C2_3  and  N2_4 
REMARK    2  A    between atoms: N2_4  and  C3_7 
REMARK    3  A    between atoms: C3_7  and  C4_8 
REMARK    4  A    between atoms: C4_8  and  C5_9 
REMARK    5  A    between atoms: C4_8  and  N3_13 
ROOT
HETATM    1  N1  UNL     1      -3.836   0.957  16.433  1.00  0.00    -0.195 NA
HETATM    2  C1  UNL     1      -4.822   1.542  16.313  1.00  0.00     0.099 C 
HETATM    3  C2  UNL     1      -6.054   2.301  16.168  1.00  0.00     0.213 C 
HETATM    4  C15 UNL     1      -6.231   3.124  17.443  1.00  0.00     0.055 C 
HETATM    5  C16 UNL     1      -6.312   1.986  18.468  1.00  0.00     0.004 C 
HETATM    6  C17 UNL     1      -7.012   0.856  17.744  1.00  0.00     0.004 C 
HETATM    7  C18 UNL     1      -7.210   1.338  16.322  1.00  0.00     0.055 C 
ENDROOT
BRANCH   3   8
HETATM    8  N2  UNL     1      -6.116   3.102  14.993  1.00  0.00    -0.048 N 
ATOM      9  H22 UNL     1      -6.768   2.711  14.314  1.00  0.00     0.279 HD
ATOM     10  H21 UNL     1      -6.585   3.990  15.176  1.00  0.00     0.279 HD
BRANCH   8  11
HETATM   11  C3  UNL     1      -4.827   3.309  14.413  1.00  0.00     0.287 C 
BRANCH  11  12
HETATM   12  C4  UNL     1      -4.785   3.456  12.938  1.00  0.00     0.018 C 
BRANCH  12  13
HETATM   13  C5  UNL     1      -4.393   2.300  12.115  1.00  0.00     0.033 C 
HETATM   14  C6  UNL     1      -4.280   0.962  12.831  1.00  0.00     0.010 C 
HETATM   15  C7  UNL     1      -4.517   0.349  11.438  1.00  0.00     0.001 C 
HETATM   16  C8  UNL     1      -5.322   1.644  11.176  1.00  0.00     0.010 C 
ENDBRANCH  12  13
BRANCH  12  17
HETATM   17  N3  UNL     1      -4.186   4.636  12.444  1.00  0.00    -0.365 N 
HETATM   18  C9  UNL     1      -4.333   5.025  11.117  1.00  0.00     0.063 C 
HETATM   19  C10 UNL     1      -4.873   6.399  10.873  1.00  0.00     0.044 C 
HETATM   20  C11 UNL     1      -4.034   7.534  11.314  1.00  0.00     0.005 C 
HETATM   21  C12 UNL     1      -2.693   7.119  11.804  1.00  0.00     0.002 C 
HETATM   22  C13 UNL     1      -2.702   6.458  13.161  1.00  0.00     0.020 C 
HETATM   23  C14 UNL     1      -3.920   5.648  13.410  1.00  0.00     0.128 C 
ENDBRANCH  12  17
ENDBRANCH  11  12
ENDBRANCH   8  11
ENDBRANCH   3   8
TORSDOF 5
ENDMDL
MODEL 3
REMARK VINA RESULT: -6.993556933      0.892      1.614
REMARK  5 active torsions:
REMARK  status: ('A' for Active; 'I' for Inactive)
REMARK    1  A    between atoms: C2_3  and  N2_4 
REMARK    2  A    between atoms: N2_4  and  C3_7 
REMARK    3  A    between atoms: C3_7  and  C4_8 
REMARK    4  A    between atoms: C4_8  and  C5_9 
REMARK    5  A    between atoms: C4_8  and  N3_13 
ROOT
HETATM    1  N1  UNL     1      -3.724   0.857  16.382  1.00  0.00    -0.195 NA
HETATM    2  C1  UNL     1      -4.604   1.599  16.316  1.00  0.00     0.099 C 
HETATM    3  C2  UNL     1      -5.701   2.551  16.247  1.00  0.00     0.213 C 
HETATM    4  C15 UNL     1      -5.994   3.007  17.675  1.00  0.00     0.055 C 
HETATM    5  C16 UNL     1      -6.372   1.658  18.299  1.00  0.00     0.004 C 
HETATM    6  C17 UNL     1      -7.064   0.894  17.190  1.00  0.00     0.004 C 
HETATM    7  C18 UNL     1      -6.967   1.774  15.961  1.00  0.00     0.055 C 
ENDROOT
BRANCH   3   8
HETATM    8  N2  UNL     1      -5.476   3.643  15.364  1.00  0.00    -0.048 N 
ATOM      9  H22 UNL     1      -5.931   4.491  15.703  1.00  0.00     0.279 HD
ATOM     10  H21 UNL     1      -4.505   3.954  15.401  1.00  0.00     0.279 HD
BRANCH   8  11
HETATM   11  C3  UNL     1      -5.872   3.345  14.025  1.00  0.00     0.287 C 
BRANCH  11  12
HETATM   12  C4  UNL     1      -4.835   3.513  12.978  1.00  0.00     0.018 C 
BRANCH  12  13
HETATM   13  C5  UNL     1      -4.381   2.332  12.225  1.00  0.00     0.033 C 
HETATM   14  C6  UNL     1      -4.472   0.992  12.942  1.00  0.00     0.010 C 
HETATM   15  C7  UNL     1      -4.507   0.389  11.524  1.00  0.00     0.001 C 
HETATM   16  C8  UNL     1      -5.176   1.730  11.139  1.00  0.00     0.010 C 
ENDBRANCH  12  13
BRANCH  12  17
HETATM   17  N3  UNL     1      -3.736   4.335  13.311  1.00  0.00    -0.365 N 
HETATM   18  C9  UNL     1      -2.429   3.945  13.041  1.00  0.00     0.063 C 
HETATM   19  C10 UNL     1      -1.597   4.888  12.229  1.00  0.00     0.044 C 
HETATM   20  C11 UNL     1      -1.285   6.198  12.840  1.00  0.00     0.005 C 
HETATM   21  C12 UNL     1      -1.732   6.310  14.254  1.00  0.00     0.002 C 
HETATM   22  C13 UNL     1      -3.223   6.464  14.426  1.00  0.00     0.020 C 
HETATM   23  C14 UNL     1      -4.010   5.729  13.404  1.00  0.00     0.128 C 
ENDBRANCH  12  17
ENDBRANCH  11  12
ENDBRANCH   8  11
ENDBRANCH   3   8
TORSDOF 5
ENDMDL
MODEL 4
REMARK VINA RESULT: -6.944680267      1.515      5.788
REMARK  5 active torsions:
REMARK  status: ('A' for Active; 'I' for Inactive)
REMARK    1  A    between atoms: C2_3  and  N2_4 
REMARK    2  A    between atoms: N2_4  and  C3_7 
REMARK    3  A    between atoms: C3_7  and  C4_8 
REMARK    4  A    between atoms: C4_8  and  C5_9 
REMARK    5  A    between atoms: C4_8  and  N3_13 
ROOT
HETATM    1  N1  UNL     1       0.234   5.793  12.190  1.00  0.00    -0.195 NA
HETATM    2  C1  UNL     1      -0.824   5.540  12.571  1.00  0.00     0.099 C 
HETATM    3  C2  UNL     1      -2.167   5.219  13.027  1.00  0.00     0.213 C 
HETATM    4  C15 UNL     1      -3.134   6.115  12.254  1.00  0.00     0.055 C 
HETATM    5  C16 UNL     1      -2.626   7.488  12.713  1.00  0.00     0.004 C 
HETATM    6  C17 UNL     1      -2.172   7.280  14.142  1.00  0.00     0.004 C 
HETATM    7  C18 UNL     1      -2.334   5.799  14.414  1.00  0.00     0.055 C 
ENDROOT
BRANCH   3   8
HETATM    8  N2  UNL     1      -2.508   3.841  12.926  1.00  0.00    -0.048 N 
ATOM      9  H22 UNL     1      -2.115   3.425  12.083  1.00  0.00     0.279 HD
ATOM     10  H21 UNL     1      -2.015   3.287  13.627  1.00  0.00     0.279 HD
BRANCH   8  11
HETATM   11  C3  UNL     1      -3.918   3.628  12.998  1.00  0.00     0.287 C 
BRANCH  11  12
HETATM   12  C4  UNL     1      -4.360   2.292  13.466  1.00  0.00     0.018 C 
BRANCH  12  13
HETATM   13  C5  UNL     1      -4.882   1.327  12.484  1.00  0.00     0.033 C 
HETATM   14  C6  UNL     1      -4.871   1.765  11.026  1.00  0.00     0.010 C 
HETATM   15  C7  UNL     1      -4.870   0.257  10.713  1.00  0.00     0.001 C 
HETATM   16  C8  UNL     1      -4.123   0.135  12.063  1.00  0.00     0.010 C 
ENDBRANCH  12  13
BRANCH  12  17
HETATM   17  N3  UNL     1      -5.141   2.267  14.642  1.00  0.00    -0.365 N 
HETATM   18  C9  UNL     1      -5.287   1.106  15.393  1.00  0.00     0.063 C 
HETATM   19  C10 UNL     1      -4.924   1.190  16.843  1.00  0.00     0.044 C 
HETATM   20  C11 UNL     1      -5.755   2.072  17.690  1.00  0.00     0.005 C 
HETATM   21  C12 UNL     1      -6.936   2.629  16.977  1.00  0.00     0.002 C 
HETATM   22  C13 UNL     1      -6.609   3.714  15.980  1.00  0.00     0.020 C 
HETATM   23  C14 UNL     1      -5.301   3.516  15.307  1.00  0.00     0.128 C 
ENDBRANCH  12  17
ENDBRANCH  11  12
ENDBRANCH   8  11
ENDBRANCH   3   8
TORSDOF 5
ENDMDL
MODEL 5
REMARK VINA RESULT: -6.849247305      1.598      5.776
REMARK  5 active torsions:
REMARK  status: ('A' for Active; 'I' for Inactive)
REMARK    1  A    between atoms: C2_3  and  N2_4 
REMARK    2  A    between atoms: N2_4  and  C3_7 
REMARK    3  A    between atoms: C3_7  and  C4_8 
REMARK    4  A    between atoms: C4_8  and  C5_9 
REMARK    5  A    between atoms: C4_8  and  N3_13 
ROOT
HETATM    1  N1  UNL     1       0.401   6.119  12.186  1.00  0.00    -0.195 NA
HETATM    2  C1  UNL     1      -0.641   5.797  12.561  1.00  0.00     0.099 C 
HETATM    3  C2  UNL     1      -1.962   5.387  13.011  1.00  0.00     0.213 C 
HETATM    4  C15 UNL     1      -2.981   6.229  12.245  1.00  0.00     0.055 C 
HETATM    5  C16 UNL     1      -2.561   7.626  12.720  1.00  0.00     0.004 C 
HETATM    6  C17 UNL     1      -2.098   7.431  14.148  1.00  0.00     0.004 C 
HETATM    7  C18 UNL     1      -2.167   5.940  14.403  1.00  0.00     0.055 C 
ENDROOT
BRANCH   3   8
HETATM    8  N2  UNL     1      -2.215   3.992  12.895  1.00  0.00    -0.048 N 
ATOM      9  H22 UNL     1      -1.734   3.595  12.088  1.00  0.00     0.279 HD
ATOM     10  H21 UNL     1      -1.748   3.469  13.636  1.00  0.00     0.279 HD
BRANCH   8  11
HETATM   11  C3  UNL     1      -3.612   3.698  12.858  1.00  0.00     0.287 C 
BRANCH  11  12
HETATM   12  C4  UNL     1      -4.028   2.394  13.429  1.00  0.00     0.018 C 
BRANCH  12  13
HETATM   13  C5  UNL     1      -4.736   1.431  12.569  1.00  0.00     0.033 C 
HETATM   14  C6  UNL     1      -4.888   1.811  11.102  1.00  0.00     0.010 C 
HETATM   15  C7  UNL     1      -5.025   0.295  10.864  1.00  0.00     0.001 C 
HETATM   16  C8  UNL     1      -4.118   0.173  12.110  1.00  0.00     0.010 C 
ENDBRANCH  12  13
BRANCH  12  17
HETATM   17  N3  UNL     1      -4.614   2.429  14.712  1.00  0.00    -0.365 N 
HETATM   18  C9  UNL     1      -5.111   3.611  15.252  1.00  0.00     0.063 C 
HETATM   19  C10 UNL     1      -6.537   3.599  15.705  1.00  0.00     0.044 C 
HETATM   20  C11 UNL     1      -6.869   2.713  16.843  1.00  0.00     0.005 C 
HETATM   21  C12 UNL     1      -5.675   2.078  17.461  1.00  0.00     0.002 C 
HETATM   22  C13 UNL     1      -5.061   0.971  16.639  1.00  0.00     0.020 C 
HETATM   23  C14 UNL     1      -5.165   1.201  15.176  1.00  0.00     0.128 C 
ENDBRANCH  12  17
ENDBRANCH  11  12
ENDBRANCH   8  11
ENDBRANCH   3   8
TORSDOF 5
ENDMDL
