MODEL 1
REMARK VINA RESULT: -7.025995164      0.000      0.000
REMARK  5 active torsions:
REMARK  status: ('A' for Active; 'I' for Inactive)
REMARK    1  A    between atoms: C2_2  and  N1_4 
REMARK    2  A    between atoms: N1_4  and  C4_5 
REMARK    3  A    between atoms: N1_4  and  C12_17 
REMARK    4  A    between atoms: C4_5  and  C5_6 
REMARK       I    between atoms: C5_6  and  N2_8 
REMARK    5  A    between atoms: N2_8  and  C6_10 
ROOT
HETATM    1  C6  UNL     1      -2.254   6.907  13.327  1.00  0.00     0.122 C 
HETATM    2  C7  UNL     1      -1.072   6.250  12.824  1.00  0.00     0.091 C 
HETATM    3  N3  UNL     1      -0.153   5.715  12.429  1.00  0.00    -0.195 NA
HETATM    4  C8  UNL     1      -2.065   7.386  14.745  1.00  0.00     0.046 C 
HETATM    5  C9  UNL     1      -1.037   8.498  14.594  1.00  0.00     0.004 C 
HETATM    6  C10 UNL     1      -1.115   8.931  13.132  1.00  0.00     0.004 C 
HETATM    7  C11 UNL     1      -2.398   8.260  12.613  1.00  0.00     0.046 C 
ENDROOT
BRANCH   1   8
HETATM    8  N2  UNL     1      -3.442   6.099  13.210  1.00  0.00    -0.338 N 
HETATM    9  C5  UNL     1      -3.512   4.790  13.747  1.00  0.00     0.237 C 
HETATM   10  O1  UNL     1      -2.523   4.318  14.337  1.00  0.00    -0.272 OA
ATOM     11  H2  UNL     1      -4.255   6.482  12.728  1.00  0.00     0.164 HD
BRANCH   9  12
HETATM   12  C4  UNL     1      -4.759   4.027  13.583  1.00  0.00     0.230 C 
BRANCH  12  13
HETATM   13  N1  UNL     1      -4.658   2.610  13.864  1.00  0.00    -0.353 N 
BRANCH  13  14
HETATM   14  C2  UNL     1      -4.815   1.797  12.738  1.00  0.00    -0.018 C 
HETATM   15  C1  UNL     1      -3.995   0.513  12.687  1.00  0.00     0.063 C 
HETATM   16  C3  UNL     1      -4.847   2.452  11.384  1.00  0.00     0.063 C 
ENDBRANCH  13  14
BRANCH  13  17
HETATM   17  C12 UNL     1      -5.047   2.274  15.148  1.00  0.00    -0.011 C 
HETATM   18  C13 UNL     1      -5.042   0.896  15.634  1.00  0.00     0.052 C 
HETATM   19  C14 UNL     1      -5.607   0.753  17.052  1.00  0.00     0.006 C 
HETATM   20  C15 UNL     1      -7.023   1.339  17.036  1.00  0.00     0.001 C 
HETATM   21  C16 UNL     1      -6.757   2.840  16.898  1.00  0.00     0.006 C 
HETATM   22  C17 UNL     1      -6.311   3.065  15.477  1.00  0.00     0.052 C 
ENDBRANCH  13  17
ENDBRANCH  12  13
ENDBRANCH   9  12
ENDBRANCH   1   8
TORSDOF 5
ENDMDL
MODEL 2
REMARK VINA RESULT: -6.989565960      1.750      6.503
REMARK  5 active torsions:
REMARK  status: ('A' for Active; 'I' for Inactive)
REMARK    1  A    between atoms: C2_2  and  N1_4 
REMARK    2  A    between atoms: N1_4  and  C4_5 
REMARK    3  A    between atoms: N1_4  and  C12_17 
REMARK    4  A    between atoms: C4_5  and  C5_6 
REMARK       I    between atoms: C5_6  and  N2_8 
REMARK    5  A    between atoms: N2_8  and  C6_10 
ROOT
HETATM    1  C6  UNL     1      -4.469   2.534  14.772  1.00  0.00     0.122 C 
HETATM    2  C7  UNL     1      -4.546   1.291  14.044  1.00  0.00     0.091 C 
HETATM    3  N3  UNL     1      -4.598   0.323  13.455  1.00  0.00    -0.195 NA
HETATM    4  C8  UNL     1      -5.839   3.114  15.031  1.00  0.00     0.046 C 
HETATM    5  C9  UNL     1      -6.447   2.124  16.014  1.00  0.00     0.004 C 
HETATM    6  C10 UNL     1      -5.263   1.393  16.644  1.00  0.00     0.004 C 
HETATM    7  C11 UNL     1      -4.042   2.225  16.215  1.00  0.00     0.046 C 
ENDROOT
BRANCH   1   8
HETATM    8  N2  UNL     1      -3.609   3.505  14.144  1.00  0.00    -0.338 N 
HETATM    9  C5  UNL     1      -3.870   4.006  12.845  1.00  0.00     0.237 C 
HETATM   10  O1  UNL     1      -4.869   3.601  12.223  1.00  0.00    -0.272 OA
ATOM     11  H2  UNL     1      -2.790   3.840  14.650  1.00  0.00     0.164 HD
BRANCH   9  12
HETATM   12  C4  UNL     1      -2.943   4.993  12.270  1.00  0.00     0.230 C 
BRANCH  12  13
HETATM   13  N1  UNL     1      -3.340   6.376  12.423  1.00  0.00    -0.353 N 
BRANCH  13  14
HETATM   14  C2  UNL     1      -4.065   6.879  11.339  1.00  0.00    -0.018 C 
HETATM   15  C1  UNL     1      -5.570   7.040  11.522  1.00  0.00     0.063 C 
HETATM   16  C3  UNL     1      -3.759   6.345   9.966  1.00  0.00     0.063 C 
ENDBRANCH  13  14
BRANCH  13  17
HETATM   17  C12 UNL     1      -2.477   7.114  13.213  1.00  0.00    -0.011 C 
HETATM   18  C13 UNL     1      -2.625   7.202  14.664  1.00  0.00     0.052 C 
HETATM   19  C14 UNL     1      -1.615   8.154  15.317  1.00  0.00     0.006 C 
HETATM   20  C15 UNL     1      -1.787   9.523  14.649  1.00  0.00     0.001 C 
HETATM   21  C16 UNL     1      -1.212   9.283  13.251  1.00  0.00     0.006 C 
HETATM   22  C17 UNL     1      -2.224   8.446  12.512  1.00  0.00     0.052 C 
ENDBRANCH  13  17
ENDBRANCH  12  13
ENDBRANCH   9  12
ENDBRANCH   1   8
TORSDOF 5
ENDMDL
MODEL 3
REMARK VINA RESULT: -6.829795033      1.637      2.586
REMARK  5 active torsions:
REMARK  status: ('A' for Active; 'I' for Inactive)
REMARK    1  A    between atoms: C2_2  and  N1_4 
REMARK    2  A    between atoms: N1_4  and  C4_5 
REMARK    3  A    between atoms: N1_4  and  C12_17 
REMARK    4  A    between atoms: C4_5  and  C5_6 
REMARK       I    between atoms: C5_6  and  N2_8 
REMARK    5  A    between atoms: N2_8  and  C6_10 
ROOT
HETATM    1  C6  UNL     1      -1.160   4.962  11.441  1.00  0.00     0.122 C 
HETATM    2  C7  UNL     1      -0.742   6.149  12.147  1.00  0.00     0.091 C 
HETATM    3  N3  UNL     1      -0.433   7.087  12.706  1.00  0.00    -0.195 NA
HETATM    4  C8  UNL     1      -0.961   5.100   9.952  1.00  0.00     0.046 C 
HETATM    5  C9  UNL     1       0.555   5.121   9.812  1.00  0.00     0.004 C 
HETATM    6  C10 UNL     1       1.092   4.476  11.088  1.00  0.00     0.004 C 
HETATM    7  C11 UNL     1      -0.151   3.842  11.736  1.00  0.00     0.046 C 
ENDROOT
BRANCH   1   8
HETATM    8  N2  UNL     1      -2.514   4.572  11.746  1.00  0.00    -0.338 N 
HETATM    9  C5  UNL     1      -2.888   4.110  13.032  1.00  0.00     0.237 C 
HETATM   10  O1  UNL     1      -2.028   4.039  13.929  1.00  0.00    -0.272 OA
ATOM     11  H2  UNL     1      -3.222   4.629  11.014  1.00  0.00     0.164 HD
BRANCH   9  12
HETATM   12  C4  UNL     1      -4.289   3.726  13.263  1.00  0.00     0.230 C 
BRANCH  12  13
HETATM   13  N1  UNL     1      -4.491   2.359  13.695  1.00  0.00    -0.353 N 
BRANCH  13  14
HETATM   14  C2  UNL     1      -4.827   1.482  12.660  1.00  0.00    -0.018 C 
HETATM   15  C1  UNL     1      -3.987   0.218  12.517  1.00  0.00     0.063 C 
HETATM   16  C3  UNL     1      -5.135   2.062  11.305  1.00  0.00     0.063 C 
ENDBRANCH  13  14
BRANCH  13  17
HETATM   17  C12 UNL     1      -4.933   2.253  15.001  1.00  0.00    -0.011 C 
HETATM   18  C13 UNL     1      -4.988   0.976  15.710  1.00  0.00     0.052 C 
HETATM   19  C14 UNL     1      -5.604   1.089  17.109  1.00  0.00     0.006 C 
HETATM   20  C15 UNL     1      -7.000   1.700  16.942  1.00  0.00     0.001 C 
HETATM   21  C16 UNL     1      -6.682   3.149  16.566  1.00  0.00     0.006 C 
HETATM   22  C17 UNL     1      -6.182   3.120  15.145  1.00  0.00     0.052 C 
ENDBRANCH  13  17
ENDBRANCH  12  13
ENDBRANCH   9  12
ENDBRANCH   1   8
TORSDOF 5
ENDMDL
MODEL 4
REMARK VINA RESULT: -6.817337688      2.744      3.895
REMARK  5 active torsions:
REMARK  status: ('A' for Active; 'I' for Inactive)
REMARK    1  A    between atoms: C2_2  and  N1_4 
REMARK    2  A    between atoms: N1_4  and  C4_5 
REMARK    3  A    between atoms: N1_4  and  C12_17 
REMARK    4  A    between atoms: C4_5  and  C5_6 
REMARK       I    between atoms: C5_6  and  N2_8 
REMARK    5  A    between atoms: N2_8  and  C6_10 
ROOT
HETATM    1  C6  UNL     1      -4.095   6.012  10.310  1.00  0.00     0.122 C 
HETATM    2  C7  UNL     1      -3.876   5.317   9.064  1.00  0.00     0.091 C 
HETATM    3  N3  UNL     1      -3.692   4.757   8.096  1.00  0.00    -0.195 NA
HETATM    4  C8  UNL     1      -3.438   7.371  10.312  1.00  0.00     0.046 C 
HETATM    5  C9  UNL     1      -4.255   8.144   9.287  1.00  0.00     0.004 C 
HETATM    6  C10 UNL     1      -5.585   7.402   9.180  1.00  0.00     0.004 C 
HETATM    7  C11 UNL     1      -5.570   6.436  10.377  1.00  0.00     0.046 C 
ENDROOT
BRANCH   1   8
HETATM    8  N2  UNL     1      -3.695   5.245  11.463  1.00  0.00    -0.338 N 
HETATM    9  C5  UNL     1      -4.283   3.993  11.769  1.00  0.00     0.237 C 
HETATM   10  O1  UNL     1      -5.170   3.537  11.025  1.00  0.00    -0.272 OA
ATOM     11  H2  UNL     1      -2.968   5.614  12.075  1.00  0.00     0.164 HD
BRANCH   9  12
HETATM   12  C4  UNL     1      -3.824   3.272  12.967  1.00  0.00     0.230 C 
BRANCH  12  13
HETATM   13  N1  UNL     1      -4.223   3.855  14.229  1.00  0.00    -0.353 N 
BRANCH  13  14
HETATM   14  C2  UNL     1      -3.280   4.733  14.772  1.00  0.00    -0.018 C 
HETATM   15  C1  UNL     1      -3.639   6.214  14.794  1.00  0.00     0.063 C 
HETATM   16  C3  UNL     1      -1.835   4.550  14.394  1.00  0.00     0.063 C 
ENDBRANCH  13  14
BRANCH  13  17
HETATM   17  C12 UNL     1      -5.074   3.048  14.965  1.00  0.00    -0.011 C 
HETATM   18  C13 UNL     1      -6.244   3.574  15.665  1.00  0.00     0.052 C 
HETATM   19  C14 UNL     1      -6.978   2.514  16.493  1.00  0.00     0.006 C 
HETATM   20  C15 UNL     1      -5.959   1.916  17.470  1.00  0.00     0.001 C 
HETATM   21  C16 UNL     1      -5.057   1.096  16.544  1.00  0.00     0.006 C 
HETATM   22  C17 UNL     1      -4.215   2.087  15.783  1.00  0.00     0.052 C 
ENDBRANCH  13  17
ENDBRANCH  12  13
ENDBRANCH   9  12
ENDBRANCH   1   8
TORSDOF 5
ENDMDL
MODEL 5
REMARK VINA RESULT: -6.812655326      2.723      4.105
REMARK  5 active torsions:
REMARK  status: ('A' for Active; 'I' for Inactive)
REMARK    1  A    between atoms: C2_2  and  N1_4 
REMARK    2  A    between atoms: N1_4  and  C4_5 
REMARK    3  A    between atoms: N1_4  and  C12_17 
REMARK    4  A    between atoms: C4_5  and  C5_6 
REMARK       I    between atoms: C5_6  and  N2_8 
REMARK    5  A    between atoms: N2_8  and  C6_10 
ROOT
HETATM    1  C6  UNL     1      -3.818   5.685  10.147  1.00  0.00     0.122 C 
HETATM    2  C7  UNL     1      -5.208   6.065  10.089  1.00  0.00     0.091 C 
HETATM    3  N3  UNL     1      -6.305   6.350  10.058  1.00  0.00    -0.195 NA
HETATM    4  C8  UNL     1      -3.401   4.906   8.924  1.00  0.00     0.046 C 
HETATM    5  C9  UNL     1      -3.472   5.948   7.817  1.00  0.00     0.004 C 
HETATM    6  C10 UNL     1      -3.390   7.300   8.523  1.00  0.00     0.004 C 
HETATM    7  C11 UNL     1      -2.961   6.945   9.957  1.00  0.00     0.046 C 
ENDROOT
BRANCH   1   8
HETATM    8  N2  UNL     1      -3.477   4.971  11.353  1.00  0.00    -0.338 N 
HETATM    9  C5  UNL     1      -4.180   3.809  11.757  1.00  0.00     0.237 C 
HETATM   10  O1  UNL     1      -5.118   3.387  11.057  1.00  0.00    -0.272 OA
ATOM     11  H2  UNL     1      -2.709   5.312  11.930  1.00  0.00     0.164 HD
BRANCH   9  12
HETATM   12  C4  UNL     1      -3.775   3.138  13.003  1.00  0.00     0.230 C 
BRANCH  12  13
HETATM   13  N1  UNL     1      -4.220   3.780  14.222  1.00  0.00    -0.353 N 
BRANCH  13  14
HETATM   14  C2  UNL     1      -3.301   4.690  14.750  1.00  0.00    -0.018 C 
HETATM   15  C1  UNL     1      -3.679   6.166  14.709  1.00  0.00     0.063 C 
HETATM   16  C3  UNL     1      -1.846   4.513  14.410  1.00  0.00     0.063 C 
ENDBRANCH  13  14
BRANCH  13  17
HETATM   17  C12 UNL     1      -5.089   3.003  14.968  1.00  0.00    -0.011 C 
HETATM   18  C13 UNL     1      -6.239   3.568  15.671  1.00  0.00     0.052 C 
HETATM   19  C14 UNL     1      -6.999   2.535  16.511  1.00  0.00     0.006 C 
HETATM   20  C15 UNL     1      -5.991   1.915  17.486  1.00  0.00     0.001 C 
HETATM   21  C16 UNL     1      -5.120   1.062  16.561  1.00  0.00     0.006 C 
HETATM   22  C17 UNL     1      -4.254   2.022  15.788  1.00  0.00     0.052 C 
ENDBRANCH  13  17
ENDBRANCH  12  13
ENDBRANCH   9  12
ENDBRANCH   1   8
TORSDOF 5
ENDMDL
