MODEL 1
REMARK VINA RESULT: -6.735591826      0.000      0.000
REMARK  5 active torsions:
REMARK  status: ('A' for Active; 'I' for Inactive)
REMARK    1  A    between atoms: O1_2  and  C2_3 
REMARK    2  A    between atoms: C2_3  and  C3_4 
REMARK    3  A    between atoms: C3_4  and  N1_5 
REMARK    4  A    between atoms: C9_11  and  N2_12 
REMARK    5  A    between atoms: N2_12  and  C10_15 
ROOT
HETATM    1  N1  UNL     1      -3.449   4.361  11.664  1.00  0.00    -0.391 N 
HETATM    2  C4  UNL     1      -2.653   5.203  12.468  1.00  0.00     0.126 C 
HETATM    3  C5  UNL     1      -3.316   5.572  13.787  1.00  0.00     0.006 C 
HETATM    4  C6  UNL     1      -4.825   5.474  13.547  1.00  0.00     0.018 C 
HETATM    5  C7  UNL     1      -4.968   3.943  13.550  1.00  0.00     0.055 C 
HETATM    6  C8  UNL     1      -4.261   3.417  12.324  1.00  0.00     0.065 C 
HETATM    7  C9  UNL     1      -4.302   3.647  14.841  1.00  0.00     0.195 C 
HETATM    8  C18 UNL     1      -3.020   4.439  14.751  1.00  0.00     0.040 C 
ENDROOT
BRANCH   7   9
HETATM    9  N2  UNL     1      -4.097   2.275  15.176  1.00  0.00    -0.066 N 
ATOM     10  H22 UNL     1      -4.349   1.635  14.424  1.00  0.00     0.278 HD
ATOM     11  H21 UNL     1      -3.112   2.018  15.238  1.00  0.00     0.278 HD
BRANCH   9  12
HETATM   12  C10 UNL     1      -4.828   2.035  16.401  1.00  0.00     0.190 C 
HETATM   13  C11 UNL     1      -5.228   0.623  16.643  1.00  0.00     0.038 C 
HETATM   14  C12 UNL     1      -6.287   0.670  17.758  1.00  0.00    -0.013 C 
HETATM   15  C13 UNL     1      -6.048   1.894  18.649  1.00  0.00     0.005 C 
HETATM   16  C17 UNL     1      -7.606   0.942  17.043  1.00  0.00     0.005 C 
HETATM   17  C14 UNL     1      -6.378   3.174  17.878  1.00  0.00     0.007 C 
HETATM   18  C15 UNL     1      -6.132   2.849  16.414  1.00  0.00     0.016 C 
HETATM   19  C16 UNL     1      -7.301   1.958  15.973  1.00  0.00     0.007 C 
ENDBRANCH   9  12
ENDBRANCH   7   9
BRANCH   1  20
HETATM   20  C3  UNL     1      -3.782   4.785  10.365  1.00  0.00     0.148 C 
BRANCH  20  21
HETATM   21  C2  UNL     1      -4.578   6.098  10.369  1.00  0.00     0.186 C 
BRANCH  21  22
HETATM   22  O1  UNL     1      -5.940   5.824  10.210  1.00  0.00    -0.394 OA
HETATM   23  C1  UNL     1      -6.513   6.944   9.617  1.00  0.00     0.201 C 
ENDBRANCH  21  22
ENDBRANCH  20  21
ENDBRANCH   1  20
TORSDOF 5
ENDMDL
MODEL 2
REMARK VINA RESULT: -6.712018364      1.144      1.207
REMARK  5 active torsions:
REMARK  status: ('A' for Active; 'I' for Inactive)
REMARK    1  A    between atoms: O1_2  and  C2_3 
REMARK    2  A    between atoms: C2_3  and  C3_4 
REMARK    3  A    between atoms: C3_4  and  N1_5 
REMARK    4  A    between atoms: C9_11  and  N2_12 
REMARK    5  A    between atoms: N2_12  and  C10_15 
ROOT
HETATM    1  N1  UNL     1      -2.465   4.347  11.967  1.00  0.00    -0.391 N 
HETATM    2  C4  UNL     1      -1.879   5.117  12.993  1.00  0.00     0.126 C 
HETATM    3  C5  UNL     1      -2.860   5.490  14.096  1.00  0.00     0.006 C 
HETATM    4  C6  UNL     1      -4.247   5.490  13.448  1.00  0.00     0.018 C 
HETATM    5  C7  UNL     1      -4.463   3.971  13.347  1.00  0.00     0.055 C 
HETATM    6  C8  UNL     1      -3.474   3.437  12.339  1.00  0.00     0.065 C 
HETATM    7  C9  UNL     1      -4.195   3.601  14.757  1.00  0.00     0.195 C 
HETATM    8  C18 UNL     1      -2.899   4.316  15.054  1.00  0.00     0.040 C 
ENDROOT
BRANCH   7   9
HETATM    9  N2  UNL     1      -4.161   2.211  15.077  1.00  0.00    -0.066 N 
ATOM     10  H22 UNL     1      -4.515   1.617  14.328  1.00  0.00     0.278 HD
ATOM     11  H21 UNL     1      -3.215   1.827  15.107  1.00  0.00     0.278 HD
BRANCH   9  12
HETATM   12  C10 UNL     1      -4.881   2.055  16.321  1.00  0.00     0.190 C 
HETATM   13  C11 UNL     1      -5.276   0.662  16.663  1.00  0.00     0.038 C 
HETATM   14  C12 UNL     1      -6.326   0.785  17.781  1.00  0.00    -0.013 C 
HETATM   15  C13 UNL     1      -6.083   2.067  18.583  1.00  0.00     0.005 C 
HETATM   16  C17 UNL     1      -7.652   1.004  17.059  1.00  0.00     0.005 C 
HETATM   17  C14 UNL     1      -6.422   3.290  17.729  1.00  0.00     0.007 C 
HETATM   18  C15 UNL     1      -6.186   2.865  16.289  1.00  0.00     0.016 C 
HETATM   19  C16 UNL     1      -7.357   1.944  15.920  1.00  0.00     0.007 C 
ENDBRANCH   9  12
ENDBRANCH   7   9
BRANCH   1  20
HETATM   20  C3  UNL     1      -2.405   4.825  10.646  1.00  0.00     0.148 C 
BRANCH  20  21
HETATM   21  C2  UNL     1      -3.789   4.874   9.982  1.00  0.00     0.186 C 
BRANCH  21  22
HETATM   22  O1  UNL     1      -3.692   4.439   8.657  1.00  0.00    -0.394 OA
HETATM   23  C1  UNL     1      -3.652   5.577   7.858  1.00  0.00     0.201 C 
ENDBRANCH  21  22
ENDBRANCH  20  21
ENDBRANCH   1  20
TORSDOF 5
ENDMDL
MODEL 3
REMARK VINA RESULT: -6.541325772      2.302      7.072
REMARK  5 active torsions:
REMARK  status: ('A' for Active; 'I' for Inactive)
REMARK    1  A    between atoms: O1_2  and  C2_3 
REMARK    2  A    between atoms: C2_3  and  C3_4 
REMARK    3  A    between atoms: C3_4  and  N1_5 
REMARK    4  A    between atoms: C9_11  and  N2_12 
REMARK    5  A    between atoms: N2_12  and  C10_15 
ROOT
HETATM    1  N1  UNL     1      -5.047   2.430  14.269  1.00  0.00    -0.391 N 
HETATM    2  C4  UNL     1      -5.451   3.495  15.099  1.00  0.00     0.126 C 
HETATM    3  C5  UNL     1      -4.604   4.747  14.920  1.00  0.00     0.006 C 
HETATM    4  C6  UNL     1      -3.238   4.269  14.421  1.00  0.00     0.018 C 
HETATM    5  C7  UNL     1      -3.616   3.944  12.966  1.00  0.00     0.055 C 
HETATM    6  C8  UNL     1      -4.550   2.758  12.992  1.00  0.00     0.065 C 
HETATM    7  C9  UNL     1      -4.242   5.236  12.593  1.00  0.00     0.195 C 
HETATM    8  C18 UNL     1      -5.187   5.499  13.740  1.00  0.00     0.040 C 
ENDROOT
BRANCH   7   9
HETATM    9  N2  UNL     1      -4.868   5.317  11.313  1.00  0.00    -0.066 N 
ATOM     10  H22 UNL     1      -4.344   4.844  10.578  1.00  0.00     0.278 HD
ATOM     11  H21 UNL     1      -5.719   4.758  11.244  1.00  0.00     0.278 HD
BRANCH   9  12
HETATM   12  C10 UNL     1      -5.085   6.722  11.047  1.00  0.00     0.190 C 
HETATM   13  C11 UNL     1      -6.396   7.265  11.493  1.00  0.00     0.038 C 
HETATM   14  C12 UNL     1      -6.554   8.621  10.784  1.00  0.00    -0.013 C 
HETATM   15  C13 UNL     1      -5.174   9.224  10.504  1.00  0.00     0.005 C 
HETATM   16  C17 UNL     1      -7.135   8.288   9.414  1.00  0.00     0.005 C 
HETATM   17  C14 UNL     1      -4.457   8.411   9.423  1.00  0.00     0.007 C 
HETATM   18  C15 UNL     1      -5.007   6.999   9.537  1.00  0.00     0.016 C 
HETATM   19  C16 UNL     1      -6.424   7.045   8.948  1.00  0.00     0.007 C 
ENDBRANCH   9  12
ENDBRANCH   7   9
BRANCH   1  20
HETATM   20  C3  UNL     1      -4.692   1.207  14.865  1.00  0.00     0.148 C 
BRANCH  20  21
HETATM   21  C2  UNL     1      -5.167   1.112  16.323  1.00  0.00     0.186 C 
BRANCH  21  22
HETATM   22  O1  UNL     1      -6.293   0.287  16.399  1.00  0.00    -0.394 OA
HETATM   23  C1  UNL     1      -7.245   0.967  17.152  1.00  0.00     0.201 C 
ENDBRANCH  21  22
ENDBRANCH  20  21
ENDBRANCH   1  20
TORSDOF 5
ENDMDL
MODEL 4
REMARK VINA RESULT: -6.534630281      2.474      7.162
REMARK  5 active torsions:
REMARK  status: ('A' for Active; 'I' for Inactive)
REMARK    1  A    between atoms: O1_2  and  C2_3 
REMARK    2  A    between atoms: C2_3  and  C3_4 
REMARK    3  A    between atoms: C3_4  and  N1_5 
REMARK    4  A    between atoms: C9_11  and  N2_12 
REMARK    5  A    between atoms: N2_12  and  C10_15 
ROOT
HETATM    1  N1  UNL     1      -5.844   3.305  14.915  1.00  0.00    -0.391 N 
HETATM    2  C4  UNL     1      -5.869   4.713  14.988  1.00  0.00     0.126 C 
HETATM    3  C5  UNL     1      -4.589   5.361  14.483  1.00  0.00     0.006 C 
HETATM    4  C6  UNL     1      -3.481   4.322  14.678  1.00  0.00     0.018 C 
HETATM    5  C7  UNL     1      -3.829   3.382  13.512  1.00  0.00     0.055 C 
HETATM    6  C8  UNL     1      -5.150   2.727  13.835  1.00  0.00     0.065 C 
HETATM    7  C9  UNL     1      -3.865   4.375  12.412  1.00  0.00     0.195 C 
HETATM    8  C18 UNL     1      -4.727   5.477  12.978  1.00  0.00     0.040 C 
ENDROOT
BRANCH   7   9
HETATM    9  N2  UNL     1      -4.296   3.920  11.130  1.00  0.00    -0.066 N 
ATOM     10  H22 UNL     1      -4.556   2.934  11.118  1.00  0.00     0.278 HD
ATOM     11  H21 UNL     1      -5.205   4.294  10.854  1.00  0.00     0.278 HD
BRANCH   9  12
HETATM   12  C10 UNL     1      -3.239   4.245  10.198  1.00  0.00     0.190 C 
HETATM   13  C11 UNL     1      -1.935   4.615  10.811  1.00  0.00     0.038 C 
HETATM   14  C12 UNL     1      -1.113   5.272   9.689  1.00  0.00    -0.013 C 
HETATM   15  C13 UNL     1      -1.549   4.711   8.331  1.00  0.00     0.005 C 
HETATM   16  C17 UNL     1      -1.547   6.733   9.681  1.00  0.00     0.005 C 
HETATM   17  C14 UNL     1      -2.956   5.204   7.989  1.00  0.00     0.007 C 
HETATM   18  C15 UNL     1      -3.646   5.440   9.322  1.00  0.00     0.016 C 
HETATM   19  C16 UNL     1      -3.038   6.729   9.893  1.00  0.00     0.007 C 
ENDBRANCH   9  12
ENDBRANCH   7   9
BRANCH   1  20
HETATM   20  C3  UNL     1      -6.048   2.564  16.093  1.00  0.00     0.148 C 
BRANCH  20  21
HETATM   21  C2  UNL     1      -5.455   1.150  16.001  1.00  0.00     0.186 C 
BRANCH  21  22
HETATM   22  O1  UNL     1      -6.361   0.224  16.525  1.00  0.00    -0.394 OA
HETATM   23  C1  UNL     1      -7.369   0.950  17.151  1.00  0.00     0.201 C 
ENDBRANCH  21  22
ENDBRANCH  20  21
ENDBRANCH   1  20
TORSDOF 5
ENDMDL
MODEL 5
REMARK VINA RESULT: -6.495465246      2.289      7.055
REMARK  5 active torsions:
REMARK  status: ('A' for Active; 'I' for Inactive)
REMARK    1  A    between atoms: O1_2  and  C2_3 
REMARK    2  A    between atoms: C2_3  and  C3_4 
REMARK    3  A    between atoms: C3_4  and  N1_5 
REMARK    4  A    between atoms: C9_11  and  N2_12 
REMARK    5  A    between atoms: N2_12  and  C10_15 
ROOT
HETATM    1  N1  UNL     1      -5.010   2.312  14.410  1.00  0.00    -0.391 N 
HETATM    2  C4  UNL     1      -5.604   3.415  15.058  1.00  0.00     0.126 C 
HETATM    3  C5  UNL     1      -4.864   4.722  14.813  1.00  0.00     0.006 C 
HETATM    4  C6  UNL     1      -3.412   4.339  14.516  1.00  0.00     0.018 C 
HETATM    5  C7  UNL     1      -3.591   3.816  13.082  1.00  0.00     0.055 C 
HETATM    6  C8  UNL     1      -4.406   2.547  13.159  1.00  0.00     0.065 C 
HETATM    7  C9  UNL     1      -4.290   4.982  12.491  1.00  0.00     0.195 C 
HETATM    8  C18 UNL     1      -5.378   5.270  13.496  1.00  0.00     0.040 C 
ENDROOT
BRANCH   7   9
HETATM    9  N2  UNL     1      -4.772   4.852  11.155  1.00  0.00    -0.066 N 
ATOM     10  H22 UNL     1      -4.337   4.086  10.642  1.00  0.00     0.278 HD
ATOM     11  H21 UNL     1      -5.732   4.510  11.104  1.00  0.00     0.278 HD
BRANCH   9  12
HETATM   12  C10 UNL     1      -4.591   6.140  10.522  1.00  0.00     0.190 C 
HETATM   13  C11 UNL     1      -4.214   7.255  11.432  1.00  0.00     0.038 C 
HETATM   14  C12 UNL     1      -4.451   8.549  10.635  1.00  0.00    -0.013 C 
HETATM   15  C13 UNL     1      -4.284   8.273   9.137  1.00  0.00     0.005 C 
HETATM   16  C17 UNL     1      -5.930   8.868  10.824  1.00  0.00     0.005 C 
HETATM   17  C14 UNL     1      -5.438   7.404   8.633  1.00  0.00     0.007 C 
HETATM   18  C15 UNL     1      -5.890   6.584   9.830  1.00  0.00     0.016 C 
HETATM   19  C16 UNL     1      -6.656   7.551  10.743  1.00  0.00     0.007 C 
ENDBRANCH   9  12
ENDBRANCH   7   9
BRANCH   1  20
HETATM   20  C3  UNL     1      -4.611   1.209  15.185  1.00  0.00     0.148 C 
BRANCH  20  21
HETATM   21  C2  UNL     1      -5.306   1.180  16.555  1.00  0.00     0.186 C 
BRANCH  21  22
HETATM   22  O1  UNL     1      -6.388   0.295  16.517  1.00  0.00    -0.394 OA
HETATM   23  C1  UNL     1      -7.471   0.954  17.090  1.00  0.00     0.201 C 
ENDBRANCH  21  22
ENDBRANCH  20  21
ENDBRANCH   1  20
TORSDOF 5
ENDMDL
