MODEL 1
REMARK VINA RESULT: -7.340931918      0.000      0.000
REMARK  5 active torsions:
REMARK  status: ('A' for Active; 'I' for Inactive)
REMARK    1  A    between atoms: C2_2  and  C3_3 
REMARK    2  A    between atoms: C3_3  and  C4_4 
REMARK    3  A    between atoms: N1_7  and  C7_8 
REMARK    4  A    between atoms: N2_13  and  N3_15 
REMARK       I    between atoms: N3_15  and  C12_17 
REMARK    5  A    between atoms: C12_17  and  C13_19 
ROOT
HETATM    1  C1  UNL     1      -3.741   2.670  10.922  1.00  0.00     0.065 C 
HETATM    2  C2  UNL     1      -4.087   2.896  12.339  1.00  0.00     0.000 C 
HETATM    3  N2  UNL     1      -4.056   1.911  13.156  1.00  0.00    -0.307 N 
ATOM      4  H2  UNL     1      -3.791   0.990  12.806  1.00  0.00     0.186 HD
ENDROOT
BRANCH   2   5
HETATM    5  C3  UNL     1      -4.462   4.230  12.810  1.00  0.00     0.058 C 
BRANCH   5   6
HETATM    6  C4  UNL     1      -3.277   5.111  13.147  1.00  0.00    -0.006 C 
HETATM    7  C5  UNL     1      -3.372   5.600  14.535  1.00  0.00     0.035 C 
HETATM    8  C6  UNL     1      -2.665   6.895  14.805  1.00  0.00     0.273 C 
HETATM    9  N1  UNL     1      -1.747   7.274  13.740  1.00  0.00     0.092 N 
HETATM   10  C10 UNL     1      -2.558   7.447  12.552  1.00  0.00     0.273 C 
HETATM   11  C11 UNL     1      -3.198   6.174  12.093  1.00  0.00     0.035 C 
BRANCH   9  12
HETATM   12  C7  UNL     1      -1.219   8.579  14.094  1.00  0.00     0.215 C 
HETATM   13  C8  UNL     1      -1.409   8.875  15.570  1.00  0.00     0.042 C 
HETATM   14  C9  UNL     1      -1.806   9.677  13.231  1.00  0.00     0.042 C 
ENDBRANCH   9  12
ENDBRANCH   5   6
ENDBRANCH   2   5
BRANCH   3  15
HETATM   15  N3  UNL     1      -4.374   2.055  14.520  1.00  0.00    -0.270 N 
HETATM   16  C12 UNL     1      -4.722   0.962  15.339  1.00  0.00     0.240 C 
HETATM   17  O1  UNL     1      -4.752  -0.183  14.842  1.00  0.00    -0.271 OA
ATOM     18  H3  UNL     1      -4.351   2.987  14.932  1.00  0.00     0.190 HD
BRANCH  16  19
HETATM   19  C13 UNL     1      -5.046   1.162  16.753  1.00  0.00     0.079 C 
HETATM   20  C14 UNL     1      -5.521   2.545  17.070  1.00  0.00     0.014 C 
HETATM   21  C15 UNL     1      -6.805   2.352  17.856  1.00  0.00     0.001 C 
HETATM   22  C16 UNL     1      -7.369   1.100  17.184  1.00  0.00     0.001 C 
HETATM   23  C17 UNL     1      -6.147   0.208  17.159  1.00  0.00     0.014 C 
ENDBRANCH  16  19
ENDBRANCH   3  15
TORSDOF 5
ENDMDL
MODEL 2
REMARK VINA RESULT: -7.151503154      1.345      2.078
REMARK  5 active torsions:
REMARK  status: ('A' for Active; 'I' for Inactive)
REMARK    1  A    between atoms: C2_2  and  C3_3 
REMARK    2  A    between atoms: C3_3  and  C4_4 
REMARK    3  A    between atoms: N1_7  and  C7_8 
REMARK    4  A    between atoms: N2_13  and  N3_15 
REMARK       I    between atoms: N3_15  and  C12_17 
REMARK    5  A    between atoms: C12_17  and  C13_19 
ROOT
HETATM    1  C1  UNL     1      -4.432   0.153  10.559  1.00  0.00     0.065 C 
HETATM    2  C2  UNL     1      -4.654   0.955  11.778  1.00  0.00     0.000 C 
HETATM    3  N2  UNL     1      -4.368   0.452  12.920  1.00  0.00    -0.307 N 
ATOM      4  H2  UNL     1      -3.991  -0.495  12.959  1.00  0.00     0.186 HD
ENDROOT
BRANCH   2   5
HETATM    5  C3  UNL     1      -5.196   2.312  11.688  1.00  0.00     0.058 C 
BRANCH   5   6
HETATM    6  C4  UNL     1      -4.149   3.396  11.840  1.00  0.00    -0.006 C 
HETATM    7  C5  UNL     1      -4.494   4.297  12.956  1.00  0.00     0.035 C 
HETATM    8  C6  UNL     1      -3.939   5.687  12.847  1.00  0.00     0.273 C 
HETATM    9  N1  UNL     1      -2.902   5.807  11.833  1.00  0.00     0.092 N 
HETATM   10  C10 UNL     1      -3.533   5.479  10.571  1.00  0.00     0.273 C 
HETATM   11  C11 UNL     1      -3.993   4.056  10.504  1.00  0.00     0.035 C 
BRANCH   9  12
HETATM   12  C7  UNL     1      -2.538   7.211  11.779  1.00  0.00     0.215 C 
HETATM   13  C8  UNL     1      -2.179   7.747  13.152  1.00  0.00     0.042 C 
HETATM   14  C9  UNL     1      -3.619   8.049  11.126  1.00  0.00     0.042 C 
ENDBRANCH   9  12
ENDBRANCH   5   6
ENDBRANCH   2   5
BRANCH   3  15
HETATM   15  N3  UNL     1      -4.555   1.160  14.122  1.00  0.00    -0.270 N 
HETATM   16  C12 UNL     1      -4.740   0.517  15.362  1.00  0.00     0.240 C 
HETATM   17  O1  UNL     1      -4.740  -0.732  15.404  1.00  0.00    -0.271 OA
ATOM     18  H3  UNL     1      -4.555   2.179  14.095  1.00  0.00     0.190 HD
BRANCH  16  19
HETATM   19  C13 UNL     1      -4.932   1.296  16.587  1.00  0.00     0.079 C 
HETATM   20  C14 UNL     1      -5.525   2.648  16.350  1.00  0.00     0.014 C 
HETATM   21  C15 UNL     1      -6.687   2.747  17.321  1.00  0.00     0.001 C 
HETATM   22  C16 UNL     1      -7.173   1.297  17.338  1.00  0.00     0.001 C 
HETATM   23  C17 UNL     1      -5.867   0.556  17.517  1.00  0.00     0.014 C 
ENDBRANCH  16  19
ENDBRANCH   3  15
TORSDOF 5
ENDMDL
MODEL 3
REMARK VINA RESULT: -7.001613228      1.827      2.306
REMARK  5 active torsions:
REMARK  status: ('A' for Active; 'I' for Inactive)
REMARK    1  A    between atoms: C2_2  and  C3_3 
REMARK    2  A    between atoms: C3_3  and  C4_4 
REMARK    3  A    between atoms: N1_7  and  C7_8 
REMARK    4  A    between atoms: N2_13  and  N3_15 
REMARK       I    between atoms: N3_15  and  C12_17 
REMARK    5  A    between atoms: C12_17  and  C13_19 
ROOT
HETATM    1  C1  UNL     1      -4.439   0.216  10.483  1.00  0.00     0.065 C 
HETATM    2  C2  UNL     1      -4.622   1.034  11.698  1.00  0.00     0.000 C 
HETATM    3  N2  UNL     1      -4.434   0.500  12.846  1.00  0.00    -0.307 N 
ATOM      4  H2  UNL     1      -4.160  -0.482  12.893  1.00  0.00     0.186 HD
ENDROOT
BRANCH   2   5
HETATM    5  C3  UNL     1      -5.016   2.440  11.596  1.00  0.00     0.058 C 
BRANCH   5   6
HETATM    6  C4  UNL     1      -3.887   3.358  11.174  1.00  0.00    -0.006 C 
HETATM    7  C5  UNL     1      -2.798   3.332  12.168  1.00  0.00     0.035 C 
HETATM    8  C6  UNL     1      -1.950   4.569  12.217  1.00  0.00     0.273 C 
HETATM    9  N1  UNL     1      -2.147   5.439  11.067  1.00  0.00     0.092 N 
HETATM   10  C10 UNL     1      -3.537   5.848  11.104  1.00  0.00     0.273 C 
HETATM   11  C11 UNL     1      -4.485   4.706  10.908  1.00  0.00     0.035 C 
BRANCH   9  12
HETATM   12  C7  UNL     1      -1.344   6.625  11.303  1.00  0.00     0.215 C 
HETATM   13  C8  UNL     1      -0.089   6.300  12.091  1.00  0.00     0.042 C 
HETATM   14  C9  UNL     1      -2.145   7.724  11.971  1.00  0.00     0.042 C 
ENDBRANCH   9  12
ENDBRANCH   5   6
ENDBRANCH   2   5
BRANCH   3  15
HETATM   15  N3  UNL     1      -4.591   1.220  14.045  1.00  0.00    -0.270 N 
HETATM   16  C12 UNL     1      -4.763   0.590  15.294  1.00  0.00     0.240 C 
HETATM   17  O1  UNL     1      -4.776  -0.658  15.347  1.00  0.00    -0.271 OA
ATOM     18  H3  UNL     1      -4.581   2.239  14.009  1.00  0.00     0.190 HD
BRANCH  16  19
HETATM   19  C13 UNL     1      -4.923   1.382  16.515  1.00  0.00     0.079 C 
HETATM   20  C14 UNL     1      -5.584   2.705  16.288  1.00  0.00     0.014 C 
HETATM   21  C15 UNL     1      -6.698   2.774  17.316  1.00  0.00     0.001 C 
HETATM   22  C16 UNL     1      -7.122   1.306  17.380  1.00  0.00     0.001 C 
HETATM   23  C17 UNL     1      -5.778   0.621  17.503  1.00  0.00     0.014 C 
ENDBRANCH  16  19
ENDBRANCH   3  15
TORSDOF 5
ENDMDL
MODEL 4
REMARK VINA RESULT: -6.900378673      1.442      1.967
REMARK  5 active torsions:
REMARK  status: ('A' for Active; 'I' for Inactive)
REMARK    1  A    between atoms: C2_2  and  C3_3 
REMARK    2  A    between atoms: C3_3  and  C4_4 
REMARK    3  A    between atoms: N1_7  and  C7_8 
REMARK    4  A    between atoms: N2_13  and  N3_15 
REMARK       I    between atoms: N3_15  and  C12_17 
REMARK    5  A    between atoms: C12_17  and  C13_19 
ROOT
HETATM    1  C1  UNL     1      -3.979   3.454  10.458  1.00  0.00     0.065 C 
HETATM    2  C2  UNL     1      -3.855   3.259  11.916  1.00  0.00     0.000 C 
HETATM    3  N2  UNL     1      -4.783   2.641  12.546  1.00  0.00    -0.307 N 
ATOM      4  H2  UNL     1      -5.588   2.297  12.022  1.00  0.00     0.186 HD
ENDROOT
BRANCH   2   5
HETATM    5  C3  UNL     1      -2.686   3.764  12.638  1.00  0.00     0.058 C 
BRANCH   5   6
HETATM    6  C4  UNL     1      -2.634   5.275  12.728  1.00  0.00    -0.006 C 
HETATM    7  C5  UNL     1      -1.292   5.770  12.370  1.00  0.00     0.035 C 
HETATM    8  C6  UNL     1      -0.917   7.092  12.975  1.00  0.00     0.273 C 
HETATM    9  N1  UNL     1      -2.056   7.800  13.541  1.00  0.00     0.092 N 
HETATM   10  C10 UNL     1      -2.570   6.954  14.600  1.00  0.00     0.273 C 
HETATM   11  C11 UNL     1      -3.119   5.657  14.094  1.00  0.00     0.035 C 
BRANCH   9  12
HETATM   12  C7  UNL     1      -1.528   8.998  14.167  1.00  0.00     0.215 C 
HETATM   13  C8  UNL     1      -0.214   9.422  13.537  1.00  0.00     0.042 C 
HETATM   14  C9  UNL     1      -1.393   8.838  15.667  1.00  0.00     0.042 C 
ENDBRANCH   9  12
ENDBRANCH   5   6
ENDBRANCH   2   5
BRANCH   3  15
HETATM   15  N3  UNL     1      -4.730   2.421  13.935  1.00  0.00    -0.270 N 
HETATM   16  C12 UNL     1      -5.607   3.052  14.839  1.00  0.00     0.240 C 
HETATM   17  O1  UNL     1      -6.469   3.841  14.397  1.00  0.00    -0.271 OA
ATOM     18  H3  UNL     1      -4.029   1.777  14.302  1.00  0.00     0.190 HD
BRANCH  16  19
HETATM   19  C13 UNL     1      -5.513   2.791  16.277  1.00  0.00     0.079 C 
HETATM   20  C14 UNL     1      -6.841   2.745  16.965  1.00  0.00     0.014 C 
HETATM   21  C15 UNL     1      -6.828   1.456  17.766  1.00  0.00     0.001 C 
HETATM   22  C16 UNL     1      -6.013   0.551  16.841  1.00  0.00     0.001 C 
HETATM   23  C17 UNL     1      -4.846   1.454  16.506  1.00  0.00     0.014 C 
ENDBRANCH  16  19
ENDBRANCH   3  15
TORSDOF 5
ENDMDL
MODEL 5
REMARK VINA RESULT: -6.843788805      3.550      4.639
REMARK  5 active torsions:
REMARK  status: ('A' for Active; 'I' for Inactive)
REMARK    1  A    between atoms: C2_2  and  C3_3 
REMARK    2  A    between atoms: C3_3  and  C4_4 
REMARK    3  A    between atoms: N1_7  and  C7_8 
REMARK    4  A    between atoms: N2_13  and  N3_15 
REMARK       I    between atoms: N3_15  and  C12_17 
REMARK    5  A    between atoms: C12_17  and  C13_19 
ROOT
HETATM    1  C1  UNL     1      -2.782   6.905  13.182  1.00  0.00     0.065 C 
HETATM    2  C2  UNL     1      -3.856   5.920  13.412  1.00  0.00     0.000 C 
HETATM    3  N2  UNL     1      -3.961   5.364  14.560  1.00  0.00    -0.307 N 
ATOM      4  H2  UNL     1      -3.296   5.617  15.291  1.00  0.00     0.186 HD
ENDROOT
BRANCH   2   5
HETATM    5  C3  UNL     1      -4.795   5.579  12.342  1.00  0.00     0.058 C 
BRANCH   5   6
HETATM    6  C4  UNL     1      -5.112   6.738  11.419  1.00  0.00    -0.006 C 
HETATM    7  C5  UNL     1      -6.490   7.214  11.639  1.00  0.00     0.035 C 
HETATM    8  C6  UNL     1      -7.128   7.888  10.459  1.00  0.00     0.273 C 
HETATM    9  N1  UNL     1      -6.172   8.238   9.420  1.00  0.00     0.092 N 
HETATM   10  C10 UNL     1      -5.597   6.989   8.963  1.00  0.00     0.273 C 
HETATM   11  C11 UNL     1      -4.799   6.294  10.022  1.00  0.00     0.035 C 
BRANCH   9  12
HETATM   12  C7  UNL     1      -6.941   8.785   8.317  1.00  0.00     0.215 C 
HETATM   13  C8  UNL     1      -7.195  10.270   8.498  1.00  0.00     0.042 C 
HETATM   14  C9  UNL     1      -8.235   8.028   8.102  1.00  0.00     0.042 C 
ENDBRANCH   9  12
ENDBRANCH   5   6
ENDBRANCH   2   5
BRANCH   3  15
HETATM   15  N3  UNL     1      -4.961   4.417  14.849  1.00  0.00    -0.270 N 
HETATM   16  C12 UNL     1      -4.672   3.143  15.378  1.00  0.00     0.240 C 
HETATM   17  O1  UNL     1      -3.482   2.835  15.603  1.00  0.00    -0.271 OA
ATOM     18  H3  UNL     1      -5.934   4.662  14.668  1.00  0.00     0.190 HD
BRANCH  16  19
HETATM   19  C13 UNL     1      -5.747   2.190  15.661  1.00  0.00     0.079 C 
HETATM   20  C14 UNL     1      -5.262   0.886  16.211  1.00  0.00     0.014 C 
HETATM   21  C15 UNL     1      -6.103   0.641  17.450  1.00  0.00     0.001 C 
HETATM   22  C16 UNL     1      -6.290   2.071  17.959  1.00  0.00     0.001 C 
HETATM   23  C17 UNL     1      -6.690   2.782  16.685  1.00  0.00     0.014 C 
ENDBRANCH  16  19
ENDBRANCH   3  15
TORSDOF 5
ENDMDL
