MODEL 1
REMARK VINA RESULT: -6.909081261      0.000      0.000
REMARK  11 active torsions:
REMARK  status: ('A' for Active; 'I' for Inactive)
REMARK    1  A    between atoms: C3_4  and  C4_5 
REMARK    2  A    between atoms: C4_5  and  C5_6 
REMARK    3  A    between atoms: C4_5  and  C6_9 
REMARK    4  A    between atoms: C5_6  and  O2_7 
REMARK    5  A    between atoms: C6_9  and  O3_10 
REMARK    6  A    between atoms: C9_15  and  C11_17 
REMARK    7  A    between atoms: C11_17  and  O5_19 
REMARK    8  A    between atoms: C13_21  and  O6_22 
REMARK    9  A    between atoms: C13_21  and  C14_24 
REMARK   10  A    between atoms: C14_24  and  C15_25 
REMARK   11  A    between atoms: C15_25  and  C16_26 
ROOT
HETATM    1  C1  UNL     1      22.576  23.471  -1.660  1.00  0.00     0.048 C 
HETATM    2  C2  UNL     1      23.553  22.596  -1.811  1.00  0.00     0.060 C 
HETATM    3  O1  UNL     1      24.644  22.872  -2.663  1.00  0.00    -0.348 OA
HETATM    4  C3  UNL     1      25.802  22.247  -2.138  1.00  0.00     0.139 C 
HETATM    5  C7  UNL     1      25.345  21.177  -1.193  1.00  0.00     0.065 C 
HETATM    6  C8  UNL     1      23.806  21.284  -1.255  1.00  0.00     0.085 C 
HETATM    7  S1  UNL     1      23.224  20.974   0.404  1.00  0.00    -0.123 SA
HETATM    8  C9  UNL     1      22.501  19.310   0.090  1.00  0.00     0.132 C 
HETATM    9  C10 UNL     1      21.352  19.165   1.014  1.00  0.00     0.042 C 
HETATM   10  C13 UNL     1      22.097  19.486  -1.392  1.00  0.00     0.126 C 
HETATM   11  C19 UNL     1      23.263  20.128  -2.025  1.00  0.00    -0.024 C 
HETATM   12  C20 UNL     1      23.852  19.758  -3.157  1.00  0.00     0.020 C 
ENDROOT
BRANCH   4  13
HETATM   13  C4  UNL     1      26.627  23.285  -1.427  1.00  0.00     0.062 C 
BRANCH  13  14
HETATM   14  C5  UNL     1      26.460  24.610  -2.174  1.00  0.00     0.173 C 
BRANCH  14  15
HETATM   15  O2  UNL     1      25.541  25.360  -1.462  1.00  0.00    -0.400 OA
ATOM     16  H2  UNL     1      26.012  25.761  -0.741  1.00  0.00     0.209 HD
ENDBRANCH  14  15
ENDBRANCH  13  14
BRANCH  13  17
HETATM   17  C6  UNL     1      28.104  22.947  -1.506  1.00  0.00     0.173 C 
BRANCH  17  18
HETATM   18  O3  UNL     1      28.449  22.560  -2.796  1.00  0.00    -0.400 OA
ATOM     19  H3  UNL     1      29.148  21.917  -2.777  1.00  0.00     0.209 HD
ENDBRANCH  17  18
ENDBRANCH  13  17
ENDBRANCH   4  13
BRANCH   8  20
HETATM   20  C11 UNL     1      23.485  18.236   0.261  1.00  0.00     0.280 C 
HETATM   21  O4  UNL     1      23.163  17.037   0.496  1.00  0.00    -0.263 OA
BRANCH  20  22
HETATM   22  O5  UNL     1      24.845  18.482   0.174  1.00  0.00    -0.325 OA
HETATM   23  C12 UNL     1      25.711  17.655  -0.579  1.00  0.00     0.213 C 
ENDBRANCH  20  22
ENDBRANCH   8  20
BRANCH  10  24
HETATM   24  O6  UNL     1      21.970  18.178  -1.830  1.00  0.00    -0.379 OA
ATOM     25  H6  UNL     1      21.410  17.789  -1.170  1.00  0.00     0.211 HD
ENDBRANCH  10  24
BRANCH  10  26
HETATM   26  C14 UNL     1      20.809  20.166  -1.413  1.00  0.00     0.018 C 
BRANCH  26  27
HETATM   27  C15 UNL     1      20.049  20.541  -2.588  1.00  0.00     0.001 C 
BRANCH  27  28
HETATM   28  C16 UNL     1      18.654  20.972  -2.561  1.00  0.00    -0.088 C 
HETATM   29  C17 UNL     1      18.435  22.471  -2.538  1.00  0.00     0.043 C 
HETATM   30  C18 UNL     1      17.694  20.307  -1.652  1.00  0.00     0.043 C 
ENDBRANCH  27  28
ENDBRANCH  26  27
ENDBRANCH  10  26
TORSDOF 11
ENDMDL
MODEL 2
REMARK VINA RESULT: -6.871872885      1.596      2.157
REMARK  11 active torsions:
REMARK  status: ('A' for Active; 'I' for Inactive)
REMARK    1  A    between atoms: C3_4  and  C4_5 
REMARK    2  A    between atoms: C4_5  and  C5_6 
REMARK    3  A    between atoms: C4_5  and  C6_9 
REMARK    4  A    between atoms: C5_6  and  O2_7 
REMARK    5  A    between atoms: C6_9  and  O3_10 
REMARK    6  A    between atoms: C9_15  and  C11_17 
REMARK    7  A    between atoms: C11_17  and  O5_19 
REMARK    8  A    between atoms: C13_21  and  O6_22 
REMARK    9  A    between atoms: C13_21  and  C14_24 
REMARK   10  A    between atoms: C14_24  and  C15_25 
REMARK   11  A    between atoms: C15_25  and  C16_26 
ROOT
HETATM    1  C1  UNL     1      24.661  22.909  -1.208  1.00  0.00     0.048 C 
HETATM    2  C2  UNL     1      25.201  21.723  -1.423  1.00  0.00     0.060 C 
HETATM    3  O1  UNL     1      26.379  21.594  -2.191  1.00  0.00    -0.348 OA
HETATM    4  C3  UNL     1      27.127  20.497  -1.696  1.00  0.00     0.139 C 
HETATM    5  C7  UNL     1      26.190  19.635  -0.905  1.00  0.00     0.065 C 
HETATM    6  C8  UNL     1      24.843  20.381  -1.017  1.00  0.00     0.085 C 
HETATM    7  S1  UNL     1      24.043  20.193   0.568  1.00  0.00    -0.123 SA
HETATM    8  C9  UNL     1      22.730  19.021   0.029  1.00  0.00     0.132 C 
HETATM    9  C10 UNL     1      21.548  19.286   0.881  1.00  0.00     0.042 C 
HETATM   10  C13 UNL     1      22.565  19.483  -1.437  1.00  0.00     0.126 C 
HETATM   11  C19 UNL     1      23.942  19.633  -1.940  1.00  0.00    -0.024 C 
HETATM   12  C20 UNL     1      24.422  19.156  -3.083  1.00  0.00     0.020 C 
ENDROOT
BRANCH   4  13
HETATM   13  C4  UNL     1      28.241  21.025  -0.834  1.00  0.00     0.062 C 
BRANCH  13  14
HETATM   14  C5  UNL     1      28.832  22.253  -1.530  1.00  0.00     0.173 C 
BRANCH  14  15
HETATM   15  O2  UNL     1      28.307  23.366  -0.899  1.00  0.00    -0.400 OA
ATOM     16  H2  UNL     1      27.844  23.055  -0.130  1.00  0.00     0.209 HD
ENDBRANCH  14  15
ENDBRANCH  13  14
BRANCH  13  17
HETATM   17  C6  UNL     1      29.371  20.018  -0.736  1.00  0.00     0.173 C 
BRANCH  17  18
HETATM   18  O3  UNL     1      29.517  19.329  -1.934  1.00  0.00    -0.400 OA
ATOM     19  H3  UNL     1      30.309  19.602  -2.383  1.00  0.00     0.209 HD
ENDBRANCH  17  18
ENDBRANCH  13  17
ENDBRANCH   4  13
BRANCH   8  20
HETATM   20  C11 UNL     1      23.167  17.622   0.112  1.00  0.00     0.280 C 
HETATM   21  O4  UNL     1      24.368  17.264  -0.055  1.00  0.00    -0.263 OA
BRANCH  20  22
HETATM   22  O5  UNL     1      22.272  16.601   0.382  1.00  0.00    -0.325 OA
HETATM   23  C12 UNL     1      22.495  15.661   1.415  1.00  0.00     0.213 C 
ENDBRANCH  20  22
ENDBRANCH   8  20
BRANCH  10  24
HETATM   24  O6  UNL     1      21.950  18.394  -2.032  1.00  0.00    -0.379 OA
ATOM     25  H6  UNL     1      22.537  17.679  -1.816  1.00  0.00     0.211 HD
ENDBRANCH  10  24
BRANCH  10  26
HETATM   26  C14 UNL     1      21.677  20.638  -1.429  1.00  0.00     0.018 C 
BRANCH  26  27
HETATM   27  C15 UNL     1      20.770  21.037  -2.485  1.00  0.00     0.001 C 
BRANCH  27  28
HETATM   28  C16 UNL     1      19.388  20.575  -2.600  1.00  0.00    -0.088 C 
HETATM   29  C17 UNL     1      19.042  19.870  -3.895  1.00  0.00     0.043 C 
HETATM   30  C18 UNL     1      18.278  21.466  -2.196  1.00  0.00     0.043 C 
ENDBRANCH  27  28
ENDBRANCH  26  27
ENDBRANCH  10  26
TORSDOF 11
ENDMDL
MODEL 3
REMARK VINA RESULT: -6.627231947      1.937      2.828
REMARK  11 active torsions:
REMARK  status: ('A' for Active; 'I' for Inactive)
REMARK    1  A    between atoms: C3_4  and  C4_5 
REMARK    2  A    between atoms: C4_5  and  C5_6 
REMARK    3  A    between atoms: C4_5  and  C6_9 
REMARK    4  A    between atoms: C5_6  and  O2_7 
REMARK    5  A    between atoms: C6_9  and  O3_10 
REMARK    6  A    between atoms: C9_15  and  C11_17 
REMARK    7  A    between atoms: C11_17  and  O5_19 
REMARK    8  A    between atoms: C13_21  and  O6_22 
REMARK    9  A    between atoms: C13_21  and  C14_24 
REMARK   10  A    between atoms: C14_24  and  C15_25 
REMARK   11  A    between atoms: C15_25  and  C16_26 
ROOT
HETATM    1  C1  UNL     1      25.073  22.561  -1.088  1.00  0.00     0.048 C 
HETATM    2  C2  UNL     1      25.518  21.328  -1.249  1.00  0.00     0.060 C 
HETATM    3  O1  UNL     1      26.723  21.080  -1.941  1.00  0.00    -0.348 OA
HETATM    4  C3  UNL     1      27.339  19.932  -1.384  1.00  0.00     0.139 C 
HETATM    5  C7  UNL     1      26.284  19.172  -0.638  1.00  0.00     0.065 C 
HETATM    6  C8  UNL     1      25.018  20.031  -0.845  1.00  0.00     0.085 C 
HETATM    7  S1  UNL     1      24.111  19.948   0.690  1.00  0.00    -0.123 SA
HETATM    8  C9  UNL     1      22.734  18.884   0.090  1.00  0.00     0.132 C 
HETATM    9  C10 UNL     1      21.531  19.270   0.863  1.00  0.00     0.042 C 
HETATM   10  C13 UNL     1      22.698  19.328  -1.390  1.00  0.00     0.126 C 
HETATM   11  C19 UNL     1      24.111  19.346  -1.811  1.00  0.00    -0.024 C 
HETATM   12  C20 UNL     1      24.615  18.804  -2.914  1.00  0.00     0.020 C 
ENDROOT
BRANCH   4  13
HETATM   13  C4  UNL     1      28.442  20.379  -0.463  1.00  0.00     0.062 C 
BRANCH  13  14
HETATM   14  C5  UNL     1      29.662  20.718  -1.322  1.00  0.00     0.173 C 
BRANCH  14  15
HETATM   15  O2  UNL     1      29.358  21.876  -2.015  1.00  0.00    -0.400 OA
ATOM     16  H2  UNL     1      29.639  21.743  -2.912  1.00  0.00     0.209 HD
ENDBRANCH  14  15
ENDBRANCH  13  14
BRANCH  13  17
HETATM   17  C6  UNL     1      28.877  19.246   0.448  1.00  0.00     0.173 C 
BRANCH  17  18
HETATM   18  O3  UNL     1      28.741  19.613   1.782  1.00  0.00    -0.400 OA
ATOM     19  H3  UNL     1      29.500  19.338   2.284  1.00  0.00     0.209 HD
ENDBRANCH  17  18
ENDBRANCH  13  17
ENDBRANCH   4  13
BRANCH   8  20
HETATM   20  C11 UNL     1      23.039  17.455   0.221  1.00  0.00     0.280 C 
HETATM   21  O4  UNL     1      24.188  16.974   0.013  1.00  0.00    -0.263 OA
BRANCH  20  22
HETATM   22  O5  UNL     1      22.066  16.540   0.587  1.00  0.00    -0.325 OA
HETATM   23  C12 UNL     1      22.337  15.470   1.472  1.00  0.00     0.213 C 
ENDBRANCH  20  22
ENDBRANCH   8  20
BRANCH  10  24
HETATM   24  O6  UNL     1      22.026  18.285  -2.005  1.00  0.00    -0.379 OA
ATOM     25  H6  UNL     1      21.450  18.736  -2.611  1.00  0.00     0.211 HD
ENDBRANCH  10  24
BRANCH  10  26
HETATM   26  C14 UNL     1      21.918  20.557  -1.456  1.00  0.00     0.018 C 
BRANCH  26  27
HETATM   27  C15 UNL     1      21.903  21.513  -2.544  1.00  0.00     0.001 C 
BRANCH  27  28
HETATM   28  C16 UNL     1      20.711  22.226  -2.994  1.00  0.00    -0.088 C 
HETATM   29  C17 UNL     1      20.766  23.735  -2.865  1.00  0.00     0.043 C 
HETATM   30  C18 UNL     1      19.368  21.734  -2.610  1.00  0.00     0.043 C 
ENDBRANCH  27  28
ENDBRANCH  26  27
ENDBRANCH  10  26
TORSDOF 11
ENDMDL
MODEL 4
REMARK VINA RESULT: -6.533981621      2.185      3.410
REMARK  11 active torsions:
REMARK  status: ('A' for Active; 'I' for Inactive)
REMARK    1  A    between atoms: C3_4  and  C4_5 
REMARK    2  A    between atoms: C4_5  and  C5_6 
REMARK    3  A    between atoms: C4_5  and  C6_9 
REMARK    4  A    between atoms: C5_6  and  O2_7 
REMARK    5  A    between atoms: C6_9  and  O3_10 
REMARK    6  A    between atoms: C9_15  and  C11_17 
REMARK    7  A    between atoms: C11_17  and  O5_19 
REMARK    8  A    between atoms: C13_21  and  O6_22 
REMARK    9  A    between atoms: C13_21  and  C14_24 
REMARK   10  A    between atoms: C14_24  and  C15_25 
REMARK   11  A    between atoms: C15_25  and  C16_26 
ROOT
HETATM    1  C1  UNL     1      25.521  22.038  -1.002  1.00  0.00     0.048 C 
HETATM    2  C2  UNL     1      25.647  20.737  -1.189  1.00  0.00     0.060 C 
HETATM    3  O1  UNL     1      26.790  20.207  -1.827  1.00  0.00    -0.348 OA
HETATM    4  C3  UNL     1      27.060  18.926  -1.284  1.00  0.00     0.139 C 
HETATM    5  C7  UNL     1      25.803  18.442  -0.625  1.00  0.00     0.065 C 
HETATM    6  C8  UNL     1      24.811  19.601  -0.864  1.00  0.00     0.085 C 
HETATM    7  S1  UNL     1      23.822  19.714   0.618  1.00  0.00    -0.123 SA
HETATM    8  C9  UNL     1      22.259  19.053  -0.095  1.00  0.00     0.132 C 
HETATM    9  C10 UNL     1      21.149  19.714   0.629  1.00  0.00     0.042 C 
HETATM   10  C13 UNL     1      22.427  19.528  -1.557  1.00  0.00     0.126 C 
HETATM   11  C19 UNL     1      23.820  19.195  -1.902  1.00  0.00    -0.024 C 
HETATM   12  C20 UNL     1      24.236  18.571  -2.998  1.00  0.00     0.020 C 
ENDROOT
BRANCH   4  13
HETATM   13  C4  UNL     1      28.182  19.052  -0.290  1.00  0.00     0.062 C 
BRANCH  13  14
HETATM   14  C5  UNL     1      29.131  20.144  -0.789  1.00  0.00     0.173 C 
BRANCH  14  15
HETATM   15  O2  UNL     1      29.787  19.633  -1.895  1.00  0.00    -0.400 OA
ATOM     16  H2  UNL     1      30.575  19.209  -1.576  1.00  0.00     0.209 HD
ENDBRANCH  14  15
ENDBRANCH  13  14
BRANCH  13  17
HETATM   17  C6  UNL     1      29.005  17.778  -0.240  1.00  0.00     0.173 C 
BRANCH  17  18
HETATM   18  O3  UNL     1      28.588  16.888  -1.223  1.00  0.00    -0.400 OA
ATOM     19  H3  UNL     1      27.858  17.249  -1.713  1.00  0.00     0.209 HD
ENDBRANCH  17  18
ENDBRANCH  13  17
ENDBRANCH   4  13
BRANCH   8  20
HETATM   20  C11 UNL     1      22.183  17.590  -0.005  1.00  0.00     0.280 C 
HETATM   21  O4  UNL     1      21.215  16.921  -0.466  1.00  0.00    -0.263 OA
BRANCH  20  22
HETATM   22  O5  UNL     1      23.185  16.852   0.601  1.00  0.00    -0.325 OA
HETATM   23  C12 UNL     1      22.901  15.763   1.459  1.00  0.00     0.213 C 
ENDBRANCH  20  22
ENDBRANCH   8  20
BRANCH  10  24
HETATM   24  O6  UNL     1      21.551  18.708  -2.247  1.00  0.00    -0.379 OA
ATOM     25  H6  UNL     1      20.855  18.566  -1.616  1.00  0.00     0.211 HD
ENDBRANCH  10  24
BRANCH  10  26
HETATM   26  C14 UNL     1      21.989  20.917  -1.614  1.00  0.00     0.018 C 
BRANCH  26  27
HETATM   27  C15 UNL     1      21.518  21.626  -2.785  1.00  0.00     0.001 C 
BRANCH  27  28
HETATM   28  C16 UNL     1      21.503  23.081  -2.915  1.00  0.00    -0.088 C 
HETATM   29  C17 UNL     1      22.529  23.820  -2.079  1.00  0.00     0.043 C 
HETATM   30  C18 UNL     1      20.215  23.810  -2.896  1.00  0.00     0.043 C 
ENDBRANCH  27  28
ENDBRANCH  26  27
ENDBRANCH  10  26
TORSDOF 11
ENDMDL
MODEL 5
REMARK VINA RESULT: -5.623558616      0.372      1.415
REMARK  11 active torsions:
REMARK  status: ('A' for Active; 'I' for Inactive)
REMARK    1  A    between atoms: C3_4  and  C4_5 
REMARK    2  A    between atoms: C4_5  and  C5_6 
REMARK    3  A    between atoms: C4_5  and  C6_9 
REMARK    4  A    between atoms: C5_6  and  O2_7 
REMARK    5  A    between atoms: C6_9  and  O3_10 
REMARK    6  A    between atoms: C9_15  and  C11_17 
REMARK    7  A    between atoms: C11_17  and  O5_19 
REMARK    8  A    between atoms: C13_21  and  O6_22 
REMARK    9  A    between atoms: C13_21  and  C14_24 
REMARK   10  A    between atoms: C14_24  and  C15_25 
REMARK   11  A    between atoms: C15_25  and  C16_26 
ROOT
HETATM    1  C1  UNL     1      22.536  23.415  -1.896  1.00  0.00     0.048 C 
HETATM    2  C2  UNL     1      23.515  22.539  -2.032  1.00  0.00     0.060 C 
HETATM    3  O1  UNL     1      24.572  22.773  -2.938  1.00  0.00    -0.348 OA
HETATM    4  C3  UNL     1      25.754  22.188  -2.419  1.00  0.00     0.139 C 
HETATM    5  C7  UNL     1      25.341  21.171  -1.398  1.00  0.00     0.065 C 
HETATM    6  C8  UNL     1      23.800  21.264  -1.411  1.00  0.00     0.085 C 
HETATM    7  S1  UNL     1      23.280  21.047   0.284  1.00  0.00    -0.123 SA
HETATM    8  C9  UNL     1      22.561  19.363   0.093  1.00  0.00     0.132 C 
HETATM    9  C10 UNL     1      21.448  19.264   1.065  1.00  0.00     0.042 C 
HETATM   10  C13 UNL     1      22.103  19.449  -1.380  1.00  0.00     0.126 C 
HETATM   11  C19 UNL     1      23.240  20.061  -2.092  1.00  0.00    -0.024 C 
HETATM   12  C20 UNL     1      23.791  19.630  -3.221  1.00  0.00     0.020 C 
ENDROOT
BRANCH   4  13
HETATM   13  C4  UNL     1      26.595  23.271  -1.801  1.00  0.00     0.062 C 
BRANCH  13  14
HETATM   14  C5  UNL     1      27.817  22.609  -1.161  1.00  0.00     0.173 C 
BRANCH  14  15
HETATM   15  O2  UNL     1      28.580  22.090  -2.192  1.00  0.00    -0.400 OA
ATOM     16  H2  UNL     1      29.225  21.516  -1.796  1.00  0.00     0.209 HD
ENDBRANCH  14  15
ENDBRANCH  13  14
BRANCH  13  17
HETATM   17  C6  UNL     1      25.850  23.952  -0.668  1.00  0.00     0.173 C 
BRANCH  17  18
HETATM   18  O3  UNL     1      25.405  25.209  -1.062  1.00  0.00    -0.400 OA
ATOM     19  H3  UNL     1      24.674  25.490  -0.523  1.00  0.00     0.209 HD
ENDBRANCH  17  18
ENDBRANCH  13  17
ENDBRANCH   4  13
BRANCH   8  20
HETATM   20  C11 UNL     1      23.561  18.307   0.291  1.00  0.00     0.280 C 
HETATM   21  O4  UNL     1      23.256  17.108   0.543  1.00  0.00    -0.263 OA
BRANCH  20  22
HETATM   22  O5  UNL     1      24.917  18.574   0.210  1.00  0.00    -0.325 OA
HETATM   23  C12 UNL     1      25.797  17.768  -0.551  1.00  0.00     0.213 C 
ENDBRANCH  20  22
ENDBRANCH   8  20
BRANCH  10  24
HETATM   24  O6  UNL     1      21.973  18.118  -1.737  1.00  0.00    -0.379 OA
ATOM     25  H6  UNL     1      22.239  18.118  -2.649  1.00  0.00     0.211 HD
ENDBRANCH  10  24
BRANCH  10  26
HETATM   26  C14 UNL     1      20.809  20.118  -1.394  1.00  0.00     0.018 C 
BRANCH  26  27
HETATM   27  C15 UNL     1      20.077  20.559  -2.563  1.00  0.00     0.001 C 
BRANCH  27  28
HETATM   28  C16 UNL     1      18.679  20.983  -2.547  1.00  0.00    -0.088 C 
HETATM   29  C17 UNL     1      18.452  22.481  -2.546  1.00  0.00     0.043 C 
HETATM   30  C18 UNL     1      17.721  20.326  -1.629  1.00  0.00     0.043 C 
ENDBRANCH  27  28
ENDBRANCH  26  27
ENDBRANCH  10  26
TORSDOF 11
ENDMDL
