MODEL 1
REMARK VINA RESULT: -7.278424870      0.000      0.000
REMARK  10 active torsions:
REMARK  status: ('A' for Active; 'I' for Inactive)
REMARK    1  A    between atoms: C2_2  and  C3_3 
REMARK    2  A    between atoms: C3_3  and  C4_4 
REMARK    3  A    between atoms: C4_4  and  C5_5 
REMARK    4  A    between atoms: C9_9  and  O1_10 
REMARK    5  A    between atoms: C11_12  and  O2_13 
REMARK    6  A    between atoms: C15_18  and  O4_19 
REMARK    7  A    between atoms: O4_19  and  C16_20 
REMARK    8  A    between atoms: C16_20  and  O5_23 
REMARK    9  A    between atoms: C19_25  and  O6_26 
REMARK   10  A    between atoms: C19_25  and  C20_28 
ROOT
HETATM    1  C3  UNL     1      22.655  20.021  -1.075  1.00  0.00     0.060 C 
HETATM    2  C9  UNL     1      23.062  21.468  -1.455  1.00  0.00     0.096 C 
HETATM    3  C11 UNL     1      24.280  21.893  -1.578  1.00  0.00     0.149 C 
HETATM    4  C13 UNL     1      25.471  21.020  -1.385  1.00  0.00     0.219 C 
HETATM    5  O3  UNL     1      26.643  21.449  -1.496  1.00  0.00    -0.285 OA
HETATM    6  C14 UNL     1      25.131  19.642  -1.056  1.00  0.00     0.063 C 
HETATM    7  C15 UNL     1      25.980  18.894  -0.437  1.00  0.00     0.153 C 
HETATM    8  C19 UNL     1      23.795  19.167  -1.492  1.00  0.00     0.193 C 
ENDROOT
BRANCH   1   9
HETATM    9  C2  UNL     1      22.361  20.169   0.358  1.00  0.00     0.016 C 
HETATM   10  C1  UNL     1      21.452  19.343   1.109  1.00  0.00     0.006 C 
ENDBRANCH   1   9
BRANCH   1  11
HETATM   11  C4  UNL     1      21.481  19.791  -1.991  1.00  0.00     0.048 C 
BRANCH  11  12
HETATM   12  C5  UNL     1      20.139  20.051  -1.478  1.00  0.00    -0.023 C 
HETATM   13  C6  UNL     1      19.106  20.283  -2.293  1.00  0.00    -0.091 C 
HETATM   14  C7  UNL     1      17.741  20.549  -1.783  1.00  0.00     0.042 C 
HETATM   15  C8  UNL     1      19.357  20.272  -3.756  1.00  0.00     0.042 C 
ENDBRANCH  11  12
ENDBRANCH   1  11
BRANCH   2  16
HETATM   16  O1  UNL     1      22.019  22.360  -1.674  1.00  0.00    -0.356 OA
HETATM   17  C10 UNL     1      21.684  23.091  -2.780  1.00  0.00     0.209 C 
ENDBRANCH   2  16
BRANCH   8  18
HETATM   18  O6  UNL     1      23.861  19.397  -2.931  1.00  0.00    -0.373 OA
ATOM     19  H6  UNL     1      24.451  18.713  -3.226  1.00  0.00     0.211 HD
ENDBRANCH   8  18
BRANCH   8  20
HETATM   20  C20 UNL     1      23.654  17.722  -1.403  1.00  0.00     0.215 C 
HETATM   21  O7  UNL     1      24.250  16.903  -2.196  1.00  0.00    -0.645 OA
HETATM   22  O8  UNL     1      22.884  17.092  -0.484  1.00  0.00    -0.645 OA
ENDBRANCH   8  20
BRANCH   3  23
HETATM   23  O2  UNL     1      24.510  23.220  -1.915  1.00  0.00    -0.350 OA
HETATM   24  C12 UNL     1      24.824  24.244  -1.034  1.00  0.00     0.210 C 
ENDBRANCH   3  23
BRANCH   7  25
HETATM   25  O4  UNL     1      27.230  19.436  -0.089  1.00  0.00    -0.326 OA
BRANCH  25  26
HETATM   26  C16 UNL     1      28.412  18.816  -0.564  1.00  0.00     0.159 C 
HETATM   27  C17 UNL     1      28.080  17.345  -0.784  1.00  0.00     0.078 C 
HETATM   28  C18 UNL     1      29.524  18.959   0.424  1.00  0.00     0.078 C 
BRANCH  26  29
HETATM   29  O5  UNL     1      28.787  19.425  -1.759  1.00  0.00    -0.366 OA
ATOM     30  H5  UNL     1      28.678  18.801  -2.467  1.00  0.00     0.213 HD
ENDBRANCH  26  29
ENDBRANCH  25  26
ENDBRANCH   7  25
TORSDOF 10
ENDMDL
MODEL 2
REMARK VINA RESULT: -7.217110227      1.137      1.262
REMARK  10 active torsions:
REMARK  status: ('A' for Active; 'I' for Inactive)
REMARK    1  A    between atoms: C2_2  and  C3_3 
REMARK    2  A    between atoms: C3_3  and  C4_4 
REMARK    3  A    between atoms: C4_4  and  C5_5 
REMARK    4  A    between atoms: C9_9  and  O1_10 
REMARK    5  A    between atoms: C11_12  and  O2_13 
REMARK    6  A    between atoms: C15_18  and  O4_19 
REMARK    7  A    between atoms: O4_19  and  C16_20 
REMARK    8  A    between atoms: C16_20  and  O5_23 
REMARK    9  A    between atoms: C19_25  and  O6_26 
REMARK   10  A    between atoms: C19_25  and  C20_28 
ROOT
HETATM    1  C3  UNL     1      23.785  20.088  -1.372  1.00  0.00     0.060 C 
HETATM    2  C9  UNL     1      24.374  21.473  -1.744  1.00  0.00     0.096 C 
HETATM    3  C11 UNL     1      25.636  21.763  -1.781  1.00  0.00     0.149 C 
HETATM    4  C13 UNL     1      26.708  20.774  -1.481  1.00  0.00     0.219 C 
HETATM    5  O3  UNL     1      27.925  21.072  -1.509  1.00  0.00    -0.285 OA
HETATM    6  C14 UNL     1      26.197  19.449  -1.156  1.00  0.00     0.063 C 
HETATM    7  C15 UNL     1      26.912  18.631  -0.460  1.00  0.00     0.153 C 
HETATM    8  C19 UNL     1      24.854  19.108  -1.684  1.00  0.00     0.193 C 
ENDROOT
BRANCH   1   9
HETATM    9  C2  UNL     1      23.402  20.304   0.032  1.00  0.00     0.016 C 
HETATM   10  C1  UNL     1      22.376  19.579   0.735  1.00  0.00     0.006 C 
ENDBRANCH   1   9
BRANCH   1  11
HETATM   11  C4  UNL     1      22.664  19.962  -2.370  1.00  0.00     0.048 C 
BRANCH  11  12
HETATM   12  C5  UNL     1      21.300  19.816  -1.870  1.00  0.00    -0.023 C 
HETATM   13  C6  UNL     1      20.307  20.603  -2.293  1.00  0.00    -0.091 C 
HETATM   14  C7  UNL     1      18.920  20.464  -1.790  1.00  0.00     0.042 C 
HETATM   15  C8  UNL     1      20.625  21.647  -3.299  1.00  0.00     0.042 C 
ENDBRANCH  11  12
ENDBRANCH   1  11
BRANCH   2  16
HETATM   16  O1  UNL     1      23.452  22.466  -2.058  1.00  0.00    -0.356 OA
HETATM   17  C10 UNL     1      22.953  23.493  -1.307  1.00  0.00     0.209 C 
ENDBRANCH   2  16
BRANCH   8  18
HETATM   18  O6  UNL     1      25.051  19.292  -3.118  1.00  0.00    -0.373 OA
ATOM     19  H6  UNL     1      24.787  18.453  -3.476  1.00  0.00     0.211 HD
ENDBRANCH   8  18
BRANCH   8  20
HETATM   20  C20 UNL     1      24.551  17.689  -1.582  1.00  0.00     0.215 C 
HETATM   21  O7  UNL     1      24.676  16.866  -2.562  1.00  0.00    -0.645 OA
HETATM   22  O8  UNL     1      24.107  17.090  -0.451  1.00  0.00    -0.645 OA
ENDBRANCH   8  20
BRANCH   3  23
HETATM   23  O2  UNL     1      26.033  23.049  -2.122  1.00  0.00    -0.350 OA
HETATM   24  C12 UNL     1      26.482  24.025  -1.246  1.00  0.00     0.210 C 
ENDBRANCH   3  23
BRANCH   7  25
HETATM   25  O4  UNL     1      28.183  19.045  -0.026  1.00  0.00    -0.326 OA
BRANCH  25  26
HETATM   26  C16 UNL     1      29.333  18.361  -0.492  1.00  0.00     0.159 C 
HETATM   27  C17 UNL     1      28.945  16.894  -0.634  1.00  0.00     0.078 C 
HETATM   28  C18 UNL     1      30.469  18.510   0.468  1.00  0.00     0.078 C 
BRANCH  26  29
HETATM   29  O5  UNL     1      29.706  18.897  -1.722  1.00  0.00    -0.366 OA
ATOM     30  H5  UNL     1      30.646  18.805  -1.823  1.00  0.00     0.213 HD
ENDBRANCH  26  29
ENDBRANCH  25  26
ENDBRANCH   7  25
TORSDOF 10
ENDMDL
MODEL 3
REMARK VINA RESULT: -7.141670382      1.490      6.248
REMARK  10 active torsions:
REMARK  status: ('A' for Active; 'I' for Inactive)
REMARK    1  A    between atoms: C2_2  and  C3_3 
REMARK    2  A    between atoms: C3_3  and  C4_4 
REMARK    3  A    between atoms: C4_4  and  C5_5 
REMARK    4  A    between atoms: C9_9  and  O1_10 
REMARK    5  A    between atoms: C11_12  and  O2_13 
REMARK    6  A    between atoms: C15_18  and  O4_19 
REMARK    7  A    between atoms: O4_19  and  C16_20 
REMARK    8  A    between atoms: C16_20  and  O5_23 
REMARK    9  A    between atoms: C19_25  and  O6_26 
REMARK   10  A    between atoms: C19_25  and  C20_28 
ROOT
HETATM    1  C3  UNL     1      24.826  19.869  -1.257  1.00  0.00     0.060 C 
HETATM    2  C9  UNL     1      25.159  21.357  -1.538  1.00  0.00     0.096 C 
HETATM    3  C11 UNL     1      24.285  22.298  -1.712  1.00  0.00     0.149 C 
HETATM    4  C13 UNL     1      22.816  22.067  -1.642  1.00  0.00     0.219 C 
HETATM    5  O3  UNL     1      21.983  22.985  -1.824  1.00  0.00    -0.285 OA
HETATM    6  C14 UNL     1      22.460  20.686  -1.348  1.00  0.00     0.063 C 
HETATM    7  C15 UNL     1      21.302  20.228  -1.685  1.00  0.00     0.153 C 
HETATM    8  C19 UNL     1      23.479  19.876  -0.636  1.00  0.00     0.193 C 
ENDROOT
BRANCH   1   9
HETATM    9  C2  UNL     1      24.994  19.276  -2.593  1.00  0.00     0.016 C 
HETATM   10  C1  UNL     1      24.847  17.879  -2.906  1.00  0.00     0.006 C 
ENDBRANCH   1   9
BRANCH   1  11
HETATM   11  C4  UNL     1      25.866  19.521  -0.224  1.00  0.00     0.048 C 
BRANCH  11  12
HETATM   12  C5  UNL     1      26.643  18.298  -0.404  1.00  0.00    -0.023 C 
HETATM   13  C6  UNL     1      27.972  18.321  -0.542  1.00  0.00    -0.091 C 
HETATM   14  C7  UNL     1      28.768  17.086  -0.726  1.00  0.00     0.042 C 
HETATM   15  C8  UNL     1      28.652  19.640  -0.510  1.00  0.00     0.042 C 
ENDBRANCH  11  12
ENDBRANCH   1  11
BRANCH   2  16
HETATM   16  O1  UNL     1      26.510  21.680  -1.607  1.00  0.00    -0.356 OA
HETATM   17  C10 UNL     1      27.232  22.302  -2.586  1.00  0.00     0.209 C 
ENDBRANCH   2  16
BRANCH   8  18
HETATM   18  O6  UNL     1      23.685  20.667   0.572  1.00  0.00    -0.373 OA
ATOM     19  H6  UNL     1      23.879  21.531   0.227  1.00  0.00     0.211 HD
ENDBRANCH   8  18
BRANCH   8  20
HETATM   20  C20 UNL     1      22.943  18.628  -0.115  1.00  0.00     0.215 C 
HETATM   21  O7  UNL     1      22.481  18.499   1.078  1.00  0.00    -0.645 OA
HETATM   22  O8  UNL     1      22.879  17.477  -0.826  1.00  0.00    -0.645 OA
ENDBRANCH   8  20
BRANCH   3  23
HETATM   23  O2  UNL     1      24.716  23.592  -1.967  1.00  0.00    -0.350 OA
HETATM   24  C12 UNL     1      24.892  24.596  -1.027  1.00  0.00     0.210 C 
ENDBRANCH   3  23
BRANCH   7  25
HETATM   25  O4  UNL     1      20.400  21.086  -2.337  1.00  0.00    -0.326 OA
BRANCH  25  26
HETATM   26  C16 UNL     1      19.036  20.715  -2.435  1.00  0.00     0.159 C 
HETATM   27  C17 UNL     1      18.869  20.002  -3.772  1.00  0.00     0.078 C 
HETATM   28  C18 UNL     1      18.149  21.916  -2.370  1.00  0.00     0.078 C 
BRANCH  26  29
HETATM   29  O5  UNL     1      18.726  19.865  -1.377  1.00  0.00    -0.366 OA
ATOM     30  H5  UNL     1      19.012  18.986  -1.597  1.00  0.00     0.213 HD
ENDBRANCH  26  29
ENDBRANCH  25  26
ENDBRANCH   7  25
TORSDOF 10
ENDMDL
MODEL 4
REMARK VINA RESULT: -6.644481136      2.063      4.256
REMARK  10 active torsions:
REMARK  status: ('A' for Active; 'I' for Inactive)
REMARK    1  A    between atoms: C2_2  and  C3_3 
REMARK    2  A    between atoms: C3_3  and  C4_4 
REMARK    3  A    between atoms: C4_4  and  C5_5 
REMARK    4  A    between atoms: C9_9  and  O1_10 
REMARK    5  A    between atoms: C11_12  and  O2_13 
REMARK    6  A    between atoms: C15_18  and  O4_19 
REMARK    7  A    between atoms: O4_19  and  C16_20 
REMARK    8  A    between atoms: C16_20  and  O5_23 
REMARK    9  A    between atoms: C19_25  and  O6_26 
REMARK   10  A    between atoms: C19_25  and  C20_28 
ROOT
HETATM    1  C3  UNL     1      22.468  19.880  -0.887  1.00  0.00     0.060 C 
HETATM    2  C9  UNL     1      21.417  20.643  -1.734  1.00  0.00     0.096 C 
HETATM    3  C11 UNL     1      21.607  21.793  -2.301  1.00  0.00     0.149 C 
HETATM    4  C13 UNL     1      22.896  22.535  -2.225  1.00  0.00     0.219 C 
HETATM    5  O3  UNL     1      23.060  23.652  -2.768  1.00  0.00    -0.285 OA
HETATM    6  C14 UNL     1      23.922  21.836  -1.462  1.00  0.00     0.063 C 
HETATM    7  C15 UNL     1      24.896  22.494  -0.930  1.00  0.00     0.153 C 
HETATM    8  C19 UNL     1      23.787  20.363  -1.364  1.00  0.00     0.193 C 
ENDROOT
BRANCH   1   9
HETATM    9  C2  UNL     1      22.037  20.214   0.480  1.00  0.00     0.016 C 
HETATM   10  C1  UNL     1      21.064  19.482   1.247  1.00  0.00     0.006 C 
ENDBRANCH   1   9
BRANCH   1  11
HETATM   11  C4  UNL     1      22.244  18.461  -1.342  1.00  0.00     0.048 C 
BRANCH  11  12
HETATM   12  C5  UNL     1      21.828  17.471  -0.353  1.00  0.00    -0.023 C 
HETATM   13  C6  UNL     1      22.691  16.601   0.180  1.00  0.00    -0.091 C 
HETATM   14  C7  UNL     1      22.278  15.592   1.183  1.00  0.00     0.042 C 
HETATM   15  C8  UNL     1      24.106  16.664  -0.264  1.00  0.00     0.042 C 
ENDBRANCH  11  12
ENDBRANCH   1  11
BRANCH   2  16
HETATM   16  O1  UNL     1      20.181  20.023  -1.879  1.00  0.00    -0.356 OA
HETATM   17  C10 UNL     1      18.943  20.380  -1.423  1.00  0.00     0.209 C 
ENDBRANCH   2  16
BRANCH   8  18
HETATM   18  O6  UNL     1      23.780  19.979  -2.772  1.00  0.00    -0.373 OA
ATOM     19  H6  UNL     1      23.506  19.070  -2.740  1.00  0.00     0.211 HD
ENDBRANCH   8  18
BRANCH   8  20
HETATM   20  C20 UNL     1      24.990  19.718  -0.861  1.00  0.00     0.215 C 
HETATM   21  O7  UNL     1      25.908  19.239  -1.624  1.00  0.00    -0.645 OA
HETATM   22  O8  UNL     1      25.267  19.555   0.455  1.00  0.00    -0.645 OA
ENDBRANCH   8  20
BRANCH   3  23
HETATM   23  O2  UNL     1      20.577  22.376  -3.026  1.00  0.00    -0.350 OA
HETATM   24  C12 UNL     1      20.021  23.624  -2.796  1.00  0.00     0.210 C 
ENDBRANCH   3  23
BRANCH   7  25
HETATM   25  O4  UNL     1      24.943  23.888  -1.102  1.00  0.00    -0.326 OA
BRANCH  25  26
HETATM   26  C16 UNL     1      26.037  24.467  -1.791  1.00  0.00     0.159 C 
HETATM   27  C17 UNL     1      26.510  23.436  -2.809  1.00  0.00     0.078 C 
HETATM   28  C18 UNL     1      27.142  24.813  -0.846  1.00  0.00     0.078 C 
BRANCH  26  29
HETATM   29  O5  UNL     1      25.603  25.628  -2.425  1.00  0.00    -0.366 OA
ATOM     30  H5  UNL     1      24.749  25.466  -2.809  1.00  0.00     0.213 HD
ENDBRANCH  26  29
ENDBRANCH  25  26
ENDBRANCH   7  25
TORSDOF 10
ENDMDL
MODEL 5
REMARK VINA RESULT: -6.484863966      2.143      5.161
REMARK  10 active torsions:
REMARK  status: ('A' for Active; 'I' for Inactive)
REMARK    1  A    between atoms: C2_2  and  C3_3 
REMARK    2  A    between atoms: C3_3  and  C4_4 
REMARK    3  A    between atoms: C4_4  and  C5_5 
REMARK    4  A    between atoms: C9_9  and  O1_10 
REMARK    5  A    between atoms: C11_12  and  O2_13 
REMARK    6  A    between atoms: C15_18  and  O4_19 
REMARK    7  A    between atoms: O4_19  and  C16_20 
REMARK    8  A    between atoms: C16_20  and  O5_23 
REMARK    9  A    between atoms: C19_25  and  O6_26 
REMARK   10  A    between atoms: C19_25  and  C20_28 
ROOT
HETATM    1  C3  UNL     1      23.853  20.924  -1.349  1.00  0.00     0.060 C 
HETATM    2  C9  UNL     1      25.158  20.091  -1.260  1.00  0.00     0.096 C 
HETATM    3  C11 UNL     1      26.340  20.519  -1.572  1.00  0.00     0.149 C 
HETATM    4  C13 UNL     1      26.605  21.905  -2.047  1.00  0.00     0.219 C 
HETATM    5  O3  UNL     1      27.753  22.302  -2.356  1.00  0.00    -0.285 OA
HETATM    6  C14 UNL     1      25.408  22.732  -2.116  1.00  0.00     0.063 C 
HETATM    7  C15 UNL     1      25.371  23.758  -2.897  1.00  0.00     0.153 C 
HETATM    8  C19 UNL     1      24.281  22.340  -1.235  1.00  0.00     0.193 C 
ENDROOT
BRANCH   1   9
HETATM    9  C2  UNL     1      23.291  20.448  -2.622  1.00  0.00     0.016 C 
HETATM   10  C1  UNL     1      21.902  20.515  -2.994  1.00  0.00     0.006 C 
ENDBRANCH   1   9
BRANCH   1  11
HETATM   11  C4  UNL     1      23.142  20.500  -0.091  1.00  0.00     0.048 C 
BRANCH  11  12
HETATM   12  C5  UNL     1      21.747  20.080  -0.189  1.00  0.00    -0.023 C 
HETATM   13  C6  UNL     1      21.315  18.939   0.355  1.00  0.00    -0.091 C 
HETATM   14  C7  UNL     1      19.902  18.504   0.261  1.00  0.00     0.042 C 
HETATM   15  C8  UNL     1      22.301  18.092   1.073  1.00  0.00     0.042 C 
ENDBRANCH  11  12
ENDBRANCH   1  11
BRANCH   2  16
HETATM   16  O1  UNL     1      25.019  18.783  -0.809  1.00  0.00    -0.356 OA
HETATM   17  C10 UNL     1      24.902  17.608  -1.497  1.00  0.00     0.209 C 
ENDBRANCH   2  16
BRANCH   8  18
HETATM   18  O6  UNL     1      24.912  22.382   0.079  1.00  0.00    -0.373 OA
ATOM     19  H6  UNL     1      25.721  22.850  -0.091  1.00  0.00     0.211 HD
ENDBRANCH   8  18
BRANCH   8  20
HETATM   20  C20 UNL     1      23.260  23.372  -1.134  1.00  0.00     0.215 C 
HETATM   21  O7  UNL     1      23.306  24.332  -0.280  1.00  0.00    -0.645 OA
HETATM   22  O8  UNL     1      22.159  23.427  -1.922  1.00  0.00    -0.645 OA
ENDBRANCH   8  20
BRANCH   3  23
HETATM   23  O2  UNL     1      27.429  19.666  -1.456  1.00  0.00    -0.350 OA
HETATM   24  C12 UNL     1      28.275  19.565  -0.362  1.00  0.00     0.210 C 
ENDBRANCH   3  23
BRANCH   7  25
HETATM   25  O4  UNL     1      26.504  24.056  -3.675  1.00  0.00    -0.326 OA
BRANCH  25  26
HETATM   26  C16 UNL     1      26.902  25.407  -3.833  1.00  0.00     0.159 C 
HETATM   27  C17 UNL     1      27.113  25.631  -5.325  1.00  0.00     0.078 C 
HETATM   28  C18 UNL     1      28.163  25.683  -3.079  1.00  0.00     0.078 C 
BRANCH  26  29
HETATM   29  O5  UNL     1      25.893  26.231  -3.344  1.00  0.00    -0.366 OA
ATOM     30  H5  UNL     1      26.153  27.137  -3.463  1.00  0.00     0.213 HD
ENDBRANCH  26  29
ENDBRANCH  25  26
ENDBRANCH   7  25
TORSDOF 10
ENDMDL
