MODEL 1
REMARK VINA RESULT: -8.897071483      0.000      0.000
REMARK  10 active torsions:
REMARK  status: ('A' for Active; 'I' for Inactive)
REMARK    1  A    between atoms: C3_3  and  C6_6 
REMARK    2  A    between atoms: C6_6  and  O1_8 
REMARK    3  A    between atoms: O1_8  and  C8_9 
REMARK    4  A    between atoms: C8_9  and  C9_11 
REMARK    5  A    between atoms: C9_11  and  C10_12 
REMARK    6  A    between atoms: N1_13  and  C11_15 
REMARK    7  A    between atoms: C14_18  and  O3_19 
REMARK    8  A    between atoms: C16_21  and  C17_22 
REMARK    9  A    between atoms: N2_24  and  N3_26 
REMARK       I    between atoms: N3_26  and  C19_28 
REMARK       I    between atoms: C19_28  and  N4_30 
REMARK   10  A    between atoms: N4_30  and  N5_32 
ROOT
HETATM    1  C1  UNL     1      29.039  27.564  -3.749  1.00  0.00     0.013 C 
HETATM    2  C2  UNL     1      28.660  26.458  -4.041  1.00  0.00    -0.105 C 
HETATM    3  C3  UNL     1      28.185  25.142  -4.374  1.00  0.00     0.042 C 
HETATM    4  C4  UNL     1      28.923  24.558  -5.569  1.00  0.00     0.031 C 
HETATM    5  C5  UNL     1      26.725  25.186  -4.776  1.00  0.00     0.031 C 
ENDROOT
BRANCH   3   6
HETATM    6  C6  UNL     1      28.386  24.195  -3.215  1.00  0.00     0.147 C 
HETATM    7  C7  UNL     1      29.573  23.319  -3.396  1.00  0.00     0.042 C 
BRANCH   6   8
HETATM    8  O1  UNL     1      28.357  24.837  -1.955  1.00  0.00    -0.314 OA
BRANCH   8   9
HETATM    9  C8  UNL     1      27.492  24.480  -0.930  1.00  0.00     0.264 C 
HETATM   10  O2  UNL     1      27.877  24.799   0.239  1.00  0.00    -0.265 OA
BRANCH   9  11
HETATM   11  C9  UNL     1      26.194  23.769  -1.155  1.00  0.00     0.155 C 
BRANCH  11  12
HETATM   12  C10 UNL     1      25.075  24.698  -1.385  1.00  0.00     0.071 C 
HETATM   13  N1  UNL     1      23.926  24.454  -1.669  1.00  0.00    -0.369 N 
ATOM     14  H1  UNL     1      23.405  25.327  -1.759  1.00  0.00     0.165 HD
BRANCH  13  15
HETATM   15  C11 UNL     1      23.080  23.386  -1.914  1.00  0.00     0.032 A 
HETATM   16  C12 UNL     1      21.893  23.507  -2.613  1.00  0.00     0.032 A 
HETATM   17  C13 UNL     1      21.114  22.386  -2.786  1.00  0.00     0.040 A 
HETATM   18  C14 UNL     1      21.484  21.148  -2.282  1.00  0.00     0.080 A 
HETATM   19  C16 UNL     1      22.667  20.990  -1.579  1.00  0.00     0.023 A 
HETATM   20  C20 UNL     1      23.433  22.113  -1.413  1.00  0.00     0.045 A 
BRANCH  18  21
HETATM   21  O3  UNL     1      20.663  20.056  -2.484  1.00  0.00    -0.355 OA
HETATM   22  C15 UNL     1      19.428  20.238  -3.168  1.00  0.00     0.210 C 
ENDBRANCH  18  21
BRANCH  19  23
HETATM   23  C17 UNL     1      23.106  19.721  -1.020  1.00  0.00     0.035 C 
HETATM   24  C18 UNL     1      23.935  18.805  -1.812  1.00  0.00     0.070 C 
HETATM   25  N2  UNL     1      22.748  19.424   0.173  1.00  0.00    -0.300 N 
ATOM     26  H2  UNL     1      22.170  20.105   0.664  1.00  0.00     0.186 HD
BRANCH  25  27
HETATM   27  N3  UNL     1      23.073  18.261   0.864  1.00  0.00    -0.250 N 
HETATM   28  C19 UNL     1      22.138  17.190   0.869  1.00  0.00     0.352 C 
HETATM   29  O4  UNL     1      21.034  17.279   0.263  1.00  0.00    -0.244 OA
HETATM   30  N4  UNL     1      22.441  15.995   1.565  1.00  0.00    -0.257 N 
ATOM     31  H4  UNL     1      23.335  15.928   2.051  1.00  0.00     0.191 HD
ATOM     32  H3  UNL     1      23.962  18.179   1.357  1.00  0.00     0.192 HD
BRANCH  30  33
HETATM   33  N5  UNL     1      21.567  14.902   1.616  1.00  0.00    -0.341 N 
ATOM     34  H52 UNL     1      20.571  15.099   1.715  1.00  0.00     0.177 HD
ATOM     35  H51 UNL     1      21.885  13.935   1.559  1.00  0.00     0.177 HD
ENDBRANCH  30  33
ENDBRANCH  25  27
ENDBRANCH  19  23
ENDBRANCH  13  15
ENDBRANCH  11  12
ENDBRANCH   9  11
ENDBRANCH   8   9
ENDBRANCH   6   8
ENDBRANCH   3   6
TORSDOF 10
ENDMDL
MODEL 2
REMARK VINA RESULT: -8.520952852      2.351      4.102
REMARK  10 active torsions:
REMARK  status: ('A' for Active; 'I' for Inactive)
REMARK    1  A    between atoms: C3_3  and  C6_6 
REMARK    2  A    between atoms: C6_6  and  O1_8 
REMARK    3  A    between atoms: O1_8  and  C8_9 
REMARK    4  A    between atoms: C8_9  and  C9_11 
REMARK    5  A    between atoms: C9_11  and  C10_12 
REMARK    6  A    between atoms: N1_13  and  C11_15 
REMARK    7  A    between atoms: C14_18  and  O3_19 
REMARK    8  A    between atoms: C16_21  and  C17_22 
REMARK    9  A    between atoms: N2_24  and  N3_26 
REMARK       I    between atoms: N3_26  and  C19_28 
REMARK       I    between atoms: C19_28  and  N4_30 
REMARK   10  A    between atoms: N4_30  and  N5_32 
ROOT
HETATM    1  C1  UNL     1      24.558  19.213  -2.923  1.00  0.00     0.013 C 
HETATM    2  C2  UNL     1      25.305  19.128  -1.981  1.00  0.00    -0.105 C 
HETATM    3  C3  UNL     1      26.187  19.049  -0.847  1.00  0.00     0.042 C 
HETATM    4  C4  UNL     1      26.778  17.658  -0.682  1.00  0.00     0.031 C 
HETATM    5  C5  UNL     1      25.432  19.329   0.437  1.00  0.00     0.031 C 
ENDROOT
BRANCH   3   6
HETATM    6  C6  UNL     1      27.339  20.013  -1.002  1.00  0.00     0.147 C 
HETATM    7  C7  UNL     1      28.653  19.320  -1.072  1.00  0.00     0.042 C 
BRANCH   6   8
HETATM    8  O1  UNL     1      27.150  20.951  -2.044  1.00  0.00    -0.314 OA
BRANCH   8   9
HETATM    9  C8  UNL     1      27.213  22.325  -1.862  1.00  0.00     0.264 C 
HETATM   10  O2  UNL     1      28.317  22.761  -1.406  1.00  0.00    -0.265 OA
BRANCH   9  11
HETATM   11  C9  UNL     1      26.077  23.251  -2.169  1.00  0.00     0.155 C 
BRANCH  11  12
HETATM   12  C10 UNL     1      25.236  23.521  -0.991  1.00  0.00     0.071 C 
HETATM   13  N1  UNL     1      24.130  23.107  -0.731  1.00  0.00    -0.369 N 
ATOM     14  H1  UNL     1      23.827  23.487   0.166  1.00  0.00     0.165 HD
BRANCH  13  15
HETATM   15  C11 UNL     1      23.137  22.291  -1.245  1.00  0.00     0.032 A 
HETATM   16  C12 UNL     1      22.534  22.513  -2.469  1.00  0.00     0.032 A 
HETATM   17  C13 UNL     1      21.543  21.652  -2.880  1.00  0.00     0.040 A 
HETATM   18  C14 UNL     1      21.136  20.576  -2.107  1.00  0.00     0.080 A 
HETATM   19  C16 UNL     1      21.719  20.322  -0.876  1.00  0.00     0.023 A 
HETATM   20  C20 UNL     1      22.704  21.186  -0.478  1.00  0.00     0.045 A 
BRANCH  18  21
HETATM   21  O3  UNL     1      20.135  19.743  -2.568  1.00  0.00    -0.355 OA
HETATM   22  C15 UNL     1      19.000  20.318  -3.208  1.00  0.00     0.210 C 
ENDBRANCH  18  21
BRANCH  19  23
HETATM   23  C17 UNL     1      21.331  19.215  -0.017  1.00  0.00     0.035 C 
HETATM   24  C18 UNL     1      20.783  19.465   1.321  1.00  0.00     0.070 C 
HETATM   25  N2  UNL     1      21.483  18.021  -0.456  1.00  0.00    -0.300 N 
ATOM     26  H2  UNL     1      21.872  17.920  -1.393  1.00  0.00     0.186 HD
BRANCH  25  27
HETATM   27  N3  UNL     1      21.168  16.848   0.223  1.00  0.00    -0.250 N 
HETATM   28  C19 UNL     1      22.186  16.208   0.983  1.00  0.00     0.352 C 
HETATM   29  O4  UNL     1      23.354  16.683   1.047  1.00  0.00    -0.244 OA
HETATM   30  N4  UNL     1      21.894  15.013   1.682  1.00  0.00    -0.257 N 
ATOM     31  H4  UNL     1      20.949  14.635   1.629  1.00  0.00     0.191 HD
ATOM     32  H3  UNL     1      20.227  16.457   0.178  1.00  0.00     0.192 HD
BRANCH  30  33
HETATM   33  N5  UNL     1      22.847  14.327   2.445  1.00  0.00    -0.341 N 
ATOM     34  H52 UNL     1      23.433  14.877   3.074  1.00  0.00     0.177 HD
ATOM     35  H51 UNL     1      22.974  13.316   2.396  1.00  0.00     0.177 HD
ENDBRANCH  30  33
ENDBRANCH  25  27
ENDBRANCH  19  23
ENDBRANCH  13  15
ENDBRANCH  11  12
ENDBRANCH   9  11
ENDBRANCH   8   9
ENDBRANCH   6   8
ENDBRANCH   3   6
TORSDOF 10
ENDMDL
MODEL 3
REMARK VINA RESULT: -8.519912831      3.248      7.560
REMARK  10 active torsions:
REMARK  status: ('A' for Active; 'I' for Inactive)
REMARK    1  A    between atoms: C3_3  and  C6_6 
REMARK    2  A    between atoms: C6_6  and  O1_8 
REMARK    3  A    between atoms: O1_8  and  C8_9 
REMARK    4  A    between atoms: C8_9  and  C9_11 
REMARK    5  A    between atoms: C9_11  and  C10_12 
REMARK    6  A    between atoms: N1_13  and  C11_15 
REMARK    7  A    between atoms: C14_18  and  O3_19 
REMARK    8  A    between atoms: C16_21  and  C17_22 
REMARK    9  A    between atoms: N2_24  and  N3_26 
REMARK       I    between atoms: N3_26  and  C19_28 
REMARK       I    between atoms: C19_28  and  N4_30 
REMARK   10  A    between atoms: N4_30  and  N5_32 
ROOT
HETATM    1  C1  UNL     1      18.830  19.545  -4.744  1.00  0.00     0.013 C 
HETATM    2  C2  UNL     1      18.949  20.183  -3.728  1.00  0.00    -0.105 C 
HETATM    3  C3  UNL     1      19.098  20.965  -2.530  1.00  0.00     0.042 C 
HETATM    4  C4  UNL     1      18.452  20.293  -1.329  1.00  0.00     0.031 C 
HETATM    5  C5  UNL     1      18.402  22.302  -2.676  1.00  0.00     0.031 C 
ENDROOT
BRANCH   3   6
HETATM    6  C6  UNL     1      20.559  21.163  -2.203  1.00  0.00     0.147 C 
HETATM    7  C7  UNL     1      21.307  19.879  -2.146  1.00  0.00     0.042 C 
BRANCH   6   8
HETATM    8  O1  UNL     1      21.189  22.136  -3.013  1.00  0.00    -0.314 OA
BRANCH   8   9
HETATM    9  C8  UNL     1      21.959  23.175  -2.509  1.00  0.00     0.264 C 
HETATM   10  O2  UNL     1      21.862  24.275  -3.139  1.00  0.00    -0.265 OA
BRANCH   9  11
HETATM   11  C9  UNL     1      22.851  23.037  -1.314  1.00  0.00     0.155 C 
BRANCH  11  12
HETATM   12  C10 UNL     1      23.479  24.312  -0.930  1.00  0.00     0.071 C 
HETATM   13  N1  UNL     1      24.539  24.777  -1.279  1.00  0.00    -0.369 N 
ATOM     14  H1  UNL     1      24.679  25.681  -0.827  1.00  0.00     0.165 HD
BRANCH  13  15
HETATM   15  C11 UNL     1      25.627  24.492  -2.086  1.00  0.00     0.032 A 
HETATM   16  C12 UNL     1      25.829  25.086  -3.318  1.00  0.00     0.032 A 
HETATM   17  C13 UNL     1      26.933  24.719  -4.052  1.00  0.00     0.040 A 
HETATM   18  C14 UNL     1      27.843  23.778  -3.593  1.00  0.00     0.080 A 
HETATM   19  C16 UNL     1      27.672  23.165  -2.363  1.00  0.00     0.023 A 
HETATM   20  C20 UNL     1      26.569  23.537  -1.642  1.00  0.00     0.045 A 
BRANCH  18  21
HETATM   21  O3  UNL     1      28.934  23.447  -4.372  1.00  0.00    -0.355 OA
HETATM   22  C15 UNL     1      29.277  24.283  -5.471  1.00  0.00     0.210 C 
ENDBRANCH  18  21
BRANCH  19  23
HETATM   23  C17 UNL     1      28.586  22.166  -1.830  1.00  0.00     0.035 C 
HETATM   24  C18 UNL     1      30.021  22.234  -2.129  1.00  0.00     0.070 C 
HETATM   25  N2  UNL     1      28.107  21.230  -1.100  1.00  0.00    -0.300 N 
ATOM     26  H2  UNL     1      27.100  21.242  -0.936  1.00  0.00     0.186 HD
BRANCH  25  27
HETATM   27  N3  UNL     1      28.827  20.196  -0.509  1.00  0.00    -0.250 N 
HETATM   28  C19 UNL     1      28.358  18.863  -0.669  1.00  0.00     0.352 C 
HETATM   29  O4  UNL     1      27.313  18.609  -1.330  1.00  0.00    -0.244 OA
HETATM   30  N4  UNL     1      29.070  17.792  -0.078  1.00  0.00    -0.257 N 
ATOM     31  H4  UNL     1      29.915  18.002   0.453  1.00  0.00     0.191 HD
ATOM     32  H3  UNL     1      29.672  20.391   0.027  1.00  0.00     0.192 HD
BRANCH  30  33
HETATM   33  N5  UNL     1      28.665  16.456  -0.190  1.00  0.00    -0.341 N 
ATOM     34  H52 UNL     1      28.169  16.183  -1.039  1.00  0.00     0.177 HD
ATOM     35  H51 UNL     1      28.845  15.760   0.533  1.00  0.00     0.177 HD
ENDBRANCH  30  33
ENDBRANCH  25  27
ENDBRANCH  19  23
ENDBRANCH  13  15
ENDBRANCH  11  12
ENDBRANCH   9  11
ENDBRANCH   8   9
ENDBRANCH   6   8
ENDBRANCH   3   6
TORSDOF 10
ENDMDL
MODEL 4
REMARK VINA RESULT: -8.495632725      1.077      1.486
REMARK  10 active torsions:
REMARK  status: ('A' for Active; 'I' for Inactive)
REMARK    1  A    between atoms: C3_3  and  C6_6 
REMARK    2  A    between atoms: C6_6  and  O1_8 
REMARK    3  A    between atoms: O1_8  and  C8_9 
REMARK    4  A    between atoms: C8_9  and  C9_11 
REMARK    5  A    between atoms: C9_11  and  C10_12 
REMARK    6  A    between atoms: N1_13  and  C11_15 
REMARK    7  A    between atoms: C14_18  and  O3_19 
REMARK    8  A    between atoms: C16_21  and  C17_22 
REMARK    9  A    between atoms: N2_24  and  N3_26 
REMARK       I    between atoms: N3_26  and  C19_28 
REMARK       I    between atoms: C19_28  and  N4_30 
REMARK   10  A    between atoms: N4_30  and  N5_32 
ROOT
HETATM    1  C1  UNL     1      26.865  25.288  -4.799  1.00  0.00     0.013 C 
HETATM    2  C2  UNL     1      27.978  24.850  -4.655  1.00  0.00    -0.105 C 
HETATM    3  C3  UNL     1      29.299  24.304  -4.493  1.00  0.00     0.042 C 
HETATM    4  C4  UNL     1      30.324  25.381  -4.179  1.00  0.00     0.031 C 
HETATM    5  C5  UNL     1      29.768  23.653  -5.778  1.00  0.00     0.031 C 
ENDROOT
BRANCH   3   6
HETATM    6  C6  UNL     1      29.328  23.310  -3.357  1.00  0.00     0.147 C 
HETATM    7  C7  UNL     1      30.694  22.781  -3.099  1.00  0.00     0.042 C 
BRANCH   6   8
HETATM    8  O1  UNL     1      28.683  23.774  -2.187  1.00  0.00    -0.314 OA
BRANCH   8   9
HETATM    9  C8  UNL     1      27.483  23.262  -1.715  1.00  0.00     0.264 C 
HETATM   10  O2  UNL     1      27.181  22.105  -2.149  1.00  0.00    -0.265 OA
BRANCH   9  11
HETATM   11  C9  UNL     1      26.587  23.996  -0.766  1.00  0.00     0.155 C 
BRANCH  11  12
HETATM   12  C10 UNL     1      25.624  24.867  -1.460  1.00  0.00     0.071 C 
HETATM   13  N1  UNL     1      24.512  24.610  -1.859  1.00  0.00    -0.369 N 
ATOM     14  H1  UNL     1      24.108  25.437  -2.297  1.00  0.00     0.165 HD
BRANCH  13  15
HETATM   15  C11 UNL     1      23.604  23.567  -1.920  1.00  0.00     0.032 A 
HETATM   16  C12 UNL     1      22.448  23.616  -2.677  1.00  0.00     0.032 A 
HETATM   17  C13 UNL     1      21.600  22.532  -2.654  1.00  0.00     0.040 A 
HETATM   18  C14 UNL     1      21.872  21.401  -1.899  1.00  0.00     0.080 A 
HETATM   19  C16 UNL     1      23.021  21.318  -1.130  1.00  0.00     0.023 A 
HETATM   20  C20 UNL     1      23.856  22.402  -1.160  1.00  0.00     0.045 A 
BRANCH  18  21
HETATM   21  O3  UNL     1      20.986  20.342  -1.912  1.00  0.00    -0.355 OA
HETATM   22  C15 UNL     1      19.653  20.564  -2.360  1.00  0.00     0.210 C 
ENDBRANCH  18  21
BRANCH  19  23
HETATM   23  C17 UNL     1      23.358  20.163  -0.312  1.00  0.00     0.035 C 
HETATM   24  C18 UNL     1      24.736  19.663  -0.259  1.00  0.00     0.070 C 
HETATM   25  N2  UNL     1      22.423  19.595   0.355  1.00  0.00    -0.300 N 
ATOM     26  H2  UNL     1      21.488  19.993   0.269  1.00  0.00     0.186 HD
BRANCH  25  27
HETATM   27  N3  UNL     1      22.560  18.487   1.185  1.00  0.00    -0.250 N 
HETATM   28  C19 UNL     1      21.977  17.256   0.777  1.00  0.00     0.352 C 
HETATM   29  O4  UNL     1      21.346  17.157  -0.312  1.00  0.00    -0.244 OA
HETATM   30  N4  UNL     1      22.100  16.113   1.602  1.00  0.00    -0.257 N 
ATOM     31  H4  UNL     1      22.612  16.198   2.480  1.00  0.00     0.191 HD
ATOM     32  H3  UNL     1      23.068  18.557   2.066  1.00  0.00     0.192 HD
BRANCH  30  33
HETATM   33  N5  UNL     1      21.548  14.870   1.267  1.00  0.00    -0.341 N 
ATOM     34  H52 UNL     1      20.550  14.738   1.431  1.00  0.00     0.177 HD
ATOM     35  H51 UNL     1      22.098  14.108   0.872  1.00  0.00     0.177 HD
ENDBRANCH  30  33
ENDBRANCH  25  27
ENDBRANCH  19  23
ENDBRANCH  13  15
ENDBRANCH  11  12
ENDBRANCH   9  11
ENDBRANCH   8   9
ENDBRANCH   6   8
ENDBRANCH   3   6
TORSDOF 10
ENDMDL
MODEL 5
REMARK VINA RESULT: -8.475409466      1.972      3.247
REMARK  10 active torsions:
REMARK  status: ('A' for Active; 'I' for Inactive)
REMARK    1  A    between atoms: C3_3  and  C6_6 
REMARK    2  A    between atoms: C6_6  and  O1_8 
REMARK    3  A    between atoms: O1_8  and  C8_9 
REMARK    4  A    between atoms: C8_9  and  C9_11 
REMARK    5  A    between atoms: C9_11  and  C10_12 
REMARK    6  A    between atoms: N1_13  and  C11_15 
REMARK    7  A    between atoms: C14_18  and  O3_19 
REMARK    8  A    between atoms: C16_21  and  C17_22 
REMARK    9  A    between atoms: N2_24  and  N3_26 
REMARK       I    between atoms: N3_26  and  C19_28 
REMARK       I    between atoms: C19_28  and  N4_30 
REMARK   10  A    between atoms: N4_30  and  N5_32 
ROOT
HETATM    1  C1  UNL     1      27.295  19.138  -0.969  1.00  0.00     0.013 C 
HETATM    2  C2  UNL     1      28.353  19.714  -0.924  1.00  0.00    -0.105 C 
HETATM    3  C3  UNL     1      29.607  20.415  -0.848  1.00  0.00     0.042 C 
HETATM    4  C4  UNL     1      30.690  19.731  -1.668  1.00  0.00     0.031 C 
HETATM    5  C5  UNL     1      30.122  20.435   0.576  1.00  0.00     0.031 C 
ENDROOT
BRANCH   3   6
HETATM    6  C6  UNL     1      29.461  21.821  -1.377  1.00  0.00     0.147 C 
HETATM    7  C7  UNL     1      30.465  22.140  -2.428  1.00  0.00     0.042 C 
BRANCH   6   8
HETATM    8  O1  UNL     1      28.138  22.145  -1.758  1.00  0.00    -0.314 OA
BRANCH   8   9
HETATM    9  C8  UNL     1      27.592  23.415  -1.640  1.00  0.00     0.264 C 
HETATM   10  O2  UNL     1      28.050  24.113  -0.682  1.00  0.00    -0.265 OA
BRANCH   9  11
HETATM   11  C9  UNL     1      26.538  23.949  -2.559  1.00  0.00     0.155 C 
BRANCH  11  12
HETATM   12  C10 UNL     1      25.508  24.723  -1.846  1.00  0.00     0.071 C 
HETATM   13  N1  UNL     1      24.353  24.440  -1.632  1.00  0.00    -0.369 N 
ATOM     14  H1  UNL     1      23.909  25.196  -1.109  1.00  0.00     0.165 HD
BRANCH  13  15
HETATM   15  C11 UNL     1      23.430  23.434  -1.859  1.00  0.00     0.032 A 
HETATM   16  C12 UNL     1      22.225  23.645  -2.504  1.00  0.00     0.032 A 
HETATM   17  C13 UNL     1      21.369  22.579  -2.663  1.00  0.00     0.040 A 
HETATM   18  C14 UNL     1      21.679  21.310  -2.198  1.00  0.00     0.080 A 
HETATM   19  C16 UNL     1      22.877  21.063  -1.549  1.00  0.00     0.023 A 
HETATM   20  C20 UNL     1      23.721  22.130  -1.396  1.00  0.00     0.045 A 
BRANCH  18  21
HETATM   21  O3  UNL     1      20.781  20.277  -2.383  1.00  0.00    -0.355 OA
HETATM   22  C15 UNL     1      19.447  20.585  -2.775  1.00  0.00     0.210 C 
ENDBRANCH  18  21
BRANCH  19  23
HETATM   23  C17 UNL     1      23.256  19.757  -1.033  1.00  0.00     0.035 C 
HETATM   24  C18 UNL     1      23.958  18.793  -1.887  1.00  0.00     0.070 C 
HETATM   25  N2  UNL     1      22.958  19.471   0.180  1.00  0.00    -0.300 N 
ATOM     26  H2  UNL     1      22.468  20.187   0.715  1.00  0.00     0.186 HD
BRANCH  25  27
HETATM   27  N3  UNL     1      23.241  18.278   0.838  1.00  0.00    -0.250 N 
HETATM   28  C19 UNL     1      22.250  17.258   0.851  1.00  0.00     0.352 C 
HETATM   29  O4  UNL     1      21.134  17.420   0.282  1.00  0.00    -0.244 OA
HETATM   30  N4  UNL     1      22.508  16.035   1.513  1.00  0.00    -0.257 N 
ATOM     31  H4  UNL     1      23.412  15.909   1.969  1.00  0.00     0.191 HD
ATOM     32  H3  UNL     1      24.138  18.138   1.300  1.00  0.00     0.192 HD
BRANCH  30  33
HETATM   33  N5  UNL     1      21.579  14.989   1.570  1.00  0.00    -0.341 N 
ATOM     34  H52 UNL     1      20.653  15.201   1.944  1.00  0.00     0.177 HD
ATOM     35  H51 UNL     1      21.790  14.042   1.257  1.00  0.00     0.177 HD
ENDBRANCH  30  33
ENDBRANCH  25  27
ENDBRANCH  19  23
ENDBRANCH  13  15
ENDBRANCH  11  12
ENDBRANCH   9  11
ENDBRANCH   8   9
ENDBRANCH   6   8
ENDBRANCH   3   6
TORSDOF 10
ENDMDL
