MODEL 1
REMARK VINA RESULT: -6.321440344      0.000      0.000
REMARK  9 active torsions:
REMARK  status: ('A' for Active; 'I' for Inactive)
REMARK    1  A    between atoms: C2_2  and  C3_3 
REMARK    2  A    between atoms: C7_7  and  C8_8 
REMARK    3  A    between atoms: C7_7  and  C12_12 
REMARK    4  A    between atoms: C8_8  and  C9_9 
REMARK    5  A    between atoms: C9_9  and  C10_10 
REMARK    6  A    between atoms: C16_17  and  O1_18 
REMARK    7  A    between atoms: C16_17  and  C17_20 
REMARK    8  A    between atoms: C18_23  and  O4_24 
REMARK    9  A    between atoms: O4_24  and  C19_25 
ROOT
HETATM    1  C12 UNL     1      22.314  19.919  -1.005  1.00  0.00     0.071 C 
HETATM    2  C13 UNL     1      22.020  19.813   0.428  1.00  0.00     0.053 C 
HETATM    3  C14 UNL     1      20.724  19.390   0.934  1.00  0.00     0.022 C 
HETATM    4  S1  UNL     1      23.272  18.601   1.083  1.00  0.00    -0.160 SA
HETATM    5  C15 UNL     1      24.632  18.482  -0.126  1.00  0.00     0.126 C 
HETATM    6  C16 UNL     1      24.098  18.269  -1.513  1.00  0.00     0.181 C 
HETATM    7  C18 UNL     1      22.638  18.581  -1.659  1.00  0.00     0.187 C 
ENDROOT
BRANCH   1   8
HETATM    8  C7  UNL     1      21.431  20.782  -1.854  1.00  0.00     0.087 C 
HETATM    9  C6  UNL     1      21.622  20.803  -3.285  1.00  0.00     0.011 C 
HETATM   10  C5  UNL     1      21.707  22.050  -3.706  1.00  0.00     0.013 C 
HETATM   11  C3  UNL     1      21.576  22.940  -2.565  1.00  0.00     0.093 C 
HETATM   12  C4  UNL     1      20.262  23.674  -2.700  1.00  0.00     0.055 C 
HETATM   13  O6  UNL     1      21.730  22.140  -1.488  1.00  0.00    -0.357 OA
BRANCH  11  14
HETATM   14  C2  UNL     1      22.594  24.070  -2.585  1.00  0.00     0.004 C 
HETATM   15  C1  UNL     1      23.742  23.822  -1.980  1.00  0.00     0.010 C 
ENDBRANCH  11  14
BRANCH   8  16
HETATM   16  C8  UNL     1      20.000  20.649  -1.410  1.00  0.00     0.043 C 
BRANCH  16  17
HETATM   17  C9  UNL     1      18.972  20.355  -2.419  1.00  0.00     0.003 C 
BRANCH  17  18
HETATM   18  C10 UNL     1      17.639  20.870  -1.819  1.00  0.00    -0.004 C 
HETATM   19  C11 UNL     1      16.906  19.759  -1.139  1.00  0.00     0.005 C 
ENDBRANCH  17  18
ENDBRANCH  16  17
ENDBRANCH   8  16
ENDBRANCH   1   8
BRANCH   7  20
HETATM   20  O4  UNL     1      21.765  17.582  -1.296  1.00  0.00    -0.297 OA
BRANCH  20  21
HETATM   21  C19 UNL     1      21.878  16.294  -0.980  1.00  0.00     0.373 C 
HETATM   22  N1  UNL     1      21.961  15.809   0.346  1.00  0.00    -0.032 NA
HETATM   23  O5  UNL     1      21.909  15.511  -1.920  1.00  0.00    -0.242 OA
ENDBRANCH  20  21
ENDBRANCH   7  20
BRANCH   6  24
HETATM   24  O1  UNL     1      24.321  16.906  -1.884  1.00  0.00    -0.376 OA
ATOM     25  H1  UNL     1      23.500  16.536  -2.189  1.00  0.00     0.211 HD
ENDBRANCH   6  24
BRANCH   6  26
HETATM   26  C17 UNL     1      24.884  19.021  -2.468  1.00  0.00     0.212 C 
HETATM   27  O2  UNL     1      24.850  18.956  -3.734  1.00  0.00    -0.646 OA
HETATM   28  O3  UNL     1      25.838  19.975  -2.030  1.00  0.00    -0.646 OA
ENDBRANCH   6  26
TORSDOF 9
ENDMDL
MODEL 2
REMARK VINA RESULT: -5.896236627      1.564      2.322
REMARK  9 active torsions:
REMARK  status: ('A' for Active; 'I' for Inactive)
REMARK    1  A    between atoms: C2_2  and  C3_3 
REMARK    2  A    between atoms: C7_7  and  C8_8 
REMARK    3  A    between atoms: C7_7  and  C12_12 
REMARK    4  A    between atoms: C8_8  and  C9_9 
REMARK    5  A    between atoms: C9_9  and  C10_10 
REMARK    6  A    between atoms: C16_17  and  O1_18 
REMARK    7  A    between atoms: C16_17  and  C17_20 
REMARK    8  A    between atoms: C18_23  and  O4_24 
REMARK    9  A    between atoms: O4_24  and  C19_25 
ROOT
HETATM    1  C12 UNL     1      22.162  20.599  -0.958  1.00  0.00     0.071 C 
HETATM    2  C13 UNL     1      21.725  19.510  -0.079  1.00  0.00     0.053 C 
HETATM    3  C14 UNL     1      21.060  18.317  -0.579  1.00  0.00     0.022 C 
HETATM    4  S1  UNL     1      23.276  18.938   0.778  1.00  0.00    -0.160 SA
HETATM    5  C15 UNL     1      24.528  20.255   0.621  1.00  0.00     0.126 C 
HETATM    6  C16 UNL     1      24.637  20.723  -0.801  1.00  0.00     0.181 C 
HETATM    7  C18 UNL     1      23.481  20.317  -1.667  1.00  0.00     0.187 C 
ENDROOT
BRANCH   1   8
HETATM    8  C7  UNL     1      21.148  21.247  -1.851  1.00  0.00     0.087 C 
HETATM    9  C6  UNL     1      21.274  21.111  -3.284  1.00  0.00     0.011 C 
HETATM   10  C5  UNL     1      21.194  22.298  -3.854  1.00  0.00     0.013 C 
HETATM   11  C3  UNL     1      21.007  23.303  -2.820  1.00  0.00     0.093 C 
HETATM   12  C4  UNL     1      19.612  23.862  -2.966  1.00  0.00     0.055 C 
HETATM   13  O6  UNL     1      21.300  22.665  -1.667  1.00  0.00    -0.357 OA
BRANCH  11  14
HETATM   14  C2  UNL     1      21.883  24.528  -3.030  1.00  0.00     0.004 C 
HETATM   15  C1  UNL     1      23.165  24.290  -3.240  1.00  0.00     0.010 C 
ENDBRANCH  11  14
BRANCH   8  16
HETATM   16  C8  UNL     1      19.763  21.010  -1.315  1.00  0.00     0.043 C 
BRANCH  16  17
HETATM   17  C9  UNL     1      18.733  20.489  -2.225  1.00  0.00     0.003 C 
BRANCH  17  18
HETATM   18  C10 UNL     1      17.377  20.783  -1.533  1.00  0.00    -0.004 C 
HETATM   19  C11 UNL     1      16.772  19.521  -1.008  1.00  0.00     0.005 C 
ENDBRANCH  17  18
ENDBRANCH  16  17
ENDBRANCH   8  16
ENDBRANCH   1   8
BRANCH   7  20
HETATM   20  O4  UNL     1      23.540  19.051  -2.203  1.00  0.00    -0.297 OA
BRANCH  20  21
HETATM   21  C19 UNL     1      24.514  18.235  -2.598  1.00  0.00     0.373 C 
HETATM   22  N1  UNL     1      24.849  17.027  -1.942  1.00  0.00    -0.032 NA
HETATM   23  O5  UNL     1      25.136  18.582  -3.593  1.00  0.00    -0.242 OA
ENDBRANCH  20  21
ENDBRANCH   7  20
BRANCH   6  24
HETATM   24  O1  UNL     1      25.844  20.202  -1.363  1.00  0.00    -0.376 OA
ATOM     25  H1  UNL     1      26.564  20.769  -1.115  1.00  0.00     0.211 HD
ENDBRANCH   6  24
BRANCH   6  26
HETATM   26  C17 UNL     1      24.828  22.157  -0.838  1.00  0.00     0.212 C 
HETATM   27  O2  UNL     1      24.210  23.047  -0.180  1.00  0.00    -0.646 OA
HETATM   28  O3  UNL     1      25.809  22.736  -1.686  1.00  0.00    -0.646 OA
ENDBRANCH   6  26
TORSDOF 9
ENDMDL
MODEL 3
REMARK VINA RESULT: -5.584737025      2.412      4.662
REMARK  9 active torsions:
REMARK  status: ('A' for Active; 'I' for Inactive)
REMARK    1  A    between atoms: C2_2  and  C3_3 
REMARK    2  A    between atoms: C7_7  and  C8_8 
REMARK    3  A    between atoms: C7_7  and  C12_12 
REMARK    4  A    between atoms: C8_8  and  C9_9 
REMARK    5  A    between atoms: C9_9  and  C10_10 
REMARK    6  A    between atoms: C16_17  and  O1_18 
REMARK    7  A    between atoms: C16_17  and  C17_20 
REMARK    8  A    between atoms: C18_23  and  O4_24 
REMARK    9  A    between atoms: O4_24  and  C19_25 
ROOT
HETATM    1  C12 UNL     1      24.891  21.504  -0.705  1.00  0.00     0.071 C 
HETATM    2  C13 UNL     1      24.051  20.826   0.287  1.00  0.00     0.053 C 
HETATM    3  C14 UNL     1      22.681  20.423   0.013  1.00  0.00     0.022 C 
HETATM    4  S1  UNL     1      24.987  19.277   0.724  1.00  0.00    -0.160 SA
HETATM    5  C15 UNL     1      26.722  19.498   0.208  1.00  0.00     0.126 C 
HETATM    6  C16 UNL     1      26.800  19.997  -1.205  1.00  0.00     0.181 C 
HETATM    7  C18 UNL     1      25.509  20.558  -1.727  1.00  0.00     0.187 C 
ENDROOT
BRANCH   1   8
HETATM    8  C7  UNL     1      24.387  22.774  -1.320  1.00  0.00     0.087 C 
HETATM    9  C6  UNL     1      23.699  23.739  -0.494  1.00  0.00     0.011 C 
HETATM   10  C5  UNL     1      22.559  24.081  -1.062  1.00  0.00     0.013 C 
HETATM   11  C3  UNL     1      22.422  23.355  -2.314  1.00  0.00     0.093 C 
HETATM   12  C4  UNL     1      22.531  24.354  -3.442  1.00  0.00     0.055 C 
HETATM   13  O6  UNL     1      23.362  22.388  -2.252  1.00  0.00    -0.357 OA
BRANCH  11  14
HETATM   14  C2  UNL     1      21.028  22.781  -2.508  1.00  0.00     0.004 C 
HETATM   15  C1  UNL     1      20.972  21.543  -2.966  1.00  0.00     0.010 C 
ENDBRANCH  11  14
BRANCH   8  16
HETATM   16  C8  UNL     1      25.433  23.356  -2.231  1.00  0.00     0.043 C 
BRANCH  16  17
HETATM   17  C9  UNL     1      25.946  24.704  -1.947  1.00  0.00     0.003 C 
BRANCH  17  18
HETATM   18  C10 UNL     1      26.041  25.413  -3.322  1.00  0.00    -0.004 C 
HETATM   19  C11 UNL     1      27.022  24.712  -4.206  1.00  0.00     0.005 C 
ENDBRANCH  17  18
ENDBRANCH  16  17
ENDBRANCH   8  16
ENDBRANCH   1   8
BRANCH   7  20
HETATM   20  O4  UNL     1      24.609  19.644  -2.224  1.00  0.00    -0.297 OA
BRANCH  20  21
HETATM   21  C19 UNL     1      24.693  18.437  -2.778  1.00  0.00     0.373 C 
HETATM   22  N1  UNL     1      24.639  17.226  -2.050  1.00  0.00    -0.032 NA
HETATM   23  O5  UNL     1      24.824  18.413  -3.995  1.00  0.00    -0.242 OA
ENDBRANCH  20  21
ENDBRANCH   7  20
BRANCH   6  24
HETATM   24  O1  UNL     1      27.213  18.919  -2.049  1.00  0.00    -0.376 OA
ATOM     25  H1  UNL     1      26.796  19.021  -2.897  1.00  0.00     0.211 HD
ENDBRANCH   6  24
BRANCH   6  26
HETATM   26  C17 UNL     1      27.869  20.965  -1.331  1.00  0.00     0.212 C 
HETATM   27  O2  UNL     1      27.923  21.979  -2.091  1.00  0.00    -0.646 OA
HETATM   28  O3  UNL     1      29.047  20.849  -0.548  1.00  0.00    -0.646 OA
ENDBRANCH   6  26
TORSDOF 9
ENDMDL
MODEL 4
REMARK VINA RESULT: -5.486517217      2.301      4.916
REMARK  9 active torsions:
REMARK  status: ('A' for Active; 'I' for Inactive)
REMARK    1  A    between atoms: C2_2  and  C3_3 
REMARK    2  A    between atoms: C7_7  and  C8_8 
REMARK    3  A    between atoms: C7_7  and  C12_12 
REMARK    4  A    between atoms: C8_8  and  C9_9 
REMARK    5  A    between atoms: C9_9  and  C10_10 
REMARK    6  A    between atoms: C16_17  and  O1_18 
REMARK    7  A    between atoms: C16_17  and  C17_20 
REMARK    8  A    between atoms: C18_23  and  O4_24 
REMARK    9  A    between atoms: O4_24  and  C19_25 
ROOT
HETATM    1  C12 UNL     1      23.508  20.194  -1.646  1.00  0.00     0.071 C 
HETATM    2  C13 UNL     1      24.256  18.940  -1.518  1.00  0.00     0.053 C 
HETATM    3  C14 UNL     1      25.121  18.655  -0.383  1.00  0.00     0.022 C 
HETATM    4  S1  UNL     1      22.959  17.605  -1.551  1.00  0.00    -0.160 SA
HETATM    5  C15 UNL     1      21.436  18.312  -2.262  1.00  0.00     0.126 C 
HETATM    6  C16 UNL     1      21.093  19.616  -1.602  1.00  0.00     0.181 C 
HETATM    7  C18 UNL     1      22.225  20.223  -0.825  1.00  0.00     0.187 C 
ENDROOT
BRANCH   1   8
HETATM    8  C7  UNL     1      24.263  21.487  -1.590  1.00  0.00     0.087 C 
HETATM    9  C6  UNL     1      24.378  22.188  -0.332  1.00  0.00     0.011 C 
HETATM   10  C5  UNL     1      24.029  23.450  -0.492  1.00  0.00     0.013 C 
HETATM   11  C3  UNL     1      23.658  23.663  -1.882  1.00  0.00     0.093 C 
HETATM   12  C4  UNL     1      24.705  24.553  -2.508  1.00  0.00     0.055 C 
HETATM   13  O6  UNL     1      23.519  22.420  -2.391  1.00  0.00    -0.357 OA
BRANCH  11  14
HETATM   14  C2  UNL     1      22.388  24.484  -2.029  1.00  0.00     0.004 C 
HETATM   15  C1  UNL     1      21.591  24.141  -3.025  1.00  0.00     0.010 C 
ENDBRANCH  11  14
BRANCH   8  16
HETATM   16  C8  UNL     1      25.547  21.367  -2.365  1.00  0.00     0.043 C 
BRANCH  16  17
HETATM   17  C9  UNL     1      26.821  21.475  -1.640  1.00  0.00     0.003 C 
BRANCH  17  18
HETATM   18  C10 UNL     1      27.590  22.637  -2.319  1.00  0.00    -0.004 C 
HETATM   19  C11 UNL     1      27.960  23.679  -1.313  1.00  0.00     0.005 C 
ENDBRANCH  17  18
ENDBRANCH  16  17
ENDBRANCH   8  16
ENDBRANCH   1   8
BRANCH   7  20
HETATM   20  O4  UNL     1      22.399  19.755   0.457  1.00  0.00    -0.297 OA
BRANCH  20  21
HETATM   21  C19 UNL     1      21.698  18.988   1.289  1.00  0.00     0.373 C 
HETATM   22  N1  UNL     1      21.945  17.611   1.493  1.00  0.00    -0.032 NA
HETATM   23  O5  UNL     1      20.792  19.543   1.897  1.00  0.00    -0.242 OA
ENDBRANCH  20  21
ENDBRANCH   7  20
BRANCH   6  24
HETATM   24  O1  UNL     1      19.986  19.407  -0.722  1.00  0.00    -0.376 OA
ATOM     25  H1  UNL     1      19.566  20.243  -0.557  1.00  0.00     0.211 HD
ENDBRANCH   6  24
BRANCH   6  26
HETATM   26  C17 UNL     1      20.584  20.550  -2.584  1.00  0.00     0.212 C 
HETATM   27  O2  UNL     1      21.075  20.841  -3.716  1.00  0.00    -0.646 OA
HETATM   28  O3  UNL     1      19.392  21.280  -2.339  1.00  0.00    -0.646 OA
ENDBRANCH   6  26
TORSDOF 9
ENDMDL
MODEL 5
REMARK VINA RESULT: -5.400301442      2.261      3.766
REMARK  9 active torsions:
REMARK  status: ('A' for Active; 'I' for Inactive)
REMARK    1  A    between atoms: C2_2  and  C3_3 
REMARK    2  A    between atoms: C7_7  and  C8_8 
REMARK    3  A    between atoms: C7_7  and  C12_12 
REMARK    4  A    between atoms: C8_8  and  C9_9 
REMARK    5  A    between atoms: C9_9  and  C10_10 
REMARK    6  A    between atoms: C16_17  and  O1_18 
REMARK    7  A    between atoms: C16_17  and  C17_20 
REMARK    8  A    between atoms: C18_23  and  O4_24 
REMARK    9  A    between atoms: O4_24  and  C19_25 
ROOT
HETATM    1  C12 UNL     1      22.528  18.606  -1.427  1.00  0.00     0.071 C 
HETATM    2  C13 UNL     1      23.088  17.439  -2.116  1.00  0.00     0.053 C 
HETATM    3  C14 UNL     1      24.475  17.374  -2.549  1.00  0.00     0.022 C 
HETATM    4  S1  UNL     1      22.827  16.020  -0.940  1.00  0.00    -0.160 SA
HETATM    5  C15 UNL     1      21.550  16.511   0.266  1.00  0.00     0.126 C 
HETATM    6  C16 UNL     1      21.851  17.864   0.844  1.00  0.00     0.181 C 
HETATM    7  C18 UNL     1      22.860  18.651   0.059  1.00  0.00     0.187 C 
ENDROOT
BRANCH   1   8
HETATM    8  C7  UNL     1      22.637  19.946  -2.088  1.00  0.00     0.087 C 
HETATM    9  C6  UNL     1      23.827  20.274  -2.838  1.00  0.00     0.011 C 
HETATM   10  C5  UNL     1      24.295  21.443  -2.446  1.00  0.00     0.013 C 
HETATM   11  C3  UNL     1      23.432  21.966  -1.399  1.00  0.00     0.093 C 
HETATM   12  C4  UNL     1      22.714  23.174  -1.954  1.00  0.00     0.055 C 
HETATM   13  O6  UNL     1      22.673  20.914  -1.025  1.00  0.00    -0.357 OA
BRANCH  11  14
HETATM   14  C2  UNL     1      24.214  22.547  -0.233  1.00  0.00     0.004 C 
HETATM   15  C1  UNL     1      25.016  23.556  -0.522  1.00  0.00     0.010 C 
ENDBRANCH  11  14
BRANCH   8  16
HETATM   16  C8  UNL     1      21.344  20.288  -2.775  1.00  0.00     0.043 C 
BRANCH  16  17
HETATM   17  C9  UNL     1      20.211  20.747  -1.959  1.00  0.00     0.003 C 
BRANCH  17  18
HETATM   18  C10 UNL     1      18.944  20.472  -2.811  1.00  0.00    -0.004 C 
HETATM   19  C11 UNL     1      17.724  20.461  -1.947  1.00  0.00     0.005 C 
ENDBRANCH  17  18
ENDBRANCH  16  17
ENDBRANCH   8  16
ENDBRANCH   1   8
BRANCH   7  20
HETATM   20  O4  UNL     1      24.182  18.374   0.322  1.00  0.00    -0.297 OA
BRANCH  20  21
HETATM   21  C19 UNL     1      25.300  19.090   0.413  1.00  0.00     0.373 C 
HETATM   22  N1  UNL     1      26.416  18.927  -0.439  1.00  0.00    -0.032 NA
HETATM   23  O5  UNL     1      25.327  19.933   1.301  1.00  0.00    -0.242 OA
ENDBRANCH  20  21
ENDBRANCH   7  20
BRANCH   6  24
HETATM   24  O1  UNL     1      22.332  17.693   2.179  1.00  0.00    -0.376 OA
ATOM     25  H1  UNL     1      21.591  17.532   2.751  1.00  0.00     0.211 HD
ENDBRANCH   6  24
BRANCH   6  26
HETATM   26  C17 UNL     1      20.627  18.617   1.009  1.00  0.00     0.212 C 
HETATM   27  O2  UNL     1      19.491  18.390   0.492  1.00  0.00    -0.646 OA
HETATM   28  O3  UNL     1      20.592  19.771   1.835  1.00  0.00    -0.646 OA
ENDBRANCH   6  26
TORSDOF 9
ENDMDL
