MODEL 1
REMARK VINA RESULT: -8.656340713      0.000      0.000
REMARK  8 active torsions:
REMARK  status: ('A' for Active; 'I' for Inactive)
REMARK    1  A    between atoms: N1_1  and  N2_4 
REMARK    2  A    between atoms: N2_4  and  C1_5 
REMARK    3  A    between atoms: C1_5  and  C2_6 
REMARK    4  A    between atoms: C1_5  and  C13_25 
REMARK       I    between atoms: C2_6  and  N3_8 
REMARK    5  A    between atoms: N3_8  and  O2_10 
REMARK    6  A    between atoms: O2_10  and  S1_11 
REMARK    7  A    between atoms: S1_11  and  C3_14 
REMARK    8  A    between atoms: C6_17  and  C7_18 
ROOT
HETATM    1  C2  UNL     1      21.514  18.859   0.474  1.00  0.00     0.267 C 
HETATM    2  O1  UNL     1      21.067  19.271   1.565  1.00  0.00    -0.269 OA
HETATM    3  N3  UNL     1      20.870  19.210  -0.722  1.00  0.00    -0.215 N 
ATOM      4  H3  UNL     1      21.258  18.858  -1.598  1.00  0.00     0.199 HD
ENDROOT
BRANCH   3   5
HETATM    5  O2  UNL     1      19.764  19.989  -0.782  1.00  0.00    -0.144 OA
BRANCH   5   6
HETATM    6  S1  UNL     1      19.625  20.749  -2.247  1.00  0.00     0.325 S 
HETATM    7  O3  UNL     1      18.287  21.381  -2.462  1.00  0.00    -0.191 OA
HETATM    8  O4  UNL     1      19.855  19.790  -3.401  1.00  0.00    -0.191 OA
BRANCH   6   9
HETATM    9  C3  UNL     1      20.870  21.977  -2.406  1.00  0.00     0.129 A 
HETATM   10  C4  UNL     1      20.807  23.240  -2.920  1.00  0.00     0.035 A 
HETATM   11  C5  UNL     1      21.929  23.972  -2.914  1.00  0.00     0.022 A 
HETATM   12  C6  UNL     1      23.053  23.391  -2.390  1.00  0.00     0.016 A 
HETATM   13  S2  UNL     1      22.502  21.845  -1.927  1.00  0.00    -0.075 SA
BRANCH  12  14
HETATM   14  C7  UNL     1      24.409  23.915  -2.239  1.00  0.00    -0.019 A 
HETATM   15  C8  UNL     1      25.046  24.648  -3.212  1.00  0.00     0.013 A 
HETATM   16  C9  UNL     1      26.333  25.131  -3.036  1.00  0.00     0.001 A 
HETATM   17  C10 UNL     1      27.030  24.889  -1.857  1.00  0.00     0.000 A 
HETATM   18  C11 UNL     1      26.393  24.156  -0.881  1.00  0.00     0.001 A 
HETATM   19  C12 UNL     1      25.115  23.678  -1.062  1.00  0.00     0.013 A 
ENDBRANCH  12  14
ENDBRANCH   6   9
ENDBRANCH   5   6
ENDBRANCH   3   5
BRANCH   1  20
HETATM   20  C1  UNL     1      22.721  18.004   0.469  1.00  0.00     0.225 C 
BRANCH  20  21
HETATM   21  N2  UNL     1      22.388  16.669  -0.043  1.00  0.00    -0.129 NA
BRANCH  21  22
HETATM   22  N1  UNL     1      21.480  16.069   0.824  1.00  0.00    -0.347 N 
ATOM     23  H12 UNL     1      20.753  16.565   1.341  1.00  0.00     0.172 HD
ATOM     24  H11 UNL     1      21.663  15.066   0.851  1.00  0.00     0.172 HD
ENDBRANCH  21  22
ENDBRANCH  20  21
BRANCH  20  25
HETATM   25  C13 UNL     1      23.736  18.540  -0.480  1.00  0.00    -0.028 A 
HETATM   26  C14 UNL     1      23.850  18.125  -1.787  1.00  0.00     0.009 A 
HETATM   27  C15 UNL     1      24.824  18.689  -2.565  1.00  0.00     0.001 A 
HETATM   28  C16 UNL     1      25.707  19.660  -2.098  1.00  0.00     0.000 A 
HETATM   29  C17 UNL     1      25.585  20.065  -0.793  1.00  0.00     0.001 A 
HETATM   30  C18 UNL     1      24.602  19.506   0.011  1.00  0.00     0.009 A 
ENDBRANCH  20  25
ENDBRANCH   1  20
TORSDOF 8
ENDMDL
MODEL 2
REMARK VINA RESULT: -8.643229795      0.271      1.317
REMARK  8 active torsions:
REMARK  status: ('A' for Active; 'I' for Inactive)
REMARK    1  A    between atoms: N1_1  and  N2_4 
REMARK    2  A    between atoms: N2_4  and  C1_5 
REMARK    3  A    between atoms: C1_5  and  C2_6 
REMARK    4  A    between atoms: C1_5  and  C13_25 
REMARK       I    between atoms: C2_6  and  N3_8 
REMARK    5  A    between atoms: N3_8  and  O2_10 
REMARK    6  A    between atoms: O2_10  and  S1_11 
REMARK    7  A    between atoms: S1_11  and  C3_14 
REMARK    8  A    between atoms: C6_17  and  C7_18 
ROOT
HETATM    1  C2  UNL     1      21.307  18.941   0.257  1.00  0.00     0.267 C 
HETATM    2  O1  UNL     1      20.989  19.454   1.351  1.00  0.00    -0.269 OA
HETATM    3  N3  UNL     1      20.582  19.262  -0.901  1.00  0.00    -0.215 N 
ATOM      4  H3  UNL     1      20.864  18.828  -1.780  1.00  0.00     0.199 HD
ENDROOT
BRANCH   3   5
HETATM    5  O2  UNL     1      19.529  20.113  -0.920  1.00  0.00    -0.144 OA
BRANCH   5   6
HETATM    6  S1  UNL     1      19.427  20.934  -2.355  1.00  0.00     0.325 S 
HETATM    7  O3  UNL     1      18.116  21.626  -2.549  1.00  0.00    -0.191 OA
HETATM    8  O4  UNL     1      19.624  20.012  -3.544  1.00  0.00    -0.191 OA
BRANCH   6   9
HETATM    9  C3  UNL     1      20.721  22.116  -2.462  1.00  0.00     0.129 A 
HETATM   10  C4  UNL     1      20.709  23.400  -2.926  1.00  0.00     0.035 A 
HETATM   11  C5  UNL     1      21.859  24.087  -2.889  1.00  0.00     0.022 A 
HETATM   12  C6  UNL     1      22.957  23.441  -2.385  1.00  0.00     0.016 A 
HETATM   13  S2  UNL     1      22.344  21.901  -1.984  1.00  0.00    -0.075 SA
BRANCH  12  14
HETATM   14  C7  UNL     1      24.332  23.905  -2.211  1.00  0.00    -0.019 A 
HETATM   15  C8  UNL     1      25.058  23.696  -1.063  1.00  0.00     0.013 A 
HETATM   16  C9  UNL     1      26.361  24.148  -0.930  1.00  0.00     0.001 A 
HETATM   17  C10 UNL     1      26.985  24.835  -1.966  1.00  0.00     0.000 A 
HETATM   18  C11 UNL     1      26.261  25.046  -3.117  1.00  0.00     0.001 A 
HETATM   19  C12 UNL     1      24.967  24.594  -3.242  1.00  0.00     0.013 A 
ENDBRANCH  12  14
ENDBRANCH   6   9
ENDBRANCH   5   6
ENDBRANCH   3   5
BRANCH   1  20
HETATM   20  C1  UNL     1      22.449  18.003   0.208  1.00  0.00     0.225 C 
BRANCH  20  21
HETATM   21  N2  UNL     1      22.099  16.828  -0.599  1.00  0.00    -0.129 NA
BRANCH  21  22
HETATM   22  N1  UNL     1      21.456  15.900   0.213  1.00  0.00    -0.347 N 
ATOM     23  H12 UNL     1      21.923  15.299   0.893  1.00  0.00     0.172 HD
ATOM     24  H11 UNL     1      20.455  15.924   0.014  1.00  0.00     0.172 HD
ENDBRANCH  21  22
ENDBRANCH  20  21
BRANCH  20  25
HETATM   25  C13 UNL     1      23.606  18.625  -0.496  1.00  0.00    -0.028 A 
HETATM   26  C14 UNL     1      24.462  19.524   0.096  1.00  0.00     0.009 A 
HETATM   27  C15 UNL     1      25.490  20.032  -0.652  1.00  0.00     0.001 A 
HETATM   28  C16 UNL     1      25.709  19.683  -1.983  1.00  0.00     0.000 A 
HETATM   29  C17 UNL     1      24.849  18.786  -2.561  1.00  0.00     0.001 A 
HETATM   30  C18 UNL     1      23.802  18.260  -1.819  1.00  0.00     0.009 A 
ENDBRANCH  20  25
ENDBRANCH   1  20
TORSDOF 8
ENDMDL
MODEL 3
REMARK VINA RESULT: -7.937342062      2.403      4.709
REMARK  8 active torsions:
REMARK  status: ('A' for Active; 'I' for Inactive)
REMARK    1  A    between atoms: N1_1  and  N2_4 
REMARK    2  A    between atoms: N2_4  and  C1_5 
REMARK    3  A    between atoms: C1_5  and  C2_6 
REMARK    4  A    between atoms: C1_5  and  C13_25 
REMARK       I    between atoms: C2_6  and  N3_8 
REMARK    5  A    between atoms: N3_8  and  O2_10 
REMARK    6  A    between atoms: O2_10  and  S1_11 
REMARK    7  A    between atoms: S1_11  and  C3_14 
REMARK    8  A    between atoms: C6_17  and  C7_18 
ROOT
HETATM    1  C2  UNL     1      20.773  19.551  -1.889  1.00  0.00     0.267 C 
HETATM    2  O1  UNL     1      20.130  19.666  -0.824  1.00  0.00    -0.269 OA
HETATM    3  N3  UNL     1      21.929  18.756  -1.922  1.00  0.00    -0.215 N 
ATOM      4  H3  UNL     1      22.435  18.681  -2.806  1.00  0.00     0.199 HD
ENDROOT
BRANCH   3   5
HETATM    5  O2  UNL     1      22.414  18.084  -0.852  1.00  0.00    -0.144 OA
BRANCH   5   6
HETATM    6  S1  UNL     1      24.055  18.260  -0.706  1.00  0.00     0.325 S 
HETATM    7  O3  UNL     1      24.829  17.380  -1.635  1.00  0.00    -0.191 OA
HETATM    8  O4  UNL     1      24.530  17.948   0.701  1.00  0.00    -0.191 OA
BRANCH   6   9
HETATM    9  C3  UNL     1      24.506  19.932  -0.991  1.00  0.00     0.129 A 
HETATM   10  C4  UNL     1      24.164  21.068  -0.316  1.00  0.00     0.035 A 
HETATM   11  C5  UNL     1      24.663  22.231  -0.759  1.00  0.00     0.022 A 
HETATM   12  C6  UNL     1      25.480  22.183  -1.856  1.00  0.00     0.016 A 
HETATM   13  S2  UNL     1      25.521  20.520  -2.230  1.00  0.00    -0.075 SA
BRANCH  12  14
HETATM   14  C7  UNL     1      26.172  23.254  -2.570  1.00  0.00    -0.019 A 
HETATM   15  C8  UNL     1      27.480  23.163  -2.982  1.00  0.00     0.013 A 
HETATM   16  C9  UNL     1      28.106  24.198  -3.659  1.00  0.00     0.001 A 
HETATM   17  C10 UNL     1      27.425  25.376  -3.947  1.00  0.00     0.000 A 
HETATM   18  C11 UNL     1      26.114  25.470  -3.536  1.00  0.00     0.001 A 
HETATM   19  C12 UNL     1      25.498  24.438  -2.864  1.00  0.00     0.013 A 
ENDBRANCH  12  14
ENDBRANCH   6   9
ENDBRANCH   5   6
ENDBRANCH   3   5
BRANCH   1  20
HETATM   20  C1  UNL     1      20.296  20.259  -3.096  1.00  0.00     0.225 C 
BRANCH  20  21
HETATM   21  N2  UNL     1      18.865  20.003  -3.295  1.00  0.00    -0.129 NA
BRANCH  21  22
HETATM   22  N1  UNL     1      18.674  19.482  -4.570  1.00  0.00    -0.347 N 
ATOM     23  H12 UNL     1      18.778  20.011  -5.437  1.00  0.00     0.172 HD
ATOM     24  H11 UNL     1      18.418  18.498  -4.490  1.00  0.00     0.172 HD
ENDBRANCH  21  22
ENDBRANCH  20  21
BRANCH  20  25
HETATM   25  C13 UNL     1      20.404  21.734  -2.911  1.00  0.00    -0.028 A 
HETATM   26  C14 UNL     1      19.318  22.559  -2.729  1.00  0.00     0.009 A 
HETATM   27  C15 UNL     1      19.539  23.900  -2.573  1.00  0.00     0.001 A 
HETATM   28  C16 UNL     1      20.811  24.470  -2.590  1.00  0.00     0.000 A 
HETATM   29  C17 UNL     1      21.885  23.638  -2.773  1.00  0.00     0.001 A 
HETATM   30  C18 UNL     1      21.680  22.275  -2.932  1.00  0.00     0.009 A 
ENDBRANCH  20  25
ENDBRANCH   1  20
TORSDOF 8
ENDMDL
MODEL 4
REMARK VINA RESULT: -7.908321821      3.638      5.598
REMARK  8 active torsions:
REMARK  status: ('A' for Active; 'I' for Inactive)
REMARK    1  A    between atoms: N1_1  and  N2_4 
REMARK    2  A    between atoms: N2_4  and  C1_5 
REMARK    3  A    between atoms: C1_5  and  C2_6 
REMARK    4  A    between atoms: C1_5  and  C13_25 
REMARK       I    between atoms: C2_6  and  N3_8 
REMARK    5  A    between atoms: N3_8  and  O2_10 
REMARK    6  A    between atoms: O2_10  and  S1_11 
REMARK    7  A    between atoms: S1_11  and  C3_14 
REMARK    8  A    between atoms: C6_17  and  C7_18 
ROOT
HETATM    1  C2  UNL     1      25.987  20.032  -1.852  1.00  0.00     0.267 C 
HETATM    2  O1  UNL     1      25.499  19.825  -2.984  1.00  0.00    -0.269 OA
HETATM    3  N3  UNL     1      26.584  21.270  -1.566  1.00  0.00    -0.215 N 
ATOM      4  H3  UNL     1      26.974  21.410  -0.634  1.00  0.00     0.199 HD
ENDROOT
BRANCH   3   5
HETATM    5  O2  UNL     1      26.672  22.288  -2.454  1.00  0.00    -0.144 OA
BRANCH   5   6
HETATM    6  S1  UNL     1      25.879  23.640  -1.920  1.00  0.00     0.325 S 
HETATM    7  O3  UNL     1      26.397  24.907  -2.522  1.00  0.00    -0.191 OA
HETATM    8  O4  UNL     1      25.979  23.791  -0.413  1.00  0.00    -0.191 OA
BRANCH   6   9
HETATM    9  C3  UNL     1      24.162  23.503  -2.261  1.00  0.00     0.129 A 
HETATM   10  C4  UNL     1      23.336  24.317  -2.981  1.00  0.00     0.035 A 
HETATM   11  C5  UNL     1      22.047  23.964  -3.082  1.00  0.00     0.022 A 
HETATM   12  C6  UNL     1      21.662  22.811  -2.452  1.00  0.00     0.016 A 
HETATM   13  S2  UNL     1      23.113  22.263  -1.742  1.00  0.00    -0.075 SA
BRANCH  12  14
HETATM   14  C7  UNL     1      20.354  22.164  -2.374  1.00  0.00    -0.019 A 
HETATM   15  C8  UNL     1      19.168  22.842  -2.520  1.00  0.00     0.013 A 
HETATM   16  C9  UNL     1      17.944  22.198  -2.441  1.00  0.00     0.001 A 
HETATM   17  C10 UNL     1      17.874  20.828  -2.210  1.00  0.00     0.000 A 
HETATM   18  C11 UNL     1      19.061  20.145  -2.063  1.00  0.00     0.001 A 
HETATM   19  C12 UNL     1      20.273  20.792  -2.142  1.00  0.00     0.013 A 
ENDBRANCH  12  14
ENDBRANCH   6   9
ENDBRANCH   5   6
ENDBRANCH   3   5
BRANCH   1  20
HETATM   20  C1  UNL     1      25.923  18.960  -0.835  1.00  0.00     0.225 C 
BRANCH  20  21
HETATM   21  N2  UNL     1      26.348  19.482   0.470  1.00  0.00    -0.129 NA
BRANCH  21  22
HETATM   22  N1  UNL     1      27.672  19.116   0.691  1.00  0.00    -0.347 N 
ATOM     23  H12 UNL     1      27.969  18.248   1.138  1.00  0.00     0.172 HD
ATOM     24  H11 UNL     1      28.282  19.852   0.334  1.00  0.00     0.172 HD
ENDBRANCH  21  22
ENDBRANCH  20  21
BRANCH  20  25
HETATM   25  C13 UNL     1      24.516  18.515  -0.634  1.00  0.00    -0.028 A 
HETATM   26  C14 UNL     1      24.004  17.350  -1.157  1.00  0.00     0.009 A 
HETATM   27  C15 UNL     1      22.694  17.046  -0.908  1.00  0.00     0.001 A 
HETATM   28  C16 UNL     1      21.853  17.860  -0.151  1.00  0.00     0.000 A 
HETATM   29  C17 UNL     1      22.373  19.018   0.364  1.00  0.00     0.001 A 
HETATM   30  C18 UNL     1      23.701  19.343   0.123  1.00  0.00     0.009 A 
ENDBRANCH  20  25
ENDBRANCH   1  20
TORSDOF 8
ENDMDL
MODEL 5
REMARK VINA RESULT: -7.907179963      2.306      4.502
REMARK  8 active torsions:
REMARK  status: ('A' for Active; 'I' for Inactive)
REMARK    1  A    between atoms: N1_1  and  N2_4 
REMARK    2  A    between atoms: N2_4  and  C1_5 
REMARK    3  A    between atoms: C1_5  and  C2_6 
REMARK    4  A    between atoms: C1_5  and  C13_25 
REMARK       I    between atoms: C2_6  and  N3_8 
REMARK    5  A    between atoms: N3_8  and  O2_10 
REMARK    6  A    between atoms: O2_10  and  S1_11 
REMARK    7  A    between atoms: S1_11  and  C3_14 
REMARK    8  A    between atoms: C6_17  and  C7_18 
ROOT
HETATM    1  C2  UNL     1      20.684  19.684  -1.051  1.00  0.00     0.267 C 
HETATM    2  O1  UNL     1      20.656  20.079   0.134  1.00  0.00    -0.269 OA
HETATM    3  N3  UNL     1      21.531  18.626  -1.414  1.00  0.00    -0.215 N 
ATOM      4  H3  UNL     1      21.533  18.325  -2.389  1.00  0.00     0.199 HD
ENDROOT
BRANCH   3   5
HETATM    5  O2  UNL     1      22.347  17.981  -0.547  1.00  0.00    -0.144 OA
BRANCH   5   6
HETATM    6  S1  UNL     1      23.930  18.045  -1.027  1.00  0.00     0.325 S 
HETATM    7  O3  UNL     1      24.182  17.357  -2.331  1.00  0.00    -0.191 OA
HETATM    8  O4  UNL     1      24.854  17.410  -0.004  1.00  0.00    -0.191 OA
BRANCH   6   9
HETATM    9  C3  UNL     1      24.452  19.717  -1.152  1.00  0.00     0.129 A 
HETATM   10  C4  UNL     1      24.219  20.780  -0.330  1.00  0.00     0.035 A 
HETATM   11  C5  UNL     1      24.749  21.962  -0.672  1.00  0.00     0.022 A 
HETATM   12  C6  UNL     1      25.487  22.006  -1.825  1.00  0.00     0.016 A 
HETATM   13  S2  UNL     1      25.412  20.398  -2.388  1.00  0.00    -0.075 SA
BRANCH  12  14
HETATM   14  C7  UNL     1      26.186  23.120  -2.462  1.00  0.00    -0.019 A 
HETATM   15  C8  UNL     1      27.513  23.074  -2.816  1.00  0.00     0.013 A 
HETATM   16  C9  UNL     1      28.147  24.148  -3.419  1.00  0.00     0.001 A 
HETATM   17  C10 UNL     1      27.453  25.323  -3.690  1.00  0.00     0.000 A 
HETATM   18  C11 UNL     1      26.123  25.373  -3.337  1.00  0.00     0.001 A 
HETATM   19  C12 UNL     1      25.501  24.302  -2.737  1.00  0.00     0.013 A 
ENDBRANCH  12  14
ENDBRANCH   6   9
ENDBRANCH   5   6
ENDBRANCH   3   5
BRANCH   1  20
HETATM   20  C1  UNL     1      19.816  20.345  -2.049  1.00  0.00     0.225 C 
BRANCH  20  21
HETATM   21  N2  UNL     1      18.510  20.651  -1.453  1.00  0.00    -0.129 NA
BRANCH  21  22
HETATM   22  N1  UNL     1      17.588  19.701  -1.880  1.00  0.00    -0.347 N 
ATOM     23  H12 UNL     1      17.701  18.692  -1.776  1.00  0.00     0.172 HD
ATOM     24  H11 UNL     1      16.794  20.180  -2.306  1.00  0.00     0.172 HD
ENDBRANCH  21  22
ENDBRANCH  20  21
BRANCH  20  25
HETATM   25  C13 UNL     1      20.383  21.667  -2.438  1.00  0.00    -0.028 A 
HETATM   26  C14 UNL     1      21.715  21.871  -2.717  1.00  0.00     0.009 A 
HETATM   27  C15 UNL     1      22.121  23.132  -3.062  1.00  0.00     0.001 A 
HETATM   28  C16 UNL     1      21.251  24.218  -3.143  1.00  0.00     0.000 A 
HETATM   29  C17 UNL     1      19.927  24.002  -2.862  1.00  0.00     0.001 A 
HETATM   30  C18 UNL     1      19.496  22.730  -2.512  1.00  0.00     0.009 A 
ENDBRANCH  20  25
ENDBRANCH   1  20
TORSDOF 8
ENDMDL
