MODEL 1
REMARK VINA RESULT: -7.383880075      0.000      0.000
REMARK  7 active torsions:
REMARK  status: ('A' for Active; 'I' for Inactive)
REMARK    1  A    between atoms: O1_2  and  C2_3 
REMARK    2  A    between atoms: C3_4  and  N1_5 
REMARK       I    between atoms: N1_5  and  C4_7 
REMARK    3  A    between atoms: C4_7  and  C5_9 
REMARK    4  A    between atoms: C6_13  and  C7_14 
REMARK    5  A    between atoms: C12_21  and  C13_22 
REMARK       I    between atoms: C13_22  and  N4_24 
REMARK    6  A    between atoms: N4_24  and  C14_26 
REMARK    7  A    between atoms: C17_29  and  O6_30 
ROOT
HETATM    1  C2  UNL     1      25.539  21.719  -1.593  1.00  0.00     0.129 A 
HETATM    2  C3  UNL     1      24.187  21.833  -1.233  1.00  0.00     0.071 A 
HETATM    3  C10 UNL     1      23.581  23.003  -1.596  1.00  0.00     0.034 A 
HETATM    4  C11 UNL     1      24.257  23.991  -2.271  1.00  0.00     0.022 A 
HETATM    5  C12 UNL     1      25.616  23.874  -2.636  1.00  0.00     0.068 A 
HETATM    6  C17 UNL     1      26.224  22.705  -2.268  1.00  0.00     0.119 A 
ENDROOT
BRANCH   2   7
HETATM    7  N1  UNL     1      23.594  20.757  -0.549  1.00  0.00    -0.319 N 
HETATM    8  C4  UNL     1      22.629  19.859  -1.034  1.00  0.00     0.282 C 
HETATM    9  O2  UNL     1      22.177  19.932  -2.185  1.00  0.00    -0.265 OA
ATOM     10  H1  UNL     1      23.901  20.613   0.413  1.00  0.00     0.169 HD
BRANCH   8  11
HETATM   11  C5  UNL     1      22.129  18.781  -0.144  1.00  0.00     0.174 A 
HETATM   12  O3  UNL     1      21.128  18.823   0.688  1.00  0.00    -0.231 OA
HETATM   13  N2  UNL     1      20.985  17.689   1.298  1.00  0.00    -0.255 N 
HETATM   14  C6  UNL     1      21.934  16.804   0.870  1.00  0.00     0.128 A 
ATOM     15  H2  UNL     1      20.268  17.487   1.995  1.00  0.00     0.195 HD
HETATM   16  C8  UNL     1      22.674  17.501  -0.058  1.00  0.00     0.013 A 
HETATM   17  C9  UNL     1      23.827  17.052  -0.848  1.00  0.00     0.054 C 
BRANCH  14  18
HETATM   18  C7  UNL     1      22.099  15.435   1.321  1.00  0.00     0.283 C 
HETATM   19  N3  UNL     1      23.113  15.147   2.293  1.00  0.00    -0.056 NA
HETATM   20  O4  UNL     1      21.422  14.469   0.931  1.00  0.00    -0.269 OA
ENDBRANCH  14  18
ENDBRANCH   8  11
ENDBRANCH   2   7
BRANCH   1  21
HETATM   21  O1  UNL     1      26.235  20.565  -1.264  1.00  0.00    -0.351 OA
HETATM   22  C1  UNL     1      26.056  19.453  -2.144  1.00  0.00     0.210 C 
ENDBRANCH   1  21
BRANCH   6  23
HETATM   23  O6  UNL     1      27.572  22.439  -2.546  1.00  0.00    -0.352 OA
HETATM   24  C18 UNL     1      28.450  22.927  -1.492  1.00  0.00     0.210 C 
ENDBRANCH   6  23
BRANCH   5  25
HETATM   25  C13 UNL     1      26.207  24.915  -3.430  1.00  0.00     0.254 C 
HETATM   26  O5  UNL     1      25.629  26.066  -3.355  1.00  0.00    -0.268 OA
HETATM   27  N4  UNL     1      27.309  24.856  -4.259  1.00  0.00    -0.353 N 
ATOM     28  H4  UNL     1      27.811  23.976  -4.377  1.00  0.00     0.163 HD
BRANCH  27  29
HETATM   29  C14 UNL     1      27.763  26.060  -4.974  1.00  0.00     0.076 C 
HETATM   30  C15 UNL     1      29.263  26.232  -4.810  1.00  0.00     0.032 C 
HETATM   31  C16 UNL     1      27.502  25.853  -6.451  1.00  0.00     0.032 C 
ENDBRANCH  27  29
ENDBRANCH   5  25
TORSDOF 7
ENDMDL
MODEL 2
REMARK VINA RESULT: -7.013619867      3.805      5.871
REMARK  7 active torsions:
REMARK  status: ('A' for Active; 'I' for Inactive)
REMARK    1  A    between atoms: O1_2  and  C2_3 
REMARK    2  A    between atoms: C3_4  and  N1_5 
REMARK       I    between atoms: N1_5  and  C4_7 
REMARK    3  A    between atoms: C4_7  and  C5_9 
REMARK    4  A    between atoms: C6_13  and  C7_14 
REMARK    5  A    between atoms: C12_21  and  C13_22 
REMARK       I    between atoms: C13_22  and  N4_24 
REMARK    6  A    between atoms: N4_24  and  C14_26 
REMARK    7  A    between atoms: C17_29  and  O6_30 
ROOT
HETATM    1  C2  UNL     1      26.758  20.163  -1.217  1.00  0.00     0.129 A 
HETATM    2  C3  UNL     1      26.330  21.356  -1.820  1.00  0.00     0.071 A 
HETATM    3  C10 UNL     1      27.299  22.304  -1.994  1.00  0.00     0.034 A 
HETATM    4  C11 UNL     1      28.600  22.090  -1.606  1.00  0.00     0.022 A 
HETATM    5  C12 UNL     1      29.030  20.889  -1.002  1.00  0.00     0.068 A 
HETATM    6  C17 UNL     1      28.059  19.942  -0.824  1.00  0.00     0.119 A 
ENDROOT
BRANCH   2   7
HETATM    7  N1  UNL     1      24.976  21.464  -2.182  1.00  0.00    -0.319 N 
HETATM    8  C4  UNL     1      23.944  22.093  -1.467  1.00  0.00     0.282 C 
HETATM    9  O2  UNL     1      24.138  22.649  -0.376  1.00  0.00    -0.265 OA
ATOM     10  H1  UNL     1      24.713  21.035  -3.069  1.00  0.00     0.169 HD
BRANCH   8  11
HETATM   11  C5  UNL     1      22.569  22.099  -2.029  1.00  0.00     0.174 A 
HETATM   12  O3  UNL     1      21.942  23.079  -2.613  1.00  0.00    -0.231 OA
HETATM   13  N2  UNL     1      20.753  22.717  -2.976  1.00  0.00    -0.255 N 
HETATM   14  C6  UNL     1      20.534  21.413  -2.630  1.00  0.00     0.128 A 
ATOM     15  H2  UNL     1      20.079  23.317  -3.452  1.00  0.00     0.195 HD
HETATM   16  C8  UNL     1      21.700  21.010  -2.019  1.00  0.00     0.013 A 
HETATM   17  C9  UNL     1      22.040  19.701  -1.445  1.00  0.00     0.054 C 
BRANCH  14  18
HETATM   18  C7  UNL     1      19.323  20.651  -2.867  1.00  0.00     0.283 C 
HETATM   19  N3  UNL     1      18.118  21.046  -2.196  1.00  0.00    -0.056 NA
HETATM   20  O4  UNL     1      19.235  19.666  -3.619  1.00  0.00    -0.269 OA
ENDBRANCH  14  18
ENDBRANCH   8  11
ENDBRANCH   2   7
BRANCH   1  21
HETATM   21  O1  UNL     1      25.840  19.144  -1.000  1.00  0.00    -0.351 OA
HETATM   22  C1  UNL     1      25.195  19.144   0.275  1.00  0.00     0.210 C 
ENDBRANCH   1  21
BRANCH   6  23
HETATM   23  O6  UNL     1      28.320  18.699  -0.230  1.00  0.00    -0.352 OA
HETATM   24  C18 UNL     1      28.815  17.728  -1.197  1.00  0.00     0.210 C 
ENDBRANCH   6  23
BRANCH   5  25
HETATM   25  C13 UNL     1      30.430  20.719  -0.727  1.00  0.00     0.254 C 
HETATM   26  O5  UNL     1      31.231  21.159  -1.637  1.00  0.00    -0.268 OA
HETATM   27  N4  UNL     1      31.037  20.154   0.377  1.00  0.00    -0.353 N 
ATOM     28  H4  UNL     1      30.466  19.775   1.132  1.00  0.00     0.163 HD
BRANCH  27  29
HETATM   29  C14 UNL     1      32.504  20.099   0.469  1.00  0.00     0.076 C 
HETATM   30  C15 UNL     1      32.968  20.654   1.804  1.00  0.00     0.032 C 
HETATM   31  C16 UNL     1      32.920  18.643   0.427  1.00  0.00     0.032 C 
ENDBRANCH  27  29
ENDBRANCH   5  25
TORSDOF 7
ENDMDL
MODEL 3
REMARK VINA RESULT: -7.000835748      3.796      7.747
REMARK  7 active torsions:
REMARK  status: ('A' for Active; 'I' for Inactive)
REMARK    1  A    between atoms: O1_2  and  C2_3 
REMARK    2  A    between atoms: C3_4  and  N1_5 
REMARK       I    between atoms: N1_5  and  C4_7 
REMARK    3  A    between atoms: C4_7  and  C5_9 
REMARK    4  A    between atoms: C6_13  and  C7_14 
REMARK    5  A    between atoms: C12_21  and  C13_22 
REMARK       I    between atoms: C13_22  and  N4_24 
REMARK    6  A    between atoms: N4_24  and  C14_26 
REMARK    7  A    between atoms: C17_29  and  O6_30 
ROOT
HETATM    1  C2  UNL     1      23.710  19.231  -0.521  1.00  0.00     0.129 A 
HETATM    2  C3  UNL     1      24.704  20.167  -0.846  1.00  0.00     0.071 A 
HETATM    3  C10 UNL     1      24.299  21.196  -1.650  1.00  0.00     0.034 A 
HETATM    4  C11 UNL     1      23.004  21.299  -2.098  1.00  0.00     0.022 A 
HETATM    5  C12 UNL     1      22.004  20.358  -1.769  1.00  0.00     0.068 A 
HETATM    6  C17 UNL     1      22.411  19.326  -0.968  1.00  0.00     0.119 A 
ENDROOT
BRANCH   2   7
HETATM    7  N1  UNL     1      25.995  19.966  -0.327  1.00  0.00    -0.319 N 
HETATM    8  C4  UNL     1      27.066  19.286  -0.929  1.00  0.00     0.282 C 
HETATM    9  O2  UNL     1      26.972  18.762  -2.048  1.00  0.00    -0.265 OA
ATOM     10  H1  UNL     1      26.174  20.361   0.596  1.00  0.00     0.169 HD
BRANCH   8  11
HETATM   11  C5  UNL     1      28.361  19.187  -0.208  1.00  0.00     0.174 A 
HETATM   12  O3  UNL     1      28.765  18.245   0.595  1.00  0.00    -0.231 OA
HETATM   13  N2  UNL     1      29.955  18.496   1.041  1.00  0.00    -0.255 N 
HETATM   14  C6  UNL     1      30.411  19.675   0.522  1.00  0.00     0.128 A 
ATOM     15  H2  UNL     1      30.476  17.899   1.684  1.00  0.00     0.195 HD
HETATM   16  C8  UNL     1      29.389  20.125  -0.283  1.00  0.00     0.013 A 
HETATM   17  C9  UNL     1      29.319  21.346  -1.096  1.00  0.00     0.054 C 
BRANCH  14  18
HETATM   18  C7  UNL     1      31.697  20.291   0.786  1.00  0.00     0.283 C 
HETATM   19  N3  UNL     1      32.032  20.635   2.137  1.00  0.00    -0.056 NA
HETATM   20  O4  UNL     1      32.554  20.550  -0.076  1.00  0.00    -0.269 OA
ENDBRANCH  14  18
ENDBRANCH   8  11
ENDBRANCH   2   7
BRANCH   1  21
HETATM   21  O1  UNL     1      24.032  18.151   0.290  1.00  0.00    -0.351 OA
HETATM   22  C1  UNL     1      24.405  16.949  -0.387  1.00  0.00     0.210 C 
ENDBRANCH   1  21
BRANCH   6  23
HETATM   23  O6  UNL     1      21.542  18.304  -0.559  1.00  0.00    -0.352 OA
HETATM   24  C18 UNL     1      21.054  18.517   0.797  1.00  0.00     0.210 C 
ENDBRANCH   6  23
BRANCH   5  25
HETATM   25  C13 UNL     1      20.657  20.606  -2.199  1.00  0.00     0.254 C 
HETATM   26  O5  UNL     1      20.535  21.084  -3.392  1.00  0.00    -0.268 OA
HETATM   27  N4  UNL     1      19.474  20.402  -1.517  1.00  0.00    -0.353 N 
ATOM     28  H4  UNL     1      19.493  20.037  -0.565  1.00  0.00     0.163 HD
BRANCH  27  29
HETATM   29  C14 UNL     1      18.186  20.708  -2.160  1.00  0.00     0.076 C 
HETATM   30  C15 UNL     1      17.045  20.095  -1.366  1.00  0.00     0.032 C 
HETATM   31  C16 UNL     1      17.991  22.209  -2.125  1.00  0.00     0.032 C 
ENDBRANCH  27  29
ENDBRANCH   5  25
TORSDOF 7
ENDMDL
MODEL 4
REMARK VINA RESULT: -6.969341352      1.159      1.166
REMARK  7 active torsions:
REMARK  status: ('A' for Active; 'I' for Inactive)
REMARK    1  A    between atoms: O1_2  and  C2_3 
REMARK    2  A    between atoms: C3_4  and  N1_5 
REMARK       I    between atoms: N1_5  and  C4_7 
REMARK    3  A    between atoms: C4_7  and  C5_9 
REMARK    4  A    between atoms: C6_13  and  C7_14 
REMARK    5  A    between atoms: C12_21  and  C13_22 
REMARK       I    between atoms: C13_22  and  N4_24 
REMARK    6  A    between atoms: N4_24  and  C14_26 
REMARK    7  A    between atoms: C17_29  and  O6_30 
ROOT
HETATM    1  C2  UNL     1      25.927  21.450  -1.377  1.00  0.00     0.129 A 
HETATM    2  C3  UNL     1      24.733  21.718  -0.690  1.00  0.00     0.071 A 
HETATM    3  C10 UNL     1      24.450  23.042  -0.502  1.00  0.00     0.034 A 
HETATM    4  C11 UNL     1      25.284  24.034  -0.962  1.00  0.00     0.022 A 
HETATM    5  C12 UNL     1      26.483  23.763  -1.656  1.00  0.00     0.068 A 
HETATM    6  C17 UNL     1      26.767  22.437  -1.840  1.00  0.00     0.119 A 
ENDROOT
BRANCH   2   7
HETATM    7  N1  UNL     1      23.954  20.626  -0.269  1.00  0.00    -0.319 N 
HETATM    8  C4  UNL     1      22.711  20.212  -0.776  1.00  0.00     0.282 C 
HETATM    9  O2  UNL     1      22.144  20.808  -1.703  1.00  0.00    -0.265 OA
ATOM     10  H1  UNL     1      24.337  20.069   0.495  1.00  0.00     0.169 HD
BRANCH   8  11
HETATM   11  C5  UNL     1      22.048  19.020  -0.190  1.00  0.00     0.174 A 
HETATM   12  O3  UNL     1      20.992  18.979   0.571  1.00  0.00    -0.231 OA
HETATM   13  N2  UNL     1      20.700  17.759   0.893  1.00  0.00    -0.255 N 
HETATM   14  C6  UNL     1      21.599  16.898   0.329  1.00  0.00     0.128 A 
ATOM     15  H2  UNL     1      19.914  17.482   1.483  1.00  0.00     0.195 HD
HETATM   16  C8  UNL     1      22.469  17.704  -0.369  1.00  0.00     0.013 A 
HETATM   17  C9  UNL     1      23.637  17.326  -1.174  1.00  0.00     0.054 C 
BRANCH  14  18
HETATM   18  C7  UNL     1      21.605  15.454   0.460  1.00  0.00     0.283 C 
HETATM   19  N3  UNL     1      22.210  14.870   1.622  1.00  0.00    -0.056 NA
HETATM   20  O4  UNL     1      21.119  14.660  -0.363  1.00  0.00    -0.269 OA
ENDBRANCH  14  18
ENDBRANCH   8  11
ENDBRANCH   2   7
BRANCH   1  21
HETATM   21  O1  UNL     1      26.294  20.132  -1.612  1.00  0.00    -0.351 OA
HETATM   22  C1  UNL     1      26.899  19.445  -0.515  1.00  0.00     0.210 C 
ENDBRANCH   1  21
BRANCH   6  23
HETATM   23  O6  UNL     1      27.925  22.001  -2.500  1.00  0.00    -0.352 OA
HETATM   24  C18 UNL     1      29.110  22.136  -1.664  1.00  0.00     0.210 C 
ENDBRANCH   6  23
BRANCH   5  25
HETATM   25  C13 UNL     1      27.234  24.865  -2.189  1.00  0.00     0.254 C 
HETATM   26  O5  UNL     1      27.802  25.624  -1.313  1.00  0.00    -0.268 OA
HETATM   27  N4  UNL     1      27.436  25.224  -3.507  1.00  0.00    -0.353 N 
ATOM     28  H4  UNL     1      27.009  24.677  -4.254  1.00  0.00     0.163 HD
BRANCH  27  29
HETATM   29  C14 UNL     1      28.268  26.392  -3.837  1.00  0.00     0.076 C 
HETATM   30  C15 UNL     1      29.624  25.942  -4.352  1.00  0.00     0.032 C 
HETATM   31  C16 UNL     1      27.593  27.141  -4.967  1.00  0.00     0.032 C 
ENDBRANCH  27  29
ENDBRANCH   5  25
TORSDOF 7
ENDMDL
MODEL 5
REMARK VINA RESULT: -6.938937963      3.787      7.629
REMARK  7 active torsions:
REMARK  status: ('A' for Active; 'I' for Inactive)
REMARK    1  A    between atoms: O1_2  and  C2_3 
REMARK    2  A    between atoms: C3_4  and  N1_5 
REMARK       I    between atoms: N1_5  and  C4_7 
REMARK    3  A    between atoms: C4_7  and  C5_9 
REMARK    4  A    between atoms: C6_13  and  C7_14 
REMARK    5  A    between atoms: C12_21  and  C13_22 
REMARK       I    between atoms: C13_22  and  N4_24 
REMARK    6  A    between atoms: N4_24  and  C14_26 
REMARK    7  A    between atoms: C17_29  and  O6_30 
ROOT
HETATM    1  C2  UNL     1      24.756  20.829  -0.809  1.00  0.00     0.129 A 
HETATM    2  C3  UNL     1      25.212  19.697  -0.115  1.00  0.00     0.071 A 
HETATM    3  C10 UNL     1      24.250  18.782   0.211  1.00  0.00     0.034 A 
HETATM    4  C11 UNL     1      22.931  18.966  -0.129  1.00  0.00     0.022 A 
HETATM    5  C12 UNL     1      22.473  20.103  -0.829  1.00  0.00     0.068 A 
HETATM    6  C17 UNL     1      23.436  21.020  -1.151  1.00  0.00     0.119 A 
ENDROOT
BRANCH   2   7
HETATM    7  N1  UNL     1      26.585  19.610   0.175  1.00  0.00    -0.319 N 
HETATM    8  C4  UNL     1      27.554  18.836  -0.485  1.00  0.00     0.282 C 
HETATM    9  O2  UNL     1      27.274  18.106  -1.447  1.00  0.00    -0.265 OA
ATOM     10  H1  UNL     1      26.917  20.176   0.956  1.00  0.00     0.169 HD
BRANCH   8  11
HETATM   11  C5  UNL     1      28.964  18.887  -0.021  1.00  0.00     0.174 A 
HETATM   12  O3  UNL     1      29.627  17.983   0.641  1.00  0.00    -0.231 OA
HETATM   13  N2  UNL     1      30.839  18.375   0.873  1.00  0.00    -0.255 N 
HETATM   14  C6  UNL     1      31.038  19.620   0.344  1.00  0.00     0.128 A 
ATOM     15  H2  UNL     1      31.542  17.834   1.376  1.00  0.00     0.195 HD
HETATM   16  C8  UNL     1      29.834  19.954  -0.233  1.00  0.00     0.013 A 
HETATM   17  C9  UNL     1      29.461  21.179  -0.952  1.00  0.00     0.054 C 
BRANCH  14  18
HETATM   18  C7  UNL     1      32.265  20.392   0.399  1.00  0.00     0.283 C 
HETATM   19  N3  UNL     1      32.812  20.724   1.682  1.00  0.00    -0.056 NA
HETATM   20  O4  UNL     1      32.897  20.798  -0.590  1.00  0.00    -0.269 OA
ENDBRANCH  14  18
ENDBRANCH   8  11
ENDBRANCH   2   7
BRANCH   1  21
HETATM   21  O1  UNL     1      25.664  21.811  -1.179  1.00  0.00    -0.351 OA
HETATM   22  C1  UNL     1      26.215  21.690  -2.492  1.00  0.00     0.210 C 
ENDBRANCH   1  21
BRANCH   6  23
HETATM   23  O6  UNL     1      23.144  22.208  -1.837  1.00  0.00    -0.352 OA
HETATM   24  C18 UNL     1      23.085  23.353  -0.938  1.00  0.00     0.210 C 
ENDBRANCH   6  23
BRANCH   5  25
HETATM   25  C13 UNL     1      21.095  20.156  -1.229  1.00  0.00     0.254 C 
HETATM   26  O5  UNL     1      20.299  19.374  -0.581  1.00  0.00    -0.268 OA
HETATM   27  N4  UNL     1      20.502  20.929  -2.208  1.00  0.00    -0.353 N 
ATOM     28  H4  UNL     1      21.071  21.563  -2.768  1.00  0.00     0.163 HD
BRANCH  27  29
HETATM   29  C14 UNL     1      19.052  20.843  -2.443  1.00  0.00     0.076 C 
HETATM   30  C15 UNL     1      18.463  22.234  -2.599  1.00  0.00     0.032 C 
HETATM   31  C16 UNL     1      18.834  20.121  -3.756  1.00  0.00     0.032 C 
ENDBRANCH  27  29
ENDBRANCH   5  25
TORSDOF 7
ENDMDL
