MODEL 1
REMARK VINA RESULT: -8.007805635      0.000      0.000
REMARK  3 active torsions:
REMARK  status: ('A' for Active; 'I' for Inactive)
REMARK    1  A    between atoms: C2_2  and  N1_3 
REMARK    2  A    between atoms: C2_2  and  C3_7 
REMARK       I    between atoms: C3_7  and  N2_9 
REMARK    3  A    between atoms: N2_9  and  C4_11 
ROOT
HETATM    1  C4  UNL     1      -7.274 -21.058  21.264  1.00  0.00     0.033 C 
HETATM    2  C5  UNL     1      -7.559 -22.073  22.330  1.00  0.00     0.031 C 
HETATM    3  C6  UNL     1      -8.639 -21.739  23.281  1.00  0.00     0.007 C 
HETATM    4  C7  UNL     1      -9.725 -20.855  22.803  1.00  0.00    -0.014 C 
HETATM    5  C8  UNL     1      -9.388 -19.372  22.967  1.00  0.00     0.009 C 
HETATM    6  C9  UNL     1      -8.574 -18.942  21.776  1.00  0.00    -0.012 C 
HETATM    7  C10 UNL     1      -9.329 -19.118  20.495  1.00  0.00     0.009 C 
HETATM    8  C11 UNL     1      -9.551 -20.582  20.295  1.00  0.00    -0.012 C 
HETATM    9  C12 UNL     1     -10.277 -21.163  21.456  1.00  0.00     0.009 C 
HETATM   10  C13 UNL     1      -8.245 -21.320  20.130  1.00  0.00     0.035 C 
HETATM   11  C14 UNL     1      -7.273 -19.654  21.743  1.00  0.00     0.035 C 
ENDROOT
BRANCH   1  12
HETATM   12  N2  UNL     1      -5.955 -21.347  20.731  1.00  0.00    -0.350 N 
HETATM   13  C3  UNL     1      -5.299 -20.615  19.741  1.00  0.00     0.248 C 
HETATM   14  O1  UNL     1      -5.795 -19.607  19.196  1.00  0.00    -0.271 OA
ATOM     15  H2  UNL     1      -5.465 -22.156  21.114  1.00  0.00     0.163 HD
BRANCH  13  16
HETATM   16  C2  UNL     1      -3.947 -21.028  19.291  1.00  0.00     0.270 C 
HETATM   17  C1  UNL     1      -3.778 -22.521  19.482  1.00  0.00     0.050 C 
BRANCH  16  18
HETATM   18  N1  UNL     1      -3.690 -20.677  17.915  1.00  0.00    -0.067 N 
ATOM     19  H13 UNL     1      -2.705 -20.779  17.671  1.00  0.00     0.275 HD
ATOM     20  H12 UNL     1      -4.077 -21.362  17.266  1.00  0.00     0.275 HD
ATOM     21  H11 UNL     1      -4.035 -19.735  17.727  1.00  0.00     0.275 HD
ENDBRANCH  16  18
ENDBRANCH  13  16
ENDBRANCH   1  12
TORSDOF 3
ENDMDL
MODEL 2
REMARK VINA RESULT: -7.840164132      1.158      1.163
REMARK  3 active torsions:
REMARK  status: ('A' for Active; 'I' for Inactive)
REMARK    1  A    between atoms: C2_2  and  N1_3 
REMARK    2  A    between atoms: C2_2  and  C3_7 
REMARK       I    between atoms: C3_7  and  N2_9 
REMARK    3  A    between atoms: N2_9  and  C4_11 
ROOT
HETATM    1  C4  UNL     1      -7.388 -21.114  21.046  1.00  0.00     0.033 C 
HETATM    2  C5  UNL     1      -7.475 -21.985  22.262  1.00  0.00     0.031 C 
HETATM    3  C6  UNL     1      -8.357 -21.509  23.348  1.00  0.00     0.007 C 
HETATM    4  C7  UNL     1      -9.508 -20.658  22.973  1.00  0.00    -0.014 C 
HETATM    5  C8  UNL     1      -9.138 -19.176  22.889  1.00  0.00     0.009 C 
HETATM    6  C9  UNL     1      -8.557 -18.916  21.524  1.00  0.00    -0.012 C 
HETATM    7  C10 UNL     1      -9.539 -19.222  20.435  1.00  0.00     0.009 C 
HETATM    8  C11 UNL     1      -9.803 -20.693  20.462  1.00  0.00    -0.012 C 
HETATM    9  C12 UNL     1     -10.303 -21.109  21.799  1.00  0.00     0.009 C 
HETATM   10  C13 UNL     1      -8.555 -21.482  20.151  1.00  0.00     0.035 C 
HETATM   11  C14 UNL     1      -7.289 -19.663  21.339  1.00  0.00     0.035 C 
ENDROOT
BRANCH   1  12
HETATM   12  N2  UNL     1      -6.193 -21.503  20.318  1.00  0.00    -0.350 N 
HETATM   13  C3  UNL     1      -4.880 -21.314  20.750  1.00  0.00     0.248 C 
HETATM   14  O1  UNL     1      -4.590 -20.775  21.838  1.00  0.00    -0.271 OA
ATOM     15  H2  UNL     1      -6.325 -21.953  19.412  1.00  0.00     0.163 HD
BRANCH  13  16
HETATM   16  C2  UNL     1      -3.751 -21.763  19.898  1.00  0.00     0.270 C 
HETATM   17  C1  UNL     1      -2.591 -22.193  20.771  1.00  0.00     0.050 C 
BRANCH  16  18
HETATM   18  N1  UNL     1      -4.123 -22.839  19.010  1.00  0.00    -0.067 N 
ATOM     19  H13 UNL     1      -4.271 -23.715  19.511  1.00  0.00     0.275 HD
ATOM     20  H12 UNL     1      -5.065 -22.719  18.636  1.00  0.00     0.275 HD
ATOM     21  H11 UNL     1      -3.427 -22.935  18.270  1.00  0.00     0.275 HD
ENDBRANCH  16  18
ENDBRANCH  13  16
ENDBRANCH   1  12
TORSDOF 3
ENDMDL
MODEL 3
REMARK VINA RESULT: -7.698479942      1.335      1.387
REMARK  3 active torsions:
REMARK  status: ('A' for Active; 'I' for Inactive)
REMARK    1  A    between atoms: C2_2  and  N1_3 
REMARK    2  A    between atoms: C2_2  and  C3_7 
REMARK       I    between atoms: C3_7  and  N2_9 
REMARK    3  A    between atoms: N2_9  and  C4_11 
ROOT
HETATM    1  C4  UNL     1      -7.095 -21.071  21.142  1.00  0.00     0.033 C 
HETATM    2  C5  UNL     1      -7.169 -21.928  22.370  1.00  0.00     0.031 C 
HETATM    3  C6  UNL     1      -8.129 -21.504  23.409  1.00  0.00     0.007 C 
HETATM    4  C7  UNL     1      -9.323 -20.748  22.971  1.00  0.00    -0.014 C 
HETATM    5  C8  UNL     1      -9.062 -19.244  22.876  1.00  0.00     0.009 C 
HETATM    6  C9  UNL     1      -8.445 -18.961  21.532  1.00  0.00    -0.012 C 
HETATM    7  C10 UNL     1      -9.353 -19.356  20.409  1.00  0.00     0.009 C 
HETATM    8  C11 UNL     1      -9.507 -20.842  20.451  1.00  0.00    -0.012 C 
HETATM    9  C12 UNL     1     -10.032 -21.275  21.774  1.00  0.00     0.009 C 
HETATM   10  C13 UNL     1      -8.191 -21.539  20.206  1.00  0.00     0.035 C 
HETATM   11  C14 UNL     1      -7.118 -19.613  21.413  1.00  0.00     0.035 C 
ENDROOT
BRANCH   1  12
HETATM   12  N2  UNL     1      -5.844 -21.379  20.472  1.00  0.00    -0.350 N 
HETATM   13  C3  UNL     1      -4.572 -21.285  21.038  1.00  0.00     0.248 C 
HETATM   14  O1  UNL     1      -4.375 -20.915  22.214  1.00  0.00    -0.271 OA
ATOM     15  H2  UNL     1      -5.900 -21.691  19.502  1.00  0.00     0.163 HD
BRANCH  13  16
HETATM   16  C2  UNL     1      -3.378 -21.634  20.231  1.00  0.00     0.270 C 
HETATM   17  C1  UNL     1      -3.491 -21.014  18.854  1.00  0.00     0.050 C 
BRANCH  16  18
HETATM   18  N1  UNL     1      -2.146 -21.217  20.858  1.00  0.00    -0.067 N 
ATOM     19  H13 UNL     1      -2.300 -20.846  21.796  1.00  0.00     0.275 HD
ATOM     20  H12 UNL     1      -1.555 -22.010  21.107  1.00  0.00     0.275 HD
ATOM     21  H11 UNL     1      -1.659 -20.551  20.258  1.00  0.00     0.275 HD
ENDBRANCH  16  18
ENDBRANCH  13  16
ENDBRANCH   1  12
TORSDOF 3
ENDMDL
MODEL 4
REMARK VINA RESULT: -7.681045866      2.471      3.816
REMARK  3 active torsions:
REMARK  status: ('A' for Active; 'I' for Inactive)
REMARK    1  A    between atoms: C2_2  and  N1_3 
REMARK    2  A    between atoms: C2_2  and  C3_7 
REMARK       I    between atoms: C3_7  and  N2_9 
REMARK    3  A    between atoms: N2_9  and  C4_11 
ROOT
HETATM    1  C4  UNL     1      -7.626 -21.404  21.522  1.00  0.00     0.033 C 
HETATM    2  C5  UNL     1      -7.053 -20.683  20.339  1.00  0.00     0.031 C 
HETATM    3  C6  UNL     1      -7.999 -19.876  19.543  1.00  0.00     0.007 C 
HETATM    4  C7  UNL     1      -9.179 -19.317  20.238  1.00  0.00    -0.014 C 
HETATM    5  C8  UNL     1     -10.354 -20.296  20.278  1.00  0.00     0.009 C 
HETATM    6  C9  UNL     1     -10.154 -21.219  21.451  1.00  0.00    -0.012 C 
HETATM    7  C10 UNL     1     -10.118 -20.470  22.747  1.00  0.00     0.009 C 
HETATM    8  C11 UNL     1      -8.901 -19.601  22.735  1.00  0.00    -0.012 C 
HETATM    9  C12 UNL     1      -8.924 -18.687  21.562  1.00  0.00     0.009 C 
HETATM   10  C13 UNL     1      -7.637 -20.423  22.678  1.00  0.00     0.035 C 
HETATM   11  C14 UNL     1      -8.938 -22.048  21.268  1.00  0.00     0.035 C 
ENDROOT
BRANCH   1  12
HETATM   12  N2  UNL     1      -6.684 -22.444  21.895  1.00  0.00    -0.350 N 
HETATM   13  C3  UNL     1      -6.724 -23.195  23.070  1.00  0.00     0.248 C 
HETATM   14  O1  UNL     1      -7.599 -23.043  23.947  1.00  0.00    -0.271 OA
ATOM     15  H2  UNL     1      -5.928 -22.644  21.240  1.00  0.00     0.163 HD
BRANCH  13  16
HETATM   16  C2  UNL     1      -5.691 -24.230  23.320  1.00  0.00     0.270 C 
HETATM   17  C1  UNL     1      -4.718 -24.273  22.160  1.00  0.00     0.050 C 
BRANCH  16  18
HETATM   18  N1  UNL     1      -4.975 -24.010  24.554  1.00  0.00    -0.067 N 
ATOM     19  H13 UNL     1      -5.533 -24.260  25.370  1.00  0.00     0.275 HD
ATOM     20  H12 UNL     1      -4.216 -24.680  24.681  1.00  0.00     0.275 HD
ATOM     21  H11 UNL     1      -4.644 -23.046  24.597  1.00  0.00     0.275 HD
ENDBRANCH  16  18
ENDBRANCH  13  16
ENDBRANCH   1  12
TORSDOF 3
ENDMDL
MODEL 5
REMARK VINA RESULT: -7.646191020      1.149      2.435
REMARK  3 active torsions:
REMARK  status: ('A' for Active; 'I' for Inactive)
REMARK    1  A    between atoms: C2_2  and  N1_3 
REMARK    2  A    between atoms: C2_2  and  C3_7 
REMARK       I    between atoms: C3_7  and  N2_9 
REMARK    3  A    between atoms: N2_9  and  C4_11 
ROOT
HETATM    1  C4  UNL     1      -7.326 -20.491  20.310  1.00  0.00     0.033 C 
HETATM    2  C5  UNL     1      -8.244 -19.761  19.377  1.00  0.00     0.031 C 
HETATM    3  C6  UNL     1      -9.678 -19.768  19.730  1.00  0.00     0.007 C 
HETATM    4  C7  UNL     1     -10.032 -19.885  21.162  1.00  0.00    -0.014 C 
HETATM    5  C8  UNL     1     -10.110 -21.339  21.629  1.00  0.00     0.009 C 
HETATM    6  C9  UNL     1      -8.718 -21.794  21.981  1.00  0.00    -0.012 C 
HETATM    7  C10 UNL     1      -8.129 -20.972  23.085  1.00  0.00     0.009 C 
HETATM    8  C11 UNL     1      -7.955 -19.579  22.572  1.00  0.00    -0.012 C 
HETATM    9  C12 UNL     1      -9.255 -19.031  22.102  1.00  0.00     0.009 C 
HETATM   10  C13 UNL     1      -6.973 -19.531  21.428  1.00  0.00     0.035 C 
HETATM   11  C14 UNL     1      -7.846 -21.798  20.781  1.00  0.00     0.035 C 
ENDROOT
BRANCH   1  12
HETATM   12  N2  UNL     1      -6.086 -20.738  19.594  1.00  0.00    -0.350 N 
HETATM   13  C3  UNL     1      -4.838 -20.954  20.179  1.00  0.00     0.248 C 
HETATM   14  O1  UNL     1      -4.654 -20.956  21.414  1.00  0.00    -0.271 OA
ATOM     15  H2  UNL     1      -6.132 -20.755  18.576  1.00  0.00     0.163 HD
BRANCH  13  16
HETATM   16  C2  UNL     1      -3.653 -21.195  19.321  1.00  0.00     0.270 C 
HETATM   17  C1  UNL     1      -3.312 -22.670  19.320  1.00  0.00     0.050 C 
BRANCH  16  18
HETATM   18  N1  UNL     1      -3.848 -20.734  17.966  1.00  0.00    -0.067 N 
ATOM     19  H13 UNL     1      -3.000 -20.324  17.575  1.00  0.00     0.275 HD
ATOM     20  H12 UNL     1      -3.956 -21.508  17.310  1.00  0.00     0.275 HD
ATOM     21  H11 UNL     1      -4.637 -20.089  17.929  1.00  0.00     0.275 HD
ENDBRANCH  16  18
ENDBRANCH  13  16
ENDBRANCH   1  12
TORSDOF 3
ENDMDL
