MODEL 1
REMARK VINA RESULT: -7.893867405      0.000      0.000
REMARK  4 active torsions:
REMARK  status: ('A' for Active; 'I' for Inactive)
REMARK    1  A    between atoms: C7_7  and  C8_8 
REMARK    2  A    between atoms: C8_8  and  C11_11 
REMARK    3  A    between atoms: C11_11  and  O1_12 
REMARK    4  A    between atoms: C14_16  and  O2_18 
ROOT
HETATM    1  C1  UNL     1      -7.119 -22.553  23.741  1.00  0.00     0.015 C 
HETATM    2  C2  UNL     1      -6.300 -22.116  22.511  1.00  0.00    -0.044 C 
HETATM    3  C3  UNL     1      -4.875 -22.003  23.022  1.00  0.00     0.015 C 
HETATM    4  C4  UNL     1      -6.452 -23.120  21.427  1.00  0.00     0.010 C 
HETATM    5  C5  UNL     1      -6.570 -22.642  20.034  1.00  0.00     0.009 C 
HETATM    6  C6  UNL     1      -7.244 -21.271  19.899  1.00  0.00     0.025 C 
HETATM    7  C7  UNL     1      -8.012 -21.090  21.180  1.00  0.00     0.007 C 
HETATM    8  C12 UNL     1      -6.885 -20.776  22.109  1.00  0.00     0.001 C 
HETATM    9  C13 UNL     1      -5.823 -20.064  21.301  1.00  0.00     0.043 C 
HETATM   10  C14 UNL     1      -6.142 -20.264  19.842  1.00  0.00     0.059 C 
HETATM   11  C15 UNL     1      -4.928 -20.733  19.061  1.00  0.00     0.046 C 
ENDROOT
BRANCH   7  12
HETATM   12  C8  UNL     1      -9.169 -20.199  21.181  1.00  0.00    -0.022 C 
HETATM   13  C9  UNL     1      -9.565 -19.838  19.746  1.00  0.00     0.017 C 
HETATM   14  C10 UNL     1      -9.196 -19.034  22.093  1.00  0.00     0.017 C 
BRANCH  12  15
HETATM   15  C11 UNL     1     -10.383 -21.057  21.621  1.00  0.00     0.173 C 
BRANCH  15  16
HETATM   16  O1  UNL     1     -10.457 -21.026  23.027  1.00  0.00    -0.400 OA
ATOM     17  H1  UNL     1     -10.647 -20.133  23.293  1.00  0.00     0.209 HD
ENDBRANCH  15  16
ENDBRANCH  12  15
ENDBRANCH   7  12
BRANCH  10  18
HETATM   18  O2  UNL     1      -6.497 -19.073  19.216  1.00  0.00    -0.390 OA
ATOM     19  H2  UNL     1      -5.780 -18.457  19.124  1.00  0.00     0.210 HD
ENDBRANCH  10  18
TORSDOF 4
ENDMDL
MODEL 2
REMARK VINA RESULT: -7.844640713      1.058      1.403
REMARK  4 active torsions:
REMARK  status: ('A' for Active; 'I' for Inactive)
REMARK    1  A    between atoms: C7_7  and  C8_8 
REMARK    2  A    between atoms: C8_8  and  C11_11 
REMARK    3  A    between atoms: C11_11  and  O1_12 
REMARK    4  A    between atoms: C14_16  and  O2_18 
ROOT
HETATM    1  C1  UNL     1      -6.995 -22.405  23.966  1.00  0.00     0.015 C 
HETATM    2  C2  UNL     1      -6.249 -22.013  22.677  1.00  0.00    -0.044 C 
HETATM    3  C3  UNL     1      -4.814 -21.787  23.120  1.00  0.00     0.015 C 
HETATM    4  C4  UNL     1      -6.383 -23.099  21.671  1.00  0.00     0.010 C 
HETATM    5  C5  UNL     1      -6.580 -22.729  20.255  1.00  0.00     0.009 C 
HETATM    6  C6  UNL     1      -7.335 -21.410  20.052  1.00  0.00     0.025 C 
HETATM    7  C7  UNL     1      -8.065 -21.180  21.348  1.00  0.00     0.007 C 
HETATM    8  C12 UNL     1      -6.924 -20.739  22.206  1.00  0.00     0.001 C 
HETATM    9  C13 UNL     1      -5.935 -20.030  21.309  1.00  0.00     0.043 C 
HETATM   10  C14 UNL     1      -6.296 -20.352  19.881  1.00  0.00     0.059 C 
HETATM   11  C15 UNL     1      -5.086 -20.808  19.085  1.00  0.00     0.046 C 
ENDROOT
BRANCH   7  12
HETATM   12  C8  UNL     1      -9.270 -20.355  21.336  1.00  0.00    -0.022 C 
HETATM   13  C9  UNL     1      -8.937 -18.921  21.760  1.00  0.00     0.017 C 
HETATM   14  C10 UNL     1     -10.512 -20.863  21.957  1.00  0.00     0.017 C 
BRANCH  12  15
HETATM   15  C11 UNL     1      -9.644 -20.148  19.845  1.00  0.00     0.173 C 
BRANCH  15  16
HETATM   16  O1  UNL     1      -9.557 -18.773  19.558  1.00  0.00    -0.400 OA
ATOM     17  H1  UNL     1      -8.968 -18.375  20.189  1.00  0.00     0.209 HD
ENDBRANCH  15  16
ENDBRANCH  12  15
ENDBRANCH   7  12
BRANCH  10  18
HETATM   18  O2  UNL     1      -6.741 -19.229  19.189  1.00  0.00    -0.390 OA
ATOM     19  H2  UNL     1      -6.086 -18.548  19.096  1.00  0.00     0.210 HD
ENDBRANCH  10  18
TORSDOF 4
ENDMDL
MODEL 3
REMARK VINA RESULT: -7.719712383      0.595      1.213
REMARK  4 active torsions:
REMARK  status: ('A' for Active; 'I' for Inactive)
REMARK    1  A    between atoms: C7_7  and  C8_8 
REMARK    2  A    between atoms: C8_8  and  C11_11 
REMARK    3  A    between atoms: C11_11  and  O1_12 
REMARK    4  A    between atoms: C14_16  and  O2_18 
ROOT
HETATM    1  C1  UNL     1      -7.064 -22.402  23.865  1.00  0.00     0.015 C 
HETATM    2  C2  UNL     1      -6.267 -22.037  22.598  1.00  0.00    -0.044 C 
HETATM    3  C3  UNL     1      -4.835 -21.885  23.079  1.00  0.00     0.015 C 
HETATM    4  C4  UNL     1      -6.429 -23.108  21.581  1.00  0.00     0.010 C 
HETATM    5  C5  UNL     1      -6.572 -22.719  20.163  1.00  0.00     0.009 C 
HETATM    6  C6  UNL     1      -7.256 -21.362  19.953  1.00  0.00     0.025 C 
HETATM    7  C7  UNL     1      -8.006 -21.106  21.232  1.00  0.00     0.007 C 
HETATM    8  C12 UNL     1      -6.867 -20.728  22.122  1.00  0.00     0.001 C 
HETATM    9  C13 UNL     1      -5.822 -20.062  21.255  1.00  0.00     0.043 C 
HETATM   10  C14 UNL     1      -6.162 -20.355  19.816  1.00  0.00     0.059 C 
HETATM   11  C15 UNL     1      -4.956 -20.865  19.047  1.00  0.00     0.046 C 
ENDROOT
BRANCH   7  12
HETATM   12  C8  UNL     1      -9.169 -20.223  21.196  1.00  0.00    -0.022 C 
HETATM   13  C9  UNL     1     -10.290 -20.784  22.077  1.00  0.00     0.017 C 
HETATM   14  C10 UNL     1      -9.661 -19.712  19.898  1.00  0.00     0.017 C 
BRANCH  12  15
HETATM   15  C11 UNL     1      -8.775 -18.948  21.986  1.00  0.00     0.173 C 
BRANCH  15  16
HETATM   16  O1  UNL     1      -9.464 -18.962  23.214  1.00  0.00    -0.400 OA
ATOM     17  H1  UNL     1     -10.395 -18.897  23.032  1.00  0.00     0.209 HD
ENDBRANCH  15  16
ENDBRANCH  12  15
ENDBRANCH   7  12
BRANCH  10  18
HETATM   18  O2  UNL     1      -6.534 -19.207  19.123  1.00  0.00    -0.390 OA
ATOM     19  H2  UNL     1      -7.431 -18.935  19.282  1.00  0.00     0.210 HD
ENDBRANCH  10  18
TORSDOF 4
ENDMDL
MODEL 4
REMARK VINA RESULT: -7.489407595      1.194      3.350
REMARK  4 active torsions:
REMARK  status: ('A' for Active; 'I' for Inactive)
REMARK    1  A    between atoms: C7_7  and  C8_8 
REMARK    2  A    between atoms: C8_8  and  C11_11 
REMARK    3  A    between atoms: C11_11  and  O1_12 
REMARK    4  A    between atoms: C14_16  and  O2_18 
ROOT
HETATM    1  C1  UNL     1      -6.718 -22.272  18.480  1.00  0.00     0.015 C 
HETATM    2  C2  UNL     1      -6.182 -22.303  19.923  1.00  0.00    -0.044 C 
HETATM    3  C3  UNL     1      -5.463 -23.635  20.035  1.00  0.00     0.015 C 
HETATM    4  C4  UNL     1      -5.286 -21.138  20.149  1.00  0.00     0.010 C 
HETATM    5  C5  UNL     1      -5.348 -20.442  21.450  1.00  0.00     0.009 C 
HETATM    6  C6  UNL     1      -6.731 -20.476  22.112  1.00  0.00     0.025 C 
HETATM    7  C7  UNL     1      -7.689 -20.771  20.990  1.00  0.00     0.007 C 
HETATM    8  C12 UNL     1      -7.416 -22.228  20.801  1.00  0.00     0.001 C 
HETATM    9  C13 UNL     1      -7.024 -22.790  22.149  1.00  0.00     0.043 C 
HETATM   10  C14 UNL     1      -6.716 -21.629  23.060  1.00  0.00     0.059 C 
HETATM   11  C15 UNL     1      -5.390 -21.814  23.775  1.00  0.00     0.046 C 
ENDROOT
BRANCH   7  12
HETATM   12  C8  UNL     1      -9.080 -20.348  21.129  1.00  0.00    -0.022 C 
HETATM   13  C9  UNL     1      -9.181 -19.155  22.085  1.00  0.00     0.017 C 
HETATM   14  C10 UNL     1     -10.134 -21.360  21.363  1.00  0.00     0.017 C 
BRANCH  12  15
HETATM   15  C11 UNL     1      -9.474 -19.689  19.782  1.00  0.00     0.173 C 
BRANCH  15  16
HETATM   16  O1  UNL     1      -8.293 -19.300  19.122  1.00  0.00    -0.400 OA
ATOM     17  H1  UNL     1      -8.007 -20.024  18.576  1.00  0.00     0.209 HD
ENDBRANCH  15  16
ENDBRANCH  12  15
ENDBRANCH   7  12
BRANCH  10  18
HETATM   18  O2  UNL     1      -7.637 -21.520  24.098  1.00  0.00    -0.390 OA
ATOM     19  H2  UNL     1      -8.219 -20.772  24.020  1.00  0.00     0.210 HD
ENDBRANCH  10  18
TORSDOF 4
ENDMDL
MODEL 5
REMARK VINA RESULT: -7.362635342      1.792      3.945
REMARK  4 active torsions:
REMARK  status: ('A' for Active; 'I' for Inactive)
REMARK    1  A    between atoms: C7_7  and  C8_8 
REMARK    2  A    between atoms: C8_8  and  C11_11 
REMARK    3  A    between atoms: C11_11  and  O1_12 
REMARK    4  A    between atoms: C14_16  and  O2_18 
ROOT
HETATM    1  C1  UNL     1     -10.638 -20.900  22.285  1.00  0.00     0.015 C 
HETATM    2  C2  UNL     1      -9.525 -20.396  21.347  1.00  0.00    -0.044 C 
HETATM    3  C3  UNL     1     -10.184 -20.312  19.982  1.00  0.00     0.015 C 
HETATM    4  C4  UNL     1      -9.020 -19.085  21.831  1.00  0.00     0.010 C 
HETATM    5  C5  UNL     1      -7.570 -18.816  21.753  1.00  0.00     0.009 C 
HETATM    6  C6  UNL     1      -6.692 -20.066  21.893  1.00  0.00     0.025 C 
HETATM    7  C7  UNL     1      -7.575 -21.083  22.565  1.00  0.00     0.007 C 
HETATM    8  C12 UNL     1      -8.447 -21.461  21.413  1.00  0.00     0.001 C 
HETATM    9  C13 UNL     1      -7.618 -21.317  20.156  1.00  0.00     0.043 C 
HETATM   10  C14 UNL     1      -6.385 -20.523  20.505  1.00  0.00     0.059 C 
HETATM   11  C15 UNL     1      -6.153 -19.387  19.526  1.00  0.00     0.046 C 
ENDROOT
BRANCH   7  12
HETATM   12  C8  UNL     1      -6.947 -22.157  23.330  1.00  0.00    -0.022 C 
HETATM   13  C9  UNL     1      -7.916 -22.692  24.389  1.00  0.00     0.017 C 
HETATM   14  C10 UNL     1      -5.572 -21.982  23.847  1.00  0.00     0.017 C 
BRANCH  12  15
HETATM   15  C11 UNL     1      -6.844 -23.374  22.374  1.00  0.00     0.173 C 
BRANCH  15  16
HETATM   16  O1  UNL     1      -5.483 -23.594  22.089  1.00  0.00    -0.400 OA
ATOM     17  H1  UNL     1      -4.975 -22.933  22.544  1.00  0.00     0.209 HD
ENDBRANCH  15  16
ENDBRANCH  12  15
ENDBRANCH   7  12
BRANCH  10  18
HETATM   18  O2  UNL     1      -5.226 -21.286  20.406  1.00  0.00    -0.390 OA
ATOM     19  H2  UNL     1      -5.258 -21.948  19.725  1.00  0.00     0.210 HD
ENDBRANCH  10  18
TORSDOF 4
ENDMDL
