MODEL 1
REMARK VINA RESULT: -7.424785360      0.000      0.000
REMARK  4 active torsions:
REMARK  status: ('A' for Active; 'I' for Inactive)
REMARK       I    between atoms: C1_2  and  N1_3 
REMARK    1  A    between atoms: C1_2  and  O2_12 
REMARK    2  A    between atoms: N1_3  and  C2_5 
REMARK    3  A    between atoms: O2_12  and  N2_13 
REMARK       I    between atoms: N2_13  and  C9_15 
REMARK    4  A    between atoms: C9_15  and  C10_17 
ROOT
HETATM    1  O1  UNL     1      -5.916 -21.705  18.865  1.00  0.00    -0.236 OA
HETATM    2  C1  UNL     1      -5.556 -20.597  19.369  1.00  0.00     0.383 C 
HETATM    3  N1  UNL     1      -6.396 -19.859  20.235  1.00  0.00    -0.331 N 
ATOM      4  H1  UNL     1      -6.074 -18.972  20.623  1.00  0.00     0.165 HD
ENDROOT
BRANCH   2   5
HETATM    5  O2  UNL     1      -4.285 -20.152  19.017  1.00  0.00    -0.178 OA
BRANCH   5   6
HETATM    6  N2  UNL     1      -3.576 -20.622  17.955  1.00  0.00    -0.224 N 
HETATM    7  C9  UNL     1      -2.171 -20.809  18.017  1.00  0.00     0.245 C 
HETATM    8  O3  UNL     1      -1.554 -20.544  19.053  1.00  0.00    -0.271 OA
ATOM      9  H2  UNL     1      -4.069 -20.846  17.090  1.00  0.00     0.198 HD
BRANCH   7  10
HETATM   10  C10 UNL     1      -1.462 -21.323  16.820  1.00  0.00     0.080 A 
HETATM   11  C11 UNL     1      -1.696 -20.662  15.503  1.00  0.00     0.015 A 
HETATM   12  C12 UNL     1      -0.441 -20.377  16.269  1.00  0.00     0.015 A 
ENDBRANCH   7  10
ENDBRANCH   5   6
ENDBRANCH   2   5
BRANCH   3  13
HETATM   13  C2  UNL     1      -7.709 -20.359  20.574  1.00  0.00     0.086 C 
HETATM   14  C3  UNL     1      -8.711 -19.732  19.668  1.00  0.00     0.025 C 
HETATM   15  C4  UNL     1     -10.086 -19.609  20.237  1.00  0.00     0.002 C 
HETATM   16  C5  UNL     1     -10.537 -20.774  21.043  1.00  0.00     0.000 C 
HETATM   17  C6  UNL     1     -10.231 -20.627  22.533  1.00  0.00     0.000 C 
HETATM   18  C7  UNL     1      -8.766 -20.992  22.691  1.00  0.00     0.002 C 
HETATM   19  C8  UNL     1      -7.959 -19.904  22.019  1.00  0.00     0.025 C 
ENDBRANCH   3  13
TORSDOF 4
ENDMDL
MODEL 2
REMARK VINA RESULT: -7.316684574      3.980      5.820
REMARK  4 active torsions:
REMARK  status: ('A' for Active; 'I' for Inactive)
REMARK       I    between atoms: C1_2  and  N1_3 
REMARK    1  A    between atoms: C1_2  and  O2_12 
REMARK    2  A    between atoms: N1_3  and  C2_5 
REMARK    3  A    between atoms: O2_12  and  N2_13 
REMARK       I    between atoms: N2_13  and  C9_15 
REMARK    4  A    between atoms: C9_15  and  C10_17 
ROOT
HETATM    1  O1  UNL     1      -4.621 -20.572  21.599  1.00  0.00    -0.236 OA
HETATM    2  C1  UNL     1      -5.042 -21.570  22.261  1.00  0.00     0.383 C 
HETATM    3  N1  UNL     1      -6.421 -21.787  22.494  1.00  0.00    -0.331 N 
ATOM      4  H1  UNL     1      -6.724 -22.600  23.030  1.00  0.00     0.165 HD
ENDROOT
BRANCH   2   5
HETATM    5  O2  UNL     1      -4.067 -22.439  22.743  1.00  0.00    -0.178 OA
BRANCH   5   6
HETATM    6  N2  UNL     1      -4.306 -23.438  23.636  1.00  0.00    -0.224 N 
HETATM    7  C9  UNL     1      -4.513 -24.779  23.221  1.00  0.00     0.245 C 
HETATM    8  O3  UNL     1      -4.480 -25.069  22.022  1.00  0.00    -0.271 OA
ATOM      9  H2  UNL     1      -4.336 -23.216  24.632  1.00  0.00     0.198 HD
BRANCH   7  10
HETATM   10  C10 UNL     1      -4.769 -25.816  24.249  1.00  0.00     0.080 A 
HETATM   11  C11 UNL     1      -5.403 -25.414  25.538  1.00  0.00     0.015 A 
HETATM   12  C12 UNL     1      -6.223 -26.089  24.483  1.00  0.00     0.015 A 
ENDBRANCH   7  10
ENDBRANCH   5   6
ENDBRANCH   2   5
BRANCH   3  13
HETATM   13  C2  UNL     1      -7.400 -20.859  21.976  1.00  0.00     0.086 C 
HETATM   14  C3  UNL     1      -8.616 -20.912  22.834  1.00  0.00     0.025 C 
HETATM   15  C4  UNL     1      -9.891 -20.557  22.143  1.00  0.00     0.002 C 
HETATM   16  C5  UNL     1      -9.789 -19.427  21.182  1.00  0.00     0.000 C 
HETATM   17  C6  UNL     1      -9.491 -19.881  19.753  1.00  0.00     0.000 C 
HETATM   18  C7  UNL     1      -7.998 -20.149  19.709  1.00  0.00     0.002 C 
HETATM   19  C8  UNL     1      -7.736 -21.367  20.566  1.00  0.00     0.025 C 
ENDBRANCH   3  13
TORSDOF 4
ENDMDL
MODEL 3
REMARK VINA RESULT: -7.278366738      4.729      6.995
REMARK  4 active torsions:
REMARK  status: ('A' for Active; 'I' for Inactive)
REMARK       I    between atoms: C1_2  and  N1_3 
REMARK    1  A    between atoms: C1_2  and  O2_12 
REMARK    2  A    between atoms: N1_3  and  C2_5 
REMARK    3  A    between atoms: O2_12  and  N2_13 
REMARK       I    between atoms: N2_13  and  C9_15 
REMARK    4  A    between atoms: C9_15  and  C10_17 
ROOT
HETATM    1  O1  UNL     1      -5.023 -21.497  23.719  1.00  0.00    -0.236 OA
HETATM    2  C1  UNL     1      -5.496 -22.592  23.284  1.00  0.00     0.383 C 
HETATM    3  N1  UNL     1      -6.688 -22.644  22.523  1.00  0.00    -0.331 N 
ATOM      4  H1  UNL     1      -7.039 -23.541  22.189  1.00  0.00     0.165 HD
ENDROOT
BRANCH   2   5
HETATM    5  O2  UNL     1      -4.772 -23.738  23.601  1.00  0.00    -0.178 OA
BRANCH   5   6
HETATM    6  N2  UNL     1      -4.946 -24.462  24.740  1.00  0.00    -0.224 N 
HETATM    7  C9  UNL     1      -5.243 -25.849  24.707  1.00  0.00     0.245 C 
HETATM    8  O3  UNL     1      -5.352 -26.435  23.626  1.00  0.00    -0.271 OA
ATOM      9  H2  UNL     1      -4.859 -23.994  25.643  1.00  0.00     0.198 HD
BRANCH   7  10
HETATM   10  C10 UNL     1      -5.420 -26.575  25.988  1.00  0.00     0.080 A 
HETATM   11  C11 UNL     1      -4.705 -26.084  27.201  1.00  0.00     0.015 A 
HETATM   12  C12 UNL     1      -6.163 -25.794  27.028  1.00  0.00     0.015 A 
ENDBRANCH   7  10
ENDBRANCH   5   6
ENDBRANCH   2   5
BRANCH   3  13
HETATM   13  C2  UNL     1      -7.408 -21.429  22.218  1.00  0.00     0.086 C 
HETATM   14  C3  UNL     1      -8.606 -21.345  23.099  1.00  0.00     0.025 C 
HETATM   15  C4  UNL     1      -9.752 -20.573  22.534  1.00  0.00     0.002 C 
HETATM   16  C5  UNL     1      -9.372 -19.344  21.788  1.00  0.00     0.000 C 
HETATM   17  C6  UNL     1      -9.185 -19.586  20.291  1.00  0.00     0.000 C 
HETATM   18  C7  UNL     1      -7.802 -20.193  20.141  1.00  0.00     0.002 C 
HETATM   19  C8  UNL     1      -7.850 -21.573  20.754  1.00  0.00     0.025 C 
ENDBRANCH   3  13
TORSDOF 4
ENDMDL
MODEL 4
REMARK VINA RESULT: -7.271657415      2.039      2.995
REMARK  4 active torsions:
REMARK  status: ('A' for Active; 'I' for Inactive)
REMARK       I    between atoms: C1_2  and  N1_3 
REMARK    1  A    between atoms: C1_2  and  O2_12 
REMARK    2  A    between atoms: N1_3  and  C2_5 
REMARK    3  A    between atoms: O2_12  and  N2_13 
REMARK       I    between atoms: N2_13  and  C9_15 
REMARK    4  A    between atoms: C9_15  and  C10_17 
ROOT
HETATM    1  O1  UNL     1      -5.869 -18.967  19.115  1.00  0.00    -0.236 OA
HETATM    2  C1  UNL     1      -5.395 -20.092  19.463  1.00  0.00     0.383 C 
HETATM    3  N1  UNL     1      -6.023 -20.901  20.438  1.00  0.00    -0.331 N 
ATOM      4  H1  UNL     1      -5.615 -21.801  20.693  1.00  0.00     0.165 HD
ENDROOT
BRANCH   2   5
HETATM    5  O2  UNL     1      -4.219 -20.482  18.827  1.00  0.00    -0.178 OA
BRANCH   5   6
HETATM    6  N2  UNL     1      -3.710 -21.743  18.866  1.00  0.00    -0.224 N 
HETATM    7  C9  UNL     1      -2.621 -22.084  19.710  1.00  0.00     0.245 C 
HETATM    8  O3  UNL     1      -2.106 -21.228  20.436  1.00  0.00    -0.271 OA
ATOM      9  H2  UNL     1      -4.122 -22.464  18.273  1.00  0.00     0.198 HD
BRANCH   7  10
HETATM   10  C10 UNL     1      -2.116 -23.478  19.701  1.00  0.00     0.080 A 
HETATM   11  C11 UNL     1      -1.099 -23.883  20.714  1.00  0.00     0.015 A 
HETATM   12  C12 UNL     1      -2.531 -24.279  20.896  1.00  0.00     0.015 A 
ENDBRANCH   7  10
ENDBRANCH   5   6
ENDBRANCH   2   5
BRANCH   3  13
HETATM   13  C2  UNL     1      -7.243 -20.458  21.074  1.00  0.00     0.086 C 
HETATM   14  C3  UNL     1      -7.299 -21.020  22.452  1.00  0.00     0.025 C 
HETATM   15  C4  UNL     1      -8.675 -21.218  22.996  1.00  0.00     0.002 C 
HETATM   16  C5  UNL     1      -9.642 -20.137  22.665  1.00  0.00     0.000 C 
HETATM   17  C6  UNL     1     -10.432 -20.411  21.386  1.00  0.00     0.000 C 
HETATM   18  C7  UNL     1      -9.507 -20.036  20.242  1.00  0.00     0.002 C 
HETATM   19  C8  UNL     1      -8.381 -21.044  20.227  1.00  0.00     0.025 C 
ENDBRANCH   3  13
TORSDOF 4
ENDMDL
MODEL 5
REMARK VINA RESULT: -7.246302063      1.926      2.296
REMARK  4 active torsions:
REMARK  status: ('A' for Active; 'I' for Inactive)
REMARK       I    between atoms: C1_2  and  N1_3 
REMARK    1  A    between atoms: C1_2  and  O2_12 
REMARK    2  A    between atoms: N1_3  and  C2_5 
REMARK    3  A    between atoms: O2_12  and  N2_13 
REMARK       I    between atoms: N2_13  and  C9_15 
REMARK    4  A    between atoms: C9_15  and  C10_17 
ROOT
HETATM    1  O1  UNL     1      -5.637 -22.023  19.443  1.00  0.00    -0.236 OA
HETATM    2  C1  UNL     1      -5.320 -20.829  19.736  1.00  0.00     0.383 C 
HETATM    3  N1  UNL     1      -6.243 -19.931  20.323  1.00  0.00    -0.331 N 
ATOM      4  H1  UNL     1      -5.954 -18.979  20.545  1.00  0.00     0.165 HD
ENDROOT
BRANCH   2   5
HETATM    5  O2  UNL     1      -4.011 -20.456  19.445  1.00  0.00    -0.178 OA
BRANCH   5   6
HETATM    6  N2  UNL     1      -3.014 -21.333  19.145  1.00  0.00    -0.224 N 
HETATM    7  C9  UNL     1      -2.007 -21.672  20.084  1.00  0.00     0.245 C 
HETATM    8  O3  UNL     1      -2.015 -21.168  21.212  1.00  0.00    -0.271 OA
ATOM      9  H2  UNL     1      -2.992 -21.760  18.218  1.00  0.00     0.198 HD
BRANCH   7  10
HETATM   10  C10 UNL     1      -0.951 -22.634  19.688  1.00  0.00     0.080 A 
HETATM   11  C11 UNL     1      -0.150 -23.305  20.753  1.00  0.00     0.015 A 
HETATM   12  C12 UNL     1      -1.251 -24.051  20.067  1.00  0.00     0.015 A 
ENDBRANCH   7  10
ENDBRANCH   5   6
ENDBRANCH   2   5
BRANCH   3  13
HETATM   13  C2  UNL     1      -7.593 -20.360  20.607  1.00  0.00     0.086 C 
HETATM   14  C3  UNL     1      -8.521 -19.695  19.652  1.00  0.00     0.025 C 
HETATM   15  C4  UNL     1      -9.911 -19.496  20.158  1.00  0.00     0.002 C 
HETATM   16  C5  UNL     1     -10.456 -20.627  20.955  1.00  0.00     0.000 C 
HETATM   17  C6  UNL     1     -10.208 -20.476  22.456  1.00  0.00     0.000 C 
HETATM   18  C7  UNL     1      -8.772 -20.912  22.682  1.00  0.00     0.002 C 
HETATM   19  C8  UNL     1      -7.882 -19.874  22.035  1.00  0.00     0.025 C 
ENDBRANCH   3  13
TORSDOF 4
ENDMDL
