MODEL 1
REMARK VINA RESULT: -6.962253349      0.000      0.000
REMARK  4 active torsions:
REMARK  status: ('A' for Active; 'I' for Inactive)
REMARK    1  A    between atoms: C3_3  and  C4_4 
REMARK    2  A    between atoms: C4_4  and  N1_5 
REMARK    3  A    between atoms: N1_5  and  C5_8 
REMARK    4  A    between atoms: C10_14  and  O2_16 
ROOT
HETATM    1  C1  UNL     1      -6.277 -23.344  19.058  1.00  0.00     0.013 C 
HETATM    2  C2  UNL     1      -6.190 -22.320  20.177  1.00  0.00     0.023 C 
HETATM    3  C3  UNL     1      -6.206 -20.956  19.599  1.00  0.00     0.151 C 
HETATM    4  O1  UNL     1      -5.377 -20.052  20.221  1.00  0.00    -0.381 OA
HETATM    5  C9  UNL     1      -5.425 -20.198  21.586  1.00  0.00     0.206 C 
HETATM    6  C10 UNL     1      -4.632 -21.451  21.932  1.00  0.00     0.083 C 
HETATM    7  C11 UNL     1      -4.856 -21.757  23.387  1.00  0.00     0.049 C 
HETATM    8  C12 UNL     1      -4.978 -22.611  21.034  1.00  0.00    -0.009 C 
HETATM    9  C13 UNL     1      -3.814 -22.986  20.141  1.00  0.00     0.018 C 
HETATM   10  C14 UNL     1      -5.327 -23.842  21.861  1.00  0.00     0.018 C 
ENDROOT
BRANCH   3  11
HETATM   11  C4  UNL     1      -7.595 -20.360  19.601  1.00  0.00     0.265 C 
BRANCH  11  12
HETATM   12  N1  UNL     1      -8.442 -21.003  20.589  1.00  0.00    -0.065 N 
ATOM     13  H12 UNL     1      -8.807 -21.884  20.228  1.00  0.00     0.278 HD
ATOM     14  H11 UNL     1      -7.882 -21.354  21.366  1.00  0.00     0.278 HD
BRANCH  12  15
HETATM   15  C5  UNL     1      -9.511 -20.177  21.074  1.00  0.00     0.115 C 
HETATM   16  C6  UNL     1      -8.937 -19.071  21.925  1.00  0.00     0.045 C 
HETATM   17  C7  UNL     1     -10.593 -20.932  21.808  1.00  0.00     0.045 C 
HETATM   18  C8  UNL     1     -10.170 -19.575  19.823  1.00  0.00     0.045 C 
ENDBRANCH  12  15
ENDBRANCH  11  12
ENDBRANCH   3  11
BRANCH   6  19
HETATM   19  O2  UNL     1      -3.273 -21.088  21.805  1.00  0.00    -0.387 OA
ATOM     20  H2  UNL     1      -2.800 -21.652  22.405  1.00  0.00     0.210 HD
ENDBRANCH   6  19
TORSDOF 4
ENDMDL
MODEL 2
REMARK VINA RESULT: -6.862899527      1.640      2.335
REMARK  4 active torsions:
REMARK  status: ('A' for Active; 'I' for Inactive)
REMARK    1  A    between atoms: C3_3  and  C4_4 
REMARK    2  A    between atoms: C4_4  and  N1_5 
REMARK    3  A    between atoms: N1_5  and  C5_8 
REMARK    4  A    between atoms: C10_14  and  O2_16 
ROOT
HETATM    1  C1  UNL     1      -7.520 -22.720  23.334  1.00  0.00     0.013 C 
HETATM    2  C2  UNL     1      -6.573 -22.305  22.221  1.00  0.00     0.023 C 
HETATM    3  C3  UNL     1      -7.151 -22.691  20.912  1.00  0.00     0.151 C 
HETATM    4  O1  UNL     1      -6.243 -23.157  19.991  1.00  0.00    -0.381 OA
HETATM    5  C9  UNL     1      -5.090 -22.410  20.015  1.00  0.00     0.206 C 
HETATM    6  C10 UNL     1      -4.319 -22.817  21.263  1.00  0.00     0.083 C 
HETATM    7  C11 UNL     1      -3.170 -21.862  21.432  1.00  0.00     0.049 C 
HETATM    8  C12 UNL     1      -5.201 -22.887  22.483  1.00  0.00    -0.009 C 
HETATM    9  C13 UNL     1      -5.349 -24.310  22.978  1.00  0.00     0.018 C 
HETATM   10  C14 UNL     1      -4.604 -22.071  23.623  1.00  0.00     0.018 C 
ENDROOT
BRANCH   3  11
HETATM   11  C4  UNL     1      -7.895 -21.545  20.265  1.00  0.00     0.265 C 
BRANCH  11  12
HETATM   12  N1  UNL     1      -7.845 -20.352  21.091  1.00  0.00    -0.065 N 
ATOM     13  H12 UNL     1      -7.347 -20.541  21.961  1.00  0.00     0.278 HD
ATOM     14  H11 UNL     1      -7.219 -19.659  20.681  1.00  0.00     0.278 HD
BRANCH  12  15
HETATM   15  C5  UNL     1      -9.129 -19.771  21.363  1.00  0.00     0.115 C 
HETATM   16  C6  UNL     1      -8.980 -18.715  22.430  1.00  0.00     0.045 C 
HETATM   17  C7  UNL     1     -10.198 -20.774  21.726  1.00  0.00     0.045 C 
HETATM   18  C8  UNL     1      -9.573 -19.114  20.046  1.00  0.00     0.045 C 
ENDBRANCH  12  15
ENDBRANCH  11  12
ENDBRANCH   3  11
BRANCH   6  19
HETATM   19  O2  UNL     1      -3.751 -24.076  20.965  1.00  0.00    -0.387 OA
ATOM     20  H2  UNL     1      -3.560 -24.475  21.806  1.00  0.00     0.210 HD
ENDBRANCH   6  19
TORSDOF 4
ENDMDL
MODEL 3
REMARK VINA RESULT: -6.837084719      1.591      2.729
REMARK  4 active torsions:
REMARK  status: ('A' for Active; 'I' for Inactive)
REMARK    1  A    between atoms: C3_3  and  C4_4 
REMARK    2  A    between atoms: C4_4  and  N1_5 
REMARK    3  A    between atoms: N1_5  and  C5_8 
REMARK    4  A    between atoms: C10_14  and  O2_16 
ROOT
HETATM    1  C1  UNL     1      -4.690 -22.541  23.242  1.00  0.00     0.013 C 
HETATM    2  C2  UNL     1      -4.848 -21.876  21.886  1.00  0.00     0.023 C 
HETATM    3  C3  UNL     1      -6.225 -22.098  21.385  1.00  0.00     0.151 C 
HETATM    4  O1  UNL     1      -6.320 -22.332  20.034  1.00  0.00    -0.381 OA
HETATM    5  C9  UNL     1      -5.481 -21.503  19.330  1.00  0.00     0.206 C 
HETATM    6  C10 UNL     1      -4.067 -22.034  19.514  1.00  0.00     0.083 C 
HETATM    7  C11 UNL     1      -3.111 -21.022  18.944  1.00  0.00     0.049 C 
HETATM    8  C12 UNL     1      -3.766 -22.371  20.952  1.00  0.00    -0.009 C 
HETATM    9  C13 UNL     1      -3.585 -23.862  21.145  1.00  0.00     0.018 C 
HETATM   10  C14 UNL     1      -2.475 -21.698  21.401  1.00  0.00     0.018 C 
ENDROOT
BRANCH   3  11
HETATM   11  C4  UNL     1      -7.134 -20.932  21.700  1.00  0.00     0.265 C 
BRANCH  11  12
HETATM   12  N1  UNL     1      -8.454 -21.125  21.128  1.00  0.00    -0.065 N 
ATOM     13  H12 UNL     1      -8.389 -21.280  20.123  1.00  0.00     0.278 HD
ATOM     14  H11 UNL     1      -8.841 -22.024  21.417  1.00  0.00     0.278 HD
BRANCH  12  15
HETATM   15  C5  UNL     1      -9.379 -20.066  21.415  1.00  0.00     0.115 C 
HETATM   16  C6  UNL     1      -9.797 -19.408  20.123  1.00  0.00     0.045 C 
HETATM   17  C7  UNL     1      -8.869 -19.051  22.410  1.00  0.00     0.045 C 
HETATM   18  C8  UNL     1     -10.596 -20.743  22.065  1.00  0.00     0.045 C 
ENDBRANCH  12  15
ENDBRANCH  11  12
ENDBRANCH   3  11
BRANCH   6  19
HETATM   19  O2  UNL     1      -3.978 -23.176  18.688  1.00  0.00    -0.387 OA
ATOM     20  H2  UNL     1      -3.079 -23.202  18.382  1.00  0.00     0.210 HD
ENDBRANCH   6  19
TORSDOF 4
ENDMDL
MODEL 4
REMARK VINA RESULT: -6.774402066      1.598      2.758
REMARK  4 active torsions:
REMARK  status: ('A' for Active; 'I' for Inactive)
REMARK    1  A    between atoms: C3_3  and  C4_4 
REMARK    2  A    between atoms: C4_4  and  N1_5 
REMARK    3  A    between atoms: N1_5  and  C5_8 
REMARK    4  A    between atoms: C10_14  and  O2_16 
ROOT
HETATM    1  C1  UNL     1      -4.680 -22.505  23.219  1.00  0.00     0.013 C 
HETATM    2  C2  UNL     1      -4.824 -21.862  21.850  1.00  0.00     0.023 C 
HETATM    3  C3  UNL     1      -6.187 -22.115  21.327  1.00  0.00     0.151 C 
HETATM    4  O1  UNL     1      -6.253 -22.370  19.978  1.00  0.00    -0.381 OA
HETATM    5  C9  UNL     1      -5.415 -21.537  19.277  1.00  0.00     0.206 C 
HETATM    6  C10 UNL     1      -3.995 -22.041  19.496  1.00  0.00     0.083 C 
HETATM    7  C11 UNL     1      -3.046 -21.022  18.929  1.00  0.00     0.049 C 
HETATM    8  C12 UNL     1      -3.716 -22.353  20.944  1.00  0.00    -0.009 C 
HETATM    9  C13 UNL     1      -3.514 -23.837  21.162  1.00  0.00     0.018 C 
HETATM   10  C14 UNL     1      -2.445 -21.651  21.407  1.00  0.00     0.018 C 
ENDROOT
BRANCH   3  11
HETATM   11  C4  UNL     1      -7.121 -20.960  21.608  1.00  0.00     0.265 C 
BRANCH  11  12
HETATM   12  N1  UNL     1      -8.415 -21.167  20.985  1.00  0.00    -0.065 N 
ATOM     13  H12 UNL     1      -8.306 -21.346  19.987  1.00  0.00     0.278 HD
ATOM     14  H11 UNL     1      -8.815 -22.059  21.278  1.00  0.00     0.278 HD
BRANCH  12  15
HETATM   15  C5  UNL     1      -9.351 -20.102  21.206  1.00  0.00     0.115 C 
HETATM   16  C6  UNL     1     -10.561 -20.643  21.926  1.00  0.00     0.045 C 
HETATM   17  C7  UNL     1      -9.744 -19.354  19.954  1.00  0.00     0.045 C 
HETATM   18  C8  UNL     1      -8.624 -19.092  22.108  1.00  0.00     0.045 C 
ENDBRANCH  12  15
ENDBRANCH  11  12
ENDBRANCH   3  11
BRANCH   6  19
HETATM   19  O2  UNL     1      -3.872 -23.194  18.688  1.00  0.00    -0.387 OA
ATOM     20  H2  UNL     1      -4.123 -22.922  17.814  1.00  0.00     0.210 HD
ENDBRANCH   6  19
TORSDOF 4
ENDMDL
MODEL 5
REMARK VINA RESULT: -6.752243274      1.627      1.998
REMARK  4 active torsions:
REMARK  status: ('A' for Active; 'I' for Inactive)
REMARK    1  A    between atoms: C3_3  and  C4_4 
REMARK    2  A    between atoms: C4_4  and  N1_5 
REMARK    3  A    between atoms: N1_5  and  C5_8 
REMARK    4  A    between atoms: C10_14  and  O2_16 
ROOT
HETATM    1  C1  UNL     1      -4.663 -22.634  19.684  1.00  0.00     0.013 C 
HETATM    2  C2  UNL     1      -5.552 -22.935  20.878  1.00  0.00     0.023 C 
HETATM    3  C3  UNL     1      -6.384 -21.748  21.185  1.00  0.00     0.151 C 
HETATM    4  O1  UNL     1      -6.571 -21.501  22.525  1.00  0.00    -0.381 OA
HETATM    5  C9  UNL     1      -6.796 -22.667  23.214  1.00  0.00     0.206 C 
HETATM    6  C10 UNL     1      -5.457 -23.380  23.339  1.00  0.00     0.083 C 
HETATM    7  C11 UNL     1      -5.712 -24.757  23.887  1.00  0.00     0.049 C 
HETATM    8  C12 UNL     1      -4.699 -23.405  22.036  1.00  0.00    -0.009 C 
HETATM    9  C13 UNL     1      -3.447 -22.557  22.109  1.00  0.00     0.018 C 
HETATM   10  C14 UNL     1      -4.265 -24.825  21.696  1.00  0.00     0.018 C 
ENDROOT
BRANCH   3  11
HETATM   11  C4  UNL     1      -7.754 -21.841  20.554  1.00  0.00     0.265 C 
BRANCH  11  12
HETATM   12  N1  UNL     1      -8.161 -20.568  19.988  1.00  0.00    -0.065 N 
ATOM     13  H12 UNL     1      -7.393 -19.897  20.030  1.00  0.00     0.278 HD
ATOM     14  H11 UNL     1      -8.268 -20.644  18.977  1.00  0.00     0.278 HD
BRANCH  12  15
HETATM   15  C5  UNL     1      -9.345 -20.014  20.578  1.00  0.00     0.115 C 
HETATM   16  C6  UNL     1      -8.952 -19.022  21.645  1.00  0.00     0.045 C 
HETATM   17  C7  UNL     1     -10.310 -21.045  21.114  1.00  0.00     0.045 C 
HETATM   18  C8  UNL     1     -10.074 -19.284  19.439  1.00  0.00     0.045 C 
ENDBRANCH  12  15
ENDBRANCH  11  12
ENDBRANCH   3  11
BRANCH   6  19
HETATM   19  O2  UNL     1      -4.744 -22.679  24.336  1.00  0.00    -0.387 OA
ATOM     20  H2  UNL     1      -4.251 -23.338  24.810  1.00  0.00     0.210 HD
ENDBRANCH   6  19
TORSDOF 4
ENDMDL
