MODEL 1
REMARK VINA RESULT: -8.784870074      0.000      0.000
REMARK  7 active torsions:
REMARK  status: ('A' for Active; 'I' for Inactive)
REMARK    1  A    between atoms: O1_2  and  C2_3 
REMARK    2  A    between atoms: C2_3  and  C3_5 
REMARK    3  A    between atoms: C6_8  and  S1_9 
REMARK    4  A    between atoms: S1_9  and  C7_10 
REMARK    5  A    between atoms: C7_10  and  C8_14 
REMARK    6  A    between atoms: C11_19  and  C12_20 
REMARK    7  A    between atoms: C12_20  and  N4_21 
ROOT
HETATM    1  C8  UNL     1      -3.892 -25.106  25.514  1.00  0.00     0.255 C 
HETATM    2  C9  UNL     1      -3.853 -25.533  26.903  1.00  0.00     0.085 C 
HETATM    3  N2  UNL     1      -3.802 -25.860  28.010  1.00  0.00    -0.195 NA
HETATM    4  C10 UNL     1      -3.353 -26.160  24.621  1.00  0.00     0.085 C 
HETATM    5  N3  UNL     1      -2.909 -26.976  23.914  1.00  0.00    -0.195 NA
ENDROOT
BRANCH   1   6
HETATM    6  C7  UNL     1      -5.207 -24.651  25.041  1.00  0.00     0.077 C 
HETATM    7  N1  UNL     1      -6.214 -24.616  25.886  1.00  0.00    -0.395 N 
ATOM      8  H12 UNL     1      -7.126 -24.300  25.558  1.00  0.00     0.156 HD
ATOM      9  H11 UNL     1      -5.970 -24.923  26.828  1.00  0.00     0.156 HD
BRANCH   6  10
HETATM   10  S1  UNL     1      -5.629 -24.122  23.414  1.00  0.00    -0.075 SA
BRANCH  10  11
HETATM   11  C6  UNL     1      -4.430 -23.198  22.543  1.00  0.00     0.014 A 
HETATM   12  C5  UNL     1      -3.310 -23.801  22.041  1.00  0.00     0.020 A 
HETATM   13  C4  UNL     1      -2.319 -23.121  21.362  1.00  0.00     0.019 A 
HETATM   14  C3  UNL     1      -2.475 -21.764  21.184  1.00  0.00     0.040 A 
HETATM   15  C19 UNL     1      -3.585 -21.135  21.676  1.00  0.00     0.027 A 
HETATM   16  C11 UNL     1      -4.563 -21.817  22.349  1.00  0.00    -0.027 A 
BRANCH  14  17
HETATM   17  C2  UNL     1      -1.453 -20.997  20.472  1.00  0.00     0.292 C 
HETATM   18  O2  UNL     1      -0.349 -20.778  21.031  1.00  0.00    -0.259 OA
BRANCH  17  19
HETATM   19  O1  UNL     1      -1.635 -20.496  19.206  1.00  0.00    -0.323 OA
HETATM   20  C1  UNL     1      -2.031 -21.339  18.136  1.00  0.00     0.213 C 
ENDBRANCH  17  19
ENDBRANCH  14  17
BRANCH  16  21
HETATM   21  C12 UNL     1      -5.802 -21.227  22.898  1.00  0.00     0.135 C 
BRANCH  21  22
HETATM   22  N4  UNL     1      -6.986 -21.422  22.095  1.00  0.00    -0.279 NA
HETATM   23  C13 UNL     1      -8.143 -21.179  23.050  1.00  0.00     0.174 C 
HETATM   24  C14 UNL     1      -9.115 -20.454  22.366  1.00  0.00    -0.168 C 
HETATM   25  C15 UNL     1     -10.022 -19.700  21.587  1.00  0.00     0.085 C 
HETATM   26  C16 UNL     1      -9.226 -19.288  20.296  1.00  0.00     0.039 C 
HETATM   27  C17 UNL     1      -8.009 -20.197  20.104  1.00  0.00    -0.014 C 
HETATM   28  C18 UNL     1      -6.980 -20.343  21.097  1.00  0.00     0.057 C 
ENDBRANCH  21  22
ENDBRANCH  16  21
ENDBRANCH  10  11
ENDBRANCH   6  10
ENDBRANCH   1   6
TORSDOF 7
ENDMDL
MODEL 2
REMARK VINA RESULT: -8.740042144      2.349      5.086
REMARK  7 active torsions:
REMARK  status: ('A' for Active; 'I' for Inactive)
REMARK    1  A    between atoms: O1_2  and  C2_3 
REMARK    2  A    between atoms: C2_3  and  C3_5 
REMARK    3  A    between atoms: C6_8  and  S1_9 
REMARK    4  A    between atoms: S1_9  and  C7_10 
REMARK    5  A    between atoms: C7_10  and  C8_14 
REMARK    6  A    between atoms: C11_19  and  C12_20 
REMARK    7  A    between atoms: C12_20  and  N4_21 
ROOT
HETATM    1  C8  UNL     1      -3.988 -25.112  25.687  1.00  0.00     0.255 C 
HETATM    2  C9  UNL     1      -3.685 -25.597  27.024  1.00  0.00     0.085 C 
HETATM    3  N2  UNL     1      -3.427 -25.966  28.087  1.00  0.00    -0.195 NA
HETATM    4  C10 UNL     1      -3.419 -26.014  24.656  1.00  0.00     0.085 C 
HETATM    5  N3  UNL     1      -2.953 -26.707  23.840  1.00  0.00    -0.195 NA
ENDROOT
BRANCH   1   6
HETATM    6  C7  UNL     1      -5.413 -24.863  25.425  1.00  0.00     0.077 C 
HETATM    7  N1  UNL     1      -6.227 -24.679  26.440  1.00  0.00    -0.395 N 
ATOM      8  H12 UNL     1      -7.216 -24.506  26.258  1.00  0.00     0.156 HD
ATOM      9  H11 UNL     1      -5.768 -24.731  27.349  1.00  0.00     0.156 HD
BRANCH   6  10
HETATM   10  S1  UNL     1      -6.206 -24.773  23.854  1.00  0.00    -0.075 SA
BRANCH  10  11
HETATM   11  C6  UNL     1      -6.610 -23.184  23.256  1.00  0.00     0.014 A 
HETATM   12  C5  UNL     1      -7.712 -22.519  23.720  1.00  0.00     0.020 A 
HETATM   13  C4  UNL     1      -8.093 -21.271  23.271  1.00  0.00     0.019 A 
HETATM   14  C3  UNL     1      -7.317 -20.669  22.305  1.00  0.00     0.040 A 
HETATM   15  C19 UNL     1      -6.211 -21.310  21.822  1.00  0.00     0.027 A 
HETATM   16  C11 UNL     1      -5.839 -22.549  22.272  1.00  0.00    -0.027 A 
BRANCH  14  17
HETATM   17  C2  UNL     1      -7.679 -19.346  21.796  1.00  0.00     0.292 C 
HETATM   18  O2  UNL     1      -8.654 -18.738  22.305  1.00  0.00    -0.259 OA
BRANCH  17  19
HETATM   19  O1  UNL     1      -7.003 -18.722  20.776  1.00  0.00    -0.323 OA
HETATM   20  C1  UNL     1      -7.514 -18.721  19.453  1.00  0.00     0.213 C 
ENDBRANCH  17  19
ENDBRANCH  14  17
BRANCH  16  21
HETATM   21  C12 UNL     1      -4.653 -23.308  21.824  1.00  0.00     0.135 C 
BRANCH  21  22
HETATM   22  N4  UNL     1      -3.438 -22.538  21.701  1.00  0.00    -0.279 NA
HETATM   23  C13 UNL     1      -2.337 -23.478  22.165  1.00  0.00     0.174 C 
HETATM   24  C14 UNL     1      -1.248 -23.309  21.314  1.00  0.00    -0.168 C 
HETATM   25  C15 UNL     1      -0.213 -23.077  20.381  1.00  0.00     0.085 C 
HETATM   26  C16 UNL     1      -0.863 -22.218  19.237  1.00  0.00     0.039 C 
HETATM   27  C17 UNL     1      -2.149 -21.551  19.732  1.00  0.00    -0.014 C 
HETATM   28  C18 UNL     1      -3.259 -22.295  20.262  1.00  0.00     0.057 C 
ENDBRANCH  21  22
ENDBRANCH  16  21
ENDBRANCH  10  11
ENDBRANCH   6  10
ENDBRANCH   1   6
TORSDOF 7
ENDMDL
MODEL 3
REMARK VINA RESULT: -8.708072318      2.997      5.693
REMARK  7 active torsions:
REMARK  status: ('A' for Active; 'I' for Inactive)
REMARK    1  A    between atoms: O1_2  and  C2_3 
REMARK    2  A    between atoms: C2_3  and  C3_5 
REMARK    3  A    between atoms: C6_8  and  S1_9 
REMARK    4  A    between atoms: S1_9  and  C7_10 
REMARK    5  A    between atoms: C7_10  and  C8_14 
REMARK    6  A    between atoms: C11_19  and  C12_20 
REMARK    7  A    between atoms: C12_20  and  N4_21 
ROOT
HETATM    1  C8  UNL     1      -4.426 -24.669  23.977  1.00  0.00     0.255 C 
HETATM    2  C9  UNL     1      -5.836 -24.972  23.787  1.00  0.00     0.085 C 
HETATM    3  N2  UNL     1      -6.959 -25.211  23.659  1.00  0.00    -0.195 NA
HETATM    4  C10 UNL     1      -3.609 -25.906  23.931  1.00  0.00     0.085 C 
HETATM    5  N3  UNL     1      -2.963 -26.877  23.919  1.00  0.00    -0.195 NA
ENDROOT
BRANCH   1   6
HETATM    6  C7  UNL     1      -3.881 -23.654  23.065  1.00  0.00     0.077 C 
HETATM    7  N1  UNL     1      -3.174 -24.041  22.027  1.00  0.00    -0.395 N 
ATOM      8  H12 UNL     1      -2.795 -23.338  21.393  1.00  0.00     0.156 HD
ATOM      9  H11 UNL     1      -3.069 -25.054  21.956  1.00  0.00     0.156 HD
BRANCH   6  10
HETATM   10  S1  UNL     1      -4.061 -21.906  23.188  1.00  0.00    -0.075 SA
BRANCH  10  11
HETATM   11  C6  UNL     1      -5.563 -21.219  22.623  1.00  0.00     0.014 A 
HETATM   12  C5  UNL     1      -6.749 -21.533  23.229  1.00  0.00     0.020 A 
HETATM   13  C4  UNL     1      -7.969 -21.039  22.815  1.00  0.00     0.019 A 
HETATM   14  C3  UNL     1      -7.986 -20.184  21.735  1.00  0.00     0.040 A 
HETATM   15  C19 UNL     1      -6.815 -19.853  21.110  1.00  0.00     0.027 A 
HETATM   16  C11 UNL     1      -5.609 -20.349  21.526  1.00  0.00    -0.027 A 
BRANCH  14  17
HETATM   17  C2  UNL     1      -9.254 -19.633  21.258  1.00  0.00     0.292 C 
HETATM   18  O2  UNL     1     -10.331 -20.069  21.735  1.00  0.00    -0.259 OA
BRANCH  17  19
HETATM   19  O1  UNL     1      -9.333 -18.650  20.301  1.00  0.00    -0.323 OA
HETATM   20  C1  UNL     1      -9.704 -18.958  18.966  1.00  0.00     0.213 C 
ENDBRANCH  17  19
ENDBRANCH  14  17
BRANCH  16  21
HETATM   21  C12 UNL     1      -4.296 -20.033  20.927  1.00  0.00     0.135 C 
BRANCH  21  22
HETATM   22  N4  UNL     1      -3.971 -20.770  19.728  1.00  0.00    -0.279 NA
HETATM   23  C13 UNL     1      -3.976 -19.728  18.622  1.00  0.00     0.174 C 
HETATM   24  C14 UNL     1      -2.901 -19.998  17.778  1.00  0.00    -0.168 C 
HETATM   25  C15 UNL     1      -1.772 -20.347  17.004  1.00  0.00     0.085 C 
HETATM   26  C16 UNL     1      -0.988 -21.407  17.857  1.00  0.00     0.039 C 
HETATM   27  C17 UNL     1      -1.904 -22.026  18.917  1.00  0.00    -0.014 C 
HETATM   28  C18 UNL     1      -2.591 -21.244  19.907  1.00  0.00     0.057 C 
ENDBRANCH  21  22
ENDBRANCH  16  21
ENDBRANCH  10  11
ENDBRANCH   6  10
ENDBRANCH   1   6
TORSDOF 7
ENDMDL
MODEL 4
REMARK VINA RESULT: -8.670231855      3.328      5.947
REMARK  7 active torsions:
REMARK  status: ('A' for Active; 'I' for Inactive)
REMARK    1  A    between atoms: O1_2  and  C2_3 
REMARK    2  A    between atoms: C2_3  and  C3_5 
REMARK    3  A    between atoms: C6_8  and  S1_9 
REMARK    4  A    between atoms: S1_9  and  C7_10 
REMARK    5  A    between atoms: C7_10  and  C8_14 
REMARK    6  A    between atoms: C11_19  and  C12_20 
REMARK    7  A    between atoms: C12_20  and  N4_21 
ROOT
HETATM    1  C8  UNL     1      -4.419 -20.136  18.662  1.00  0.00     0.255 C 
HETATM    2  C9  UNL     1      -5.416 -21.181  18.498  1.00  0.00     0.085 C 
HETATM    3  N2  UNL     1      -6.206 -22.010  18.344  1.00  0.00    -0.195 NA
HETATM    4  C10 UNL     1      -5.064 -18.831  18.947  1.00  0.00     0.085 C 
HETATM    5  N3  UNL     1      -5.566 -17.796  19.148  1.00  0.00    -0.195 NA
ENDROOT
BRANCH   1   6
HETATM    6  C7  UNL     1      -3.375 -20.424  19.655  1.00  0.00     0.077 C 
HETATM    7  N1  UNL     1      -2.171 -20.749  19.241  1.00  0.00    -0.395 N 
ATOM      8  H12 UNL     1      -1.446 -20.949  19.930  1.00  0.00     0.156 HD
ATOM      9  H11 UNL     1      -2.078 -20.770  18.225  1.00  0.00     0.156 HD
BRANCH   6  10
HETATM   10  S1  UNL     1      -3.536 -20.387  21.409  1.00  0.00    -0.075 SA
BRANCH  10  11
HETATM   11  C6  UNL     1      -3.574 -21.924  22.237  1.00  0.00     0.014 A 
HETATM   12  C5  UNL     1      -2.547 -22.818  22.102  1.00  0.00     0.020 A 
HETATM   13  C4  UNL     1      -2.530 -24.054  22.714  1.00  0.00     0.019 A 
HETATM   14  C3  UNL     1      -3.607 -24.399  23.501  1.00  0.00     0.040 A 
HETATM   15  C19 UNL     1      -4.648 -23.525  23.652  1.00  0.00     0.027 A 
HETATM   16  C11 UNL     1      -4.658 -22.300  23.041  1.00  0.00    -0.027 A 
BRANCH  14  17
HETATM   17  C2  UNL     1      -3.637 -25.699  24.171  1.00  0.00     0.292 C 
HETATM   18  O2  UNL     1      -3.168 -26.705  23.582  1.00  0.00    -0.259 OA
BRANCH  17  19
HETATM   19  O1  UNL     1      -4.159 -25.885  25.428  1.00  0.00    -0.323 OA
HETATM   20  C1  UNL     1      -3.419 -25.528  26.586  1.00  0.00     0.213 C 
ENDBRANCH  17  19
ENDBRANCH  14  17
BRANCH  16  21
HETATM   21  C12 UNL     1      -5.726 -21.286  23.162  1.00  0.00     0.135 C 
BRANCH  21  22
HETATM   22  N4  UNL     1      -6.900 -21.529  22.358  1.00  0.00    -0.279 NA
HETATM   23  C13 UNL     1      -8.025 -21.710  23.365  1.00  0.00     0.174 C 
HETATM   24  C14 UNL     1      -9.149 -21.054  22.871  1.00  0.00    -0.168 C 
HETATM   25  C15 UNL     1     -10.219 -20.338  22.289  1.00  0.00     0.085 C 
HETATM   26  C16 UNL     1      -9.587 -19.526  21.102  1.00  0.00     0.039 C 
HETATM   27  C17 UNL     1      -8.240 -20.131  20.696  1.00  0.00    -0.014 C 
HETATM   28  C18 UNL     1      -7.146 -20.284  21.615  1.00  0.00     0.057 C 
ENDBRANCH  21  22
ENDBRANCH  16  21
ENDBRANCH  10  11
ENDBRANCH   6  10
ENDBRANCH   1   6
TORSDOF 7
ENDMDL
MODEL 5
REMARK VINA RESULT: -8.613597484      3.376      5.966
REMARK  7 active torsions:
REMARK  status: ('A' for Active; 'I' for Inactive)
REMARK    1  A    between atoms: O1_2  and  C2_3 
REMARK    2  A    between atoms: C2_3  and  C3_5 
REMARK    3  A    between atoms: C6_8  and  S1_9 
REMARK    4  A    between atoms: S1_9  and  C7_10 
REMARK    5  A    between atoms: C7_10  and  C8_14 
REMARK    6  A    between atoms: C11_19  and  C12_20 
REMARK    7  A    between atoms: C12_20  and  N4_21 
ROOT
HETATM    1  C8  UNL     1      -1.637 -21.497  18.666  1.00  0.00     0.255 C 
HETATM    2  C9  UNL     1      -1.329 -20.916  17.370  1.00  0.00     0.085 C 
HETATM    3  N2  UNL     1      -1.073 -20.474  16.333  1.00  0.00    -0.195 NA
HETATM    4  C10 UNL     1      -0.702 -20.999  19.704  1.00  0.00     0.085 C 
HETATM    5  N3  UNL     1       0.045 -20.630  20.521  1.00  0.00    -0.195 NA
ENDROOT
BRANCH   1   6
HETATM    6  C7  UNL     1      -3.030 -21.334  19.105  1.00  0.00     0.077 C 
HETATM    7  N1  UNL     1      -3.998 -21.482  18.228  1.00  0.00    -0.395 N 
ATOM      8  H12 UNL     1      -4.965 -21.369  18.532  1.00  0.00     0.156 HD
ATOM      9  H11 UNL     1      -3.671 -21.705  17.288  1.00  0.00     0.156 HD
BRANCH   6  10
HETATM   10  S1  UNL     1      -3.596 -20.948  20.728  1.00  0.00    -0.075 SA
BRANCH  10  11
HETATM   11  C6  UNL     1      -3.678 -22.261  21.876  1.00  0.00     0.014 A 
HETATM   12  C5  UNL     1      -2.754 -23.269  21.853  1.00  0.00     0.020 A 
HETATM   13  C4  UNL     1      -2.778 -24.343  22.720  1.00  0.00     0.019 A 
HETATM   14  C3  UNL     1      -3.789 -24.394  23.655  1.00  0.00     0.040 A 
HETATM   15  C19 UNL     1      -4.726 -23.400  23.700  1.00  0.00     0.027 A 
HETATM   16  C11 UNL     1      -4.696 -22.338  22.835  1.00  0.00    -0.027 A 
BRANCH  14  17
HETATM   17  C2  UNL     1      -3.859 -25.511  24.596  1.00  0.00     0.292 C 
HETATM   18  O2  UNL     1      -3.367 -26.621  24.270  1.00  0.00    -0.259 OA
BRANCH  17  19
HETATM   19  O1  UNL     1      -4.441 -25.414  25.837  1.00  0.00    -0.323 OA
HETATM   20  C1  UNL     1      -3.665 -25.527  27.019  1.00  0.00     0.213 C 
ENDBRANCH  17  19
ENDBRANCH  14  17
BRANCH  16  21
HETATM   21  C12 UNL     1      -5.651 -21.211  22.822  1.00  0.00     0.135 C 
BRANCH  21  22
HETATM   22  N4  UNL     1      -6.878 -21.451  22.099  1.00  0.00    -0.279 NA
HETATM   23  C13 UNL     1      -7.961 -21.450  23.166  1.00  0.00     0.174 C 
HETATM   24  C14 UNL     1      -9.062 -20.770  22.654  1.00  0.00    -0.168 C 
HETATM   25  C15 UNL     1     -10.111 -20.044  22.046  1.00  0.00     0.085 C 
HETATM   26  C16 UNL     1      -9.487 -19.403  20.755  1.00  0.00     0.039 C 
HETATM   27  C17 UNL     1      -8.203 -20.139  20.358  1.00  0.00    -0.014 C 
HETATM   28  C18 UNL     1      -7.077 -20.274  21.241  1.00  0.00     0.057 C 
ENDBRANCH  21  22
ENDBRANCH  16  21
ENDBRANCH  10  11
ENDBRANCH   6  10
ENDBRANCH   1   6
TORSDOF 7
ENDMDL
