MODEL 1
REMARK VINA RESULT: -9.439567381      0.000      0.000
REMARK  5 active torsions:
REMARK  status: ('A' for Active; 'I' for Inactive)
REMARK    1  A    between atoms: C4_7  and  C5_8 
REMARK    2  A    between atoms: C10_16  and  C11_17 
REMARK    3  A    between atoms: C13_20  and  C14_21 
REMARK    4  A    between atoms: C14_21  and  N4_22 
REMARK    5  A    between atoms: N4_22  and  C15_24 
ROOT
HETATM    1  C1  UNL     1      -0.999 -20.404  17.751  1.00  0.00     0.070 C 
HETATM    2  C2  UNL     1      -1.538 -21.145  18.950  1.00  0.00     0.035 A 
HETATM    3  N1  UNL     1      -0.923 -22.024  19.718  1.00  0.00    -0.337 N 
ATOM      4  H1  UNL     1       0.032 -22.362  19.596  1.00  0.00     0.168 HD
HETATM    5  C3  UNL     1      -1.779 -22.401  20.693  1.00  0.00     0.172 A 
HETATM    6  S1  UNL     1      -2.061 -23.420  22.050  1.00  0.00    -0.037 SA
HETATM    7  C4  UNL     1      -3.699 -22.958  22.360  1.00  0.00     0.074 A 
HETATM    8  N2  UNL     1      -3.875 -22.066  21.411  1.00  0.00    -0.289 N 
ATOM      9  H2  UNL     1      -4.777 -21.596  21.339  1.00  0.00     0.188 HD
HETATM   10  N3  UNL     1      -2.963 -21.771  20.581  1.00  0.00    -0.233 N 
HETATM   11  C10 UNL     1      -2.826 -20.967  19.480  1.00  0.00     0.090 A 
ENDROOT
BRANCH  11  12
HETATM   12  C11 UNL     1      -3.845 -20.163  18.775  1.00  0.00     0.202 C 
HETATM   13  C12 UNL     1      -4.658 -19.299  19.764  1.00  0.00     0.209 C 
HETATM   14  O1  UNL     1      -5.572 -18.848  18.749  1.00  0.00    -0.357 OA
HETATM   15  C13 UNL     1      -6.015 -20.150  18.287  1.00  0.00     0.277 C 
HETATM   16  O2  UNL     1      -4.985 -21.003  18.426  1.00  0.00    -0.346 OA
BRANCH  15  17
HETATM   17  C14 UNL     1      -7.197 -20.335  19.280  1.00  0.00     0.174 C 
BRANCH  17  18
HETATM   18  N4  UNL     1      -7.940 -19.099  19.069  1.00  0.00    -0.412 N 
ATOM     19  H4  UNL     1      -7.829 -18.560  18.211  1.00  0.00     0.153 HD
BRANCH  18  20
HETATM   20  C15 UNL     1      -8.823 -18.669  20.097  1.00  0.00     0.076 C 
HETATM   21  C16 UNL     1      -8.214 -18.339  21.404  1.00  0.00     0.024 C 
HETATM   22  C17 UNL     1      -8.721 -19.379  22.401  1.00  0.00     0.002 C 
HETATM   23  C18 UNL     1      -9.998 -19.933  21.836  1.00  0.00     0.002 C 
HETATM   24  C19 UNL     1      -9.852 -19.794  20.365  1.00  0.00     0.024 C 
ENDBRANCH  18  20
ENDBRANCH  17  18
ENDBRANCH  15  17
ENDBRANCH  11  12
BRANCH   7  25
HETATM   25  C5  UNL     1      -4.623 -23.503  23.399  1.00  0.00     0.044 C 
HETATM   26  C6  UNL     1      -5.147 -24.880  23.113  1.00  0.00     0.011 C 
HETATM   27  C7  UNL     1      -6.512 -24.882  23.784  1.00  0.00     0.001 C 
HETATM   28  C8  UNL     1      -6.966 -23.438  23.854  1.00  0.00     0.001 C 
HETATM   29  C9  UNL     1      -5.839 -22.577  23.357  1.00  0.00     0.011 C 
ENDBRANCH   7  25
TORSDOF 5
ENDMDL
MODEL 2
REMARK VINA RESULT: -9.425492166      1.257      1.606
REMARK  5 active torsions:
REMARK  status: ('A' for Active; 'I' for Inactive)
REMARK    1  A    between atoms: C4_7  and  C5_8 
REMARK    2  A    between atoms: C10_16  and  C11_17 
REMARK    3  A    between atoms: C13_20  and  C14_21 
REMARK    4  A    between atoms: C14_21  and  N4_22 
REMARK    5  A    between atoms: N4_22  and  C15_24 
ROOT
HETATM    1  C1  UNL     1      -2.195 -20.081  17.377  1.00  0.00     0.070 C 
HETATM    2  C2  UNL     1      -2.570 -20.777  18.662  1.00  0.00     0.035 A 
HETATM    3  N1  UNL     1      -1.852 -21.620  19.381  1.00  0.00    -0.337 N 
ATOM      4  H1  UNL     1      -0.915 -21.954  19.154  1.00  0.00     0.168 HD
HETATM    5  C3  UNL     1      -2.575 -21.964  20.469  1.00  0.00     0.172 A 
HETATM    6  S1  UNL     1      -2.672 -22.930  21.889  1.00  0.00    -0.037 SA
HETATM    7  C4  UNL     1      -4.265 -22.470  22.384  1.00  0.00     0.074 A 
HETATM    8  N2  UNL     1      -4.570 -21.619  21.430  1.00  0.00    -0.289 N 
ATOM      9  H2  UNL     1      -5.480 -21.159  21.453  1.00  0.00     0.188 HD
HETATM   10  N3  UNL     1      -3.772 -21.349  20.482  1.00  0.00    -0.233 N 
HETATM   11  C10 UNL     1      -3.784 -20.589  19.342  1.00  0.00     0.090 A 
ENDROOT
BRANCH  11  12
HETATM   12  C11 UNL     1      -4.893 -19.822  18.739  1.00  0.00     0.202 C 
HETATM   13  C12 UNL     1      -5.062 -18.449  19.426  1.00  0.00     0.209 C 
HETATM   14  O1  UNL     1      -6.262 -18.138  18.696  1.00  0.00    -0.357 OA
HETATM   15  C13 UNL     1      -7.033 -19.309  19.071  1.00  0.00     0.277 C 
HETATM   16  O2  UNL     1      -6.170 -20.329  19.229  1.00  0.00    -0.346 OA
BRANCH  15  17
HETATM   17  C14 UNL     1      -7.665 -18.739  20.371  1.00  0.00     0.174 C 
BRANCH  17  18
HETATM   18  N4  UNL     1      -7.642 -19.911  21.236  1.00  0.00    -0.412 N 
ATOM     19  H4  UNL     1      -7.015 -20.692  21.045  1.00  0.00     0.153 HD
BRANCH  18  20
HETATM   20  C15 UNL     1      -8.521 -19.933  22.354  1.00  0.00     0.076 C 
HETATM   21  C16 UNL     1      -8.241 -20.941  23.400  1.00  0.00     0.024 C 
HETATM   22  C17 UNL     1      -9.406 -21.929  23.381  1.00  0.00     0.002 C 
HETATM   23  C18 UNL     1     -10.570 -21.214  22.758  1.00  0.00     0.002 C 
HETATM   24  C19 UNL     1      -9.956 -20.215  21.846  1.00  0.00     0.024 C 
ENDBRANCH  18  20
ENDBRANCH  17  18
ENDBRANCH  15  17
ENDBRANCH  11  12
BRANCH   7  25
HETATM   25  C5  UNL     1      -5.046 -22.980  23.550  1.00  0.00     0.044 C 
HETATM   26  C6  UNL     1      -4.306 -23.951  24.424  1.00  0.00     0.011 C 
HETATM   27  C7  UNL     1      -5.411 -24.839  24.976  1.00  0.00     0.001 C 
HETATM   28  C8  UNL     1      -6.555 -24.777  23.985  1.00  0.00     0.001 C 
HETATM   29  C9  UNL     1      -6.196 -23.771  22.928  1.00  0.00     0.011 C 
ENDBRANCH   7  25
TORSDOF 5
ENDMDL
MODEL 3
REMARK VINA RESULT: -9.415370360      2.408      5.287
REMARK  5 active torsions:
REMARK  status: ('A' for Active; 'I' for Inactive)
REMARK    1  A    between atoms: C4_7  and  C5_8 
REMARK    2  A    between atoms: C10_16  and  C11_17 
REMARK    3  A    between atoms: C13_20  and  C14_21 
REMARK    4  A    between atoms: C14_21  and  N4_22 
REMARK    5  A    between atoms: N4_22  and  C15_24 
ROOT
HETATM    1  C1  UNL     1      -1.176 -20.736  17.280  1.00  0.00     0.070 C 
HETATM    2  C2  UNL     1      -2.459 -20.406  18.001  1.00  0.00     0.035 A 
HETATM    3  N1  UNL     1      -3.493 -19.710  17.564  1.00  0.00    -0.337 N 
ATOM      4  H1  UNL     1      -3.570 -19.260  16.652  1.00  0.00     0.168 HD
HETATM    5  C3  UNL     1      -4.432 -19.699  18.537  1.00  0.00     0.172 A 
HETATM    6  S1  UNL     1      -5.966 -19.118  19.052  1.00  0.00    -0.037 SA
HETATM    7  C4  UNL     1      -5.963 -19.807  20.639  1.00  0.00     0.074 A 
HETATM    8  N2  UNL     1      -4.801 -20.422  20.626  1.00  0.00    -0.289 N 
ATOM      9  H2  UNL     1      -4.509 -20.942  21.453  1.00  0.00     0.188 HD
HETATM   10  N3  UNL     1      -4.029 -20.389  19.620  1.00  0.00    -0.233 N 
HETATM   11  C10 UNL     1      -2.779 -20.847  19.295  1.00  0.00     0.090 A 
ENDROOT
BRANCH  11  12
HETATM   12  C11 UNL     1      -1.781 -21.527  20.145  1.00  0.00     0.202 C 
HETATM   13  C12 UNL     1      -1.686 -23.030  19.802  1.00  0.00     0.209 C 
HETATM   14  O1  UNL     1      -0.794 -23.309  20.896  1.00  0.00    -0.357 OA
HETATM   15  C13 UNL     1      -1.625 -22.794  21.968  1.00  0.00     0.277 C 
HETATM   16  O2  UNL     1      -2.341 -21.769  21.470  1.00  0.00    -0.346 OA
BRANCH  15  17
HETATM   17  C14 UNL     1      -2.415 -24.099  22.268  1.00  0.00     0.174 C 
BRANCH  17  18
HETATM   18  N4  UNL     1      -3.441 -23.606  23.177  1.00  0.00    -0.412 N 
ATOM     19  H4  UNL     1      -3.442 -22.636  23.492  1.00  0.00     0.153 HD
BRANCH  18  20
HETATM   20  C15 UNL     1      -4.441 -24.519  23.612  1.00  0.00     0.076 C 
HETATM   21  C16 UNL     1      -5.834 -24.217  23.217  1.00  0.00     0.024 C 
HETATM   22  C17 UNL     1      -6.596 -23.893  24.501  1.00  0.00     0.002 C 
HETATM   23  C18 UNL     1      -5.835 -24.531  25.628  1.00  0.00     0.002 C 
HETATM   24  C19 UNL     1      -4.425 -24.565  25.159  1.00  0.00     0.024 C 
ENDBRANCH  18  20
ENDBRANCH  17  18
ENDBRANCH  15  17
ENDBRANCH  11  12
BRANCH   7  25
HETATM   25  C5  UNL     1      -6.999 -19.659  21.705  1.00  0.00     0.044 C 
HETATM   26  C6  UNL     1      -7.366 -20.935  22.405  1.00  0.00     0.011 C 
HETATM   27  C7  UNL     1      -8.817 -20.711  22.802  1.00  0.00     0.001 C 
HETATM   28  C8  UNL     1      -9.382 -19.691  21.834  1.00  0.00     0.001 C 
HETATM   29  C9  UNL     1      -8.257 -19.215  20.959  1.00  0.00     0.011 C 
ENDBRANCH   7  25
TORSDOF 5
ENDMDL
MODEL 4
REMARK VINA RESULT: -9.365021830      2.424      4.911
REMARK  5 active torsions:
REMARK  status: ('A' for Active; 'I' for Inactive)
REMARK    1  A    between atoms: C4_7  and  C5_8 
REMARK    2  A    between atoms: C10_16  and  C11_17 
REMARK    3  A    between atoms: C13_20  and  C14_21 
REMARK    4  A    between atoms: C14_21  and  N4_22 
REMARK    5  A    between atoms: N4_22  and  C15_24 
ROOT
HETATM    1  C1  UNL     1      -1.173 -25.215  23.593  1.00  0.00     0.070 C 
HETATM    2  C2  UNL     1      -1.689 -24.279  22.529  1.00  0.00     0.035 A 
HETATM    3  N1  UNL     1      -1.042 -23.766  21.500  1.00  0.00    -0.337 N 
ATOM      4  H1  UNL     1      -0.057 -23.914  21.277  1.00  0.00     0.168 HD
HETATM    5  C3  UNL     1      -1.910 -23.010  20.792  1.00  0.00     0.172 A 
HETATM    6  S1  UNL     1      -2.142 -21.942  19.464  1.00  0.00    -0.037 SA
HETATM    7  C4  UNL     1      -3.813 -21.582  19.734  1.00  0.00     0.074 A 
HETATM    8  N2  UNL     1      -4.041 -22.314  20.802  1.00  0.00    -0.289 N 
ATOM      9  H2  UNL     1      -4.976 -22.314  21.208  1.00  0.00     0.188 HD
HETATM   10  N3  UNL     1      -3.138 -23.020  21.344  1.00  0.00    -0.233 N 
HETATM   11  C10 UNL     1      -3.016 -23.824  22.447  1.00  0.00     0.090 A 
ENDROOT
BRANCH  11  12
HETATM   12  C11 UNL     1      -3.986 -24.082  23.530  1.00  0.00     0.202 C 
HETATM   13  C12 UNL     1      -5.151 -24.969  23.038  1.00  0.00     0.209 C 
HETATM   14  O1  UNL     1      -5.884 -24.834  24.269  1.00  0.00    -0.357 OA
HETATM   15  C13 UNL     1      -5.953 -23.385  24.302  1.00  0.00     0.277 C 
HETATM   16  O2  UNL     1      -4.835 -22.911  23.723  1.00  0.00    -0.346 OA
BRANCH  15  17
HETATM   17  C14 UNL     1      -7.269 -23.218  23.491  1.00  0.00     0.174 C 
BRANCH  17  18
HETATM   18  N4  UNL     1      -7.103 -21.874  22.955  1.00  0.00    -0.412 N 
ATOM     19  H4  UNL     1      -6.281 -21.627  22.402  1.00  0.00     0.153 HD
BRANCH  18  20
HETATM   20  C15 UNL     1      -8.119 -20.918  23.224  1.00  0.00     0.076 C 
HETATM   21  C16 UNL     1      -9.515 -21.341  22.974  1.00  0.00     0.024 C 
HETATM   22  C17 UNL     1     -10.031 -20.493  21.814  1.00  0.00     0.002 C 
HETATM   23  C18 UNL     1      -9.183 -19.255  21.771  1.00  0.00     0.002 C 
HETATM   24  C19 UNL     1      -7.873 -19.675  22.334  1.00  0.00     0.024 C 
ENDBRANCH  18  20
ENDBRANCH  17  18
ENDBRANCH  15  17
ENDBRANCH  11  12
BRANCH   7  25
HETATM   25  C5  UNL     1      -4.684 -20.644  18.965  1.00  0.00     0.044 C 
HETATM   26  C6  UNL     1      -4.792 -19.266  19.550  1.00  0.00     0.011 C 
HETATM   27  C7  UNL     1      -6.182 -18.814  19.127  1.00  0.00     0.001 C 
HETATM   28  C8  UNL     1      -7.000 -20.070  18.906  1.00  0.00     0.001 C 
HETATM   29  C9  UNL     1      -6.084 -21.250  19.063  1.00  0.00     0.011 C 
ENDBRANCH   7  25
TORSDOF 5
ENDMDL
MODEL 5
REMARK VINA RESULT: -9.355340490      2.595      6.854
REMARK  5 active torsions:
REMARK  status: ('A' for Active; 'I' for Inactive)
REMARK    1  A    between atoms: C4_7  and  C5_8 
REMARK    2  A    between atoms: C10_16  and  C11_17 
REMARK    3  A    between atoms: C13_20  and  C14_21 
REMARK    4  A    between atoms: C14_21  and  N4_22 
REMARK    5  A    between atoms: N4_22  and  C15_24 
ROOT
HETATM    1  C1  UNL     1      -5.502 -24.683  25.046  1.00  0.00     0.070 C 
HETATM    2  C2  UNL     1      -6.442 -23.674  24.434  1.00  0.00     0.035 A 
HETATM    3  N1  UNL     1      -7.711 -23.453  24.720  1.00  0.00    -0.337 N 
ATOM      4  H1  UNL     1      -8.269 -23.964  25.403  1.00  0.00     0.168 HD
HETATM    5  C3  UNL     1      -8.143 -22.432  23.947  1.00  0.00     0.172 A 
HETATM    6  S1  UNL     1      -9.471 -21.449  23.467  1.00  0.00    -0.037 SA
HETATM    7  C4  UNL     1      -8.654 -20.517  22.259  1.00  0.00     0.074 A 
HETATM    8  N2  UNL     1      -7.448 -21.033  22.340  1.00  0.00    -0.289 N 
ATOM      9  H2  UNL     1      -6.715 -20.669  21.731  1.00  0.00     0.188 HD
HETATM   10  N3  UNL     1      -7.164 -21.966  23.150  1.00  0.00    -0.233 N 
HETATM   11  C10 UNL     1      -6.075 -22.743  23.448  1.00  0.00     0.090 A 
ENDROOT
BRANCH  11  12
HETATM   12  C11 UNL     1      -4.759 -22.807  22.781  1.00  0.00     0.202 C 
HETATM   13  C12 UNL     1      -3.992 -21.473  22.929  1.00  0.00     0.209 C 
HETATM   14  O1  UNL     1      -2.928 -21.893  22.056  1.00  0.00    -0.357 OA
HETATM   15  C13 UNL     1      -3.737 -22.215  20.895  1.00  0.00     0.277 C 
HETATM   16  O2  UNL     1      -4.926 -22.659  21.340  1.00  0.00    -0.346 OA
BRANCH  15  17
HETATM   17  C14 UNL     1      -3.733 -20.807  20.237  1.00  0.00     0.174 C 
BRANCH  17  18
HETATM   18  N4  UNL     1      -2.344 -20.697  19.811  1.00  0.00    -0.412 N 
ATOM     19  H4  UNL     1      -1.638 -20.287  20.423  1.00  0.00     0.153 HD
BRANCH  18  20
HETATM   20  C15 UNL     1      -2.002 -21.177  18.518  1.00  0.00     0.076 C 
HETATM   21  C16 UNL     1      -0.571 -21.457  18.268  1.00  0.00     0.024 C 
HETATM   22  C17 UNL     1      -0.101 -20.445  17.225  1.00  0.00     0.002 C 
HETATM   23  C18 UNL     1      -1.325 -19.981  16.489  1.00  0.00     0.002 C 
HETATM   24  C19 UNL     1      -2.431 -20.120  17.471  1.00  0.00     0.024 C 
ENDBRANCH  18  20
ENDBRANCH  17  18
ENDBRANCH  15  17
ENDBRANCH  11  12
BRANCH   7  25
HETATM   25  C5  UNL     1      -9.232 -19.470  21.364  1.00  0.00     0.044 C 
HETATM   26  C6  UNL     1     -10.082 -20.000  20.246  1.00  0.00     0.011 C 
HETATM   27  C7  UNL     1      -9.896 -18.967  19.145  1.00  0.00     0.001 C 
HETATM   28  C8  UNL     1      -8.561 -18.297  19.396  1.00  0.00     0.001 C 
HETATM   29  C9  UNL     1      -8.019 -18.823  20.695  1.00  0.00     0.011 C 
ENDBRANCH   7  25
TORSDOF 5
ENDMDL
