MODEL 1
REMARK VINA RESULT: -7.988215271      0.000      0.000
REMARK  6 active torsions:
REMARK  status: ('A' for Active; 'I' for Inactive)
REMARK    1  A    between atoms: C2_2  and  S2_4 
REMARK    2  A    between atoms: S2_4  and  C3_5 
REMARK    3  A    between atoms: C3_5  and  C4_6 
REMARK    4  A    between atoms: N1_8  and  N2_10 
REMARK       I    between atoms: N2_10  and  C6_12 
REMARK    5  A    between atoms: C6_12  and  C7_14 
REMARK    6  A    between atoms: C7_14  and  C8_15 
ROOT
HETATM    1  N2  UNL     1      -4.104 -19.715  20.650  1.00  0.00    -0.270 N 
ATOM      2  H2  UNL     1      -3.901 -19.013  21.362  1.00  0.00     0.190 HD
HETATM    3  C6  UNL     1      -5.225 -19.515  19.808  1.00  0.00     0.240 C 
HETATM    4  O1  UNL     1      -5.483 -20.381  18.925  1.00  0.00    -0.272 OA
ENDROOT
BRANCH   3   5
HETATM    5  C7  UNL     1      -6.088 -18.321  19.945  1.00  0.00     0.144 C 
BRANCH   5   6
HETATM    6  C8  UNL     1      -7.543 -18.775  19.948  1.00  0.00    -0.031 A 
HETATM    7  C9  UNL     1      -8.343 -18.367  18.920  1.00  0.00     0.058 A 
HETATM    8  S3  UNL     1      -9.849 -19.063  19.295  1.00  0.00    -0.101 SA
HETATM    9  C10 UNL     1      -9.433 -19.856  20.744  1.00  0.00     0.018 A 
HETATM   10  C11 UNL     1     -10.159 -20.640  21.627  1.00  0.00     0.059 A 
HETATM   11  C15 UNL     1      -8.115 -19.555  20.901  1.00  0.00    -0.009 A 
HETATM   12  C12 UNL     1      -9.541 -21.176  22.763  1.00  0.00     0.106 A 
HETATM   13  C13 UNL     1      -8.228 -20.874  22.918  1.00  0.00     0.105 A 
HETATM   14  O3  UNL     1      -9.995 -21.974  23.800  1.00  0.00    -0.323 OA
HETATM   15  C14 UNL     1      -7.484 -20.090  22.042  1.00  0.00     0.053 A 
HETATM   16  O2  UNL     1      -7.814 -21.509  24.110  1.00  0.00    -0.323 OA
HETATM   17  C16 UNL     1      -8.821 -22.432  24.471  1.00  0.00     0.352 C 
ENDBRANCH   5   6
ENDBRANCH   3   5
BRANCH   1  18
HETATM   18  N1  UNL     1      -3.268 -20.818  20.552  1.00  0.00    -0.306 N 
HETATM   19  C4  UNL     1      -3.158 -21.731  21.496  1.00  0.00     0.009 C 
HETATM   20  C5  UNL     1      -3.998 -21.511  22.691  1.00  0.00     0.066 C 
ATOM     21  H1  UNL     1      -2.710 -20.928  19.705  1.00  0.00     0.186 HD
BRANCH  19  22
HETATM   22  C3  UNL     1      -2.241 -22.865  21.292  1.00  0.00     0.133 C 
BRANCH  22  23
HETATM   23  S2  UNL     1      -1.941 -23.924  22.669  1.00  0.00    -0.117 SA
BRANCH  23  24
HETATM   24  C2  UNL     1      -3.204 -25.013  23.180  1.00  0.00     0.041 C 
HETATM   25  C1  UNL     1      -4.645 -24.965  22.897  1.00  0.00     0.069 C 
HETATM   26  S1  UNL     1      -2.786 -26.148  24.016  1.00  0.00    -0.078 SA
ENDBRANCH  23  24
ENDBRANCH  22  23
ENDBRANCH  19  22
ENDBRANCH   1  18
TORSDOF 6
ENDMDL
MODEL 2
REMARK VINA RESULT: -7.768167718      3.004      4.544
REMARK  6 active torsions:
REMARK  status: ('A' for Active; 'I' for Inactive)
REMARK    1  A    between atoms: C2_2  and  S2_4 
REMARK    2  A    between atoms: S2_4  and  C3_5 
REMARK    3  A    between atoms: C3_5  and  C4_6 
REMARK    4  A    between atoms: N1_8  and  N2_10 
REMARK       I    between atoms: N2_10  and  C6_12 
REMARK    5  A    between atoms: C6_12  and  C7_14 
REMARK    6  A    between atoms: C7_14  and  C8_15 
ROOT
HETATM    1  N2  UNL     1      -4.122 -22.847  23.959  1.00  0.00    -0.270 N 
ATOM      2  H2  UNL     1      -4.110 -22.267  24.797  1.00  0.00     0.190 HD
HETATM    3  C6  UNL     1      -4.679 -22.309  22.774  1.00  0.00     0.240 C 
HETATM    4  O1  UNL     1      -4.699 -23.024  21.733  1.00  0.00    -0.272 OA
ENDROOT
BRANCH   3   5
HETATM    5  C7  UNL     1      -5.232 -20.937  22.738  1.00  0.00     0.144 C 
BRANCH   5   6
HETATM    6  C8  UNL     1      -6.753 -21.029  22.752  1.00  0.00    -0.031 A 
HETATM    7  C9  UNL     1      -7.343 -21.707  23.780  1.00  0.00     0.058 A 
HETATM    8  S3  UNL     1      -9.003 -21.587  23.427  1.00  0.00    -0.101 SA
HETATM    9  C10 UNL     1      -8.914 -20.682  21.987  1.00  0.00     0.018 A 
HETATM   10  C11 UNL     1      -9.881 -20.197  21.120  1.00  0.00     0.059 A 
HETATM   11  C15 UNL     1      -7.576 -20.494  21.816  1.00  0.00    -0.009 A 
HETATM   12  C12 UNL     1      -9.508 -19.465  19.988  1.00  0.00     0.106 A 
HETATM   13  C13 UNL     1      -8.175 -19.279  19.819  1.00  0.00     0.105 A 
HETATM   14  O3  UNL     1     -10.228 -18.869  18.967  1.00  0.00    -0.323 OA
HETATM   15  C14 UNL     1      -7.191 -19.757  20.678  1.00  0.00     0.053 A 
HETATM   16  O2  UNL     1      -8.029 -18.526  18.634  1.00  0.00    -0.323 OA
HETATM   17  C16 UNL     1      -9.302 -18.016  18.293  1.00  0.00     0.352 C 
ENDBRANCH   5   6
ENDBRANCH   3   5
BRANCH   1  18
HETATM   18  N1  UNL     1      -3.591 -24.127  24.034  1.00  0.00    -0.306 N 
HETATM   19  C4  UNL     1      -4.119 -25.091  24.761  1.00  0.00     0.009 C 
HETATM   20  C5  UNL     1      -5.342 -24.726  25.504  1.00  0.00     0.066 C 
ATOM     21  H1  UNL     1      -2.746 -24.332  23.500  1.00  0.00     0.186 HD
BRANCH  19  22
HETATM   22  C3  UNL     1      -3.476 -26.416  24.770  1.00  0.00     0.133 C 
BRANCH  22  23
HETATM   23  S2  UNL     1      -2.959 -27.056  26.329  1.00  0.00    -0.117 SA
BRANCH  23  24
HETATM   24  C2  UNL     1      -2.733 -25.948  27.657  1.00  0.00     0.041 C 
HETATM   25  C1  UNL     1      -1.770 -24.847  27.797  1.00  0.00     0.069 C 
HETATM   26  S1  UNL     1      -3.625 -26.126  28.813  1.00  0.00    -0.078 SA
ENDBRANCH  23  24
ENDBRANCH  22  23
ENDBRANCH  19  22
ENDBRANCH   1  18
TORSDOF 6
ENDMDL
MODEL 3
REMARK VINA RESULT: -7.757515658      2.824      4.057
REMARK  6 active torsions:
REMARK  status: ('A' for Active; 'I' for Inactive)
REMARK    1  A    between atoms: C2_2  and  S2_4 
REMARK    2  A    between atoms: S2_4  and  C3_5 
REMARK    3  A    between atoms: C3_5  and  C4_6 
REMARK    4  A    between atoms: N1_8  and  N2_10 
REMARK       I    between atoms: N2_10  and  C6_12 
REMARK    5  A    between atoms: C6_12  and  C7_14 
REMARK    6  A    between atoms: C7_14  and  C8_15 
ROOT
HETATM    1  N2  UNL     1      -5.705 -18.462  19.905  1.00  0.00    -0.270 N 
ATOM      2  H2  UNL     1      -5.276 -17.881  20.625  1.00  0.00     0.190 HD
HETATM    3  C6  UNL     1      -7.075 -18.794  20.034  1.00  0.00     0.240 C 
HETATM    4  O1  UNL     1      -7.611 -19.515  19.145  1.00  0.00    -0.272 OA
ENDROOT
BRANCH   3   5
HETATM    5  C7  UNL     1      -7.878 -18.316  21.180  1.00  0.00     0.144 C 
BRANCH   5   6
HETATM    6  C8  UNL     1      -8.547 -19.518  21.836  1.00  0.00    -0.031 A 
HETATM    7  C9  UNL     1      -9.909 -19.599  21.787  1.00  0.00     0.058 A 
HETATM    8  S3  UNL     1     -10.246 -21.044  22.619  1.00  0.00    -0.101 SA
HETATM    9  C10 UNL     1      -8.657 -21.515  23.010  1.00  0.00     0.018 A 
HETATM   10  C11 UNL     1      -8.140 -22.606  23.690  1.00  0.00     0.059 A 
HETATM   11  C15 UNL     1      -7.893 -20.521  22.476  1.00  0.00    -0.009 A 
HETATM   12  C12 UNL     1      -6.758 -22.738  23.863  1.00  0.00     0.106 A 
HETATM   13  C13 UNL     1      -6.000 -21.748  23.330  1.00  0.00     0.105 A 
HETATM   14  O3  UNL     1      -5.969 -23.692  24.482  1.00  0.00    -0.323 OA
HETATM   15  C14 UNL     1      -6.500 -20.646  22.644  1.00  0.00     0.053 A 
HETATM   16  O2  UNL     1      -4.658 -22.080  23.618  1.00  0.00    -0.323 OA
HETATM   17  C16 UNL     1      -4.635 -23.426  24.047  1.00  0.00     0.352 C 
ENDBRANCH   5   6
ENDBRANCH   3   5
BRANCH   1  18
HETATM   18  N1  UNL     1      -4.917 -18.887  18.844  1.00  0.00    -0.306 N 
HETATM   19  C4  UNL     1      -3.977 -19.803  18.961  1.00  0.00     0.009 C 
HETATM   20  C5  UNL     1      -3.807 -20.369  20.314  1.00  0.00     0.066 C 
ATOM     21  H1  UNL     1      -5.074 -18.469  17.927  1.00  0.00     0.186 HD
BRANCH  19  22
HETATM   22  C3  UNL     1      -3.197 -20.184  17.771  1.00  0.00     0.133 C 
BRANCH  22  23
HETATM   23  S2  UNL     1      -1.883 -21.337  17.996  1.00  0.00    -0.117 SA
BRANCH  23  24
HETATM   24  C2  UNL     1      -0.418 -20.798  18.773  1.00  0.00     0.041 C 
HETATM   25  C1  UNL     1       0.081 -21.092  20.124  1.00  0.00     0.069 C 
HETATM   26  S1  UNL     1       0.456 -19.920  17.980  1.00  0.00    -0.078 SA
ENDBRANCH  23  24
ENDBRANCH  22  23
ENDBRANCH  19  22
ENDBRANCH   1  18
TORSDOF 6
ENDMDL
MODEL 4
REMARK VINA RESULT: -7.736123180      1.519      2.402
REMARK  6 active torsions:
REMARK  status: ('A' for Active; 'I' for Inactive)
REMARK    1  A    between atoms: C2_2  and  S2_4 
REMARK    2  A    between atoms: S2_4  and  C3_5 
REMARK    3  A    between atoms: C3_5  and  C4_6 
REMARK    4  A    between atoms: N1_8  and  N2_10 
REMARK       I    between atoms: N2_10  and  C6_12 
REMARK    5  A    between atoms: C6_12  and  C7_14 
REMARK    6  A    between atoms: C7_14  and  C8_15 
ROOT
HETATM    1  N2  UNL     1      -4.151 -19.617  20.869  1.00  0.00    -0.270 N 
ATOM      2  H2  UNL     1      -4.012 -18.906  21.587  1.00  0.00     0.190 HD
HETATM    3  C6  UNL     1      -5.214 -19.446  19.949  1.00  0.00     0.240 C 
HETATM    4  O1  UNL     1      -5.392 -20.324  19.058  1.00  0.00    -0.272 OA
ENDROOT
BRANCH   3   5
HETATM    5  C7  UNL     1      -6.107 -18.269  20.015  1.00  0.00     0.144 C 
BRANCH   5   6
HETATM    6  C8  UNL     1      -7.551 -18.758  19.986  1.00  0.00    -0.031 A 
HETATM    7  C9  UNL     1      -8.336 -18.371  18.937  1.00  0.00     0.058 A 
HETATM    8  S3  UNL     1      -9.834 -19.102  19.279  1.00  0.00    -0.101 SA
HETATM    9  C10 UNL     1      -9.434 -19.880  20.740  1.00  0.00     0.018 A 
HETATM   10  C11 UNL     1     -10.162 -20.678  21.609  1.00  0.00     0.059 A 
HETATM   11  C15 UNL     1      -8.127 -19.547  20.927  1.00  0.00    -0.009 A 
HETATM   12  C12 UNL     1      -9.559 -21.195  22.761  1.00  0.00     0.106 A 
HETATM   13  C13 UNL     1      -8.258 -20.862  22.946  1.00  0.00     0.105 A 
HETATM   14  O3  UNL     1     -10.019 -22.000  23.789  1.00  0.00    -0.323 OA
HETATM   15  C14 UNL     1      -7.512 -20.064  22.085  1.00  0.00     0.053 A 
HETATM   16  O2  UNL     1      -7.858 -21.483  24.150  1.00  0.00    -0.323 OA
HETATM   17  C16 UNL     1      -8.852 -22.429  24.491  1.00  0.00     0.352 C 
ENDBRANCH   5   6
ENDBRANCH   3   5
BRANCH   1  18
HETATM   18  N1  UNL     1      -3.288 -20.704  20.840  1.00  0.00    -0.306 N 
HETATM   19  C4  UNL     1      -3.258 -21.631  21.775  1.00  0.00     0.009 C 
HETATM   20  C5  UNL     1      -4.219 -21.448  22.881  1.00  0.00     0.066 C 
ATOM     21  H1  UNL     1      -2.645 -20.789  20.053  1.00  0.00     0.186 HD
BRANCH  19  22
HETATM   22  C3  UNL     1      -2.303 -22.746  21.647  1.00  0.00     0.133 C 
BRANCH  22  23
HETATM   23  S2  UNL     1      -1.597 -23.031  20.057  1.00  0.00    -0.117 SA
BRANCH  23  24
HETATM   24  C2  UNL     1      -0.166 -22.145  19.604  1.00  0.00     0.041 C 
HETATM   25  C1  UNL     1       0.408 -21.922  18.270  1.00  0.00     0.069 C 
HETATM   26  S1  UNL     1       0.592 -21.526  20.703  1.00  0.00    -0.078 SA
ENDBRANCH  23  24
ENDBRANCH  22  23
ENDBRANCH  19  22
ENDBRANCH   1  18
TORSDOF 6
ENDMDL
MODEL 5
REMARK VINA RESULT: -7.689831278      3.105      4.297
REMARK  6 active torsions:
REMARK  status: ('A' for Active; 'I' for Inactive)
REMARK    1  A    between atoms: C2_2  and  S2_4 
REMARK    2  A    between atoms: S2_4  and  C3_5 
REMARK    3  A    between atoms: C3_5  and  C4_6 
REMARK    4  A    between atoms: N1_8  and  N2_10 
REMARK       I    between atoms: N2_10  and  C6_12 
REMARK    5  A    between atoms: C6_12  and  C7_14 
REMARK    6  A    between atoms: C7_14  and  C8_15 
ROOT
HETATM    1  N2  UNL     1      -4.534 -19.216  19.679  1.00  0.00    -0.270 N 
ATOM      2  H2  UNL     1      -4.071 -18.597  20.345  1.00  0.00     0.190 HD
HETATM    3  C6  UNL     1      -5.949 -19.250  19.663  1.00  0.00     0.240 C 
HETATM    4  O1  UNL     1      -6.529 -20.016  18.842  1.00  0.00    -0.272 OA
ENDROOT
BRANCH   3   5
HETATM    5  C7  UNL     1      -6.750 -18.412  20.583  1.00  0.00     0.144 C 
BRANCH   5   6
HETATM    6  C8  UNL     1      -7.748 -19.308  21.307  1.00  0.00    -0.031 A 
HETATM    7  C9  UNL     1      -9.078 -19.056  21.133  1.00  0.00     0.058 A 
HETATM    8  S3  UNL     1      -9.831 -20.242  22.092  1.00  0.00    -0.101 SA
HETATM    9  C10 UNL     1      -8.446 -21.031  22.692  1.00  0.00     0.018 A 
HETATM   10  C11 UNL     1      -8.275 -22.111  23.545  1.00  0.00     0.059 A 
HETATM   11  C15 UNL     1      -7.419 -20.342  22.123  1.00  0.00    -0.009 A 
HETATM   12  C12 UNL     1      -6.988 -22.554  23.869  1.00  0.00     0.106 A 
HETATM   13  C13 UNL     1      -5.967 -21.866  23.301  1.00  0.00     0.105 A 
HETATM   14  O3  UNL     1      -6.515 -23.577  24.673  1.00  0.00    -0.323 OA
HETATM   15  C14 UNL     1      -6.120 -20.782  22.443  1.00  0.00     0.053 A 
HETATM   16  O2  UNL     1      -4.778 -22.475  23.758  1.00  0.00    -0.323 OA
HETATM   17  C16 UNL     1      -5.131 -23.712  24.344  1.00  0.00     0.352 C 
ENDBRANCH   5   6
ENDBRANCH   3   5
BRANCH   1  18
HETATM   18  N1  UNL     1      -3.747 -19.983  18.833  1.00  0.00    -0.306 N 
HETATM   19  C4  UNL     1      -2.931 -20.926  19.257  1.00  0.00     0.009 C 
HETATM   20  C5  UNL     1      -2.905 -21.131  20.719  1.00  0.00     0.066 C 
ATOM     21  H1  UNL     1      -3.802 -19.806  17.829  1.00  0.00     0.186 HD
BRANCH  19  22
HETATM   22  C3  UNL     1      -2.139 -21.684  18.273  1.00  0.00     0.133 C 
BRANCH  22  23
HETATM   23  S2  UNL     1      -0.511 -21.105  17.923  1.00  0.00    -0.117 SA
BRANCH  23  24
HETATM   24  C2  UNL     1      -0.312 -19.799  16.785  1.00  0.00     0.041 C 
HETATM   25  C1  UNL     1      -1.292 -19.213  15.860  1.00  0.00     0.069 C 
HETATM   26  S1  UNL     1       1.022 -19.182  16.727  1.00  0.00    -0.078 SA
ENDBRANCH  23  24
ENDBRANCH  22  23
ENDBRANCH  19  22
ENDBRANCH   1  18
TORSDOF 6
ENDMDL
