MODEL 1
REMARK VINA RESULT: -9.134946851      0.000      0.000
REMARK  7 active torsions:
REMARK  status: ('A' for Active; 'I' for Inactive)
REMARK    1  A    between atoms: C2_2  and  C3_4 
REMARK    2  A    between atoms: C3_4  and  O2_5 
REMARK    3  A    between atoms: O2_5  and  N1_6 
REMARK    4  A    between atoms: C4_8  and  C6_10 
REMARK    5  A    between atoms: C6_10  and  O4_12 
REMARK    6  A    between atoms: O4_12  and  C7_13 
REMARK    7  A    between atoms: C16_23  and  O6_24 
ROOT
HETATM    1  C7  UNL     1      -4.664 -21.984  19.926  1.00  0.00     0.137 C 
HETATM    2  C8  UNL     1      -5.984 -21.686  19.198  1.00  0.00     0.033 C 
HETATM    3  C9  UNL     1      -7.032 -21.166  20.126  1.00  0.00     0.007 C 
HETATM    4  C10 UNL     1      -6.457 -20.522  21.365  1.00  0.00    -0.010 C 
HETATM    5  C11 UNL     1      -7.616 -19.989  22.178  1.00  0.00     0.011 C 
HETATM    6  C12 UNL     1      -5.644 -21.479  22.186  1.00  0.00    -0.029 C 
HETATM    7  C13 UNL     1      -4.618 -20.700  22.963  1.00  0.00     0.016 C 
HETATM    8  C14 UNL     1      -6.522 -22.216  23.206  1.00  0.00     0.075 C 
HETATM    9  C15 UNL     1      -5.678 -23.301  23.818  1.00  0.00     0.063 A 
HETATM   10  O5  UNL     1      -5.874 -23.997  24.915  1.00  0.00    -0.292 OA
HETATM   11  C16 UNL     1      -4.933 -24.854  25.136  1.00  0.00     0.183 A 
HETATM   12  C17 UNL     1      -4.026 -24.727  24.103  1.00  0.00     0.073 A 
HETATM   13  C18 UNL     1      -4.512 -23.740  23.276  1.00  0.00    -0.023 A 
HETATM   14  C19 UNL     1      -3.930 -23.194  22.002  1.00  0.00     0.049 C 
HETATM   15  C20 UNL     1      -5.062 -22.512  21.280  1.00  0.00     0.028 C 
ENDROOT
BRANCH   1  16
HETATM   16  O4  UNL     1      -3.864 -20.843  19.978  1.00  0.00    -0.311 OA
BRANCH  16  17
HETATM   17  C6  UNL     1      -3.612 -20.087  18.867  1.00  0.00     0.307 C 
HETATM   18  O3  UNL     1      -4.410 -19.111  18.655  1.00  0.00    -0.258 OA
BRANCH  17  19
HETATM   19  C4  UNL     1      -2.517 -20.327  17.942  1.00  0.00     0.103 C 
HETATM   20  N1  UNL     1      -2.462 -19.797  16.776  1.00  0.00    -0.265 N 
ATOM     21  H1  UNL     1      -3.230 -19.184  16.504  1.00  0.00     0.194 HD
HETATM   22  C5  UNL     1      -1.423 -21.224  18.373  1.00  0.00     0.077 C 
BRANCH  20  23
HETATM   23  O2  UNL     1      -1.471 -19.984  15.878  1.00  0.00    -0.273 OA
BRANCH  23  24
HETATM   24  C3  UNL     1      -0.857 -18.941  15.146  1.00  0.00     0.278 C 
BRANCH  24  25
HETATM   25  C2  UNL     1      -1.694 -18.509  13.999  1.00  0.00     0.148 C 
HETATM   26  C1  UNL     1      -1.512 -17.164  13.423  1.00  0.00     0.093 C 
HETATM   27  O1  UNL     1      -2.516 -19.291  13.565  1.00  0.00    -0.296 OA
ENDBRANCH  24  25
ENDBRANCH  23  24
ENDBRANCH  20  23
ENDBRANCH  17  19
ENDBRANCH  16  17
ENDBRANCH   1  16
BRANCH  11  28
HETATM   28  O6  UNL     1      -4.808 -25.754  26.194  1.00  0.00    -0.341 OA
ATOM     29  H6  UNL     1      -4.054 -26.277  26.440  1.00  0.00     0.220 HD
ENDBRANCH  11  28
TORSDOF 7
ENDMDL
MODEL 2
REMARK VINA RESULT: -9.062649850      1.160      1.438
REMARK  7 active torsions:
REMARK  status: ('A' for Active; 'I' for Inactive)
REMARK    1  A    between atoms: C2_2  and  C3_4 
REMARK    2  A    between atoms: C3_4  and  O2_5 
REMARK    3  A    between atoms: O2_5  and  N1_6 
REMARK    4  A    between atoms: C4_8  and  C6_10 
REMARK    5  A    between atoms: C6_10  and  O4_12 
REMARK    6  A    between atoms: O4_12  and  C7_13 
REMARK    7  A    between atoms: C16_23  and  O6_24 
ROOT
HETATM    1  C7  UNL     1      -4.878 -21.730  19.121  1.00  0.00     0.137 C 
HETATM    2  C8  UNL     1      -6.025 -21.126  18.297  1.00  0.00     0.033 C 
HETATM    3  C9  UNL     1      -6.928 -20.278  19.129  1.00  0.00     0.007 C 
HETATM    4  C10 UNL     1      -6.256 -19.739  20.369  1.00  0.00    -0.010 C 
HETATM    5  C11 UNL     1      -7.256 -18.854  21.081  1.00  0.00     0.011 C 
HETATM    6  C12 UNL     1      -5.783 -20.829  21.287  1.00  0.00    -0.029 C 
HETATM    7  C13 UNL     1      -4.618 -20.316  22.089  1.00  0.00     0.016 C 
HETATM    8  C14 UNL     1      -6.880 -21.227  22.283  1.00  0.00     0.075 C 
HETATM    9  C15 UNL     1      -6.404 -22.461  23.000  1.00  0.00     0.063 A 
HETATM   10  O5  UNL     1      -6.838 -23.003  24.115  1.00  0.00    -0.292 OA
HETATM   11  C16 UNL     1      -6.187 -24.071  24.437  1.00  0.00     0.183 A 
HETATM   12  C17 UNL     1      -5.233 -24.268  23.459  1.00  0.00     0.073 A 
HETATM   13  C18 UNL     1      -5.383 -23.240  22.555  1.00  0.00    -0.023 A 
HETATM   14  C19 UNL     1      -4.611 -22.960  21.296  1.00  0.00     0.049 C 
HETATM   15  C20 UNL     1      -5.471 -22.039  20.471  1.00  0.00     0.028 C 
ENDROOT
BRANCH   1  16
HETATM   16  O4  UNL     1      -3.793 -20.855  19.168  1.00  0.00    -0.311 OA
BRANCH  16  17
HETATM   17  C6  UNL     1      -2.528 -21.256  18.840  1.00  0.00     0.307 C 
HETATM   18  O3  UNL     1      -1.920 -21.973  19.707  1.00  0.00    -0.258 OA
BRANCH  17  19
HETATM   19  C4  UNL     1      -1.858 -20.921  17.595  1.00  0.00     0.103 C 
HETATM   20  N1  UNL     1      -2.341 -20.092  16.744  1.00  0.00    -0.265 N 
ATOM     21  H1  UNL     1      -3.236 -19.660  16.970  1.00  0.00     0.194 HD
HETATM   22  C5  UNL     1      -0.561 -21.572  17.303  1.00  0.00     0.077 C 
BRANCH  20  23
HETATM   23  O2  UNL     1      -1.762 -19.746  15.575  1.00  0.00    -0.273 OA
BRANCH  23  24
HETATM   24  C3  UNL     1      -0.964 -18.591  15.397  1.00  0.00     0.278 C 
BRANCH  24  25
HETATM   25  C2  UNL     1      -1.056 -18.069  14.011  1.00  0.00     0.148 C 
HETATM   26  C1  UNL     1      -1.739 -16.788  13.752  1.00  0.00     0.093 C 
HETATM   27  O1  UNL     1      -0.558 -18.725  13.118  1.00  0.00    -0.296 OA
ENDBRANCH  24  25
ENDBRANCH  23  24
ENDBRANCH  20  23
ENDBRANCH  17  19
ENDBRANCH  16  17
ENDBRANCH   1  16
BRANCH  11  28
HETATM   28  O6  UNL     1      -6.369 -24.900  25.543  1.00  0.00    -0.341 OA
ATOM     29  H6  UNL     1      -5.745 -25.490  25.951  1.00  0.00     0.220 HD
ENDBRANCH  11  28
TORSDOF 7
ENDMDL
MODEL 3
REMARK VINA RESULT: -9.045021938      3.375      6.062
REMARK  7 active torsions:
REMARK  status: ('A' for Active; 'I' for Inactive)
REMARK    1  A    between atoms: C2_2  and  C3_4 
REMARK    2  A    between atoms: C3_4  and  O2_5 
REMARK    3  A    between atoms: O2_5  and  N1_6 
REMARK    4  A    between atoms: C4_8  and  C6_10 
REMARK    5  A    between atoms: C6_10  and  O4_12 
REMARK    6  A    between atoms: O4_12  and  C7_13 
REMARK    7  A    between atoms: C16_23  and  O6_24 
ROOT
HETATM    1  C7  UNL     1      -4.030 -22.251  19.920  1.00  0.00     0.137 C 
HETATM    2  C8  UNL     1      -4.313 -21.544  18.585  1.00  0.00     0.033 C 
HETATM    3  C9  UNL     1      -4.967 -20.217  18.781  1.00  0.00     0.007 C 
HETATM    4  C10 UNL     1      -4.696 -19.619  20.141  1.00  0.00    -0.010 C 
HETATM    5  C11 UNL     1      -5.361 -18.260  20.180  1.00  0.00     0.011 C 
HETATM    6  C12 UNL     1      -5.207 -20.479  21.260  1.00  0.00    -0.029 C 
HETATM    7  C13 UNL     1      -4.382 -20.215  22.489  1.00  0.00     0.016 C 
HETATM    8  C14 UNL     1      -6.661 -20.130  21.606  1.00  0.00     0.075 C 
HETATM    9  C15 UNL     1      -7.155 -21.178  22.565  1.00  0.00     0.063 A 
HETATM   10  O5  UNL     1      -8.203 -21.164  23.356  1.00  0.00    -0.292 OA
HETATM   11  C16 UNL     1      -8.320 -22.247  24.048  1.00  0.00     0.183 A 
HETATM   12  C17 UNL     1      -7.263 -23.062  23.698  1.00  0.00     0.073 A 
HETATM   13  C18 UNL     1      -6.534 -22.371  22.757  1.00  0.00    -0.023 A 
HETATM   14  C19 UNL     1      -5.282 -22.783  22.032  1.00  0.00     0.049 C 
HETATM   15  C20 UNL     1      -5.192 -21.903  20.814  1.00  0.00     0.028 C 
ENDROOT
BRANCH   1  16
HETATM   16  O4  UNL     1      -2.791 -21.864  20.428  1.00  0.00    -0.311 OA
BRANCH  16  17
HETATM   17  C6  UNL     1      -1.740 -22.734  20.507  1.00  0.00     0.307 C 
HETATM   18  O3  UNL     1      -1.144 -23.001  19.407  1.00  0.00    -0.258 OA
BRANCH  17  19
HETATM   19  C4  UNL     1      -1.276 -23.352  21.737  1.00  0.00     0.103 C 
HETATM   20  N1  UNL     1      -1.911 -24.301  22.321  1.00  0.00    -0.265 N 
ATOM     21  H1  UNL     1      -2.776 -24.622  21.888  1.00  0.00     0.194 HD
HETATM   22  C5  UNL     1      -0.017 -22.858  22.336  1.00  0.00     0.077 C 
BRANCH  20  23
HETATM   23  O2  UNL     1      -1.527 -24.911  23.464  1.00  0.00    -0.273 OA
BRANCH  23  24
HETATM   24  C3  UNL     1      -2.304 -25.877  24.146  1.00  0.00     0.278 C 
BRANCH  24  25
HETATM   25  C2  UNL     1      -3.741 -25.508  24.171  1.00  0.00     0.148 C 
HETATM   26  C1  UNL     1      -4.336 -24.958  25.402  1.00  0.00     0.093 C 
HETATM   27  O1  UNL     1      -4.392 -25.674  23.158  1.00  0.00    -0.296 OA
ENDBRANCH  24  25
ENDBRANCH  23  24
ENDBRANCH  20  23
ENDBRANCH  17  19
ENDBRANCH  16  17
ENDBRANCH   1  16
BRANCH  11  28
HETATM   28  O6  UNL     1      -9.302 -22.581  24.982  1.00  0.00    -0.341 OA
ATOM     29  H6  UNL     1      -9.712 -23.424  25.133  1.00  0.00     0.220 HD
ENDBRANCH  11  28
TORSDOF 7
ENDMDL
MODEL 4
REMARK VINA RESULT: -8.815739015      2.175      3.710
REMARK  7 active torsions:
REMARK  status: ('A' for Active; 'I' for Inactive)
REMARK    1  A    between atoms: C2_2  and  C3_4 
REMARK    2  A    between atoms: C3_4  and  O2_5 
REMARK    3  A    between atoms: O2_5  and  N1_6 
REMARK    4  A    between atoms: C4_8  and  C6_10 
REMARK    5  A    between atoms: C6_10  and  O4_12 
REMARK    6  A    between atoms: O4_12  and  C7_13 
REMARK    7  A    between atoms: C16_23  and  O6_24 
ROOT
HETATM    1  C7  UNL     1      -5.071 -21.685  19.403  1.00  0.00     0.137 C 
HETATM    2  C8  UNL     1      -6.265 -21.096  18.635  1.00  0.00     0.033 C 
HETATM    3  C9  UNL     1      -7.195 -20.349  19.532  1.00  0.00     0.007 C 
HETATM    4  C10 UNL     1      -6.529 -19.851  20.792  1.00  0.00    -0.010 C 
HETATM    5  C11 UNL     1      -7.562 -19.066  21.571  1.00  0.00     0.011 C 
HETATM    6  C12 UNL     1      -5.982 -20.967  21.633  1.00  0.00    -0.029 C 
HETATM    7  C13 UNL     1      -4.831 -20.441  22.447  1.00  0.00     0.016 C 
HETATM    8  C14 UNL     1      -7.037 -21.483  22.621  1.00  0.00     0.075 C 
HETATM    9  C15 UNL     1      -6.483 -22.731  23.253  1.00  0.00     0.063 A 
HETATM   10  O5  UNL     1      -6.867 -23.361  24.339  1.00  0.00    -0.292 OA
HETATM   11  C16 UNL     1      -6.154 -24.410  24.585  1.00  0.00     0.183 A 
HETATM   12  C17 UNL     1      -5.210 -24.495  23.582  1.00  0.00     0.073 A 
HETATM   13  C18 UNL     1      -5.431 -23.425  22.746  1.00  0.00    -0.023 A 
HETATM   14  C19 UNL     1      -4.699 -23.028  21.494  1.00  0.00     0.049 C 
HETATM   15  C20 UNL     1      -5.622 -22.106  20.740  1.00  0.00     0.028 C 
ENDROOT
BRANCH   1  16
HETATM   16  O4  UNL     1      -4.034 -20.757  19.486  1.00  0.00    -0.311 OA
BRANCH  16  17
HETATM   17  C6  UNL     1      -3.042 -20.698  18.547  1.00  0.00     0.307 C 
HETATM   18  O3  UNL     1      -3.151 -19.775  17.668  1.00  0.00    -0.258 OA
BRANCH  17  19
HETATM   19  C4  UNL     1      -1.904 -21.599  18.497  1.00  0.00     0.103 C 
HETATM   20  N1  UNL     1      -1.590 -22.380  19.465  1.00  0.00    -0.265 N 
ATOM     21  H1  UNL     1      -2.178 -22.352  20.298  1.00  0.00     0.194 HD
HETATM   22  C5  UNL     1      -1.075 -21.610  17.271  1.00  0.00     0.077 C 
BRANCH  20  23
HETATM   23  O2  UNL     1      -0.546 -23.236  19.472  1.00  0.00    -0.273 OA
BRANCH  23  24
HETATM   24  C3  UNL     1       0.688 -22.975  20.113  1.00  0.00     0.278 C 
BRANCH  24  25
HETATM   25  C2  UNL     1       0.509 -22.155  21.336  1.00  0.00     0.148 C 
HETATM   26  C1  UNL     1       0.520 -22.801  22.661  1.00  0.00     0.093 C 
HETATM   27  O1  UNL     1       0.355 -20.957  21.204  1.00  0.00    -0.296 OA
ENDBRANCH  24  25
ENDBRANCH  23  24
ENDBRANCH  20  23
ENDBRANCH  17  19
ENDBRANCH  16  17
ENDBRANCH   1  16
BRANCH  11  28
HETATM   28  O6  UNL     1      -6.271 -25.313  25.642  1.00  0.00    -0.341 OA
ATOM     29  H6  UNL     1      -5.891 -26.180  25.725  1.00  0.00     0.220 HD
ENDBRANCH  11  28
TORSDOF 7
ENDMDL
MODEL 5
REMARK VINA RESULT: -8.803836674      2.157      3.845
REMARK  7 active torsions:
REMARK  status: ('A' for Active; 'I' for Inactive)
REMARK    1  A    between atoms: C2_2  and  C3_4 
REMARK    2  A    between atoms: C3_4  and  O2_5 
REMARK    3  A    between atoms: O2_5  and  N1_6 
REMARK    4  A    between atoms: C4_8  and  C6_10 
REMARK    5  A    between atoms: C6_10  and  O4_12 
REMARK    6  A    between atoms: O4_12  and  C7_13 
REMARK    7  A    between atoms: C16_23  and  O6_24 
ROOT
HETATM    1  C7  UNL     1      -4.812 -21.780  19.626  1.00  0.00     0.137 C 
HETATM    2  C8  UNL     1      -6.149 -21.419  18.961  1.00  0.00     0.033 C 
HETATM    3  C9  UNL     1      -7.143 -20.897  19.945  1.00  0.00     0.007 C 
HETATM    4  C10 UNL     1      -6.500 -20.312  21.180  1.00  0.00    -0.010 C 
HETATM    5  C11 UNL     1      -7.610 -19.770  22.056  1.00  0.00     0.011 C 
HETATM    6  C12 UNL     1      -5.687 -21.320  21.938  1.00  0.00    -0.029 C 
HETATM    7  C13 UNL     1      -4.607 -20.598  22.698  1.00  0.00     0.016 C 
HETATM    8  C14 UNL     1      -6.547 -22.063  22.969  1.00  0.00     0.075 C 
HETATM    9  C15 UNL     1      -5.715 -23.193  23.512  1.00  0.00     0.063 A 
HETATM   10  O5  UNL     1      -5.890 -23.917  24.593  1.00  0.00    -0.292 OA
HETATM   11  C16 UNL     1      -4.969 -24.809  24.750  1.00  0.00     0.183 A 
HETATM   12  C17 UNL     1      -4.100 -24.677  23.686  1.00  0.00     0.073 A 
HETATM   13  C18 UNL     1      -4.586 -23.649  22.911  1.00  0.00    -0.023 A 
HETATM   14  C19 UNL     1      -4.037 -23.079  21.632  1.00  0.00     0.049 C 
HETATM   15  C20 UNL     1      -5.174 -22.339  20.977  1.00  0.00     0.028 C 
ENDROOT
BRANCH   1  16
HETATM   16  O4  UNL     1      -3.974 -20.667  19.682  1.00  0.00    -0.311 OA
BRANCH  16  17
HETATM   17  C6  UNL     1      -2.910 -20.522  18.836  1.00  0.00     0.307 C 
HETATM   18  O3  UNL     1      -3.177 -20.099  17.659  1.00  0.00    -0.258 OA
BRANCH  17  19
HETATM   19  C4  UNL     1      -1.532 -20.814  19.193  1.00  0.00     0.103 C 
HETATM   20  N1  UNL     1      -1.105 -20.787  20.402  1.00  0.00    -0.265 N 
ATOM     21  H1  UNL     1      -1.778 -20.548  21.130  1.00  0.00     0.194 HD
HETATM   22  C5  UNL     1      -0.587 -21.155  18.108  1.00  0.00     0.077 C 
BRANCH  20  23
HETATM   23  O2  UNL     1       0.161 -21.049  20.790  1.00  0.00    -0.273 OA
BRANCH  23  24
HETATM   24  C3  UNL     1       0.504 -21.962  21.815  1.00  0.00     0.278 C 
BRANCH  24  25
HETATM   25  C2  UNL     1      -0.023 -23.321  21.538  1.00  0.00     0.148 C 
HETATM   26  C1  UNL     1      -0.573 -24.134  22.638  1.00  0.00     0.093 C 
HETATM   27  O1  UNL     1       0.017 -23.727  20.394  1.00  0.00    -0.296 OA
ENDBRANCH  24  25
ENDBRANCH  23  24
ENDBRANCH  20  23
ENDBRANCH  17  19
ENDBRANCH  16  17
ENDBRANCH   1  16
BRANCH  11  28
HETATM   28  O6  UNL     1      -4.832 -25.747  25.773  1.00  0.00    -0.341 OA
ATOM     29  H6  UNL     1      -4.433 -26.608  25.737  1.00  0.00     0.220 HD
ENDBRANCH  11  28
TORSDOF 7
ENDMDL
