MODEL 1
REMARK VINA RESULT: -8.846668918      0.000      0.000
REMARK  6 active torsions:
REMARK  status: ('A' for Active; 'I' for Inactive)
REMARK    1  A    between atoms: C2_2  and  O1_3 
REMARK    2  A    between atoms: O1_3  and  C3_4 
REMARK       I    between atoms: C3_4  and  N1_6 
REMARK    3  A    between atoms: C7_10  and  N2_11 
REMARK    4  A    between atoms: N2_11  and  C8_13 
REMARK    5  A    between atoms: C9_14  and  N3_15 
REMARK    6  A    between atoms: N5_22  and  C12_23 
ROOT
HETATM    1  C8  UNL     1      -5.753 -20.361  21.371  1.00  0.00     0.158 A 
HETATM    2  C9  UNL     1      -4.673 -20.555  20.570  1.00  0.00     0.171 A 
HETATM    3  C10 UNL     1      -4.825 -19.701  19.466  1.00  0.00     0.059 A 
HETATM    4  C11 UNL     1      -3.871 -19.576  18.319  1.00  0.00     0.072 C 
HETATM    5  N4  UNL     1      -5.949 -19.066  19.660  1.00  0.00    -0.298 N 
ATOM      6  H4  UNL     1      -6.321 -18.372  19.012  1.00  0.00     0.187 HD
HETATM    7  N5  UNL     1      -6.549 -19.409  20.770  1.00  0.00    -0.269 N 
ENDROOT
BRANCH   1   8
HETATM    8  N2  UNL     1      -6.070 -20.953  22.597  1.00  0.00    -0.345 N 
ATOM      9  H2  UNL     1      -6.368 -20.258  23.281  1.00  0.00     0.167 HD
BRANCH   8  10
HETATM   10  C7  UNL     1      -6.090 -22.246  23.140  1.00  0.00     0.006 C 
HETATM   11  C6  UNL     1      -7.236 -22.683  23.982  1.00  0.00     0.056 C 
HETATM   12  C5  UNL     1      -7.349 -24.202  23.789  1.00  0.00     0.026 C 
HETATM   13  C4  UNL     1      -6.078 -24.933  23.776  1.00  0.00     0.129 C 
HETATM   14  N1  UNL     1      -4.857 -24.230  23.619  1.00  0.00    -0.323 N 
HETATM   15  C3  UNL     1      -3.649 -24.902  23.361  1.00  0.00     0.363 C 
HETATM   16  C17 UNL     1      -4.812 -22.785  23.734  1.00  0.00     0.180 C 
HETATM   17  O2  UNL     1      -3.635 -26.150  23.267  1.00  0.00    -0.238 OA
BRANCH  15  18
HETATM   18  O1  UNL     1      -2.476 -24.208  23.209  1.00  0.00    -0.304 OA
BRANCH  18  19
HETATM   19  C2  UNL     1      -1.237 -24.887  23.226  1.00  0.00     0.176 C 
HETATM   20  C1  UNL     1      -0.213 -24.074  22.482  1.00  0.00     0.034 C 
ENDBRANCH  18  19
ENDBRANCH  15  18
ENDBRANCH   8  10
ENDBRANCH   1   8
BRANCH   2  21
HETATM   21  N3  UNL     1      -3.519 -21.393  20.657  1.00  0.00    -0.110 N 
HETATM   22  O3  UNL     1      -3.446 -22.576  20.382  1.00  0.00    -0.532 OA
HETATM   23  O4  UNL     1      -2.356 -20.742  21.067  1.00  0.00    -0.532 OA
ENDBRANCH   2  21
BRANCH   7  24
HETATM   24  C12 UNL     1      -7.813 -18.865  21.251  1.00  0.00     0.110 C 
HETATM   25  C13 UNL     1      -8.794 -19.881  21.701  1.00  0.00     0.027 C 
HETATM   26  C14 UNL     1      -9.958 -19.874  20.750  1.00  0.00     0.002 C 
HETATM   27  C15 UNL     1      -9.400 -19.233  19.519  1.00  0.00     0.002 C 
HETATM   28  C16 UNL     1      -8.485 -18.185  20.078  1.00  0.00     0.027 C 
ENDBRANCH   7  24
TORSDOF 6
ENDMDL
MODEL 2
REMARK VINA RESULT: -8.444261827      2.624      6.367
REMARK  6 active torsions:
REMARK  status: ('A' for Active; 'I' for Inactive)
REMARK    1  A    between atoms: C2_2  and  O1_3 
REMARK    2  A    between atoms: O1_3  and  C3_4 
REMARK       I    between atoms: C3_4  and  N1_6 
REMARK    3  A    between atoms: C7_10  and  N2_11 
REMARK    4  A    between atoms: N2_11  and  C8_13 
REMARK    5  A    between atoms: C9_14  and  N3_15 
REMARK    6  A    between atoms: N5_22  and  C12_23 
ROOT
HETATM    1  C8  UNL     1      -3.737 -21.759  21.319  1.00  0.00     0.158 A 
HETATM    2  C9  UNL     1      -2.568 -21.785  20.629  1.00  0.00     0.171 A 
HETATM    3  C10 UNL     1      -2.101 -23.109  20.666  1.00  0.00     0.059 A 
HETATM    4  C11 UNL     1      -0.840 -23.610  20.037  1.00  0.00     0.072 C 
HETATM    5  N4  UNL     1      -2.987 -23.778  21.354  1.00  0.00    -0.298 N 
ATOM      6  H4  UNL     1      -2.911 -24.777  21.547  1.00  0.00     0.187 HD
HETATM    7  N5  UNL     1      -3.982 -23.038  21.770  1.00  0.00    -0.269 N 
ENDROOT
BRANCH   1   8
HETATM    8  N2  UNL     1      -4.605 -20.689  21.560  1.00  0.00    -0.345 N 
ATOM      9  H2  UNL     1      -4.538 -20.364  22.524  1.00  0.00     0.167 HD
BRANCH   8  10
HETATM   10  C7  UNL     1      -5.543 -19.943  20.832  1.00  0.00     0.006 C 
HETATM   11  C6  UNL     1      -5.085 -18.879  19.898  1.00  0.00     0.056 C 
HETATM   12  C5  UNL     1      -6.148 -18.798  18.793  1.00  0.00     0.026 C 
HETATM   13  C4  UNL     1      -7.539 -18.878  19.249  1.00  0.00     0.129 C 
HETATM   14  N1  UNL     1      -7.831 -19.329  20.561  1.00  0.00    -0.323 N 
HETATM   15  C3  UNL     1      -9.143 -19.648  20.955  1.00  0.00     0.363 C 
HETATM   16  C17 UNL     1      -6.779 -19.464  21.551  1.00  0.00     0.180 C 
HETATM   17  O2  UNL     1     -10.085 -19.534  20.140  1.00  0.00    -0.238 OA
BRANCH  15  18
HETATM   18  O1  UNL     1      -9.409 -20.085  22.227  1.00  0.00    -0.304 OA
BRANCH  18  19
HETATM   19  C2  UNL     1     -10.492 -20.959  22.470  1.00  0.00     0.176 C 
HETATM   20  C1  UNL     1     -10.090 -21.975  23.504  1.00  0.00     0.034 C 
ENDBRANCH  18  19
ENDBRANCH  15  18
ENDBRANCH   8  10
ENDBRANCH   1   8
BRANCH   2  21
HETATM   21  N3  UNL     1      -1.811 -20.793  19.934  1.00  0.00    -0.110 N 
HETATM   22  O3  UNL     1      -2.069 -20.292  18.856  1.00  0.00    -0.532 OA
HETATM   23  O4  UNL     1      -0.681 -20.340  20.614  1.00  0.00    -0.532 OA
ENDBRANCH   2  21
BRANCH   7  24
HETATM   24  C12 UNL     1      -5.118 -23.511  22.552  1.00  0.00     0.110 C 
HETATM   25  C13 UNL     1      -5.194 -22.963  23.927  1.00  0.00     0.027 C 
HETATM   26  C14 UNL     1      -4.953 -24.083  24.901  1.00  0.00     0.002 C 
HETATM   27  C15 UNL     1      -4.255 -25.118  24.077  1.00  0.00     0.002 C 
HETATM   28  C16 UNL     1      -4.939 -25.001  22.748  1.00  0.00     0.027 C 
ENDBRANCH   7  24
TORSDOF 6
ENDMDL
MODEL 3
REMARK VINA RESULT: -8.396896172      2.572      6.263
REMARK  6 active torsions:
REMARK  status: ('A' for Active; 'I' for Inactive)
REMARK    1  A    between atoms: C2_2  and  O1_3 
REMARK    2  A    between atoms: O1_3  and  C3_4 
REMARK       I    between atoms: C3_4  and  N1_6 
REMARK    3  A    between atoms: C7_10  and  N2_11 
REMARK    4  A    between atoms: N2_11  and  C8_13 
REMARK    5  A    between atoms: C9_14  and  N3_15 
REMARK    6  A    between atoms: N5_22  and  C12_23 
ROOT
HETATM    1  C8  UNL     1      -4.046 -21.543  21.883  1.00  0.00     0.158 A 
HETATM    2  C9  UNL     1      -3.028 -21.806  21.024  1.00  0.00     0.171 A 
HETATM    3  C10 UNL     1      -2.458 -23.025  21.427  1.00  0.00     0.059 A 
HETATM    4  C11 UNL     1      -1.300 -23.708  20.770  1.00  0.00     0.072 C 
HETATM    5  N4  UNL     1      -3.142 -23.409  22.470  1.00  0.00    -0.298 N 
ATOM      6  H4  UNL     1      -2.951 -24.271  22.981  1.00  0.00     0.187 HD
HETATM    7  N5  UNL     1      -4.098 -22.577  22.794  1.00  0.00    -0.269 N 
ENDROOT
BRANCH   1   8
HETATM    8  N2  UNL     1      -4.936 -20.465  21.906  1.00  0.00    -0.345 N 
ATOM      9  H2  UNL     1      -4.947 -20.009  22.818  1.00  0.00     0.167 HD
BRANCH   8  10
HETATM   10  C7  UNL     1      -5.819 -19.843  21.012  1.00  0.00     0.006 C 
HETATM   11  C6  UNL     1      -5.298 -18.901  19.984  1.00  0.00     0.056 C 
HETATM   12  C5  UNL     1      -6.266 -18.991  18.795  1.00  0.00     0.026 C 
HETATM   13  C4  UNL     1      -7.689 -19.041  19.144  1.00  0.00     0.129 C 
HETATM   14  N1  UNL     1      -8.083 -19.321  20.477  1.00  0.00    -0.323 N 
HETATM   15  C3  UNL     1      -9.420 -19.615  20.803  1.00  0.00     0.363 C 
HETATM   16  C17 UNL     1      -7.116 -19.301  21.557  1.00  0.00     0.180 C 
HETATM   17  O2  UNL     1     -10.293 -19.631  19.906  1.00  0.00    -0.238 OA
BRANCH  15  18
HETATM   18  O1  UNL     1      -9.786 -19.886  22.096  1.00  0.00    -0.304 OA
BRANCH  18  19
HETATM   19  C2  UNL     1     -10.603 -21.002  22.388  1.00  0.00     0.176 C 
HETATM   20  C1  UNL     1      -9.952 -21.827  23.464  1.00  0.00     0.034 C 
ENDBRANCH  18  19
ENDBRANCH  15  18
ENDBRANCH   8  10
ENDBRANCH   1   8
BRANCH   2  21
HETATM   21  N3  UNL     1      -2.497 -21.123  19.887  1.00  0.00    -0.110 N 
HETATM   22  O3  UNL     1      -1.519 -20.400  19.853  1.00  0.00    -0.532 OA
HETATM   23  O4  UNL     1      -3.172 -21.369  18.692  1.00  0.00    -0.532 OA
ENDBRANCH   2  21
BRANCH   7  24
HETATM   24  C12 UNL     1      -5.026 -22.746  23.906  1.00  0.00     0.110 C 
HETATM   25  C13 UNL     1      -4.726 -23.895  24.793  1.00  0.00     0.027 C 
HETATM   26  C14 UNL     1      -5.821 -24.914  24.639  1.00  0.00     0.002 C 
HETATM   27  C15 UNL     1      -6.440 -24.567  23.322  1.00  0.00     0.002 C 
HETATM   28  C16 UNL     1      -6.381 -23.068  23.314  1.00  0.00     0.027 C 
ENDBRANCH   7  24
TORSDOF 6
ENDMDL
MODEL 4
REMARK VINA RESULT: -8.363024985      2.382      6.323
REMARK  6 active torsions:
REMARK  status: ('A' for Active; 'I' for Inactive)
REMARK    1  A    between atoms: C2_2  and  O1_3 
REMARK    2  A    between atoms: O1_3  and  C3_4 
REMARK       I    between atoms: C3_4  and  N1_6 
REMARK    3  A    between atoms: C7_10  and  N2_11 
REMARK    4  A    between atoms: N2_11  and  C8_13 
REMARK    5  A    between atoms: C9_14  and  N3_15 
REMARK    6  A    between atoms: N5_22  and  C12_23 
ROOT
HETATM    1  C8  UNL     1      -3.113 -22.659  21.159  1.00  0.00     0.158 A 
HETATM    2  C9  UNL     1      -1.791 -22.356  21.098  1.00  0.00     0.171 A 
HETATM    3  C10 UNL     1      -1.137 -23.194  22.016  1.00  0.00     0.059 A 
HETATM    4  C11 UNL     1       0.334 -23.210  22.290  1.00  0.00     0.072 C 
HETATM    5  N4  UNL     1      -2.073 -23.926  22.558  1.00  0.00    -0.298 N 
ATOM      6  H4  UNL     1      -1.891 -24.633  23.270  1.00  0.00     0.187 HD
HETATM    7  N5  UNL     1      -3.267 -23.660  22.095  1.00  0.00    -0.269 N 
ENDROOT
BRANCH   1   8
HETATM    8  N2  UNL     1      -4.184 -22.125  20.435  1.00  0.00    -0.345 N 
ATOM      9  H2  UNL     1      -4.579 -22.812  19.793  1.00  0.00     0.167 HD
BRANCH   8  10
HETATM   10  C7  UNL     1      -4.860 -20.900  20.355  1.00  0.00     0.006 C 
HETATM   11  C6  UNL     1      -4.216 -19.735  19.691  1.00  0.00     0.056 C 
HETATM   12  C5  UNL     1      -5.359 -18.885  19.120  1.00  0.00     0.026 C 
HETATM   13  C4  UNL     1      -6.525 -18.726  19.996  1.00  0.00     0.129 C 
HETATM   14  N1  UNL     1      -6.687 -19.572  21.122  1.00  0.00    -0.323 N 
HETATM   15  C3  UNL     1      -7.894 -19.616  21.842  1.00  0.00     0.363 C 
HETATM   16  C17 UNL     1      -5.600 -20.417  21.578  1.00  0.00     0.180 C 
HETATM   17  O2  UNL     1      -8.856 -18.895  21.494  1.00  0.00    -0.238 OA
BRANCH  15  18
HETATM   18  O1  UNL     1      -8.037 -20.442  22.927  1.00  0.00    -0.304 OA
BRANCH  18  19
HETATM   19  C2  UNL     1      -9.201 -21.230  23.076  1.00  0.00     0.176 C 
HETATM   20  C1  UNL     1      -8.937 -22.322  24.078  1.00  0.00     0.034 C 
ENDBRANCH  18  19
ENDBRANCH  15  18
ENDBRANCH   8  10
ENDBRANCH   1   8
BRANCH   2  21
HETATM   21  N3  UNL     1      -1.028 -21.426  20.327  1.00  0.00    -0.110 N 
HETATM   22  O3  UNL     1      -0.641 -20.326  20.674  1.00  0.00    -0.532 OA
HETATM   23  O4  UNL     1      -0.667 -21.879  19.059  1.00  0.00    -0.532 OA
ENDBRANCH   2  21
BRANCH   7  24
HETATM   24  C12 UNL     1      -4.499 -24.320  22.507  1.00  0.00     0.110 C 
HETATM   25  C13 UNL     1      -5.428 -23.468  23.286  1.00  0.00     0.027 C 
HETATM   26  C14 UNL     1      -5.499 -23.999  24.691  1.00  0.00     0.002 C 
HETATM   27  C15 UNL     1      -4.251 -24.812  24.820  1.00  0.00     0.002 C 
HETATM   28  C16 UNL     1      -4.117 -25.431  23.461  1.00  0.00     0.027 C 
ENDBRANCH   7  24
TORSDOF 6
ENDMDL
MODEL 5
REMARK VINA RESULT: -8.281915381      2.210      4.054
REMARK  6 active torsions:
REMARK  status: ('A' for Active; 'I' for Inactive)
REMARK    1  A    between atoms: C2_2  and  O1_3 
REMARK    2  A    between atoms: O1_3  and  C3_4 
REMARK       I    between atoms: C3_4  and  N1_6 
REMARK    3  A    between atoms: C7_10  and  N2_11 
REMARK    4  A    between atoms: N2_11  and  C8_13 
REMARK    5  A    between atoms: C9_14  and  N3_15 
REMARK    6  A    between atoms: N5_22  and  C12_23 
ROOT
HETATM    1  C8  UNL     1      -6.271 -21.884  22.053  1.00  0.00     0.158 A 
HETATM    2  C9  UNL     1      -6.781 -22.590  23.095  1.00  0.00     0.171 A 
HETATM    3  C10 UNL     1      -7.866 -21.853  23.597  1.00  0.00     0.059 A 
HETATM    4  C11 UNL     1      -8.731 -22.248  24.752  1.00  0.00     0.072 C 
HETATM    5  N4  UNL     1      -7.941 -20.782  22.853  1.00  0.00    -0.298 N 
ATOM      6  H4  UNL     1      -8.642 -20.054  22.987  1.00  0.00     0.187 HD
HETATM    7  N5  UNL     1      -7.026 -20.738  21.920  1.00  0.00    -0.269 N 
ENDROOT
BRANCH   1   8
HETATM    8  N2  UNL     1      -5.200 -22.191  21.207  1.00  0.00    -0.345 N 
ATOM      9  H2  UNL     1      -5.477 -22.153  20.227  1.00  0.00     0.167 HD
BRANCH   8  10
HETATM   10  C7  UNL     1      -3.848 -22.535  21.346  1.00  0.00     0.006 C 
HETATM   11  C6  UNL     1      -2.839 -21.988  20.399  1.00  0.00     0.056 C 
HETATM   12  C5  UNL     1      -1.521 -21.906  21.182  1.00  0.00     0.026 C 
HETATM   13  C4  UNL     1      -1.227 -23.056  22.044  1.00  0.00     0.129 C 
HETATM   14  N1  UNL     1      -2.250 -23.986  22.359  1.00  0.00    -0.323 N 
HETATM   15  C3  UNL     1      -2.078 -24.957  23.362  1.00  0.00     0.363 C 
HETATM   16  C17 UNL     1      -3.511 -23.975  21.641  1.00  0.00     0.180 C 
HETATM   17  O2  UNL     1      -1.002 -25.014  23.999  1.00  0.00    -0.238 OA
BRANCH  15  18
HETATM   18  O1  UNL     1      -3.077 -25.848  23.657  1.00  0.00    -0.304 OA
BRANCH  18  19
HETATM   19  C2  UNL     1      -2.881 -26.840  24.645  1.00  0.00     0.176 C 
HETATM   20  C1  UNL     1      -3.499 -26.383  25.938  1.00  0.00     0.034 C 
ENDBRANCH  18  19
ENDBRANCH  15  18
ENDBRANCH   8  10
ENDBRANCH   1   8
BRANCH   2  21
HETATM   21  N3  UNL     1      -6.439 -23.838  23.701  1.00  0.00    -0.110 N 
HETATM   22  O3  UNL     1      -6.888 -24.935  23.430  1.00  0.00    -0.532 OA
HETATM   23  O4  UNL     1      -5.445 -23.759  24.676  1.00  0.00    -0.532 OA
ENDBRANCH   2  21
BRANCH   7  24
HETATM   24  C12 UNL     1      -6.868 -19.670  20.940  1.00  0.00     0.110 C 
HETATM   25  C13 UNL     1      -7.619 -18.430  21.250  1.00  0.00     0.027 C 
HETATM   26  C14 UNL     1      -8.704 -18.259  20.223  1.00  0.00     0.002 C 
HETATM   27  C15 UNL     1      -8.874 -19.636  19.664  1.00  0.00     0.002 C 
HETATM   28  C16 UNL     1      -7.470 -20.160  19.641  1.00  0.00     0.027 C 
ENDBRANCH   7  24
TORSDOF 6
ENDMDL
