MODEL 1
REMARK VINA RESULT: -8.167556397      0.000      0.000
REMARK  6 active torsions:
REMARK  status: ('A' for Active; 'I' for Inactive)
REMARK    1  A    between atoms: O1_2  and  C2_3 
REMARK    2  A    between atoms: C6_7  and  O2_8 
REMARK    3  A    between atoms: C7_10  and  O3_11 
REMARK    4  A    between atoms: C12_16  and  O4_17 
REMARK    5  A    between atoms: C14_19  and  O5_20 
REMARK    6  A    between atoms: C16_22  and  O6_23 
ROOT
HETATM    1  C2  UNL     1       0.858  -5.906 -28.461  1.00  0.00     0.104 A 
HETATM    2  C3  UNL     1      -0.229  -5.525 -27.717  1.00  0.00     0.050 A 
HETATM    3  C4  UNL     1      -0.758  -6.360 -26.775  1.00  0.00    -0.007 A 
HETATM    4  C5  UNL     1      -0.199  -7.636 -26.542  1.00  0.00     0.025 A 
HETATM    5  C6  UNL     1       0.890  -8.029 -27.268  1.00  0.00     0.113 A 
HETATM    6  C7  UNL     1       1.397  -7.132 -28.233  1.00  0.00     0.135 A 
HETATM    7  C9  UNL     1      -0.591  -8.394 -25.363  1.00  0.00     0.047 A 
HETATM    8  C10 UNL     1      -1.478  -7.750 -24.484  1.00  0.00     0.087 A 
HETATM    9  C11 UNL     1      -1.921  -8.435 -23.383  1.00  0.00     0.077 A 
HETATM   10  C12 UNL     1      -1.510  -9.721 -23.137  1.00  0.00     0.107 A 
HETATM   11  C14 UNL     1      -0.649 -10.333 -24.014  1.00  0.00     0.136 A 
HETATM   12  C16 UNL     1      -0.180  -9.656 -25.163  1.00  0.00     0.118 A 
HETATM   13  O7  UNL     1      -1.920  -6.432 -24.700  1.00  0.00    -0.335 OA
HETATM   14  C18 UNL     1      -1.979  -5.917 -26.007  1.00  0.00     0.088 C 
HETATM   15  C19 UNL     1      -1.864  -4.407 -25.881  1.00  0.00     0.051 C 
HETATM   16  C20 UNL     1      -3.242  -6.246 -26.738  1.00  0.00     0.051 C 
ENDROOT
BRANCH   1  17
HETATM   17  O1  UNL     1       1.426  -5.093 -29.432  1.00  0.00    -0.353 OA
HETATM   18  C1  UNL     1       1.166  -3.711 -29.274  1.00  0.00     0.210 C 
ENDBRANCH   1  17
BRANCH   6  19
HETATM   19  O3  UNL     1       2.500  -7.514 -28.988  1.00  0.00    -0.351 OA
HETATM   20  C8  UNL     1       3.827  -7.399 -28.572  1.00  0.00     0.210 C 
ENDBRANCH   6  19
BRANCH   5  21
HETATM   21  O2  UNL     1       1.555  -9.182 -27.147  1.00  0.00    -0.357 OA
ATOM     22  H2  UNL     1       2.464  -9.338 -27.377  1.00  0.00     0.217 HD
ENDBRANCH   5  21
BRANCH  12  23
HETATM   23  O6  UNL     1       0.620 -10.427 -25.968  1.00  0.00    -0.352 OA
HETATM   24  C17 UNL     1       1.864 -10.936 -25.299  1.00  0.00     0.210 C 
ENDBRANCH  12  23
BRANCH  11  25
HETATM   25  O5  UNL     1      -0.245 -11.609 -23.765  1.00  0.00    -0.351 OA
HETATM   26  C15 UNL     1      -1.011 -12.769 -23.993  1.00  0.00     0.210 C 
ENDBRANCH  11  25
BRANCH  10  27
HETATM   27  O4  UNL     1      -1.976 -10.374 -22.006  1.00  0.00    -0.353 OA
HETATM   28  C13 UNL     1      -1.220 -10.260 -20.818  1.00  0.00     0.210 C 
ENDBRANCH  10  27
TORSDOF 6
ENDMDL
MODEL 2
REMARK VINA RESULT: -8.160086247      1.811      6.313
REMARK  6 active torsions:
REMARK  status: ('A' for Active; 'I' for Inactive)
REMARK    1  A    between atoms: O1_2  and  C2_3 
REMARK    2  A    between atoms: C6_7  and  O2_8 
REMARK    3  A    between atoms: C7_10  and  O3_11 
REMARK    4  A    between atoms: C12_16  and  O4_17 
REMARK    5  A    between atoms: C14_19  and  O5_20 
REMARK    6  A    between atoms: C16_22  and  O6_23 
ROOT
HETATM    1  C2  UNL     1       0.259 -11.647 -23.810  1.00  0.00     0.104 A 
HETATM    2  C3  UNL     1      -0.501 -10.511 -23.925  1.00  0.00     0.050 A 
HETATM    3  C4  UNL     1      -0.114  -9.492 -24.747  1.00  0.00    -0.007 A 
HETATM    4  C5  UNL     1       1.079  -9.581 -25.499  1.00  0.00     0.025 A 
HETATM    5  C6  UNL     1       1.845 -10.709 -25.402  1.00  0.00     0.113 A 
HETATM    6  C7  UNL     1       1.403 -11.733 -24.536  1.00  0.00     0.135 A 
HETATM    7  C9  UNL     1       1.336  -8.625 -26.566  1.00  0.00     0.047 A 
HETATM    8  C10 UNL     1       0.315  -7.693 -26.816  1.00  0.00     0.087 A 
HETATM    9  C11 UNL     1       0.523  -6.736 -27.775  1.00  0.00     0.077 A 
HETATM   10  C12 UNL     1       1.699  -6.685 -28.480  1.00  0.00     0.107 A 
HETATM   11  C14 UNL     1       2.685  -7.601 -28.213  1.00  0.00     0.136 A 
HETATM   12  C16 UNL     1       2.506  -8.595 -27.224  1.00  0.00     0.118 A 
HETATM   13  O7  UNL     1      -0.905  -7.714 -26.116  1.00  0.00    -0.335 OA
HETATM   14  C18 UNL     1      -0.959  -8.244 -24.814  1.00  0.00     0.088 C 
HETATM   15  C19 UNL     1      -2.391  -8.701 -24.593  1.00  0.00     0.051 C 
HETATM   16  C20 UNL     1      -0.591  -7.269 -23.741  1.00  0.00     0.051 C 
ENDROOT
BRANCH   1  17
HETATM   17  O1  UNL     1      -0.093 -12.705 -22.983  1.00  0.00    -0.353 OA
HETATM   18  C1  UNL     1      -1.253 -13.409 -23.384  1.00  0.00     0.210 C 
ENDBRANCH   1  17
BRANCH   6  19
HETATM   19  O3  UNL     1       2.171 -12.886 -24.416  1.00  0.00    -0.351 OA
HETATM   20  C8  UNL     1       2.076 -13.994 -25.259  1.00  0.00     0.210 C 
ENDBRANCH   6  19
BRANCH   5  21
HETATM   21  O2  UNL     1       2.975 -10.965 -26.068  1.00  0.00    -0.357 OA
ATOM     22  H2  UNL     1       3.184 -11.759 -26.545  1.00  0.00     0.217 HD
ENDBRANCH   5  21
BRANCH  12  23
HETATM   23  O6  UNL     1       3.607  -9.391 -27.036  1.00  0.00    -0.352 OA
HETATM   24  C17 UNL     1       3.998 -10.203 -28.237  1.00  0.00     0.210 C 
ENDBRANCH  12  23
BRANCH  11  25
HETATM   25  O5  UNL     1       3.851  -7.545 -28.915  1.00  0.00    -0.351 OA
HETATM   26  C15 UNL     1       4.007  -7.892 -30.271  1.00  0.00     0.210 C 
ENDBRANCH  11  25
BRANCH  10  27
HETATM   27  O4  UNL     1       1.863  -5.706 -29.448  1.00  0.00    -0.353 OA
HETATM   28  C13 UNL     1       1.211  -4.468 -29.255  1.00  0.00     0.210 C 
ENDBRANCH  10  27
TORSDOF 6
ENDMDL
MODEL 3
REMARK VINA RESULT: -8.141436832      3.426      7.264
REMARK  6 active torsions:
REMARK  status: ('A' for Active; 'I' for Inactive)
REMARK    1  A    between atoms: O1_2  and  C2_3 
REMARK    2  A    between atoms: C6_7  and  O2_8 
REMARK    3  A    between atoms: C7_10  and  O3_11 
REMARK    4  A    between atoms: C12_16  and  O4_17 
REMARK    5  A    between atoms: C14_19  and  O5_20 
REMARK    6  A    between atoms: C16_22  and  O6_23 
ROOT
HETATM    1  C2  UNL     1       1.336  -8.746 -25.677  1.00  0.00     0.104 A 
HETATM    2  C3  UNL     1       1.708  -7.847 -26.642  1.00  0.00     0.050 A 
HETATM    3  C4  UNL     1       2.649  -8.173 -27.576  1.00  0.00    -0.007 A 
HETATM    4  C5  UNL     1       3.264  -9.445 -27.572  1.00  0.00     0.025 A 
HETATM    5  C6  UNL     1       2.900 -10.356 -26.621  1.00  0.00     0.113 A 
HETATM    6  C7  UNL     1       1.926  -9.970 -25.676  1.00  0.00     0.135 A 
HETATM    7  C9  UNL     1       4.050  -9.873 -28.719  1.00  0.00     0.047 A 
HETATM    8  C10 UNL     1       4.085  -8.985 -29.807  1.00  0.00     0.087 A 
HETATM    9  C11 UNL     1       4.850  -9.314 -30.896  1.00  0.00     0.077 A 
HETATM   10  C12 UNL     1       5.567 -10.484 -30.929  1.00  0.00     0.107 A 
HETATM   11  C14 UNL     1       5.523 -11.332 -29.852  1.00  0.00     0.136 A 
HETATM   12  C16 UNL     1       4.750 -11.018 -28.711  1.00  0.00     0.118 A 
HETATM   13  O7  UNL     1       3.363  -7.778 -29.811  1.00  0.00    -0.335 OA
HETATM   14  C18 UNL     1       3.056  -7.139 -28.597  1.00  0.00     0.088 C 
HETATM   15  C19 UNL     1       1.817  -6.298 -28.852  1.00  0.00     0.051 C 
HETATM   16  C20 UNL     1       4.145  -6.252 -28.081  1.00  0.00     0.051 C 
ENDROOT
BRANCH   1  17
HETATM   17  O1  UNL     1       0.388  -8.458 -24.705  1.00  0.00    -0.353 OA
HETATM   18  C1  UNL     1       0.263  -7.083 -24.390  1.00  0.00     0.210 C 
ENDBRANCH   1  17
BRANCH   6  19
HETATM   19  O3  UNL     1       1.547 -10.880 -24.695  1.00  0.00    -0.351 OA
HETATM   20  C8  UNL     1       0.469 -11.760 -24.802  1.00  0.00     0.210 C 
ENDBRANCH   6  19
BRANCH   5  21
HETATM   21  O2  UNL     1       3.358 -11.606 -26.500  1.00  0.00    -0.357 OA
ATOM     22  H2  UNL     1       3.014 -12.282 -25.926  1.00  0.00     0.217 HD
ENDBRANCH   5  21
BRANCH  12  23
HETATM   23  O6  UNL     1       4.864 -11.937 -27.698  1.00  0.00    -0.352 OA
HETATM   24  C17 UNL     1       6.240 -12.039 -27.106  1.00  0.00     0.210 C 
ENDBRANCH  12  23
BRANCH  11  25
HETATM   25  O5  UNL     1       6.237 -12.491 -29.890  1.00  0.00    -0.351 OA
HETATM   26  C15 UNL     1       5.795 -13.706 -30.448  1.00  0.00     0.210 C 
ENDBRANCH  11  25
BRANCH  10  27
HETATM   27  O4  UNL     1       6.320 -10.781 -32.055  1.00  0.00    -0.353 OA
HETATM   28  C13 UNL     1       5.888 -10.265 -33.296  1.00  0.00     0.210 C 
ENDBRANCH  10  27
TORSDOF 6
ENDMDL
MODEL 4
REMARK VINA RESULT: -8.086575980      2.192      5.307
REMARK  6 active torsions:
REMARK  status: ('A' for Active; 'I' for Inactive)
REMARK    1  A    between atoms: O1_2  and  C2_3 
REMARK    2  A    between atoms: C6_7  and  O2_8 
REMARK    3  A    between atoms: C7_10  and  O3_11 
REMARK    4  A    between atoms: C12_16  and  O4_17 
REMARK    5  A    between atoms: C14_19  and  O5_20 
REMARK    6  A    between atoms: C16_22  and  O6_23 
ROOT
HETATM    1  C2  UNL     1      -0.561  -5.354 -27.621  1.00  0.00     0.104 A 
HETATM    2  C3  UNL     1      -0.738  -6.509 -26.903  1.00  0.00     0.050 A 
HETATM    3  C4  UNL     1       0.176  -7.521 -26.969  1.00  0.00    -0.007 A 
HETATM    4  C5  UNL     1       1.327  -7.405 -27.781  1.00  0.00     0.025 A 
HETATM    5  C6  UNL     1       1.523  -6.259 -28.498  1.00  0.00     0.113 A 
HETATM    6  C7  UNL     1       0.548  -5.243 -28.398  1.00  0.00     0.135 A 
HETATM    7  C9  UNL     1       2.416  -8.359 -27.632  1.00  0.00     0.047 A 
HETATM    8  C10 UNL     1       2.262  -9.316 -26.616  1.00  0.00     0.087 A 
HETATM    9  C11 UNL     1       3.233 -10.271 -26.463  1.00  0.00     0.077 A 
HETATM   10  C12 UNL     1       4.334 -10.296 -27.280  1.00  0.00     0.107 A 
HETATM   11  C14 UNL     1       4.460  -9.356 -28.272  1.00  0.00     0.136 A 
HETATM   12  C16 UNL     1       3.472  -8.363 -28.461  1.00  0.00     0.118 A 
HETATM   13  O7  UNL     1       1.148  -9.322 -25.757  1.00  0.00    -0.335 OA
HETATM   14  C18 UNL     1      -0.079  -8.789 -26.192  1.00  0.00     0.088 C 
HETATM   15  C19 UNL     1      -0.834  -8.366 -24.944  1.00  0.00     0.051 C 
HETATM   16  C20 UNL     1      -0.923  -9.751 -26.966  1.00  0.00     0.051 C 
ENDROOT
BRANCH   1  17
HETATM   17  O1  UNL     1      -1.465  -4.302 -27.588  1.00  0.00    -0.353 OA
HETATM   18  C1  UNL     1      -1.752  -3.808 -26.293  1.00  0.00     0.210 C 
ENDBRANCH   1  17
BRANCH   6  19
HETATM   19  O3  UNL     1       0.725  -4.072 -29.126  1.00  0.00    -0.351 OA
HETATM   20  C8  UNL     1       1.126  -2.851 -28.581  1.00  0.00     0.210 C 
ENDBRANCH   6  19
BRANCH   5  21
HETATM   21  O2  UNL     1       2.569  -5.979 -29.281  1.00  0.00    -0.357 OA
ATOM     22  H2  UNL     1       3.330  -5.460 -29.046  1.00  0.00     0.217 HD
ENDBRANCH   5  21
BRANCH  12  23
HETATM   23  O6  UNL     1       3.715  -7.540 -29.532  1.00  0.00    -0.352 OA
HETATM   24  C17 UNL     1       3.819  -8.253 -30.849  1.00  0.00     0.210 C 
ENDBRANCH  12  23
BRANCH  11  25
HETATM   25  O5  UNL     1       5.555  -9.386 -29.080  1.00  0.00    -0.351 OA
HETATM   26  C15 UNL     1       6.028 -10.515 -29.776  1.00  0.00     0.210 C 
ENDBRANCH  11  25
BRANCH  10  27
HETATM   27  O4  UNL     1       5.298 -11.274 -27.084  1.00  0.00    -0.353 OA
HETATM   28  C13 UNL     1       4.872 -12.619 -27.017  1.00  0.00     0.210 C 
ENDBRANCH  10  27
TORSDOF 6
ENDMDL
MODEL 5
REMARK VINA RESULT: -8.056421243      2.554      3.544
REMARK  6 active torsions:
REMARK  status: ('A' for Active; 'I' for Inactive)
REMARK    1  A    between atoms: O1_2  and  C2_3 
REMARK    2  A    between atoms: C6_7  and  O2_8 
REMARK    3  A    between atoms: C7_10  and  O3_11 
REMARK    4  A    between atoms: C12_16  and  O4_17 
REMARK    5  A    between atoms: C14_19  and  O5_20 
REMARK    6  A    between atoms: C16_22  and  O6_23 
ROOT
HETATM    1  C2  UNL     1       3.414  -8.889 -27.006  1.00  0.00     0.104 A 
HETATM    2  C3  UNL     1       2.213  -8.382 -26.580  1.00  0.00     0.050 A 
HETATM    3  C4  UNL     1       1.321  -9.168 -25.909  1.00  0.00    -0.007 A 
HETATM    4  C5  UNL     1       1.612 -10.524 -25.637  1.00  0.00     0.025 A 
HETATM    5  C6  UNL     1       2.807 -11.044 -26.049  1.00  0.00     0.113 A 
HETATM    6  C7  UNL     1       3.693 -10.191 -26.741  1.00  0.00     0.135 A 
HETATM    7  C9  UNL     1       0.788 -11.267 -24.695  1.00  0.00     0.047 A 
HETATM    8  C10 UNL     1      -0.229 -10.537 -24.058  1.00  0.00     0.087 A 
HETATM    9  C11 UNL     1      -1.067 -11.196 -23.198  1.00  0.00     0.077 A 
HETATM   10  C12 UNL     1      -0.922 -12.539 -22.959  1.00  0.00     0.107 A 
HETATM   11  C14 UNL     1       0.074 -13.234 -23.599  1.00  0.00     0.136 A 
HETATM   12  C16 UNL     1       0.950 -12.585 -24.498  1.00  0.00     0.118 A 
HETATM   13  O7  UNL     1      -0.408  -9.159 -24.275  1.00  0.00    -0.335 OA
HETATM   14  C18 UNL     1      -0.004  -8.580 -25.492  1.00  0.00     0.088 C 
HETATM   15  C19 UNL     1       0.265  -7.113 -25.205  1.00  0.00     0.051 C 
HETATM   16  C20 UNL     1      -1.022  -8.681 -26.584  1.00  0.00     0.051 C 
ENDROOT
BRANCH   1  17
HETATM   17  O1  UNL     1       4.349  -8.129 -27.695  1.00  0.00    -0.353 OA
HETATM   18  C1  UNL     1       3.928  -7.688 -28.972  1.00  0.00     0.210 C 
ENDBRANCH   1  17
BRANCH   6  19
HETATM   19  O3  UNL     1       4.912 -10.702 -27.175  1.00  0.00    -0.351 OA
HETATM   20  C8  UNL     1       5.135 -11.262 -28.434  1.00  0.00     0.210 C 
ENDBRANCH   6  19
BRANCH   5  21
HETATM   21  O2  UNL     1       3.247 -12.289 -25.843  1.00  0.00    -0.357 OA
ATOM     22  H2  UNL     1       3.077 -13.048 -26.390  1.00  0.00     0.217 HD
ENDBRANCH   5  21
BRANCH  12  23
HETATM   23  O6  UNL     1       1.847 -13.430 -25.101  1.00  0.00    -0.352 OA
HETATM   24  C17 UNL     1       1.243 -14.343 -26.129  1.00  0.00     0.210 C 
ENDBRANCH  12  23
BRANCH  11  25
HETATM   25  O5  UNL     1       0.213 -14.567 -23.358  1.00  0.00    -0.351 OA
HETATM   26  C15 UNL     1      -0.745 -15.556 -23.651  1.00  0.00     0.210 C 
ENDBRANCH  11  25
BRANCH  10  27
HETATM   27  O4  UNL     1      -1.787 -13.165 -22.073  1.00  0.00    -0.353 OA
HETATM   28  C13 UNL     1      -2.334 -12.392 -21.026  1.00  0.00     0.210 C 
ENDBRANCH  10  27
TORSDOF 6
ENDMDL
