MODEL 1
REMARK VINA RESULT: -9.610020475      0.000      0.000
REMARK  6 active torsions:
REMARK  status: ('A' for Active; 'I' for Inactive)
REMARK    1  A    between atoms: C2_2  and  O1_3 
REMARK    2  A    between atoms: O1_3  and  C3_4 
REMARK    3  A    between atoms: C3_4  and  C4_6 
REMARK    4  A    between atoms: N1_9  and  C7_10 
REMARK    5  A    between atoms: C11_19  and  N5_20 
REMARK    6  A    between atoms: N5_20  and  C12_22 
ROOT
HETATM    1  C7  UNL     1       0.469  -9.087 -25.498  1.00  0.00     0.134 A 
HETATM    2  N2  UNL     1       1.639  -9.665 -25.134  1.00  0.00    -0.337 N 
ATOM      3  H2  UNL     1       1.610 -10.340 -24.371  1.00  0.00     0.168 HD
HETATM    4  C8  UNL     1       2.820  -9.425 -25.690  1.00  0.00     0.183 A 
HETATM    5  N3  UNL     1       2.846  -8.537 -26.686  1.00  0.00    -0.342 N 
ATOM      6  H3  UNL     1       3.735  -8.324 -27.136  1.00  0.00     0.167 HD
HETATM    7  C9  UNL     1       1.711  -7.902 -27.122  1.00  0.00     0.145 A 
HETATM    8  C10 UNL     1       1.939  -6.923 -28.160  1.00  0.00     0.120 C 
HETATM    9  N4  UNL     1       2.132  -6.136 -28.957  1.00  0.00    -0.190 NA
HETATM   10  C11 UNL     1       0.502  -8.163 -26.545  1.00  0.00     0.111 A 
ENDROOT
BRANCH  10  11
HETATM   11  N5  UNL     1      -0.683  -7.576 -26.992  1.00  0.00    -0.380 N 
ATOM     12  H5  UNL     1      -1.217  -8.131 -27.661  1.00  0.00     0.160 HD
BRANCH  11  13
HETATM   13  C12 UNL     1      -1.264  -6.304 -26.651  1.00  0.00     0.082 C 
HETATM   14  C13 UNL     1      -1.327  -5.373 -27.800  1.00  0.00     0.025 C 
HETATM   15  C14 UNL     1      -1.588  -3.933 -27.458  1.00  0.00     0.002 C 
HETATM   16  C15 UNL     1      -1.560  -3.601 -26.008  1.00  0.00     0.000 C 
HETATM   17  C16 UNL     1      -2.795  -4.069 -25.276  1.00  0.00     0.000 C 
HETATM   18  C17 UNL     1      -3.442  -5.177 -26.034  1.00  0.00     0.002 C 
HETATM   19  C18 UNL     1      -2.626  -6.432 -25.983  1.00  0.00     0.025 C 
ENDBRANCH  11  13
ENDBRANCH  10  11
BRANCH   1  20
HETATM   20  N1  UNL     1      -0.679  -9.391 -24.727  1.00  0.00    -0.365 N 
HETATM   21  C6  UNL     1      -1.520 -10.545 -24.999  1.00  0.00     0.125 C 
HETATM   22  C5  UNL     1      -1.528 -11.546 -23.902  1.00  0.00     0.034 C 
HETATM   23  C4  UNL     1      -1.117 -10.891 -22.622  1.00  0.00     0.088 C 
HETATM   24  C20 UNL     1      -1.633  -9.472 -22.510  1.00  0.00     0.034 C 
HETATM   25  C19 UNL     1      -1.026  -8.583 -23.586  1.00  0.00     0.125 C 
BRANCH  23  26
HETATM   26  C3  UNL     1      -1.601 -11.626 -21.429  1.00  0.00     0.263 C 
HETATM   27  O2  UNL     1      -2.726 -11.343 -20.959  1.00  0.00    -0.265 OA
BRANCH  26  28
HETATM   28  O1  UNL     1      -0.850 -12.598 -20.838  1.00  0.00    -0.322 OA
BRANCH  28  29
HETATM   29  C2  UNL     1      -1.404 -13.852 -20.405  1.00  0.00     0.174 C 
HETATM   30  C1  UNL     1      -1.656 -14.648 -21.668  1.00  0.00     0.034 C 
ENDBRANCH  28  29
ENDBRANCH  26  28
ENDBRANCH  23  26
ENDBRANCH   1  20
TORSDOF 6
ENDMDL
MODEL 2
REMARK VINA RESULT: -8.835972046      2.983      6.774
REMARK  6 active torsions:
REMARK  status: ('A' for Active; 'I' for Inactive)
REMARK    1  A    between atoms: C2_2  and  O1_3 
REMARK    2  A    between atoms: O1_3  and  C3_4 
REMARK    3  A    between atoms: C3_4  and  C4_6 
REMARK    4  A    between atoms: N1_9  and  C7_10 
REMARK    5  A    between atoms: C11_19  and  N5_20 
REMARK    6  A    between atoms: N5_20  and  C12_22 
ROOT
HETATM    1  C7  UNL     1       0.178  -9.951 -25.089  1.00  0.00     0.134 A 
HETATM    2  N2  UNL     1      -0.946 -10.657 -24.818  1.00  0.00    -0.337 N 
ATOM      3  H2  UNL     1      -1.825 -10.141 -24.776  1.00  0.00     0.168 HD
HETATM    4  C8  UNL     1      -0.997 -11.965 -24.602  1.00  0.00     0.183 A 
HETATM    5  N3  UNL     1       0.159 -12.629 -24.656  1.00  0.00    -0.342 N 
ATOM      6  H3  UNL     1       0.161 -13.635 -24.493  1.00  0.00     0.167 HD
HETATM    7  C9  UNL     1       1.347 -11.997 -24.924  1.00  0.00     0.145 A 
HETATM    8  C10 UNL     1       2.504 -12.860 -24.873  1.00  0.00     0.120 C 
HETATM    9  N4  UNL     1       3.411 -13.541 -24.803  1.00  0.00    -0.190 NA
HETATM   10  C11 UNL     1       1.384 -10.652 -25.150  1.00  0.00     0.111 A 
ENDROOT
BRANCH  10  11
HETATM   11  N5  UNL     1       2.564  -9.979 -25.475  1.00  0.00    -0.380 N 
ATOM     12  H5  UNL     1       3.112  -9.655 -24.678  1.00  0.00     0.160 HD
BRANCH  11  13
HETATM   13  C12 UNL     1       3.121  -9.675 -26.766  1.00  0.00     0.082 C 
HETATM   14  C13 UNL     1       3.616  -8.283 -26.866  1.00  0.00     0.025 C 
HETATM   15  C14 UNL     1       3.886  -7.787 -28.259  1.00  0.00     0.002 C 
HETATM   16  C15 UNL     1       3.444  -8.686 -29.360  1.00  0.00     0.000 C 
HETATM   17  C16 UNL     1       4.349  -9.882 -29.538  1.00  0.00     0.000 C 
HETATM   18  C17 UNL     1       5.097 -10.142 -28.275  1.00  0.00     0.002 C 
HETATM   19  C18 UNL     1       4.196 -10.664 -27.197  1.00  0.00     0.025 C 
ENDBRANCH  11  13
ENDBRANCH  10  11
BRANCH   1  20
HETATM   20  N1  UNL     1       0.057  -8.543 -25.195  1.00  0.00    -0.365 N 
HETATM   21  C6  UNL     1      -0.021  -7.859 -26.475  1.00  0.00     0.125 C 
HETATM   22  C5  UNL     1      -1.313  -7.164 -26.700  1.00  0.00     0.034 C 
HETATM   23  C4  UNL     1      -1.975  -6.897 -25.385  1.00  0.00     0.088 C 
HETATM   24  C20 UNL     1      -0.979  -6.554 -24.298  1.00  0.00     0.034 C 
HETATM   25  C19 UNL     1      -0.057  -7.730 -24.010  1.00  0.00     0.125 C 
BRANCH  23  26
HETATM   26  C3  UNL     1      -2.945  -5.779 -25.455  1.00  0.00     0.263 C 
HETATM   27  O2  UNL     1      -3.899  -5.752 -24.644  1.00  0.00    -0.265 OA
BRANCH  26  28
HETATM   28  O1  UNL     1      -2.820  -4.783 -26.378  1.00  0.00    -0.322 OA
BRANCH  28  29
HETATM   29  C2  UNL     1      -2.067  -3.584 -26.130  1.00  0.00     0.174 C 
HETATM   30  C1  UNL     1      -1.051  -3.497 -27.250  1.00  0.00     0.034 C 
ENDBRANCH  28  29
ENDBRANCH  26  28
ENDBRANCH  23  26
ENDBRANCH   1  20
TORSDOF 6
ENDMDL
MODEL 3
REMARK VINA RESULT: -8.522963214      1.584      2.692
REMARK  6 active torsions:
REMARK  status: ('A' for Active; 'I' for Inactive)
REMARK    1  A    between atoms: C2_2  and  O1_3 
REMARK    2  A    between atoms: O1_3  and  C3_4 
REMARK    3  A    between atoms: C3_4  and  C4_6 
REMARK    4  A    between atoms: N1_9  and  C7_10 
REMARK    5  A    between atoms: C11_19  and  N5_20 
REMARK    6  A    between atoms: N5_20  and  C12_22 
ROOT
HETATM    1  C7  UNL     1       1.522  -8.322 -27.479  1.00  0.00     0.134 A 
HETATM    2  N2  UNL     1       2.851  -8.556 -27.589  1.00  0.00    -0.337 N 
ATOM      3  H2  UNL     1       3.206  -9.432 -27.205  1.00  0.00     0.168 HD
HETATM    4  C8  UNL     1       3.731  -7.740 -28.155  1.00  0.00     0.183 A 
HETATM    5  N3  UNL     1       3.256  -6.595 -28.651  1.00  0.00    -0.342 N 
ATOM      6  H3  UNL     1       3.902  -5.941 -29.091  1.00  0.00     0.167 HD
HETATM    7  C9  UNL     1       1.924  -6.273 -28.585  1.00  0.00     0.145 A 
HETATM    8  C10 UNL     1       1.603  -4.966 -29.108  1.00  0.00     0.120 C 
HETATM    9  N4  UNL     1       1.364  -3.925 -29.497  1.00  0.00    -0.190 NA
HETATM   10  C11 UNL     1       1.030  -7.125 -28.005  1.00  0.00     0.111 A 
ENDROOT
BRANCH  10  11
HETATM   11  N5  UNL     1      -0.339  -6.857 -27.962  1.00  0.00    -0.380 N 
ATOM     12  H5  UNL     1      -0.876  -7.210 -28.755  1.00  0.00     0.160 HD
BRANCH  11  13
HETATM   13  C12 UNL     1      -1.108  -6.157 -26.967  1.00  0.00     0.082 C 
HETATM   14  C13 UNL     1      -0.410  -6.061 -25.664  1.00  0.00     0.025 C 
HETATM   15  C14 UNL     1      -1.268  -5.665 -24.494  1.00  0.00     0.002 C 
HETATM   16  C15 UNL     1      -2.731  -5.607 -24.759  1.00  0.00     0.000 C 
HETATM   17  C16 UNL     1      -3.134  -4.388 -25.554  1.00  0.00     0.000 C 
HETATM   18  C17 UNL     1      -1.960  -3.868 -26.312  1.00  0.00     0.002 C 
HETATM   19  C18 UNL     1      -1.576  -4.785 -27.432  1.00  0.00     0.025 C 
ENDBRANCH  11  13
ENDBRANCH  10  11
BRANCH   1  20
HETATM   20  N1  UNL     1       0.748  -9.263 -26.756  1.00  0.00    -0.365 N 
HETATM   21  C6  UNL     1       1.264  -9.974 -25.598  1.00  0.00     0.125 C 
HETATM   22  C5  UNL     1       0.552  -9.651 -24.336  1.00  0.00     0.034 C 
HETATM   23  C4  UNL     1      -0.806  -9.111 -24.651  1.00  0.00     0.088 C 
HETATM   24  C20 UNL     1      -1.430  -9.785 -25.853  1.00  0.00     0.034 C 
HETATM   25  C19 UNL     1      -0.626  -9.506 -27.116  1.00  0.00     0.125 C 
BRANCH  23  26
HETATM   26  C3  UNL     1      -1.755  -9.270 -23.522  1.00  0.00     0.263 C 
HETATM   27  O2  UNL     1      -2.971  -9.050 -23.718  1.00  0.00    -0.265 OA
BRANCH  26  28
HETATM   28  O1  UNL     1      -1.331  -9.651 -22.283  1.00  0.00    -0.322 OA
BRANCH  28  29
HETATM   29  C2  UNL     1      -1.996 -10.667 -21.513  1.00  0.00     0.174 C 
HETATM   30  C1  UNL     1      -1.143 -11.911 -21.649  1.00  0.00     0.034 C 
ENDBRANCH  28  29
ENDBRANCH  26  28
ENDBRANCH  23  26
ENDBRANCH   1  20
TORSDOF 6
ENDMDL
MODEL 4
REMARK VINA RESULT: -8.513773575      3.431      7.055
REMARK  6 active torsions:
REMARK  status: ('A' for Active; 'I' for Inactive)
REMARK    1  A    between atoms: C2_2  and  O1_3 
REMARK    2  A    between atoms: O1_3  and  C3_4 
REMARK    3  A    between atoms: C3_4  and  C4_6 
REMARK    4  A    between atoms: N1_9  and  C7_10 
REMARK    5  A    between atoms: C11_19  and  N5_20 
REMARK    6  A    between atoms: N5_20  and  C12_22 
ROOT
HETATM    1  C7  UNL     1       0.571  -9.570 -25.589  1.00  0.00     0.134 A 
HETATM    2  N2  UNL     1      -0.658 -10.062 -25.300  1.00  0.00    -0.337 N 
ATOM      3  H2  UNL     1      -1.448  -9.421 -25.374  1.00  0.00     0.168 HD
HETATM    4  C8  UNL     1      -0.919 -11.309 -24.928  1.00  0.00     0.183 A 
HETATM    5  N3  UNL     1       0.124 -12.137 -24.833  1.00  0.00    -0.342 N 
ATOM      6  H3  UNL     1      -0.036 -13.102 -24.548  1.00  0.00     0.167 HD
HETATM    7  C9  UNL     1       1.404 -11.727 -25.106  1.00  0.00     0.145 A 
HETATM    8  C10 UNL     1       2.412 -12.738 -24.881  1.00  0.00     0.120 C 
HETATM    9  N4  UNL     1       3.200 -13.530 -24.675  1.00  0.00    -0.190 NA
HETATM   10  C11 UNL     1       1.656 -10.443 -25.492  1.00  0.00     0.111 A 
ENDROOT
BRANCH  10  11
HETATM   11  N5  UNL     1       2.937 -10.000 -25.828  1.00  0.00    -0.380 N 
ATOM     12  H5  UNL     1       3.519  -9.718 -25.039  1.00  0.00     0.160 HD
BRANCH  11  13
HETATM   13  C12 UNL     1       3.559  -9.882 -27.120  1.00  0.00     0.082 C 
HETATM   14  C13 UNL     1       4.090  -8.525 -27.382  1.00  0.00     0.025 C 
HETATM   15  C14 UNL     1       4.433  -8.225 -28.814  1.00  0.00     0.002 C 
HETATM   16  C15 UNL     1       4.020  -9.256 -29.804  1.00  0.00     0.000 C 
HETATM   17  C16 UNL     1       4.904 -10.481 -29.778  1.00  0.00     0.000 C 
HETATM   18  C17 UNL     1       5.589 -10.581 -28.458  1.00  0.00     0.002 C 
HETATM   19  C18 UNL     1       4.629 -10.938 -27.364  1.00  0.00     0.025 C 
ENDBRANCH  11  13
ENDBRANCH  10  11
BRANCH   1  20
HETATM   20  N1  UNL     1       0.672  -8.186 -25.874  1.00  0.00    -0.365 N 
HETATM   21  C6  UNL     1       0.972  -7.681 -27.203  1.00  0.00     0.125 C 
HETATM   22  C5  UNL     1      -0.130  -6.886 -27.800  1.00  0.00     0.034 C 
HETATM   23  C4  UNL     1      -1.021  -6.370 -26.716  1.00  0.00     0.088 C 
HETATM   24  C20 UNL     1      -0.250  -5.991 -25.469  1.00  0.00     0.034 C 
HETATM   25  C19 UNL     1       0.415  -7.210 -24.845  1.00  0.00     0.125 C 
BRANCH  23  26
HETATM   26  C3  UNL     1      -1.788  -5.172 -27.134  1.00  0.00     0.263 C 
HETATM   27  O2  UNL     1      -1.165  -4.166 -27.542  1.00  0.00    -0.265 OA
BRANCH  26  28
HETATM   28  O1  UNL     1      -3.151  -5.145 -27.085  1.00  0.00    -0.322 OA
BRANCH  28  29
HETATM   29  C2  UNL     1      -3.908  -5.896 -26.121  1.00  0.00     0.174 C 
HETATM   30  C1  UNL     1      -3.871  -5.081 -24.845  1.00  0.00     0.034 C 
ENDBRANCH  28  29
ENDBRANCH  26  28
ENDBRANCH  23  26
ENDBRANCH   1  20
TORSDOF 6
ENDMDL
MODEL 5
REMARK VINA RESULT: -8.303879247      3.231      6.659
REMARK  6 active torsions:
REMARK  status: ('A' for Active; 'I' for Inactive)
REMARK    1  A    between atoms: C2_2  and  O1_3 
REMARK    2  A    between atoms: O1_3  and  C3_4 
REMARK    3  A    between atoms: C3_4  and  C4_6 
REMARK    4  A    between atoms: N1_9  and  C7_10 
REMARK    5  A    between atoms: C11_19  and  N5_20 
REMARK    6  A    between atoms: N5_20  and  C12_22 
ROOT
HETATM    1  C7  UNL     1      -0.895  -9.736 -23.801  1.00  0.00     0.134 A 
HETATM    2  N2  UNL     1      -1.157 -10.235 -22.569  1.00  0.00    -0.337 N 
ATOM      3  H2  UNL     1      -1.681  -9.642 -21.926  1.00  0.00     0.168 HD
HETATM    4  C8  UNL     1      -0.787 -11.431 -22.129  1.00  0.00     0.183 A 
HETATM    5  N3  UNL     1      -0.098 -12.196 -22.979  1.00  0.00    -0.342 N 
ATOM      6  H3  UNL     1       0.205 -13.122 -22.677  1.00  0.00     0.167 HD
HETATM    7  C9  UNL     1       0.213 -11.775 -24.247  1.00  0.00     0.145 A 
HETATM    8  C10 UNL     1       1.022 -12.705 -25.000  1.00  0.00     0.120 C 
HETATM    9  N4  UNL     1       1.681 -13.431 -25.574  1.00  0.00    -0.190 NA
HETATM   10  C11 UNL     1      -0.179 -10.544 -24.687  1.00  0.00     0.111 A 
ENDROOT
BRANCH  10  11
HETATM   11  N5  UNL     1       0.074 -10.098 -25.985  1.00  0.00    -0.380 N 
ATOM     12  H5  UNL     1      -0.750  -9.993 -26.576  1.00  0.00     0.160 HD
BRANCH  11  13
HETATM   13  C12 UNL     1       1.325  -9.765 -26.614  1.00  0.00     0.082 C 
HETATM   14  C13 UNL     1       1.186  -8.716 -27.650  1.00  0.00     0.025 C 
HETATM   15  C14 UNL     1       2.356  -8.562 -28.582  1.00  0.00     0.002 C 
HETATM   16  C15 UNL     1       3.413  -9.603 -28.464  1.00  0.00     0.000 C 
HETATM   17  C16 UNL     1       4.279  -9.422 -27.239  1.00  0.00     0.000 C 
HETATM   18  C17 UNL     1       3.546  -8.622 -26.217  1.00  0.00     0.002 C 
HETATM   19  C18 UNL     1       2.414  -9.398 -25.616  1.00  0.00     0.025 C 
ENDBRANCH  11  13
ENDBRANCH  10  11
BRANCH   1  20
HETATM   20  N1  UNL     1      -1.283  -8.399 -24.063  1.00  0.00    -0.365 N 
HETATM   21  C6  UNL     1      -0.379  -7.274 -23.891  1.00  0.00     0.125 C 
HETATM   22  C5  UNL     1      -0.067  -6.565 -25.157  1.00  0.00     0.034 C 
HETATM   23  C4  UNL     1      -1.140  -6.838 -26.163  1.00  0.00     0.088 C 
HETATM   24  C20 UNL     1      -2.512  -6.928 -25.531  1.00  0.00     0.034 C 
HETATM   25  C19 UNL     1      -2.598  -8.111 -24.577  1.00  0.00     0.125 C 
BRANCH  23  26
HETATM   26  C3  UNL     1      -1.212  -5.793 -27.213  1.00  0.00     0.263 C 
HETATM   27  O2  UNL     1      -0.483  -5.900 -28.225  1.00  0.00    -0.265 OA
BRANCH  26  28
HETATM   28  O1  UNL     1      -2.053  -4.725 -27.099  1.00  0.00    -0.322 OA
BRANCH  28  29
HETATM   29  C2  UNL     1      -1.626  -3.451 -26.588  1.00  0.00     0.174 C 
HETATM   30  C1  UNL     1      -2.418  -3.232 -25.316  1.00  0.00     0.034 C 
ENDBRANCH  28  29
ENDBRANCH  26  28
ENDBRANCH  23  26
ENDBRANCH   1  20
TORSDOF 6
ENDMDL
