MODEL 1
REMARK VINA RESULT: -9.541706393      0.000      0.000
REMARK  6 active torsions:
REMARK  status: ('A' for Active; 'I' for Inactive)
REMARK    1  A    between atoms: C8_8  and  O1_9 
REMARK    2  A    between atoms: C13_15  and  O2_16 
REMARK    3  A    between atoms: O2_16  and  C14_17 
REMARK    4  A    between atoms: C14_17  and  C15_18 
REMARK    5  A    between atoms: C14_17  and  C17_21 
REMARK    6  A    between atoms: C18_26  and  C19_27 
ROOT
HETATM    1  C15 UNL     1       1.102 -12.073 -24.811  1.00  0.00     0.164 C 
HETATM    2  C16 UNL     1      -0.236 -12.441 -24.431  1.00  0.00     0.062 C 
HETATM    3  N1  UNL     1      -1.331 -12.756 -24.138  1.00  0.00    -0.197 NA
ENDROOT
BRANCH   1   4
HETATM    4  C14 UNL     1       1.267 -10.543 -24.802  1.00  0.00     0.211 C 
BRANCH   4   5
HETATM    5  O2  UNL     1       0.022 -10.040 -25.082  1.00  0.00    -0.366 OA
BRANCH   5   6
HETATM    6  C13 UNL     1      -0.366  -8.946 -24.366  1.00  0.00     0.159 C 
HETATM    7  C2  UNL     1      -1.413  -9.251 -23.345  1.00  0.00    -0.060 C 
HETATM    8  C1  UNL     1      -1.153  -9.456 -22.066  1.00  0.00     0.017 C 
HETATM    9  C3  UNL     1      -2.813  -9.316 -23.836  1.00  0.00     0.036 C 
HETATM   10  C4  UNL     1      -3.166  -8.053 -24.632  1.00  0.00     0.010 C 
HETATM   11  C5  UNL     1      -1.966  -7.126 -24.625  1.00  0.00     0.003 C 
HETATM   12  C6  UNL     1      -2.257  -5.764 -25.090  1.00  0.00     0.015 C 
HETATM   13  C11 UNL     1      -0.848  -7.868 -25.310  1.00  0.00    -0.010 C 
HETATM   14  C7  UNL     1      -3.700  -5.748 -25.625  1.00  0.00     0.013 C 
HETATM   15  C8  UNL     1      -1.394  -5.142 -26.098  1.00  0.00     0.122 C 
HETATM   16  C9  UNL     1      -0.140  -5.874 -26.457  1.00  0.00     0.033 C 
HETATM   17  C10 UNL     1       0.291  -6.878 -25.446  1.00  0.00     0.015 C 
HETATM   18  C12 UNL     1      -1.245  -8.450 -26.623  1.00  0.00     0.018 C 
BRANCH  15  19
HETATM   19  O1  UNL     1      -2.084  -4.906 -27.314  1.00  0.00    -0.395 OA
ATOM     20  H1  UNL     1      -2.733  -4.218 -27.227  1.00  0.00     0.210 HD
ENDBRANCH  15  19
ENDBRANCH   5   6
ENDBRANCH   4   5
BRANCH   4  21
HETATM   21  C17 UNL     1       2.312 -10.228 -25.804  1.00  0.00     0.170 A 
HETATM   22  N2  UNL     1       3.277 -11.022 -26.314  1.00  0.00    -0.279 N 
HETATM   23  N3  UNL     1       4.004 -10.357 -27.180  1.00  0.00    -0.281 N 
ATOM     24  H2  UNL     1       3.420 -12.000 -26.062  1.00  0.00     0.189 HD
HETATM   25  C18 UNL     1       3.503  -9.105 -27.236  1.00  0.00     0.143 A 
ATOM     26  H3  UNL     1       4.797 -10.717 -27.711  1.00  0.00     0.189 HD
HETATM   27  O3  UNL     1       2.502  -9.067 -26.407  1.00  0.00    -0.279 OA
BRANCH  25  28
HETATM   28  C19 UNL     1       3.954  -7.965 -28.051  1.00  0.00     0.054 C 
HETATM   29  C20 UNL     1       4.349  -8.402 -29.457  1.00  0.00     0.018 C 
HETATM   30  C21 UNL     1       2.878  -6.905 -28.199  1.00  0.00     0.018 C 
ENDBRANCH  25  28
ENDBRANCH   4  21
ENDBRANCH   1   4
TORSDOF 6
ENDMDL
MODEL 2
REMARK VINA RESULT: -9.326037751      2.504      4.962
REMARK  6 active torsions:
REMARK  status: ('A' for Active; 'I' for Inactive)
REMARK    1  A    between atoms: C8_8  and  O1_9 
REMARK    2  A    between atoms: C13_15  and  O2_16 
REMARK    3  A    between atoms: O2_16  and  C14_17 
REMARK    4  A    between atoms: C14_17  and  C15_18 
REMARK    5  A    between atoms: C14_17  and  C17_21 
REMARK    6  A    between atoms: C18_26  and  C19_27 
ROOT
HETATM    1  C15 UNL     1       0.741  -4.708 -28.939  1.00  0.00     0.164 C 
HETATM    2  C16 UNL     1      -0.136  -3.828 -28.214  1.00  0.00     0.062 C 
HETATM    3  N1  UNL     1      -0.836  -3.092 -27.619  1.00  0.00    -0.197 NA
ENDROOT
BRANCH   1   4
HETATM    4  C14 UNL     1       0.646  -6.142 -28.387  1.00  0.00     0.211 C 
BRANCH   4   5
HETATM    5  O2  UNL     1       0.060  -6.020 -27.153  1.00  0.00    -0.366 OA
BRANCH   5   6
HETATM    6  C13 UNL     1      -1.005  -6.835 -26.904  1.00  0.00     0.159 C 
HETATM    7  C2  UNL     1      -2.200  -6.100 -26.387  1.00  0.00    -0.060 C 
HETATM    8  C1  UNL     1      -3.216  -5.727 -27.144  1.00  0.00     0.017 C 
HETATM    9  C3  UNL     1      -2.207  -5.794 -24.934  1.00  0.00     0.036 C 
HETATM   10  C4  UNL     1      -1.938  -7.061 -24.113  1.00  0.00     0.010 C 
HETATM   11  C5  UNL     1      -1.786  -8.232 -25.066  1.00  0.00     0.003 C 
HETATM   12  C6  UNL     1      -1.821  -9.546 -24.413  1.00  0.00     0.015 C 
HETATM   13  C11 UNL     1      -0.597  -7.922 -25.938  1.00  0.00    -0.010 C 
HETATM   14  C7  UNL     1      -1.824  -9.315 -22.891  1.00  0.00     0.013 C 
HETATM   15  C8  UNL     1      -0.784 -10.535 -24.718  1.00  0.00     0.122 C 
HETATM   16  C9  UNL     1       0.153 -10.207 -25.837  1.00  0.00     0.033 C 
HETATM   17  C10 UNL     1      -0.353  -9.164 -26.771  1.00  0.00     0.015 C 
HETATM   18  C12 UNL     1       0.612  -7.519 -25.165  1.00  0.00     0.018 C 
BRANCH  15  19
HETATM   19  O1  UNL     1       0.024 -10.823 -23.588  1.00  0.00    -0.395 OA
ATOM     20  H1  UNL     1      -0.427 -10.638 -22.773  1.00  0.00     0.210 HD
ENDBRANCH  15  19
ENDBRANCH   5   6
ENDBRANCH   4   5
BRANCH   4  21
HETATM   21  C17 UNL     1       2.027  -6.679 -28.377  1.00  0.00     0.170 A 
HETATM   22  N2  UNL     1       3.200  -6.030 -28.534  1.00  0.00    -0.279 N 
HETATM   23  N3  UNL     1       4.202  -6.874 -28.460  1.00  0.00    -0.281 N 
ATOM     24  H2  UNL     1       3.293  -5.026 -28.690  1.00  0.00     0.189 HD
HETATM   25  C18 UNL     1       3.671  -8.097 -28.248  1.00  0.00     0.143 A 
ATOM     26  H3  UNL     1       5.192  -6.648 -28.545  1.00  0.00     0.189 HD
HETATM   27  O3  UNL     1       2.380  -7.941 -28.205  1.00  0.00    -0.279 OA
BRANCH  25  28
HETATM   28  C19 UNL     1       4.360  -9.388 -28.090  1.00  0.00     0.054 C 
HETATM   29  C20 UNL     1       3.730 -10.227 -26.983  1.00  0.00     0.018 C 
HETATM   30  C21 UNL     1       4.321 -10.219 -29.358  1.00  0.00     0.018 C 
ENDBRANCH  25  28
ENDBRANCH   4  21
ENDBRANCH   1   4
TORSDOF 6
ENDMDL
MODEL 3
REMARK VINA RESULT: -9.068633852      2.341      5.809
REMARK  6 active torsions:
REMARK  status: ('A' for Active; 'I' for Inactive)
REMARK    1  A    between atoms: C8_8  and  O1_9 
REMARK    2  A    between atoms: C13_15  and  O2_16 
REMARK    3  A    between atoms: O2_16  and  C14_17 
REMARK    4  A    between atoms: C14_17  and  C15_18 
REMARK    5  A    between atoms: C14_17  and  C17_21 
REMARK    6  A    between atoms: C18_26  and  C19_27 
ROOT
HETATM    1  C15 UNL     1      -3.194  -7.916 -24.533  1.00  0.00     0.164 C 
HETATM    2  C16 UNL     1      -3.710  -6.736 -25.175  1.00  0.00     0.062 C 
HETATM    3  N1  UNL     1      -4.145  -5.784 -25.713  1.00  0.00    -0.197 NA
ENDROOT
BRANCH   1   4
HETATM    4  C14 UNL     1      -1.662  -7.835 -24.402  1.00  0.00     0.211 C 
BRANCH   4   5
HETATM    5  O2  UNL     1      -1.185  -7.834 -25.688  1.00  0.00    -0.366 OA
BRANCH   5   6
HETATM    6  C13 UNL     1      -0.086  -7.063 -25.928  1.00  0.00     0.159 C 
HETATM    7  C2  UNL     1      -0.395  -5.820 -26.698  1.00  0.00    -0.060 C 
HETATM    8  C1  UNL     1      -0.567  -4.635 -26.140  1.00  0.00     0.017 C 
HETATM    9  C3  UNL     1      -0.502  -5.968 -28.171  1.00  0.00     0.036 C 
HETATM   10  C4  UNL     1       0.735  -6.677 -28.735  1.00  0.00     0.010 C 
HETATM   11  C5  UNL     1       1.690  -6.965 -27.593  1.00  0.00     0.003 C 
HETATM   12  C6  UNL     1       3.035  -7.369 -28.022  1.00  0.00     0.015 C 
HETATM   13  C11 UNL     1       0.960  -7.883 -26.647  1.00  0.00    -0.010 C 
HETATM   14  C7  UNL     1       3.006  -7.550 -29.550  1.00  0.00     0.013 C 
HETATM   15  C8  UNL     1       3.656  -8.560 -27.437  1.00  0.00     0.122 C 
HETATM   16  C9  UNL     1       2.947  -9.192 -26.282  1.00  0.00     0.033 C 
HETATM   17  C10 UNL     1       1.973  -8.297 -25.598  1.00  0.00     0.015 C 
HETATM   18  C12 UNL     1       0.342  -9.057 -27.324  1.00  0.00     0.018 C 
BRANCH  15  19
HETATM   19  O1  UNL     1       3.851  -9.584 -28.399  1.00  0.00    -0.395 OA
ATOM     20  H1  UNL     1       3.081 -10.131 -28.495  1.00  0.00     0.210 HD
ENDBRANCH  15  19
ENDBRANCH   5   6
ENDBRANCH   4   5
BRANCH   4  21
HETATM   21  C17 UNL     1      -1.250  -8.997 -23.580  1.00  0.00     0.170 A 
HETATM   22  N2  UNL     1      -1.294  -9.157 -22.241  1.00  0.00    -0.279 N 
HETATM   23  N3  UNL     1      -0.832 -10.339 -21.908  1.00  0.00    -0.281 N 
ATOM     24  H2  UNL     1      -1.636  -8.459 -21.582  1.00  0.00     0.189 HD
HETATM   25  C18 UNL     1      -0.481 -10.962 -23.053  1.00  0.00     0.143 A 
ATOM     26  H3  UNL     1      -0.753 -10.716 -20.963  1.00  0.00     0.189 HD
HETATM   27  O3  UNL     1      -0.744 -10.135 -24.022  1.00  0.00    -0.279 OA
BRANCH  25  28
HETATM   28  C19 UNL     1       0.089 -12.306 -23.236  1.00  0.00     0.054 C 
HETATM   29  C20 UNL     1      -0.908 -13.254 -23.895  1.00  0.00     0.018 C 
HETATM   30  C21 UNL     1       1.331 -12.289 -24.107  1.00  0.00     0.018 C 
ENDBRANCH  25  28
ENDBRANCH   4  21
ENDBRANCH   1   4
TORSDOF 6
ENDMDL
MODEL 4
REMARK VINA RESULT: -8.965929999      2.267      5.366
REMARK  6 active torsions:
REMARK  status: ('A' for Active; 'I' for Inactive)
REMARK    1  A    between atoms: C8_8  and  O1_9 
REMARK    2  A    between atoms: C13_15  and  O2_16 
REMARK    3  A    between atoms: O2_16  and  C14_17 
REMARK    4  A    between atoms: C14_17  and  C15_18 
REMARK    5  A    between atoms: C14_17  and  C17_21 
REMARK    6  A    between atoms: C18_26  and  C19_27 
ROOT
HETATM    1  C15 UNL     1       1.382 -10.571 -24.729  1.00  0.00     0.164 C 
HETATM    2  C16 UNL     1       1.678 -11.971 -24.578  1.00  0.00     0.062 C 
HETATM    3  N1  UNL     1       1.935 -13.115 -24.471  1.00  0.00    -0.197 NA
ENDROOT
BRANCH   1   4
HETATM    4  C14 UNL     1      -0.137 -10.330 -24.671  1.00  0.00     0.211 C 
BRANCH   4   5
HETATM    5  O2  UNL     1      -0.290  -8.966 -24.674  1.00  0.00    -0.366 OA
BRANCH   5   6
HETATM    6  C13 UNL     1      -0.958  -8.433 -25.737  1.00  0.00     0.159 C 
HETATM    7  C2  UNL     1      -0.123  -8.344 -26.973  1.00  0.00    -0.060 C 
HETATM    8  C1  UNL     1      -0.161  -9.232 -27.950  1.00  0.00     0.017 C 
HETATM    9  C3  UNL     1       0.787  -7.174 -27.070  1.00  0.00     0.036 C 
HETATM   10  C4  UNL     1       0.018  -5.870 -26.825  1.00  0.00     0.010 C 
HETATM   11  C5  UNL     1      -1.443  -6.204 -26.597  1.00  0.00     0.003 C 
HETATM   12  C6  UNL     1      -2.340  -5.044 -26.644  1.00  0.00     0.015 C 
HETATM   13  C11 UNL     1      -1.496  -7.071 -25.365  1.00  0.00    -0.010 C 
HETATM   14  C7  UNL     1      -1.468  -3.779 -26.741  1.00  0.00     0.013 C 
HETATM   15  C8  UNL     1      -3.318  -4.838 -25.573  1.00  0.00     0.122 C 
HETATM   16  C9  UNL     1      -3.473  -5.944 -24.579  1.00  0.00     0.033 C 
HETATM   17  C10 UNL     1      -2.965  -7.263 -25.049  1.00  0.00     0.015 C 
HETATM   18  C12 UNL     1      -0.745  -6.500 -24.211  1.00  0.00     0.018 C 
BRANCH  15  19
HETATM   19  O1  UNL     1      -3.049  -3.662 -24.828  1.00  0.00    -0.395 OA
ATOM     20  H1  UNL     1      -3.241  -3.775 -23.904  1.00  0.00     0.210 HD
ENDBRANCH  15  19
ENDBRANCH   5   6
ENDBRANCH   4   5
BRANCH   4  21
HETATM   21  C17 UNL     1      -0.625 -11.014 -23.451  1.00  0.00     0.170 A 
HETATM   22  N2  UNL     1      -0.531 -10.633 -22.159  1.00  0.00    -0.279 N 
HETATM   23  N3  UNL     1      -1.092 -11.525 -21.378  1.00  0.00    -0.281 N 
ATOM     24  H2  UNL     1      -0.086  -9.773 -21.837  1.00  0.00     0.189 HD
HETATM   25  C18 UNL     1      -1.562 -12.507 -22.177  1.00  0.00     0.143 A 
ATOM     26  H3  UNL     1      -1.160 -11.484 -20.362  1.00  0.00     0.189 HD
HETATM   27  O3  UNL     1      -1.266 -12.169 -23.397  1.00  0.00    -0.279 OA
BRANCH  25  28
HETATM   28  C19 UNL     1      -2.275 -13.739 -21.803  1.00  0.00     0.054 C 
HETATM   29  C20 UNL     1      -1.334 -14.939 -21.758  1.00  0.00     0.018 C 
HETATM   30  C21 UNL     1      -2.929 -13.633 -20.438  1.00  0.00     0.018 C 
ENDBRANCH  25  28
ENDBRANCH   4  21
ENDBRANCH   1   4
TORSDOF 6
ENDMDL
MODEL 5
REMARK VINA RESULT: -8.946751121      1.112      1.482
REMARK  6 active torsions:
REMARK  status: ('A' for Active; 'I' for Inactive)
REMARK    1  A    between atoms: C8_8  and  O1_9 
REMARK    2  A    between atoms: C13_15  and  O2_16 
REMARK    3  A    between atoms: O2_16  and  C14_17 
REMARK    4  A    between atoms: C14_17  and  C15_18 
REMARK    5  A    between atoms: C14_17  and  C17_21 
REMARK    6  A    between atoms: C18_26  and  C19_27 
ROOT
HETATM    1  C15 UNL     1       0.333 -12.948 -24.239  1.00  0.00     0.164 C 
HETATM    2  C16 UNL     1      -0.756 -13.053 -23.305  1.00  0.00     0.062 C 
HETATM    3  N1  UNL     1      -1.658 -13.150 -22.556  1.00  0.00    -0.197 NA
ENDROOT
BRANCH   1   4
HETATM    4  C14 UNL     1       0.852 -11.501 -24.308  1.00  0.00     0.211 C 
BRANCH   4   5
HETATM    5  O2  UNL     1      -0.210 -10.753 -24.748  1.00  0.00    -0.366 OA
BRANCH   5   6
HETATM    6  C13 UNL     1      -0.360  -9.520 -24.185  1.00  0.00     0.159 C 
HETATM    7  C2  UNL     1      -1.445  -9.471 -23.157  1.00  0.00    -0.060 C 
HETATM    8  C1  UNL     1      -1.228  -9.560 -21.857  1.00  0.00     0.017 C 
HETATM    9  C3  UNL     1      -2.829  -9.308 -23.668  1.00  0.00     0.036 C 
HETATM   10  C4  UNL     1      -2.916  -8.111 -24.623  1.00  0.00     0.010 C 
HETATM   11  C5  UNL     1      -1.550  -7.458 -24.705  1.00  0.00     0.003 C 
HETATM   12  C6  UNL     1      -1.554  -6.136 -25.344  1.00  0.00     0.015 C 
HETATM   13  C11 UNL     1      -0.612  -8.496 -25.266  1.00  0.00    -0.010 C 
HETATM   14  C7  UNL     1      -2.964  -5.892 -25.909  1.00  0.00     0.013 C 
HETATM   15  C8  UNL     1      -0.585  -5.839 -26.402  1.00  0.00     0.122 C 
HETATM   16  C9  UNL     1       0.489  -6.853 -26.638  1.00  0.00     0.033 C 
HETATM   17  C10 UNL     1       0.707  -7.788 -25.500  1.00  0.00     0.015 C 
HETATM   18  C12 UNL     1      -1.126  -9.146 -26.505  1.00  0.00     0.018 C 
BRANCH  15  19
HETATM   19  O1  UNL     1      -1.216  -5.623 -27.654  1.00  0.00    -0.395 OA
ATOM     20  H1  UNL     1      -0.612  -5.732 -28.379  1.00  0.00     0.210 HD
ENDBRANCH  15  19
ENDBRANCH   5   6
ENDBRANCH   4   5
BRANCH   4  21
HETATM   21  C17 UNL     1       2.026 -11.518 -25.211  1.00  0.00     0.170 A 
HETATM   22  N2  UNL     1       2.961 -12.476 -25.383  1.00  0.00    -0.279 N 
HETATM   23  N3  UNL     1       3.839 -12.101 -26.283  1.00  0.00    -0.281 N 
ATOM     24  H2  UNL     1       2.981 -13.365 -24.884  1.00  0.00     0.189 HD
HETATM   25  C18 UNL     1       3.468 -10.874 -26.706  1.00  0.00     0.143 A 
ATOM     26  H3  UNL     1       4.647 -12.635 -26.601  1.00  0.00     0.189 HD
HETATM   27  O3  UNL     1       2.390 -10.563 -26.049  1.00  0.00    -0.279 OA
BRANCH  25  28
HETATM   28  C19 UNL     1       4.112 -10.010 -27.708  1.00  0.00     0.054 C 
HETATM   29  C20 UNL     1       3.965  -8.534 -27.353  1.00  0.00     0.018 C 
HETATM   30  C21 UNL     1       5.597 -10.292 -27.841  1.00  0.00     0.018 C 
ENDBRANCH  25  28
ENDBRANCH   4  21
ENDBRANCH   1   4
TORSDOF 6
ENDMDL
