MODEL 1
REMARK VINA RESULT: -9.443329145      0.000      0.000
REMARK  5 active torsions:
REMARK  status: ('A' for Active; 'I' for Inactive)
REMARK    1  A    between atoms: C3_6  and  N2_7 
REMARK    2  A    between atoms: N2_7  and  S1_9 
REMARK    3  A    between atoms: S1_9  and  C4_12 
REMARK    4  A    between atoms: C7_15  and  N3_16 
REMARK    5  A    between atoms: N4_18  and  C8_20 
ROOT
HETATM    1  C4  UNL     1      13.457   9.489 -12.870  1.00  0.00     0.080 A 
HETATM    2  C5  UNL     1      12.538  10.368 -13.408  1.00  0.00     0.027 A 
HETATM    3  C6  UNL     1      11.567  10.948 -12.624  1.00  0.00     0.032 A 
HETATM    4  C7  UNL     1      11.461  10.687 -11.274  1.00  0.00     0.048 A 
HETATM    5  C14 UNL     1      12.373   9.812 -10.725  1.00  0.00     0.032 A 
HETATM    6  C15 UNL     1      13.345   9.229 -11.508  1.00  0.00     0.027 A 
ENDROOT
BRANCH   1   7
HETATM    7  S1  UNL     1      14.688   8.802 -13.878  1.00  0.00     0.263 S 
HETATM    8  O2  UNL     1      14.439   9.171 -15.326  1.00  0.00    -0.200 OA
HETATM    9  O3  UNL     1      15.995   9.474 -13.453  1.00  0.00    -0.200 OA
BRANCH   7  10
HETATM   10  N2  UNL     1      14.809   7.115 -13.687  1.00  0.00    -0.274 N 
ATOM     11  H2  UNL     1      14.944   6.562 -14.533  1.00  0.00     0.179 HD
BRANCH  10  12
HETATM   12  C3  UNL     1      14.742   6.418 -12.481  1.00  0.00     0.126 A 
HETATM   13  C2  UNL     1      13.575   5.890 -12.003  1.00  0.00     0.128 A 
HETATM   14  N1  UNL     1      13.568   5.191 -10.824  1.00  0.00    -0.316 N 
HETATM   15  C1  UNL     1      14.710   5.016 -10.126  1.00  0.00     0.327 A 
ATOM     16  H1  UNL     1      12.694   4.800 -10.472  1.00  0.00     0.170 HD
HETATM   17  O1  UNL     1      14.687   4.364  -9.031  1.00  0.00    -0.247 OA
HETATM   18  N5  UNL     1      15.876   5.525 -10.574  1.00  0.00    -0.274 N 
HETATM   19  C16 UNL     1      15.895   6.220 -11.742  1.00  0.00     0.278 A 
ATOM     20  H5  UNL     1      16.736   5.388 -10.043  1.00  0.00     0.173 HD
HETATM   21  O4  UNL     1      17.009   6.673 -12.116  1.00  0.00    -0.265 OA
ENDBRANCH  10  12
ENDBRANCH   7  10
ENDBRANCH   1   7
BRANCH   4  22
HETATM   22  N3  UNL     1      10.452  11.293 -10.470  1.00  0.00    -0.300 N 
HETATM   23  N4  UNL     1       9.786  12.272 -10.870  1.00  0.00    -0.300 N 
ATOM     24  H4  UNL     1       9.956  12.663 -11.797  1.00  0.00     0.187 HD
ATOM     25  H3  UNL     1      10.268  10.916  -9.540  1.00  0.00     0.187 HD
BRANCH  23  26
HETATM   26  C8  UNL     1       8.792  12.840 -10.026  1.00  0.00     0.048 A 
HETATM   27  C9  UNL     1       8.404  14.146 -10.178  1.00  0.00     0.034 A 
HETATM   28  C10 UNL     1       7.436  14.729  -9.371  1.00  0.00     0.044 A 
HETATM   29  C11 UNL     1       6.859  13.942  -8.389  1.00  0.00     0.116 A 
HETATM   30  F1  UNL     1       5.902  14.496  -7.582  1.00  0.00    -0.206 F 
HETATM   31  C12 UNL     1       7.248  12.624  -8.234  1.00  0.00     0.044 A 
HETATM   32  C13 UNL     1       8.221  12.050  -9.050  1.00  0.00     0.034 A 
ENDBRANCH  23  26
ENDBRANCH   4  22
TORSDOF 5
ENDMDL
MODEL 2
REMARK VINA RESULT: -9.165972602      5.482      9.519
REMARK  5 active torsions:
REMARK  status: ('A' for Active; 'I' for Inactive)
REMARK    1  A    between atoms: C3_6  and  N2_7 
REMARK    2  A    between atoms: N2_7  and  S1_9 
REMARK    3  A    between atoms: S1_9  and  C4_12 
REMARK    4  A    between atoms: C7_15  and  N3_16 
REMARK    5  A    between atoms: N4_18  and  C8_20 
ROOT
HETATM    1  C4  UNL     1       9.014   9.760  -8.951  1.00  0.00     0.080 A 
HETATM    2  C5  UNL     1      10.021   9.211  -8.181  1.00  0.00     0.027 A 
HETATM    3  C6  UNL     1      11.188   8.760  -8.753  1.00  0.00     0.032 A 
HETATM    4  C7  UNL     1      11.415   8.831 -10.111  1.00  0.00     0.048 A 
HETATM    5  C14 UNL     1      10.419   9.376 -10.891  1.00  0.00     0.032 A 
HETATM    6  C15 UNL     1       9.248   9.828 -10.321  1.00  0.00     0.027 A 
ENDROOT
BRANCH   1   7
HETATM    7  S1  UNL     1       7.571  10.349  -8.197  1.00  0.00     0.263 S 
HETATM    8  O2  UNL     1       6.437   9.367  -8.408  1.00  0.00    -0.200 OA
HETATM    9  O3  UNL     1       7.871  10.385  -6.697  1.00  0.00    -0.200 OA
BRANCH   7  10
HETATM   10  N2  UNL     1       7.146  11.904  -8.744  1.00  0.00    -0.274 N 
ATOM     11  H2  UNL     1       6.263  11.992  -9.246  1.00  0.00     0.179 HD
BRANCH  10  12
HETATM   12  C3  UNL     1       7.893  13.068  -8.570  1.00  0.00     0.126 A 
HETATM   13  C2  UNL     1       7.935  13.744  -7.383  1.00  0.00     0.128 A 
HETATM   14  N1  UNL     1       8.706  14.869  -7.258  1.00  0.00    -0.316 N 
HETATM   15  C1  UNL     1       9.431  15.321  -8.303  1.00  0.00     0.327 A 
ATOM     16  H1  UNL     1       8.732  15.370  -6.369  1.00  0.00     0.170 HD
HETATM   17  O1  UNL     1      10.143  16.370  -8.171  1.00  0.00    -0.247 OA
HETATM   18  N5  UNL     1       9.411  14.674  -9.486  1.00  0.00    -0.274 N 
HETATM   19  C16 UNL     1       8.649  13.557  -9.622  1.00  0.00     0.278 A 
ATOM     20  H5  UNL     1       9.962  15.020 -10.272  1.00  0.00     0.173 HD
HETATM   21  O4  UNL     1       8.666  12.990 -10.747  1.00  0.00    -0.265 OA
ENDBRANCH  10  12
ENDBRANCH   7  10
ENDBRANCH   1   7
BRANCH   4  22
HETATM   22  N3  UNL     1      12.628   8.362 -10.694  1.00  0.00    -0.300 N 
HETATM   23  N4  UNL     1      13.150   8.926 -11.679  1.00  0.00    -0.300 N 
ATOM     24  H4  UNL     1      12.710   9.748 -12.092  1.00  0.00     0.187 HD
ATOM     25  H3  UNL     1      13.083   7.541 -10.295  1.00  0.00     0.187 HD
BRANCH  23  26
HETATM   26  C8  UNL     1      14.361   8.415 -12.222  1.00  0.00     0.048 A 
HETATM   27  C9  UNL     1      14.938   8.998 -13.322  1.00  0.00     0.034 A 
HETATM   28  C10 UNL     1      16.120   8.524 -13.876  1.00  0.00     0.044 A 
HETATM   29  C11 UNL     1      16.715   7.426 -13.278  1.00  0.00     0.116 A 
HETATM   30  F1  UNL     1      17.882   6.942 -13.806  1.00  0.00    -0.206 F 
HETATM   31  C12 UNL     1      16.137   6.837 -12.168  1.00  0.00     0.044 A 
HETATM   32  C13 UNL     1      14.949   7.322 -11.621  1.00  0.00     0.034 A 
ENDBRANCH  23  26
ENDBRANCH   4  22
TORSDOF 5
ENDMDL
MODEL 3
REMARK VINA RESULT: -9.136080580      1.705      1.996
REMARK  5 active torsions:
REMARK  status: ('A' for Active; 'I' for Inactive)
REMARK    1  A    between atoms: C3_6  and  N2_7 
REMARK    2  A    between atoms: N2_7  and  S1_9 
REMARK    3  A    between atoms: S1_9  and  C4_12 
REMARK    4  A    between atoms: C7_15  and  N3_16 
REMARK    5  A    between atoms: N4_18  and  C8_20 
ROOT
HETATM    1  C4  UNL     1      12.483   9.297 -11.499  1.00  0.00     0.080 A 
HETATM    2  C5  UNL     1      12.368  10.421 -12.293  1.00  0.00     0.027 A 
HETATM    3  C6  UNL     1      11.371  11.344 -12.077  1.00  0.00     0.032 A 
HETATM    4  C7  UNL     1      10.443  11.201 -11.068  1.00  0.00     0.048 A 
HETATM    5  C14 UNL     1      10.547  10.084 -10.268  1.00  0.00     0.032 A 
HETATM    6  C15 UNL     1      11.543   9.156 -10.482  1.00  0.00     0.027 A 
ENDROOT
BRANCH   1   7
HETATM    7  S1  UNL     1      13.769   8.170 -11.775  1.00  0.00     0.263 S 
HETATM    8  O2  UNL     1      13.247   6.960 -12.522  1.00  0.00    -0.200 OA
HETATM    9  O3  UNL     1      14.758   8.887 -12.697  1.00  0.00    -0.200 OA
BRANCH   7  10
HETATM   10  N2  UNL     1      14.545   7.712 -10.331  1.00  0.00    -0.274 N 
ATOM     11  H2  UNL     1      14.960   8.457  -9.772  1.00  0.00     0.179 HD
BRANCH  10  12
HETATM   12  C3  UNL     1      14.667   6.412  -9.841  1.00  0.00     0.126 A 
HETATM   13  C2  UNL     1      13.814   5.897  -8.906  1.00  0.00     0.128 A 
HETATM   14  N1  UNL     1      13.961   4.605  -8.476  1.00  0.00    -0.316 N 
HETATM   15  C1  UNL     1      14.948   3.828  -8.972  1.00  0.00     0.327 A 
ATOM     16  H1  UNL     1      13.321   4.227  -7.777  1.00  0.00     0.170 HD
HETATM   17  O1  UNL     1      15.072   2.628  -8.562  1.00  0.00    -0.247 OA
HETATM   18  N5  UNL     1      15.803   4.308  -9.896  1.00  0.00    -0.274 N 
HETATM   19  C16 UNL     1      15.667   5.589 -10.329  1.00  0.00     0.278 A 
ATOM     20  H5  UNL     1      16.546   3.716 -10.268  1.00  0.00     0.173 HD
HETATM   21  O4  UNL     1      16.491   5.989 -11.194  1.00  0.00    -0.265 OA
ENDBRANCH  10  12
ENDBRANCH   7  10
ENDBRANCH   1   7
BRANCH   4  22
HETATM   22  N3  UNL     1       9.415  12.164 -10.852  1.00  0.00    -0.300 N 
HETATM   23  N4  UNL     1       9.182  12.642  -9.721  1.00  0.00    -0.300 N 
ATOM     24  H4  UNL     1       9.735  12.346  -8.916  1.00  0.00     0.187 HD
ATOM     25  H3  UNL     1       8.851  12.472 -11.645  1.00  0.00     0.187 HD
BRANCH  23  26
HETATM   26  C8  UNL     1       8.143  13.599  -9.561  1.00  0.00     0.048 A 
HETATM   27  C9  UNL     1       7.968  14.605 -10.477  1.00  0.00     0.034 A 
HETATM   28  C10 UNL     1       6.963  15.555 -10.350  1.00  0.00     0.044 A 
HETATM   29  C11 UNL     1       6.124  15.459  -9.253  1.00  0.00     0.116 A 
HETATM   30  F1  UNL     1       5.126  16.385  -9.107  1.00  0.00    -0.206 F 
HETATM   31  C12 UNL     1       6.297  14.446  -8.328  1.00  0.00     0.044 A 
HETATM   32  C13 UNL     1       7.310  13.498  -8.467  1.00  0.00     0.034 A 
ENDBRANCH  23  26
ENDBRANCH   4  22
TORSDOF 5
ENDMDL
MODEL 4
REMARK VINA RESULT: -9.132238258      5.697      9.665
REMARK  5 active torsions:
REMARK  status: ('A' for Active; 'I' for Inactive)
REMARK    1  A    between atoms: C3_6  and  N2_7 
REMARK    2  A    between atoms: N2_7  and  S1_9 
REMARK    3  A    between atoms: S1_9  and  C4_12 
REMARK    4  A    between atoms: C7_15  and  N3_16 
REMARK    5  A    between atoms: N4_18  and  C8_20 
ROOT
HETATM    1  C4  UNL     1       8.965   9.738  -8.908  1.00  0.00     0.080 A 
HETATM    2  C5  UNL     1       9.947   9.140  -8.143  1.00  0.00     0.027 A 
HETATM    3  C6  UNL     1      11.127   8.714  -8.708  1.00  0.00     0.032 A 
HETATM    4  C7  UNL     1      11.391   8.860 -10.053  1.00  0.00     0.048 A 
HETATM    5  C14 UNL     1      10.420   9.456 -10.828  1.00  0.00     0.032 A 
HETATM    6  C15 UNL     1       9.237   9.883 -10.265  1.00  0.00     0.027 A 
ENDROOT
BRANCH   1   7
HETATM    7  S1  UNL     1       7.505  10.294  -8.159  1.00  0.00     0.263 S 
HETATM    8  O2  UNL     1       6.389   9.296  -8.394  1.00  0.00    -0.200 OA
HETATM    9  O3  UNL     1       7.791  10.316  -6.656  1.00  0.00    -0.200 OA
BRANCH   7  10
HETATM   10  N2  UNL     1       7.060  11.848  -8.692  1.00  0.00    -0.274 N 
ATOM     11  H2  UNL     1       6.113  11.960  -9.054  1.00  0.00     0.179 HD
BRANCH  10  12
HETATM   12  C3  UNL     1       7.868  12.984  -8.678  1.00  0.00     0.126 A 
HETATM   13  C2  UNL     1       8.634  13.353  -9.748  1.00  0.00     0.128 A 
HETATM   14  N1  UNL     1       9.392  14.493  -9.693  1.00  0.00    -0.316 N 
HETATM   15  C1  UNL     1       9.389  15.263  -8.583  1.00  0.00     0.327 A 
ATOM     16  H1  UNL     1       9.963  14.763 -10.495  1.00  0.00     0.170 HD
HETATM   17  O1  UNL     1      10.100  16.320  -8.547  1.00  0.00    -0.247 OA
HETATM   18  N5  UNL     1       8.643  14.924  -7.513  1.00  0.00    -0.274 N 
HETATM   19  C16 UNL     1       7.888  13.795  -7.557  1.00  0.00     0.278 A 
ATOM     20  H5  UNL     1       8.644  15.510  -6.678  1.00  0.00     0.173 HD
HETATM   21  O4  UNL     1       7.208  13.524  -6.531  1.00  0.00    -0.265 OA
ENDBRANCH  10  12
ENDBRANCH   7  10
ENDBRANCH   1   7
BRANCH   4  22
HETATM   22  N3  UNL     1      12.617   8.416 -10.630  1.00  0.00    -0.300 N 
HETATM   23  N4  UNL     1      13.042   8.870 -11.713  1.00  0.00    -0.300 N 
ATOM     24  H4  UNL     1      12.510   9.582 -12.214  1.00  0.00     0.187 HD
ATOM     25  H3  UNL     1      13.164   7.705 -10.143  1.00  0.00     0.187 HD
BRANCH  23  26
HETATM   26  C8  UNL     1      14.271   8.392 -12.244  1.00  0.00     0.048 A 
HETATM   27  C9  UNL     1      14.893   7.298 -11.699  1.00  0.00     0.034 A 
HETATM   28  C10 UNL     1      16.093   6.806 -12.195  1.00  0.00     0.044 A 
HETATM   29  C11 UNL     1      16.659   7.461 -13.275  1.00  0.00     0.116 A 
HETATM   30  F1  UNL     1      17.842   6.992 -13.781  1.00  0.00    -0.206 F 
HETATM   31  C12 UNL     1      16.034   8.564 -13.827  1.00  0.00     0.044 A 
HETATM   32  C13 UNL     1      14.829   9.049 -13.321  1.00  0.00     0.034 A 
ENDBRANCH  23  26
ENDBRANCH   4  22
TORSDOF 5
ENDMDL
MODEL 5
REMARK VINA RESULT: -8.973875452      5.849      9.947
REMARK  5 active torsions:
REMARK  status: ('A' for Active; 'I' for Inactive)
REMARK    1  A    between atoms: C3_6  and  N2_7 
REMARK    2  A    between atoms: N2_7  and  S1_9 
REMARK    3  A    between atoms: S1_9  and  C4_12 
REMARK    4  A    between atoms: C7_15  and  N3_16 
REMARK    5  A    between atoms: N4_18  and  C8_20 
ROOT
HETATM    1  C4  UNL     1       9.097   9.342  -8.419  1.00  0.00     0.080 A 
HETATM    2  C5  UNL     1      10.208   8.972  -7.686  1.00  0.00     0.027 A 
HETATM    3  C6  UNL     1      11.385   8.626  -8.307  1.00  0.00     0.032 A 
HETATM    4  C7  UNL     1      11.520   8.630  -9.679  1.00  0.00     0.048 A 
HETATM    5  C14 UNL     1      10.420   8.998 -10.422  1.00  0.00     0.032 A 
HETATM    6  C15 UNL     1       9.238   9.344  -9.803  1.00  0.00     0.027 A 
ENDROOT
BRANCH   1   7
HETATM    7  S1  UNL     1       7.639   9.804  -7.605  1.00  0.00     0.263 S 
HETATM    8  O2  UNL     1       6.436   9.455  -8.457  1.00  0.00    -0.200 OA
HETATM    9  O3  UNL     1       7.575   8.939  -6.345  1.00  0.00    -0.200 OA
BRANCH   7  10
HETATM   10  N2  UNL     1       7.633  11.453  -7.182  1.00  0.00    -0.274 N 
ATOM     11  H2  UNL     1       7.787  11.679  -6.199  1.00  0.00     0.179 HD
BRANCH  10  12
HETATM   12  C3  UNL     1       7.437  12.524  -8.054  1.00  0.00     0.126 A 
HETATM   13  C2  UNL     1       8.317  12.826  -9.055  1.00  0.00     0.128 A 
HETATM   14  N1  UNL     1       8.065  13.874  -9.900  1.00  0.00    -0.316 N 
HETATM   15  C1  UNL     1       6.946  14.616  -9.755  1.00  0.00     0.327 A 
ATOM     16  H1  UNL     1       8.726  14.095 -10.645  1.00  0.00     0.170 HD
HETATM   17  O1  UNL     1       6.726  15.588 -10.549  1.00  0.00    -0.247 OA
HETATM   18  N5  UNL     1       6.059  14.340  -8.777  1.00  0.00    -0.274 N 
HETATM   19  C16 UNL     1       6.300  13.303  -7.932  1.00  0.00     0.278 A 
ATOM     20  H5  UNL     1       5.216  14.904  -8.673  1.00  0.00     0.173 HD
HETATM   21  O4  UNL     1       5.441  13.088  -7.037  1.00  0.00    -0.265 OA
ENDBRANCH  10  12
ENDBRANCH   7  10
ENDBRANCH   1   7
BRANCH   4  22
HETATM   22  N3  UNL     1      12.745   8.271 -10.314  1.00  0.00    -0.300 N 
HETATM   23  N4  UNL     1      13.013   8.620 -11.483  1.00  0.00    -0.300 N 
ATOM     24  H4  UNL     1      12.347   9.181 -12.015  1.00  0.00     0.187 HD
ATOM     25  H3  UNL     1      13.424   7.711  -9.797  1.00  0.00     0.187 HD
BRANCH  23  26
HETATM   26  C8  UNL     1      14.250   8.234 -12.068  1.00  0.00     0.048 A 
HETATM   27  C9  UNL     1      14.964   7.176 -11.566  1.00  0.00     0.034 A 
HETATM   28  C10 UNL     1      16.174   6.774 -12.116  1.00  0.00     0.044 A 
HETATM   29  C11 UNL     1      16.652   7.481 -13.206  1.00  0.00     0.116 A 
HETATM   30  F1  UNL     1      17.843   7.102 -13.764  1.00  0.00    -0.206 F 
HETATM   31  C12 UNL     1      15.934   8.548 -13.715  1.00  0.00     0.044 A 
HETATM   32  C13 UNL     1      14.720   8.943 -13.154  1.00  0.00     0.034 A 
ENDBRANCH  23  26
ENDBRANCH   4  22
TORSDOF 5
ENDMDL
