MODEL 1
REMARK VINA RESULT: -8.423864474      0.000      0.000
REMARK  6 active torsions:
REMARK  status: ('A' for Active; 'I' for Inactive)
REMARK    1  A    between atoms: O1_2  and  C2_3 
REMARK    2  A    between atoms: C4_5  and  C5_6 
REMARK    3  A    between atoms: C5_6  and  N1_7 
REMARK    4  A    between atoms: C11_16  and  N3_17 
REMARK    5  A    between atoms: C14_25  and  O2_26 
REMARK    6  A    between atoms: C16_28  and  O3_29 
ROOT
HETATM    1  N1  UNL     1      13.229   8.065  -9.690  1.00  0.00    -0.337 N 
HETATM    2  C6  UNL     1      13.132   8.992 -10.643  1.00  0.00     0.100 A 
HETATM    3  C7  UNL     1      13.897   8.655 -11.741  1.00  0.00    -0.029 A 
HETATM    4  C8  UNL     1      14.083   9.391 -13.016  1.00  0.00     0.050 C 
HETATM    5  C9  UNL     1      14.494   7.456 -11.435  1.00  0.00     0.054 A 
HETATM    6  C10 UNL     1      15.356   6.656 -12.151  1.00  0.00     0.131 A 
HETATM    7  S1  UNL     1      15.837   7.094 -13.645  1.00  0.00    -0.059 SA
HETATM    8  N2  UNL     1      15.804   5.508 -11.617  1.00  0.00    -0.181 N 
ATOM      9  H2  UNL     1      16.443   4.906 -12.136  1.00  0.00     0.185 HD
HETATM   10  C11 UNL     1      15.385   5.166 -10.366  1.00  0.00     0.678 A 
HETATM   11  N4  UNL     1      14.543   5.950  -9.671  1.00  0.00    -0.176 N 
ATOM     12  H4  UNL     1      14.256   5.653  -8.738  1.00  0.00     0.186 HD
HETATM   13  C12 UNL     1      14.059   7.122 -10.163  1.00  0.00     0.137 A 
ENDROOT
BRANCH   1  14
HETATM   14  C5  UNL     1      12.604   8.059  -8.419  1.00  0.00     0.172 C 
BRANCH  14  15
HETATM   15  C4  UNL     1      11.212   8.494  -8.353  1.00  0.00     0.004 A 
HETATM   16  C3  UNL     1      10.569   8.791  -9.553  1.00  0.00     0.051 A 
HETATM   17  C2  UNL     1       9.258   9.218  -9.591  1.00  0.00     0.105 A 
HETATM   18  C16 UNL     1       8.534   9.366  -8.426  1.00  0.00     0.138 A 
HETATM   19  C14 UNL     1       9.181   9.069  -7.250  1.00  0.00     0.143 A 
HETATM   20  C13 UNL     1      10.500   8.638  -7.202  1.00  0.00     0.160 A 
HETATM   21  F1  UNL     1      11.114   8.346  -6.034  1.00  0.00    -0.202 F 
BRANCH  17  22
HETATM   22  O1  UNL     1       8.626   9.514 -10.810  1.00  0.00    -0.353 OA
HETATM   23  C1  UNL     1       9.336   9.783 -11.987  1.00  0.00     0.210 C 
ENDBRANCH  17  22
BRANCH  18  24
HETATM   24  O3  UNL     1       7.224   9.796  -8.514  1.00  0.00    -0.351 OA
HETATM   25  C17 UNL     1       6.778  11.097  -8.301  1.00  0.00     0.210 C 
ENDBRANCH  18  24
BRANCH  19  26
HETATM   26  O2  UNL     1       8.511   9.199  -6.068  1.00  0.00    -0.350 OA
HETATM   27  C15 UNL     1       7.702   8.212  -5.469  1.00  0.00     0.210 C 
ENDBRANCH  19  26
ENDBRANCH  14  15
ENDBRANCH   1  14
BRANCH  10  28
HETATM   28  N3  UNL     1      15.820   4.058  -9.857  1.00  0.00    -0.234 N 
ATOM     29  H32 UNL     1      15.942   3.233 -10.444  1.00  0.00     0.174 HD
ATOM     30  H31 UNL     1      16.035   4.036  -8.859  1.00  0.00     0.174 HD
ENDBRANCH  10  28
TORSDOF 6
ENDMDL
MODEL 2
REMARK VINA RESULT: -8.292659936      4.782      7.665
REMARK  6 active torsions:
REMARK  status: ('A' for Active; 'I' for Inactive)
REMARK    1  A    between atoms: O1_2  and  C2_3 
REMARK    2  A    between atoms: C4_5  and  C5_6 
REMARK    3  A    between atoms: C5_6  and  N1_7 
REMARK    4  A    between atoms: C11_16  and  N3_17 
REMARK    5  A    between atoms: C14_25  and  O2_26 
REMARK    6  A    between atoms: C16_28  and  O3_29 
ROOT
HETATM    1  N1  UNL     1       8.957  10.940 -10.420  1.00  0.00    -0.337 N 
HETATM    2  C6  UNL     1       9.026  12.262 -10.569  1.00  0.00     0.100 A 
HETATM    3  C7  UNL     1       8.581  12.912  -9.436  1.00  0.00    -0.029 A 
HETATM    4  C8  UNL     1       8.485  14.368  -9.167  1.00  0.00     0.050 C 
HETATM    5  C9  UNL     1       8.220  11.927  -8.550  1.00  0.00     0.054 A 
HETATM    6  C10 UNL     1       7.712  11.989  -7.272  1.00  0.00     0.131 A 
HETATM    7  S1  UNL     1       7.442  13.432  -6.563  1.00  0.00    -0.059 SA
HETATM    8  N2  UNL     1       7.437  10.858  -6.604  1.00  0.00    -0.181 N 
ATOM      9  H2  UNL     1       7.060  10.889  -5.657  1.00  0.00     0.185 HD
HETATM   10  C11 UNL     1       7.673   9.666  -7.220  1.00  0.00     0.678 A 
HETATM   11  N4  UNL     1       8.170   9.608  -8.468  1.00  0.00    -0.176 N 
ATOM     12  H4  UNL     1       8.330   8.694  -8.889  1.00  0.00     0.186 HD
HETATM   13  C12 UNL     1       8.465  10.723  -9.189  1.00  0.00     0.137 A 
ENDROOT
BRANCH   1  14
HETATM   14  C5  UNL     1       9.312   9.940 -11.360  1.00  0.00     0.172 C 
BRANCH  14  15
HETATM   15  C4  UNL     1      10.660   9.388 -11.276  1.00  0.00     0.004 A 
HETATM   16  C3  UNL     1      10.896   8.396 -10.325  1.00  0.00     0.051 A 
HETATM   17  C2  UNL     1      12.139   7.820 -10.165  1.00  0.00     0.105 A 
HETATM   18  C16 UNL     1      13.202   8.215 -10.952  1.00  0.00     0.138 A 
HETATM   19  C14 UNL     1      12.955   9.194 -11.885  1.00  0.00     0.143 A 
HETATM   20  C13 UNL     1      11.707   9.779 -12.054  1.00  0.00     0.160 A 
HETATM   21  F1  UNL     1      11.485  10.736 -12.982  1.00  0.00    -0.202 F 
BRANCH  17  22
HETATM   22  O1  UNL     1      12.359   6.822  -9.202  1.00  0.00    -0.353 OA
HETATM   23  C1  UNL     1      12.194   7.044  -7.829  1.00  0.00     0.210 C 
ENDBRANCH  17  22
BRANCH  18  24
HETATM   24  O3  UNL     1      14.428   7.610 -10.755  1.00  0.00    -0.351 OA
HETATM   25  C17 UNL     1      14.887   6.470 -11.407  1.00  0.00     0.210 C 
ENDBRANCH  18  24
BRANCH  19  26
HETATM   26  O2  UNL     1      13.971   9.622 -12.689  1.00  0.00    -0.350 OA
HETATM   27  C15 UNL     1      14.300   9.089 -13.952  1.00  0.00     0.210 C 
ENDBRANCH  19  26
ENDBRANCH  14  15
ENDBRANCH   1  14
BRANCH  10  28
HETATM   28  N3  UNL     1       7.406   8.577  -6.571  1.00  0.00    -0.234 N 
ATOM     29  H32 UNL     1       6.698   8.575  -5.837  1.00  0.00     0.174 HD
ATOM     30  H31 UNL     1       7.921   7.731  -6.814  1.00  0.00     0.174 HD
ENDBRANCH  10  28
TORSDOF 6
ENDMDL
MODEL 3
REMARK VINA RESULT: -8.222923838      1.673      2.494
REMARK  6 active torsions:
REMARK  status: ('A' for Active; 'I' for Inactive)
REMARK    1  A    between atoms: O1_2  and  C2_3 
REMARK    2  A    between atoms: C4_5  and  C5_6 
REMARK    3  A    between atoms: C5_6  and  N1_7 
REMARK    4  A    between atoms: C11_16  and  N3_17 
REMARK    5  A    between atoms: C14_25  and  O2_26 
REMARK    6  A    between atoms: C16_28  and  O3_29 
ROOT
HETATM    1  N1  UNL     1      12.386   7.453 -10.513  1.00  0.00    -0.337 N 
HETATM    2  C6  UNL     1      12.530   8.499 -11.325  1.00  0.00     0.100 A 
HETATM    3  C7  UNL     1      13.751   8.463 -11.967  1.00  0.00    -0.029 A 
HETATM    4  C8  UNL     1      14.324   9.417 -12.948  1.00  0.00     0.050 C 
HETATM    5  C9  UNL     1      14.383   7.329 -11.517  1.00  0.00     0.054 A 
HETATM    6  C10 UNL     1      15.616   6.792 -11.813  1.00  0.00     0.131 A 
HETATM    7  S1  UNL     1      16.604   7.535 -12.874  1.00  0.00    -0.059 SA
HETATM    8  N2  UNL     1      16.007   5.650 -11.226  1.00  0.00    -0.181 N 
ATOM      9  H2  UNL     1      16.918   5.241 -11.436  1.00  0.00     0.185 HD
HETATM   10  C11 UNL     1      15.161   5.049 -10.343  1.00  0.00     0.678 A 
HETATM   11  N4  UNL     1      13.958   5.577 -10.057  1.00  0.00    -0.176 N 
ATOM     12  H4  UNL     1      13.358   5.093  -9.390  1.00  0.00     0.186 HD
HETATM   13  C12 UNL     1      13.512   6.731 -10.622  1.00  0.00     0.137 A 
ENDROOT
BRANCH   1  14
HETATM   14  C5  UNL     1      11.280   7.146  -9.681  1.00  0.00     0.172 C 
BRANCH  14  15
HETATM   15  C4  UNL     1      11.072   7.985  -8.505  1.00  0.00     0.004 A 
HETATM   16  C3  UNL     1       9.916   8.763  -8.460  1.00  0.00     0.051 A 
HETATM   17  C2  UNL     1       9.638   9.593  -7.394  1.00  0.00     0.105 A 
HETATM   18  C16 UNL     1      10.508   9.681  -6.326  1.00  0.00     0.138 A 
HETATM   19  C14 UNL     1      11.643   8.908  -6.385  1.00  0.00     0.143 A 
HETATM   20  C13 UNL     1      11.932   8.069  -7.453  1.00  0.00     0.160 A 
HETATM   21  F1  UNL     1      13.052   7.314  -7.486  1.00  0.00    -0.202 F 
BRANCH  17  22
HETATM   22  O1  UNL     1       8.468  10.370  -7.366  1.00  0.00    -0.353 OA
HETATM   23  C1  UNL     1       7.287   9.987  -8.015  1.00  0.00     0.210 C 
ENDBRANCH  17  22
BRANCH  18  24
HETATM   24  O3  UNL     1      10.186  10.526  -5.282  1.00  0.00    -0.351 OA
HETATM   25  C17 UNL     1       9.477  10.174  -4.138  1.00  0.00     0.210 C 
ENDBRANCH  18  24
BRANCH  19  26
HETATM   26  O2  UNL     1      12.537   8.957  -5.355  1.00  0.00    -0.350 OA
HETATM   27  C15 UNL     1      12.538   8.113  -4.226  1.00  0.00     0.210 C 
ENDBRANCH  19  26
ENDBRANCH  14  15
ENDBRANCH   1  14
BRANCH  10  28
HETATM   28  N3  UNL     1      15.544   3.947  -9.780  1.00  0.00    -0.234 N 
ATOM     29  H32 UNL     1      16.469   3.564  -9.973  1.00  0.00     0.174 HD
ATOM     30  H31 UNL     1      14.898   3.480  -9.144  1.00  0.00     0.174 HD
ENDBRANCH  10  28
TORSDOF 6
ENDMDL
MODEL 4
REMARK VINA RESULT: -8.209396781      1.644      2.877
REMARK  6 active torsions:
REMARK  status: ('A' for Active; 'I' for Inactive)
REMARK    1  A    between atoms: O1_2  and  C2_3 
REMARK    2  A    between atoms: C4_5  and  C5_6 
REMARK    3  A    between atoms: C5_6  and  N1_7 
REMARK    4  A    between atoms: C11_16  and  N3_17 
REMARK    5  A    between atoms: C14_25  and  O2_26 
REMARK    6  A    between atoms: C16_28  and  O3_29 
ROOT
HETATM    1  N1  UNL     1      12.328   7.401 -10.514  1.00  0.00    -0.337 N 
HETATM    2  C6  UNL     1      12.408   8.469 -11.307  1.00  0.00     0.100 A 
HETATM    3  C7  UNL     1      13.621   8.507 -11.965  1.00  0.00    -0.029 A 
HETATM    4  C8  UNL     1      14.131   9.508 -12.934  1.00  0.00     0.050 C 
HETATM    5  C9  UNL     1      14.316   7.399 -11.545  1.00  0.00     0.054 A 
HETATM    6  C10 UNL     1      15.570   6.931 -11.866  1.00  0.00     0.131 A 
HETATM    7  S1  UNL     1      16.505   7.744 -12.925  1.00  0.00    -0.059 SA
HETATM    8  N2  UNL     1      16.027   5.800 -11.307  1.00  0.00    -0.181 N 
ATOM      9  H2  UNL     1      16.955   5.442 -11.536  1.00  0.00     0.185 HD
HETATM   10  C11 UNL     1      15.225   5.140 -10.425  1.00  0.00     0.678 A 
HETATM   11  N4  UNL     1      14.001   5.600 -10.114  1.00  0.00    -0.176 N 
ATOM     12  H4  UNL     1      13.435   5.073  -9.449  1.00  0.00     0.186 HD
HETATM   13  C12 UNL     1      13.489   6.740 -10.651  1.00  0.00     0.137 A 
ENDROOT
BRANCH   1  14
HETATM   14  C5  UNL     1      11.251   7.023  -9.674  1.00  0.00     0.172 C 
BRANCH  14  15
HETATM   15  C4  UNL     1      10.633   8.067  -8.863  1.00  0.00     0.004 A 
HETATM   16  C3  UNL     1      11.060   8.199  -7.543  1.00  0.00     0.051 A 
HETATM   17  C2  UNL     1      10.529   9.151  -6.697  1.00  0.00     0.105 A 
HETATM   18  C16 UNL     1       9.545  10.012  -7.139  1.00  0.00     0.138 A 
HETATM   19  C14 UNL     1       9.135   9.870  -8.443  1.00  0.00     0.143 A 
HETATM   20  C13 UNL     1       9.664   8.916  -9.302  1.00  0.00     0.160 A 
HETATM   21  F1  UNL     1       9.249   8.799 -10.583  1.00  0.00    -0.202 F 
BRANCH  17  22
HETATM   22  O1  UNL     1      10.970   9.269  -5.369  1.00  0.00    -0.353 OA
HETATM   23  C1  UNL     1      12.266   8.920  -4.966  1.00  0.00     0.210 C 
ENDBRANCH  17  22
BRANCH  18  24
HETATM   24  O3  UNL     1       9.044  10.949  -6.255  1.00  0.00    -0.351 OA
HETATM   25  C17 UNL     1       7.857  10.838  -5.538  1.00  0.00     0.210 C 
ENDBRANCH  18  24
BRANCH  19  26
HETATM   26  O2  UNL     1       8.164  10.696  -8.931  1.00  0.00    -0.350 OA
HETATM   27  C15 UNL     1       8.382  11.937  -9.565  1.00  0.00     0.210 C 
ENDBRANCH  19  26
ENDBRANCH  14  15
ENDBRANCH   1  14
BRANCH  10  28
HETATM   28  N3  UNL     1      15.671   4.049  -9.888  1.00  0.00    -0.234 N 
ATOM     29  H32 UNL     1      16.249   3.407 -10.430  1.00  0.00     0.174 HD
ATOM     30  H31 UNL     1      15.428   3.855  -8.917  1.00  0.00     0.174 HD
ENDBRANCH  10  28
TORSDOF 6
ENDMDL
MODEL 5
REMARK VINA RESULT: -8.133496989      4.619      7.230
REMARK  6 active torsions:
REMARK  status: ('A' for Active; 'I' for Inactive)
REMARK    1  A    between atoms: O1_2  and  C2_3 
REMARK    2  A    between atoms: C4_5  and  C5_6 
REMARK    3  A    between atoms: C5_6  and  N1_7 
REMARK    4  A    between atoms: C11_16  and  N3_17 
REMARK    5  A    between atoms: C14_25  and  O2_26 
REMARK    6  A    between atoms: C16_28  and  O3_29 
ROOT
HETATM    1  N1  UNL     1       9.307  10.901 -10.631  1.00  0.00    -0.337 N 
HETATM    2  C6  UNL     1       9.517  12.201 -10.833  1.00  0.00     0.100 A 
HETATM    3  C7  UNL     1       9.034  12.950  -9.780  1.00  0.00    -0.029 A 
HETATM    4  C8  UNL     1       9.054  14.421  -9.588  1.00  0.00     0.050 C 
HETATM    5  C9  UNL     1       8.498  12.052  -8.889  1.00  0.00     0.054 A 
HETATM    6  C10 UNL     1       7.881  12.230  -7.671  1.00  0.00     0.131 A 
HETATM    7  S1  UNL     1       7.686  13.728  -7.059  1.00  0.00    -0.059 SA
HETATM    8  N2  UNL     1       7.437  11.167  -6.983  1.00  0.00    -0.181 N 
ATOM      9  H2  UNL     1       6.978  11.285  -6.080  1.00  0.00     0.185 HD
HETATM   10  C11 UNL     1       7.613   9.926  -7.518  1.00  0.00     0.678 A 
HETATM   11  N4  UNL     1       8.216   9.756  -8.707  1.00  0.00    -0.176 N 
ATOM     12  H4  UNL     1       8.326   8.809  -9.069  1.00  0.00     0.186 HD
HETATM   13  C12 UNL     1       8.684  10.798  -9.446  1.00  0.00     0.137 A 
ENDROOT
BRANCH   1  14
HETATM   14  C5  UNL     1       9.650   9.823 -11.485  1.00  0.00     0.172 C 
BRANCH  14  15
HETATM   15  C4  UNL     1      10.964   9.216 -11.305  1.00  0.00     0.004 A 
HETATM   16  C3  UNL     1      11.991   9.628 -12.153  1.00  0.00     0.051 A 
HETATM   17  C2  UNL     1      13.264   9.104 -12.065  1.00  0.00     0.105 A 
HETATM   18  C16 UNL     1      13.563   8.143 -11.121  1.00  0.00     0.138 A 
HETATM   19  C14 UNL     1      12.542   7.746 -10.291  1.00  0.00     0.143 A 
HETATM   20  C13 UNL     1      11.257   8.268 -10.372  1.00  0.00     0.160 A 
HETATM   21  F1  UNL     1      10.269   7.867  -9.542  1.00  0.00    -0.202 F 
BRANCH  17  22
HETATM   22  O1  UNL     1      14.286   9.531 -12.928  1.00  0.00    -0.353 OA
HETATM   23  C1  UNL     1      14.393   9.090 -14.253  1.00  0.00     0.210 C 
ENDBRANCH  17  22
BRANCH  18  24
HETATM   24  O3  UNL     1      14.853   7.648 -11.070  1.00  0.00    -0.351 OA
HETATM   25  C17 UNL     1      15.298   6.473 -11.667  1.00  0.00     0.210 C 
ENDBRANCH  18  24
BRANCH  19  26
HETATM   26  O2  UNL     1      12.784   6.798  -9.340  1.00  0.00    -0.350 OA
HETATM   27  C15 UNL     1      13.268   7.043  -8.039  1.00  0.00     0.210 C 
ENDBRANCH  19  26
ENDBRANCH  14  15
ENDBRANCH   1  14
BRANCH  10  28
HETATM   28  N3  UNL     1       7.183   8.904  -6.849  1.00  0.00    -0.234 N 
ATOM     29  H32 UNL     1       6.509   9.028  -6.094  1.00  0.00     0.174 HD
ATOM     30  H31 UNL     1       7.536   7.980  -7.100  1.00  0.00     0.174 HD
ENDBRANCH  10  28
TORSDOF 6
ENDMDL
