MODEL 1
REMARK VINA RESULT: -7.868283816      0.000      0.000
REMARK  10 active torsions:
REMARK  status: ('A' for Active; 'I' for Inactive)
REMARK    1  A    between atoms: N1_1  and  S1_4 
REMARK    2  A    between atoms: S1_4  and  N2_5 
REMARK    3  A    between atoms: S1_4  and  C1_9 
REMARK    4  A    between atoms: C4_12  and  N3_13 
REMARK    5  A    between atoms: N3_13  and  C5_15 
REMARK    6  A    between atoms: C8_20  and  N5_21 
REMARK    7  A    between atoms: N5_21  and  C9_23 
REMARK    8  A    between atoms: C12_26  and  C13_27 
REMARK    9  A    between atoms: C13_27  and  C14_28 
REMARK   10  A    between atoms: C14_28  and  C15_29 
ROOT
HETATM    1  C5  UNL     1     -13.400 -48.520  14.033  1.00  0.00     0.684 A 
HETATM    2  N4  UNL     1     -14.048 -47.631  14.804  1.00  0.00    -0.202 N 
ATOM      3  H4  UNL     1     -13.908 -46.638  14.618  1.00  0.00     0.183 HD
HETATM    4  C6  UNL     1     -14.875 -47.982  15.812  1.00  0.00     0.110 A 
HETATM    5  C7  UNL     1     -15.087 -49.316  16.089  1.00  0.00     0.066 A 
HETATM    6  C8  UNL     1     -14.426 -50.229  15.303  1.00  0.00     0.122 A 
HETATM    7  N6  UNL     1     -13.612 -49.836  14.312  1.00  0.00    -0.176 N 
ATOM      8  H6  UNL     1     -13.139 -50.543  13.750  1.00  0.00     0.186 HD
ENDROOT
BRANCH   1   9
HETATM    9  N3  UNL     1     -12.619 -48.155  13.091  1.00  0.00    -0.192 N 
ATOM     10  H3  UNL     1     -12.324 -47.178  13.092  1.00  0.00     0.184 HD
BRANCH   9  11
HETATM   11  C4  UNL     1     -12.123 -48.967  12.048  1.00  0.00     0.049 A 
HETATM   12  C3  UNL     1     -10.854 -49.503  12.013  1.00  0.00     0.031 A 
HETATM   13  C2  UNL     1     -10.426 -50.292  10.949  1.00  0.00     0.026 A 
HETATM   14  C1  UNL     1     -11.284 -50.550   9.895  1.00  0.00     0.058 A 
HETATM   15  C24 UNL     1     -12.539 -50.027   9.917  1.00  0.00     0.026 A 
HETATM   16  C23 UNL     1     -12.952 -49.245  10.982  1.00  0.00     0.031 A 
BRANCH  14  17
HETATM   17  S1  UNL     1     -10.810 -51.524   8.515  1.00  0.00     0.130 S 
HETATM   18  O1  UNL     1      -9.352 -51.796   8.495  1.00  0.00    -0.224 OA
BRANCH  17  19
HETATM   19  N1  UNL     1     -11.537 -52.899   8.650  1.00  0.00    -0.341 N 
ATOM     20  H12 UNL     1     -12.018 -53.372   7.885  1.00  0.00     0.167 HD
ATOM     21  H11 UNL     1     -11.454 -53.240   9.607  1.00  0.00     0.167 HD
ENDBRANCH  17  19
BRANCH  17  22
HETATM   22  N2  UNL     1     -11.263 -50.769   7.033  1.00  0.00    -0.341 N 
ATOM     23  H22 UNL     1     -12.224 -50.557   6.765  1.00  0.00     0.167 HD
ATOM     24  H21 UNL     1     -10.430 -50.573   6.479  1.00  0.00     0.167 HD
ENDBRANCH  17  22
ENDBRANCH  14  17
ENDBRANCH   9  11
ENDBRANCH   1   9
BRANCH   6  25
HETATM   25  N5  UNL     1     -14.572 -51.464  15.513  1.00  0.00    -0.342 N 
ATOM     26  H5  UNL     1     -15.524 -51.777  15.706  1.00  0.00     0.167 HD
BRANCH  25  27
HETATM   27  C9  UNL     1     -13.574 -52.468  15.510  1.00  0.00     0.033 A 
HETATM   28  C10 UNL     1     -13.659 -53.566  14.686  1.00  0.00     0.030 A 
HETATM   29  C11 UNL     1     -12.680 -54.567  14.662  1.00  0.00     0.009 A 
HETATM   30  C12 UNL     1     -11.582 -54.473  15.484  1.00  0.00    -0.058 A 
HETATM   31  C21 UNL     1     -11.493 -53.369  16.317  1.00  0.00     0.009 A 
HETATM   32  C22 UNL     1     -12.456 -52.383  16.340  1.00  0.00     0.030 A 
BRANCH  30  33
HETATM   33  C13 UNL     1     -10.492 -55.506  15.511  1.00  0.00     0.043 C 
BRANCH  33  34
HETATM   34  C14 UNL     1      -9.201 -54.868  16.031  1.00  0.00     0.043 C 
BRANCH  34  35
HETATM   35  C15 UNL     1      -8.812 -53.745  15.184  1.00  0.00    -0.058 A 
HETATM   36  C16 UNL     1      -8.569 -53.962  13.840  1.00  0.00     0.007 A 
HETATM   37  C17 UNL     1      -8.204 -52.882  13.068  1.00  0.00     0.001 A 
HETATM   38  C18 UNL     1      -8.073 -51.596  13.592  1.00  0.00     0.000 A 
HETATM   39  C19 UNL     1      -8.322 -51.410  14.932  1.00  0.00     0.001 A 
HETATM   40  C20 UNL     1      -8.691 -52.486  15.725  1.00  0.00     0.007 A 
ENDBRANCH  34  35
ENDBRANCH  33  34
ENDBRANCH  30  33
ENDBRANCH  25  27
ENDBRANCH   6  25
TORSDOF 10
ENDMDL
MODEL 2
REMARK VINA RESULT: -7.798548347      1.843      2.682
REMARK  10 active torsions:
REMARK  status: ('A' for Active; 'I' for Inactive)
REMARK    1  A    between atoms: N1_1  and  S1_4 
REMARK    2  A    between atoms: S1_4  and  N2_5 
REMARK    3  A    between atoms: S1_4  and  C1_9 
REMARK    4  A    between atoms: C4_12  and  N3_13 
REMARK    5  A    between atoms: N3_13  and  C5_15 
REMARK    6  A    between atoms: C8_20  and  N5_21 
REMARK    7  A    between atoms: N5_21  and  C9_23 
REMARK    8  A    between atoms: C12_26  and  C13_27 
REMARK    9  A    between atoms: C13_27  and  C14_28 
REMARK   10  A    between atoms: C14_28  and  C15_29 
ROOT
HETATM    1  C5  UNL     1     -15.779 -50.108  12.691  1.00  0.00     0.684 A 
HETATM    2  N4  UNL     1     -16.408 -48.992  13.098  1.00  0.00    -0.202 N 
ATOM      3  H4  UNL     1     -16.942 -48.461  12.410  1.00  0.00     0.183 HD
HETATM    4  C6  UNL     1     -16.370 -48.536  14.368  1.00  0.00     0.110 A 
HETATM    5  C7  UNL     1     -15.656 -49.231  15.323  1.00  0.00     0.066 A 
HETATM    6  C8  UNL     1     -15.012 -50.373  14.911  1.00  0.00     0.122 A 
HETATM    7  N6  UNL     1     -15.076 -50.789  13.638  1.00  0.00    -0.176 N 
ATOM      8  H6  UNL     1     -14.584 -51.642  13.370  1.00  0.00     0.186 HD
ENDROOT
BRANCH   1   9
HETATM    9  N3  UNL     1     -15.830 -50.509  11.480  1.00  0.00    -0.192 N 
ATOM     10  H3  UNL     1     -16.752 -50.748  11.114  1.00  0.00     0.184 HD
BRANCH   9  11
HETATM   11  C4  UNL     1     -14.740 -50.654  10.596  1.00  0.00     0.049 A 
HETATM   12  C3  UNL     1     -13.526 -50.020  10.743  1.00  0.00     0.031 A 
HETATM   13  C2  UNL     1     -12.492 -50.203   9.829  1.00  0.00     0.026 A 
HETATM   14  C1  UNL     1     -12.675 -51.039   8.742  1.00  0.00     0.058 A 
HETATM   15  C24 UNL     1     -13.868 -51.672   8.585  1.00  0.00     0.026 A 
HETATM   16  C23 UNL     1     -14.887 -51.481   9.501  1.00  0.00     0.031 A 
BRANCH  14  17
HETATM   17  S1  UNL     1     -11.423 -51.308   7.544  1.00  0.00     0.130 S 
HETATM   18  O1  UNL     1     -10.348 -50.288   7.616  1.00  0.00    -0.224 OA
BRANCH  17  19
HETATM   19  N1  UNL     1     -10.773 -52.692   7.859  1.00  0.00    -0.341 N 
ATOM     20  H12 UNL     1     -10.644 -53.067   8.798  1.00  0.00     0.167 HD
ATOM     21  H11 UNL     1     -10.503 -53.151   6.989  1.00  0.00     0.167 HD
ENDBRANCH  17  19
BRANCH  17  22
HETATM   22  N2  UNL     1     -12.078 -51.323   5.949  1.00  0.00    -0.341 N 
ATOM     23  H22 UNL     1     -12.515 -52.136   5.513  1.00  0.00     0.167 HD
ATOM     24  H21 UNL     1     -11.961 -50.406   5.521  1.00  0.00     0.167 HD
ENDBRANCH  17  22
ENDBRANCH  14  17
ENDBRANCH   9  11
ENDBRANCH   1   9
BRANCH   6  25
HETATM   25  N5  UNL     1     -14.337 -51.048  15.736  1.00  0.00    -0.342 N 
ATOM     26  H5  UNL     1     -14.864 -51.507  16.479  1.00  0.00     0.167 HD
BRANCH  25  27
HETATM   27  C9  UNL     1     -12.935 -51.244  15.752  1.00  0.00     0.033 A 
HETATM   28  C10 UNL     1     -12.379 -52.424  16.191  1.00  0.00     0.030 A 
HETATM   29  C11 UNL     1     -10.995 -52.642  16.209  1.00  0.00     0.009 A 
HETATM   30  C12 UNL     1     -10.139 -51.658  15.779  1.00  0.00    -0.058 A 
HETATM   31  C21 UNL     1     -10.695 -50.467  15.337  1.00  0.00     0.009 A 
HETATM   32  C22 UNL     1     -12.056 -50.252  15.318  1.00  0.00     0.030 A 
BRANCH  30  33
HETATM   33  C13 UNL     1      -8.646 -51.822  15.768  1.00  0.00     0.043 C 
BRANCH  33  34
HETATM   34  C14 UNL     1      -8.076 -51.200  14.490  1.00  0.00     0.043 C 
BRANCH  34  35
HETATM   35  C15 UNL     1      -8.407 -52.024  13.332  1.00  0.00    -0.058 A 
HETATM   36  C16 UNL     1      -7.905 -53.310  13.250  1.00  0.00     0.007 A 
HETATM   37  C17 UNL     1      -8.235 -54.062  12.145  1.00  0.00     0.001 A 
HETATM   38  C18 UNL     1      -9.048 -53.575  11.122  1.00  0.00     0.000 A 
HETATM   39  C19 UNL     1      -9.534 -52.292  11.231  1.00  0.00     0.001 A 
HETATM   40  C20 UNL     1      -9.212 -51.520  12.337  1.00  0.00     0.007 A 
ENDBRANCH  34  35
ENDBRANCH  33  34
ENDBRANCH  30  33
ENDBRANCH  25  27
ENDBRANCH   6  25
TORSDOF 10
ENDMDL
MODEL 3
REMARK VINA RESULT: -7.709461297      1.278      1.814
REMARK  10 active torsions:
REMARK  status: ('A' for Active; 'I' for Inactive)
REMARK    1  A    between atoms: N1_1  and  S1_4 
REMARK    2  A    between atoms: S1_4  and  N2_5 
REMARK    3  A    between atoms: S1_4  and  C1_9 
REMARK    4  A    between atoms: C4_12  and  N3_13 
REMARK    5  A    between atoms: N3_13  and  C5_15 
REMARK    6  A    between atoms: C8_20  and  N5_21 
REMARK    7  A    between atoms: N5_21  and  C9_23 
REMARK    8  A    between atoms: C12_26  and  C13_27 
REMARK    9  A    between atoms: C13_27  and  C14_28 
REMARK   10  A    between atoms: C14_28  and  C15_29 
ROOT
HETATM    1  C5  UNL     1     -14.172 -49.195  12.371  1.00  0.00     0.684 A 
HETATM    2  N4  UNL     1     -15.414 -48.741  12.133  1.00  0.00    -0.202 N 
ATOM      3  H4  UNL     1     -15.551 -48.095  11.357  1.00  0.00     0.183 HD
HETATM    4  C6  UNL     1     -16.490 -49.095  12.869  1.00  0.00     0.110 A 
HETATM    5  C7  UNL     1     -16.338 -49.967  13.927  1.00  0.00     0.066 A 
HETATM    6  C8  UNL     1     -15.069 -50.434  14.173  1.00  0.00     0.122 A 
HETATM    7  N6  UNL     1     -14.028 -50.056  13.416  1.00  0.00    -0.176 N 
ATOM      8  H6  UNL     1     -13.101 -50.424  13.630  1.00  0.00     0.186 HD
ENDROOT
BRANCH   1   9
HETATM    9  N3  UNL     1     -13.174 -48.836  11.660  1.00  0.00    -0.192 N 
ATOM     10  H3  UNL     1     -12.949 -47.841  11.652  1.00  0.00     0.184 HD
BRANCH   9  11
HETATM   11  C4  UNL     1     -12.349 -49.678  10.883  1.00  0.00     0.049 A 
HETATM   12  C3  UNL     1     -11.000 -49.862  11.096  1.00  0.00     0.031 A 
HETATM   13  C2  UNL     1     -10.243 -50.704  10.287  1.00  0.00     0.026 A 
HETATM   14  C1  UNL     1     -10.846 -51.378   9.239  1.00  0.00     0.058 A 
HETATM   15  C24 UNL     1     -12.177 -51.205   9.018  1.00  0.00     0.026 A 
HETATM   16  C23 UNL     1     -12.918 -50.366   9.830  1.00  0.00     0.031 A 
BRANCH  14  17
HETATM   17  S1  UNL     1      -9.954 -52.444   8.171  1.00  0.00     0.130 S 
HETATM   18  O1  UNL     1      -8.488 -52.343   8.373  1.00  0.00    -0.224 OA
BRANCH  17  19
HETATM   19  N1  UNL     1     -10.371 -53.906   8.524  1.00  0.00    -0.341 N 
ATOM     20  H12 UNL     1     -10.935 -54.505   7.921  1.00  0.00     0.167 HD
ATOM     21  H11 UNL     1      -9.996 -54.160   9.438  1.00  0.00     0.167 HD
ENDBRANCH  17  19
BRANCH  17  22
HETATM   22  N2  UNL     1     -10.318 -52.119   6.517  1.00  0.00    -0.341 N 
ATOM     23  H22 UNL     1     -11.262 -52.052   6.138  1.00  0.00     0.167 HD
ATOM     24  H21 UNL     1      -9.452 -52.008   5.990  1.00  0.00     0.167 HD
ENDBRANCH  17  22
ENDBRANCH  14  17
ENDBRANCH   9  11
ENDBRANCH   1   9
BRANCH   6  25
HETATM   25  N5  UNL     1     -14.865 -51.229  15.131  1.00  0.00    -0.342 N 
ATOM     26  H5  UNL     1     -15.551 -51.209  15.885  1.00  0.00     0.167 HD
BRANCH  25  27
HETATM   27  C9  UNL     1     -13.796 -52.145  15.283  1.00  0.00     0.033 A 
HETATM   28  C10 UNL     1     -12.844 -51.982  16.263  1.00  0.00     0.030 A 
HETATM   29  C11 UNL     1     -11.782 -52.880  16.436  1.00  0.00     0.009 A 
HETATM   30  C12 UNL     1     -11.664 -53.971  15.609  1.00  0.00    -0.058 A 
HETATM   31  C21 UNL     1     -12.621 -54.138  14.620  1.00  0.00     0.009 A 
HETATM   32  C22 UNL     1     -13.666 -53.256  14.450  1.00  0.00     0.030 A 
BRANCH  30  33
HETATM   33  C13 UNL     1     -10.555 -54.975  15.737  1.00  0.00     0.043 C 
BRANCH  33  34
HETATM   34  C14 UNL     1      -9.303 -54.284  16.284  1.00  0.00     0.043 C 
BRANCH  34  35
HETATM   35  C15 UNL     1      -8.868 -53.228  15.374  1.00  0.00    -0.058 A 
HETATM   36  C16 UNL     1      -8.613 -51.965  15.876  1.00  0.00     0.007 A 
HETATM   37  C17 UNL     1      -8.204 -50.991  14.993  1.00  0.00     0.001 A 
HETATM   38  C18 UNL     1      -8.041 -51.235  13.630  1.00  0.00     0.000 A 
HETATM   39  C19 UNL     1      -8.301 -52.502  13.159  1.00  0.00     0.001 A 
HETATM   40  C20 UNL     1      -8.713 -53.496  14.034  1.00  0.00     0.007 A 
ENDBRANCH  34  35
ENDBRANCH  33  34
ENDBRANCH  30  33
ENDBRANCH  25  27
ENDBRANCH   6  25
TORSDOF 10
ENDMDL
MODEL 4
REMARK VINA RESULT: -7.623742542      5.656      7.647
REMARK  10 active torsions:
REMARK  status: ('A' for Active; 'I' for Inactive)
REMARK    1  A    between atoms: N1_1  and  S1_4 
REMARK    2  A    between atoms: S1_4  and  N2_5 
REMARK    3  A    between atoms: S1_4  and  C1_9 
REMARK    4  A    between atoms: C4_12  and  N3_13 
REMARK    5  A    between atoms: N3_13  and  C5_15 
REMARK    6  A    between atoms: C8_20  and  N5_21 
REMARK    7  A    between atoms: N5_21  and  C9_23 
REMARK    8  A    between atoms: C12_26  and  C13_27 
REMARK    9  A    between atoms: C13_27  and  C14_28 
REMARK   10  A    between atoms: C14_28  and  C15_29 
ROOT
HETATM    1  C5  UNL     1     -18.873 -49.533  13.462  1.00  0.00     0.684 A 
HETATM    2  N4  UNL     1     -18.460 -49.114  12.253  1.00  0.00    -0.202 N 
ATOM      3  H4  UNL     1     -19.135 -49.107  11.488  1.00  0.00     0.183 HD
HETATM    4  C6  UNL     1     -17.199 -48.705  11.998  1.00  0.00     0.110 A 
HETATM    5  C7  UNL     1     -16.263 -48.703  13.010  1.00  0.00     0.066 A 
HETATM    6  C8  UNL     1     -16.681 -49.130  14.248  1.00  0.00     0.122 A 
HETATM    7  N6  UNL     1     -17.944 -49.529  14.457  1.00  0.00    -0.176 N 
ATOM      8  H6  UNL     1     -18.218 -49.839  15.390  1.00  0.00     0.186 HD
ENDROOT
BRANCH   1   9
HETATM    9  N3  UNL     1     -20.072 -49.920  13.669  1.00  0.00    -0.192 N 
ATOM     10  H3  UNL     1     -20.799 -49.204  13.633  1.00  0.00     0.184 HD
BRANCH   9  11
HETATM   11  C4  UNL     1     -20.494 -51.239  13.943  1.00  0.00     0.049 A 
HETATM   12  C3  UNL     1     -20.142 -52.342  13.196  1.00  0.00     0.031 A 
HETATM   13  C2  UNL     1     -20.599 -53.616  13.518  1.00  0.00     0.026 A 
HETATM   14  C1  UNL     1     -21.429 -53.794  14.611  1.00  0.00     0.058 A 
HETATM   15  C24 UNL     1     -21.786 -52.713  15.356  1.00  0.00     0.026 A 
HETATM   16  C23 UNL     1     -21.323 -51.452  15.025  1.00  0.00     0.031 A 
BRANCH  14  17
HETATM   17  S1  UNL     1     -22.055 -55.367  15.069  1.00  0.00     0.130 S 
HETATM   18  O1  UNL     1     -22.363 -56.213  13.891  1.00  0.00    -0.224 OA
BRANCH  17  19
HETATM   19  N1  UNL     1     -20.934 -56.090  15.880  1.00  0.00    -0.341 N 
ATOM     20  H12 UNL     1     -20.778 -55.967  16.881  1.00  0.00     0.167 HD
ATOM     21  H11 UNL     1     -20.396 -56.694  15.260  1.00  0.00     0.167 HD
ENDBRANCH  17  19
BRANCH  17  22
HETATM   22  N2  UNL     1     -23.471 -55.216  16.041  1.00  0.00    -0.341 N 
ATOM     23  H22 UNL     1     -24.371 -55.642  15.817  1.00  0.00     0.167 HD
ATOM     24  H21 UNL     1     -23.267 -54.644  16.859  1.00  0.00     0.167 HD
ENDBRANCH  17  22
ENDBRANCH  14  17
ENDBRANCH   9  11
ENDBRANCH   1   9
BRANCH   6  25
HETATM   25  N5  UNL     1     -15.869 -49.159  15.213  1.00  0.00    -0.342 N 
ATOM     26  H5  UNL     1     -16.224 -48.824  16.109  1.00  0.00     0.167 HD
BRANCH  25  27
HETATM   27  C9  UNL     1     -14.524 -49.599  15.200  1.00  0.00     0.033 A 
HETATM   28  C10 UNL     1     -14.195 -50.912  15.448  1.00  0.00     0.030 A 
HETATM   29  C11 UNL     1     -12.871 -51.372  15.434  1.00  0.00     0.009 A 
HETATM   30  C12 UNL     1     -11.845 -50.499  15.165  1.00  0.00    -0.058 A 
HETATM   31  C21 UNL     1     -12.172 -49.175  14.916  1.00  0.00     0.009 A 
HETATM   32  C22 UNL     1     -13.473 -48.723  14.929  1.00  0.00     0.030 A 
BRANCH  30  33
HETATM   33  C13 UNL     1     -10.403 -50.920  15.131  1.00  0.00     0.043 C 
BRANCH  33  34
HETATM   34  C14 UNL     1     -10.203 -51.954  14.020  1.00  0.00     0.043 C 
BRANCH  34  35
HETATM   35  C15 UNL     1     -10.525 -51.373  12.720  1.00  0.00    -0.058 A 
HETATM   36  C16 UNL     1      -9.784 -50.301  12.255  1.00  0.00     0.007 A 
HETATM   37  C17 UNL     1     -10.112 -49.775  11.027  1.00  0.00     0.001 A 
HETATM   38  C18 UNL     1     -11.152 -50.281  10.248  1.00  0.00     0.000 A 
HETATM   39  C19 UNL     1     -11.872 -51.348  10.735  1.00  0.00     0.001 A 
HETATM   40  C20 UNL     1     -11.555 -51.891  11.971  1.00  0.00     0.007 A 
ENDBRANCH  34  35
ENDBRANCH  33  34
ENDBRANCH  30  33
ENDBRANCH  25  27
ENDBRANCH   6  25
TORSDOF 10
ENDMDL
MODEL 5
REMARK VINA RESULT: -7.603648635      2.070      3.031
REMARK  10 active torsions:
REMARK  status: ('A' for Active; 'I' for Inactive)
REMARK    1  A    between atoms: N1_1  and  S1_4 
REMARK    2  A    between atoms: S1_4  and  N2_5 
REMARK    3  A    between atoms: S1_4  and  C1_9 
REMARK    4  A    between atoms: C4_12  and  N3_13 
REMARK    5  A    between atoms: N3_13  and  C5_15 
REMARK    6  A    between atoms: C8_20  and  N5_21 
REMARK    7  A    between atoms: N5_21  and  C9_23 
REMARK    8  A    between atoms: C12_26  and  C13_27 
REMARK    9  A    between atoms: C13_27  and  C14_28 
REMARK   10  A    between atoms: C14_28  and  C15_29 
ROOT
HETATM    1  C5  UNL     1     -16.333 -50.347  12.074  1.00  0.00     0.684 A 
HETATM    2  N4  UNL     1     -17.395 -49.545  12.265  1.00  0.00    -0.202 N 
ATOM      3  H4  UNL     1     -17.974 -49.310  11.459  1.00  0.00     0.183 HD
HETATM    4  C6  UNL     1     -17.736 -49.034  13.468  1.00  0.00     0.110 A 
HETATM    5  C7  UNL     1     -16.974 -49.333  14.578  1.00  0.00     0.066 A 
HETATM    6  C8  UNL     1     -15.887 -50.152  14.387  1.00  0.00     0.122 A 
HETATM    7  N6  UNL     1     -15.585 -50.638  13.173  1.00  0.00    -0.176 N 
ATOM      8  H6  UNL     1     -14.770 -51.243  13.071  1.00  0.00     0.186 HD
ENDROOT
BRANCH   1   9
HETATM    9  N3  UNL     1     -16.035 -50.809  10.921  1.00  0.00    -0.192 N 
ATOM     10  H3  UNL     1     -16.813 -51.071  10.316  1.00  0.00     0.184 HD
BRANCH   9  11
HETATM   11  C4  UNL     1     -14.736 -50.993  10.400  1.00  0.00     0.049 A 
HETATM   12  C3  UNL     1     -14.343 -52.079   9.649  1.00  0.00     0.031 A 
HETATM   13  C2  UNL     1     -13.042 -52.202   9.171  1.00  0.00     0.026 A 
HETATM   14  C1  UNL     1     -12.111 -51.217   9.448  1.00  0.00     0.058 A 
HETATM   15  C24 UNL     1     -12.486 -50.139  10.188  1.00  0.00     0.026 A 
HETATM   16  C23 UNL     1     -13.783 -50.029  10.658  1.00  0.00     0.031 A 
BRANCH  14  17
HETATM   17  S1  UNL     1     -10.451 -51.309   8.889  1.00  0.00     0.130 S 
HETATM   18  O1  UNL     1      -9.719 -50.036   9.095  1.00  0.00    -0.224 OA
BRANCH  17  19
HETATM   19  N1  UNL     1      -9.736 -52.401   9.746  1.00  0.00    -0.341 N 
ATOM     20  H12 UNL     1      -9.638 -53.377   9.468  1.00  0.00     0.167 HD
ATOM     21  H11 UNL     1      -9.388 -51.986  10.610  1.00  0.00     0.167 HD
ENDBRANCH  17  19
BRANCH  17  22
HETATM   22  N2  UNL     1     -10.377 -51.739   7.221  1.00  0.00    -0.341 N 
ATOM     23  H22 UNL     1     -10.685 -52.634   6.843  1.00  0.00     0.167 HD
ATOM     24  H21 UNL     1      -9.983 -50.967   6.685  1.00  0.00     0.167 HD
ENDBRANCH  17  22
ENDBRANCH  14  17
ENDBRANCH   9  11
ENDBRANCH   1   9
BRANCH   6  25
HETATM   25  N5  UNL     1     -15.147 -50.456  15.362  1.00  0.00    -0.342 N 
ATOM     26  H5  UNL     1     -15.621 -50.632  16.248  1.00  0.00     0.167 HD
BRANCH  25  27
HETATM   27  C9  UNL     1     -13.737 -50.580  15.373  1.00  0.00     0.033 A 
HETATM   28  C10 UNL     1     -13.118 -51.709  15.859  1.00  0.00     0.030 A 
HETATM   29  C11 UNL     1     -11.725 -51.857  15.873  1.00  0.00     0.009 A 
HETATM   30  C12 UNL     1     -10.924 -50.851  15.390  1.00  0.00    -0.058 A 
HETATM   31  C21 UNL     1     -11.543 -49.711  14.900  1.00  0.00     0.009 A 
HETATM   32  C22 UNL     1     -12.913 -49.566  14.885  1.00  0.00     0.030 A 
BRANCH  30  33
HETATM   33  C13 UNL     1      -9.424 -50.940  15.371  1.00  0.00     0.043 C 
BRANCH  33  34
HETATM   34  C14 UNL     1      -8.965 -51.990  16.385  1.00  0.00     0.043 C 
BRANCH  34  35
HETATM   35  C15 UNL     1      -8.927 -53.312  15.767  1.00  0.00    -0.058 A 
HETATM   36  C16 UNL     1      -8.564 -53.427  14.437  1.00  0.00     0.007 A 
HETATM   37  C17 UNL     1      -8.538 -54.687  13.882  1.00  0.00     0.001 A 
HETATM   38  C18 UNL     1      -8.862 -55.832  14.608  1.00  0.00     0.000 A 
HETATM   39  C19 UNL     1      -9.218 -55.688  15.929  1.00  0.00     0.001 A 
HETATM   40  C20 UNL     1      -9.249 -54.426  16.505  1.00  0.00     0.007 A 
ENDBRANCH  34  35
ENDBRANCH  33  34
ENDBRANCH  30  33
ENDBRANCH  25  27
ENDBRANCH   6  25
TORSDOF 10
ENDMDL
