MODEL 1
REMARK VINA RESULT: -7.824386640      0.000      0.000
REMARK  7 active torsions:
REMARK  status: ('A' for Active; 'I' for Inactive)
REMARK    1  A    between atoms: C2_2  and  C3_3 
REMARK    2  A    between atoms: C5_5  and  O1_6 
REMARK    3  A    between atoms: O1_6  and  C6_7 
REMARK    4  A    between atoms: C6_7  and  C7_8 
REMARK    5  A    between atoms: C15_16  and  C16_17 
REMARK    6  A    between atoms: C17_20  and  N2_21 
REMARK    7  A    between atoms: N2_21  and  C18_23 
REMARK       I    between atoms: N4_33  and  C26_35 
ROOT
HETATM    1  C16 UNL     1     -15.511 -50.848  13.787  1.00  0.00     0.147 A 
HETATM    2  N1  UNL     1     -16.593 -50.219  14.272  1.00  0.00    -0.175 N 
ATOM      3  H1  UNL     1     -16.571 -49.934  15.251  1.00  0.00     0.186 HD
HETATM    4  C17 UNL     1     -17.701 -49.936  13.571  1.00  0.00     0.698 A 
HETATM    5  N3  UNL     1     -17.771 -50.298  12.273  1.00  0.00    -0.022 N 
ATOM      6  H3  UNL     1     -18.598 -50.098  11.712  1.00  0.00     0.203 HD
HETATM    7  C25 UNL     1     -16.710 -50.931  11.747  1.00  0.00     0.700 A 
HETATM    8  N4  UNL     1     -16.766 -51.281  10.504  1.00  0.00    -0.163 N 
ATOM      9  H4  UNL     1     -17.594 -51.081   9.943  1.00  0.00     0.187 HD
HETATM   10  C26 UNL     1     -15.655 -51.950   9.937  1.00  0.00     0.200 C 
HETATM   11  N5  UNL     1     -15.607 -53.235   9.989  1.00  0.00    -0.373 N 
ATOM     12  H51 UNL     1     -14.807 -53.716   9.581  1.00  0.00     0.158 HD
ATOM     13  H52 UNL     1     -16.374 -53.735  10.440  1.00  0.00     0.158 HD
HETATM   14  N6  UNL     1     -14.582 -51.249   9.305  1.00  0.00    -0.063 NA
HETATM   15  N7  UNL     1     -15.589 -51.206  12.492  1.00  0.00    -0.174 N 
ATOM     16  H7  UNL     1     -14.803 -51.689  12.057  1.00  0.00     0.186 HD
ENDROOT
BRANCH   1  17
HETATM   17  C15 UNL     1     -14.295 -51.108  14.552  1.00  0.00     0.019 A 
HETATM   18  C3  UNL     1     -13.222 -50.245  14.463  1.00  0.00    -0.020 A 
HETATM   19  C4  UNL     1     -12.037 -50.531  15.145  1.00  0.00     0.049 A 
HETATM   20  C5  UNL     1     -11.905 -51.659  15.911  1.00  0.00     0.070 A 
HETATM   21  C13 UNL     1     -12.987 -52.499  15.986  1.00  0.00     0.038 A 
HETATM   22  C14 UNL     1     -14.171 -52.247  15.324  1.00  0.00     0.019 A 
BRANCH  18  23
HETATM   23  C2  UNL     1     -13.215 -49.006  13.693  1.00  0.00     0.002 C 
HETATM   24  C1  UNL     1     -12.553 -48.975  12.556  1.00  0.00     0.012 C 
ENDBRANCH  18  23
BRANCH  20  25
HETATM   25  O1  UNL     1     -10.760 -51.990  16.604  1.00  0.00    -0.347 OA
BRANCH  25  26
HETATM   26  C6  UNL     1      -9.472 -51.542  16.223  1.00  0.00     0.214 C 
BRANCH  26  27
HETATM   27  C7  UNL     1      -8.969 -52.466  15.189  1.00  0.00    -0.034 A 
HETATM   28  C8  UNL     1      -8.434 -51.945  14.034  1.00  0.00     0.009 A 
HETATM   29  C9  UNL     1      -7.948 -52.788  13.032  1.00  0.00     0.001 A 
HETATM   30  C10 UNL     1      -8.012 -54.138  13.215  1.00  0.00     0.000 A 
HETATM   31  C11 UNL     1      -8.550 -54.690  14.377  1.00  0.00     0.001 A 
HETATM   32  C12 UNL     1      -9.028 -53.822  15.363  1.00  0.00     0.009 A 
ENDBRANCH  26  27
ENDBRANCH  25  26
ENDBRANCH  20  25
ENDBRANCH   1  17
BRANCH   4  33
HETATM   33  N2  UNL     1     -18.670 -49.324  14.165  1.00  0.00    -0.191 N 
ATOM     34  H2  UNL     1     -18.446 -48.553  14.794  1.00  0.00     0.184 HD
BRANCH  33  35
HETATM   35  C18 UNL     1     -20.030 -49.674  13.985  1.00  0.00     0.049 A 
HETATM   36  C19 UNL     1     -20.541 -50.887  14.396  1.00  0.00     0.030 A 
HETATM   37  C20 UNL     1     -21.878 -51.179  14.195  1.00  0.00     0.009 A 
HETATM   38  C21 UNL     1     -22.697 -50.254  13.582  1.00  0.00    -0.062 A 
HETATM   39  C22 UNL     1     -24.143 -50.485  13.326  1.00  0.00     0.048 C 
HETATM   40  C23 UNL     1     -22.168 -49.047  13.178  1.00  0.00     0.009 A 
HETATM   41  C24 UNL     1     -20.853 -48.753  13.372  1.00  0.00     0.030 A 
ENDBRANCH  33  35
ENDBRANCH   4  33
TORSDOF 7
ENDMDL
MODEL 2
REMARK VINA RESULT: -7.759330811      1.360      1.846
REMARK  7 active torsions:
REMARK  status: ('A' for Active; 'I' for Inactive)
REMARK    1  A    between atoms: C2_2  and  C3_3 
REMARK    2  A    between atoms: C5_5  and  O1_6 
REMARK    3  A    between atoms: O1_6  and  C6_7 
REMARK    4  A    between atoms: C6_7  and  C7_8 
REMARK    5  A    between atoms: C15_16  and  C16_17 
REMARK    6  A    between atoms: C17_20  and  N2_21 
REMARK    7  A    between atoms: N2_21  and  C18_23 
REMARK       I    between atoms: N4_33  and  C26_35 
ROOT
HETATM    1  C16 UNL     1     -14.273 -50.942  12.820  1.00  0.00     0.147 A 
HETATM    2  N1  UNL     1     -15.264 -50.037  12.861  1.00  0.00    -0.175 N 
ATOM      3  H1  UNL     1     -15.278 -49.393  13.652  1.00  0.00     0.186 HD
HETATM    4  C17 UNL     1     -16.237 -49.913  11.946  1.00  0.00     0.698 A 
HETATM    5  N3  UNL     1     -16.253 -50.748  10.886  1.00  0.00    -0.022 N 
ATOM      6  H3  UNL     1     -16.978 -50.681  10.172  1.00  0.00     0.203 HD
HETATM    7  C25 UNL     1     -15.281 -51.670  10.805  1.00  0.00     0.700 A 
HETATM    8  N4  UNL     1     -15.288 -52.475   9.793  1.00  0.00    -0.163 N 
ATOM      9  H4  UNL     1     -16.014 -52.407   9.079  1.00  0.00     0.187 HD
HETATM   10  C26 UNL     1     -14.269 -53.452   9.696  1.00  0.00     0.200 C 
HETATM   11  N5  UNL     1     -14.458 -54.605  10.235  1.00  0.00    -0.373 N 
ATOM     12  H51 UNL     1     -13.723 -55.309  10.166  1.00  0.00     0.158 HD
ATOM     13  H52 UNL     1     -15.339 -54.781  10.719  1.00  0.00     0.158 HD
HETATM   14  N6  UNL     1     -13.035 -53.206   9.018  1.00  0.00    -0.063 NA
HETATM   15  N7  UNL     1     -14.299 -51.771  11.760  1.00  0.00    -0.174 N 
ATOM     16  H7  UNL     1     -13.577 -52.485  11.665  1.00  0.00     0.186 HD
ENDROOT
BRANCH   1  17
HETATM   17  C15 UNL     1     -13.198 -51.034  13.803  1.00  0.00     0.019 A 
HETATM   18  C3  UNL     1     -12.015 -50.351  13.601  1.00  0.00    -0.020 A 
HETATM   19  C4  UNL     1     -10.964 -50.492  14.509  1.00  0.00     0.049 A 
HETATM   20  C5  UNL     1     -11.071 -51.299  15.611  1.00  0.00     0.070 A 
HETATM   21  C13 UNL     1     -12.258 -51.965  15.790  1.00  0.00     0.038 A 
HETATM   22  C14 UNL     1     -13.315 -51.849  14.912  1.00  0.00     0.019 A 
BRANCH  18  23
HETATM   23  C2  UNL     1     -11.756 -49.453  12.481  1.00  0.00     0.002 C 
HETATM   24  C1  UNL     1     -10.726 -49.701  11.701  1.00  0.00     0.012 C 
ENDBRANCH  18  23
BRANCH  20  25
HETATM   25  O1  UNL     1     -10.067 -51.475  16.538  1.00  0.00    -0.347 OA
BRANCH  25  26
HETATM   26  C6  UNL     1      -8.758 -51.888  16.188  1.00  0.00     0.214 C 
BRANCH  26  27
HETATM   27  C7  UNL     1      -8.850 -53.271  15.680  1.00  0.00    -0.034 A 
HETATM   28  C8  UNL     1      -8.543 -53.517  14.362  1.00  0.00     0.009 A 
HETATM   29  C9  UNL     1      -8.619 -54.812  13.845  1.00  0.00     0.001 A 
HETATM   30  C10 UNL     1      -9.003 -55.831  14.668  1.00  0.00     0.000 A 
HETATM   31  C11 UNL     1      -9.319 -55.606  16.006  1.00  0.00     0.001 A 
HETATM   32  C12 UNL     1      -9.234 -54.299  16.496  1.00  0.00     0.009 A 
ENDBRANCH  26  27
ENDBRANCH  25  26
ENDBRANCH  20  25
ENDBRANCH   1  17
BRANCH   4  33
HETATM   33  N2  UNL     1     -17.129 -48.996  12.110  1.00  0.00    -0.191 N 
ATOM     34  H2  UNL     1     -16.866 -48.025  11.939  1.00  0.00     0.184 HD
BRANCH  33  35
HETATM   35  C18 UNL     1     -18.456 -49.273  12.517  1.00  0.00     0.049 A 
HETATM   36  C19 UNL     1     -18.804 -49.429  13.843  1.00  0.00     0.030 A 
HETATM   37  C20 UNL     1     -20.115 -49.700  14.187  1.00  0.00     0.009 A 
HETATM   38  C21 UNL     1     -21.073 -49.814  13.201  1.00  0.00    -0.062 A 
HETATM   39  C22 UNL     1     -22.505 -50.103  13.481  1.00  0.00     0.048 C 
HETATM   40  C23 UNL     1     -20.707 -49.655  11.882  1.00  0.00     0.009 A 
HETATM   41  C24 UNL     1     -19.417 -49.388  11.536  1.00  0.00     0.030 A 
ENDBRANCH  33  35
ENDBRANCH   4  33
TORSDOF 7
ENDMDL
MODEL 3
REMARK VINA RESULT: -7.726826521      3.904      6.746
REMARK  7 active torsions:
REMARK  status: ('A' for Active; 'I' for Inactive)
REMARK    1  A    between atoms: C2_2  and  C3_3 
REMARK    2  A    between atoms: C5_5  and  O1_6 
REMARK    3  A    between atoms: O1_6  and  C6_7 
REMARK    4  A    between atoms: C6_7  and  C7_8 
REMARK    5  A    between atoms: C15_16  and  C16_17 
REMARK    6  A    between atoms: C17_20  and  N2_21 
REMARK    7  A    between atoms: N2_21  and  C18_23 
REMARK       I    between atoms: N4_33  and  C26_35 
ROOT
HETATM    1  C16 UNL     1     -11.786 -51.356  13.606  1.00  0.00     0.147 A 
HETATM    2  N1  UNL     1     -13.054 -51.159  13.999  1.00  0.00    -0.175 N 
ATOM      3  H1  UNL     1     -13.713 -50.814  13.301  1.00  0.00     0.186 HD
HETATM    4  C17 UNL     1     -13.524 -51.379  15.235  1.00  0.00     0.698 A 
HETATM    5  N3  UNL     1     -12.684 -51.835  16.188  1.00  0.00    -0.022 N 
ATOM      6  H3  UNL     1     -13.008 -52.013  17.138  1.00  0.00     0.203 HD
HETATM    7  C25 UNL     1     -11.405 -52.046  15.839  1.00  0.00     0.700 A 
HETATM    8  N4  UNL     1     -10.592 -52.482  16.744  1.00  0.00    -0.163 N 
ATOM      9  H4  UNL     1     -10.917 -52.660  17.694  1.00  0.00     0.187 HD
HETATM   10  C26 UNL     1      -9.240 -52.708  16.390  1.00  0.00     0.200 C 
HETATM   11  N5  UNL     1      -8.394 -51.747  16.516  1.00  0.00    -0.373 N 
ATOM     12  H51 UNL     1      -7.420 -51.910  16.261  1.00  0.00     0.158 HD
ATOM     13  H52 UNL     1      -8.723 -50.848  16.868  1.00  0.00     0.158 HD
HETATM   14  N6  UNL     1      -8.779 -53.968  15.897  1.00  0.00    -0.063 NA
HETATM   15  N7  UNL     1     -10.955 -51.810  14.562  1.00  0.00    -0.174 N 
ATOM     16  H7  UNL     1      -9.975 -51.981  14.335  1.00  0.00     0.186 HD
ENDROOT
BRANCH   1  17
HETATM   17  C15 UNL     1     -11.302 -51.153  12.244  1.00  0.00     0.019 A 
HETATM   18  C3  UNL     1     -11.791 -50.110  11.483  1.00  0.00    -0.020 A 
HETATM   19  C4  UNL     1     -11.375 -49.956  10.159  1.00  0.00     0.049 A 
HETATM   20  C5  UNL     1     -10.483 -50.822   9.583  1.00  0.00     0.070 A 
HETATM   21  C13 UNL     1     -10.010 -51.849  10.361  1.00  0.00     0.038 A 
HETATM   22  C14 UNL     1     -10.401 -52.030  11.671  1.00  0.00     0.019 A 
BRANCH  18  23
HETATM   23  C2  UNL     1     -12.738 -49.108  11.959  1.00  0.00     0.002 C 
HETATM   24  C1  UNL     1     -13.900 -49.001  11.350  1.00  0.00     0.012 C 
ENDBRANCH  18  23
BRANCH  20  25
HETATM   25  O1  UNL     1     -10.038 -50.718   8.282  1.00  0.00    -0.347 OA
BRANCH  25  26
HETATM   26  C6  UNL     1     -10.429 -51.617   7.260  1.00  0.00     0.214 C 
BRANCH  26  27
HETATM   27  C7  UNL     1     -11.903 -51.597   7.191  1.00  0.00    -0.034 A 
HETATM   28  C8  UNL     1     -12.607 -52.666   7.694  1.00  0.00     0.009 A 
HETATM   29  C9  UNL     1     -14.003 -52.684   7.645  1.00  0.00     0.001 A 
HETATM   30  C10 UNL     1     -14.659 -51.624   7.090  1.00  0.00     0.000 A 
HETATM   31  C11 UNL     1     -13.967 -50.530   6.574  1.00  0.00     0.001 A 
HETATM   32  C12 UNL     1     -12.570 -50.540   6.637  1.00  0.00     0.009 A 
ENDBRANCH  26  27
ENDBRANCH  25  26
ENDBRANCH  20  25
ENDBRANCH   1  17
BRANCH   4  33
HETATM   33  N2  UNL     1     -14.771 -51.147  15.475  1.00  0.00    -0.191 N 
ATOM     34  H2  UNL     1     -15.146 -51.398  16.390  1.00  0.00     0.184 HD
BRANCH  33  35
HETATM   35  C18 UNL     1     -15.642 -50.558  14.528  1.00  0.00     0.049 A 
HETATM   36  C19 UNL     1     -16.026 -49.235  14.600  1.00  0.00     0.030 A 
HETATM   37  C20 UNL     1     -16.880 -48.709  13.649  1.00  0.00     0.009 A 
HETATM   38  C21 UNL     1     -17.347 -49.510  12.628  1.00  0.00    -0.062 A 
HETATM   39  C22 UNL     1     -18.267 -49.028  11.564  1.00  0.00     0.048 C 
HETATM   40  C23 UNL     1     -16.952 -50.830  12.572  1.00  0.00     0.009 A 
HETATM   41  C24 UNL     1     -16.112 -51.355  13.505  1.00  0.00     0.030 A 
ENDBRANCH  33  35
ENDBRANCH   4  33
TORSDOF 7
ENDMDL
MODEL 4
REMARK VINA RESULT: -7.608506196      2.394      5.804
REMARK  7 active torsions:
REMARK  status: ('A' for Active; 'I' for Inactive)
REMARK    1  A    between atoms: C2_2  and  C3_3 
REMARK    2  A    between atoms: C5_5  and  O1_6 
REMARK    3  A    between atoms: O1_6  and  C6_7 
REMARK    4  A    between atoms: C6_7  and  C7_8 
REMARK    5  A    between atoms: C15_16  and  C16_17 
REMARK    6  A    between atoms: C17_20  and  N2_21 
REMARK    7  A    between atoms: N2_21  and  C18_23 
REMARK       I    between atoms: N4_33  and  C26_35 
ROOT
HETATM    1  C16 UNL     1     -13.938 -51.366  12.312  1.00  0.00     0.147 A 
HETATM    2  N1  UNL     1     -13.735 -51.992  11.142  1.00  0.00    -0.175 N 
ATOM      3  H1  UNL     1     -12.831 -52.443  11.002  1.00  0.00     0.186 HD
HETATM    4  C17 UNL     1     -14.626 -52.071  10.143  1.00  0.00     0.698 A 
HETATM    5  N3  UNL     1     -15.833 -51.486  10.288  1.00  0.00    -0.022 N 
ATOM      6  H3  UNL     1     -16.533 -51.527   9.548  1.00  0.00     0.203 HD
HETATM    7  C25 UNL     1     -16.079 -50.847  11.443  1.00  0.00     0.700 A 
HETATM    8  N4  UNL     1     -17.232 -50.283  11.592  1.00  0.00    -0.163 N 
ATOM      9  H4  UNL     1     -17.932 -50.324  10.852  1.00  0.00     0.187 HD
HETATM   10  C26 UNL     1     -17.504 -49.605  12.805  1.00  0.00     0.200 C 
HETATM   11  N5  UNL     1     -17.213 -48.355  12.900  1.00  0.00    -0.373 N 
ATOM     12  H51 UNL     1     -17.408 -47.867  13.773  1.00  0.00     0.158 HD
ATOM     13  H52 UNL     1     -16.792 -47.889  12.096  1.00  0.00     0.158 HD
HETATM   14  N6  UNL     1     -18.093 -50.259  13.931  1.00  0.00    -0.063 NA
HETATM   15  N7  UNL     1     -15.144 -50.784  12.448  1.00  0.00    -0.174 N 
ATOM     16  H7  UNL     1     -15.367 -50.288  13.311  1.00  0.00     0.186 HD
ENDROOT
BRANCH   1  17
HETATM   17  C15 UNL     1     -12.973 -51.327  13.406  1.00  0.00     0.019 A 
HETATM   18  C3  UNL     1     -11.887 -50.477  13.343  1.00  0.00    -0.020 A 
HETATM   19  C4  UNL     1     -10.931 -50.488  14.361  1.00  0.00     0.049 A 
HETATM   20  C5  UNL     1     -11.039 -51.331  15.436  1.00  0.00     0.070 A 
HETATM   21  C13 UNL     1     -12.128 -52.164  15.476  1.00  0.00     0.038 A 
HETATM   22  C14 UNL     1     -13.089 -52.178  14.488  1.00  0.00     0.019 A 
BRANCH  18  23
HETATM   23  C2  UNL     1     -11.642 -49.523  12.267  1.00  0.00     0.002 C 
HETATM   24  C1  UNL     1     -10.592 -49.703  11.494  1.00  0.00     0.012 C 
ENDBRANCH  18  23
BRANCH  20  25
HETATM   25  O1  UNL     1     -10.125 -51.384  16.468  1.00  0.00    -0.347 OA
BRANCH  25  26
HETATM   26  C6  UNL     1      -8.793 -51.831  16.294  1.00  0.00     0.214 C 
BRANCH  26  27
HETATM   27  C7  UNL     1      -8.852 -53.202  15.751  1.00  0.00    -0.034 A 
HETATM   28  C8  UNL     1      -8.506 -53.412  14.436  1.00  0.00     0.009 A 
HETATM   29  C9  UNL     1      -8.551 -54.695  13.886  1.00  0.00     0.001 A 
HETATM   30  C10 UNL     1      -8.943 -55.739  14.672  1.00  0.00     0.000 A 
HETATM   31  C11 UNL     1      -9.299 -55.551  16.007  1.00  0.00     0.001 A 
HETATM   32  C12 UNL     1      -9.244 -54.255  16.531  1.00  0.00     0.009 A 
ENDBRANCH  26  27
ENDBRANCH  25  26
ENDBRANCH  20  25
ENDBRANCH   1  17
BRANCH   4  33
HETATM   33  N2  UNL     1     -14.298 -52.708   9.069  1.00  0.00    -0.191 N 
ATOM     34  H2  UNL     1     -14.227 -53.724   9.108  1.00  0.00     0.184 HD
BRANCH  33  35
HETATM   35  C18 UNL     1     -14.031 -52.060   7.839  1.00  0.00     0.049 A 
HETATM   36  C19 UNL     1     -13.238 -50.935   7.753  1.00  0.00     0.030 A 
HETATM   37  C20 UNL     1     -13.009 -50.340   6.527  1.00  0.00     0.009 A 
HETATM   38  C21 UNL     1     -13.577 -50.875   5.389  1.00  0.00    -0.062 A 
HETATM   39  C22 UNL     1     -13.385 -50.301   4.031  1.00  0.00     0.048 C 
HETATM   40  C23 UNL     1     -14.367 -52.000   5.494  1.00  0.00     0.009 A 
HETATM   41  C24 UNL     1     -14.596 -52.591   6.699  1.00  0.00     0.030 A 
ENDBRANCH  33  35
ENDBRANCH   4  33
TORSDOF 7
ENDMDL
MODEL 5
REMARK VINA RESULT: -7.517017117      3.088      9.312
REMARK  7 active torsions:
REMARK  status: ('A' for Active; 'I' for Inactive)
REMARK    1  A    between atoms: C2_2  and  C3_3 
REMARK    2  A    between atoms: C5_5  and  O1_6 
REMARK    3  A    between atoms: O1_6  and  C6_7 
REMARK    4  A    between atoms: C6_7  and  C7_8 
REMARK    5  A    between atoms: C15_16  and  C16_17 
REMARK    6  A    between atoms: C17_20  and  N2_21 
REMARK    7  A    between atoms: N2_21  and  C18_23 
REMARK       I    between atoms: N4_33  and  C26_35 
ROOT
HETATM    1  C16 UNL     1     -12.748 -49.961  11.343  1.00  0.00     0.147 A 
HETATM    2  N1  UNL     1     -11.635 -50.050  12.088  1.00  0.00    -0.175 N 
ATOM      3  H1  UNL     1     -11.716 -49.827  13.080  1.00  0.00     0.186 HD
HETATM    4  C17 UNL     1     -10.425 -50.407  11.633  1.00  0.00     0.698 A 
HETATM    5  N3  UNL     1     -10.276 -50.708  10.325  1.00  0.00    -0.022 N 
ATOM      6  H3  UNL     1      -9.371 -50.983   9.946  1.00  0.00     0.203 HD
HETATM    7  C25 UNL     1     -11.364 -50.631   9.542  1.00  0.00     0.700 A 
HETATM    8  N4  UNL     1     -11.231 -50.917   8.288  1.00  0.00    -0.163 N 
ATOM      9  H4  UNL     1     -10.325 -51.193   7.910  1.00  0.00     0.187 HD
HETATM   10  C26 UNL     1     -12.370 -50.840   7.451  1.00  0.00     0.200 C 
HETATM   11  N5  UNL     1     -12.637 -49.727   6.863  1.00  0.00    -0.373 N 
ATOM     12  H51 UNL     1     -13.458 -49.671   6.261  1.00  0.00     0.158 HD
ATOM     13  H52 UNL     1     -12.019 -48.930   7.019  1.00  0.00     0.158 HD
HETATM   14  N6  UNL     1     -13.236 -51.956   7.233  1.00  0.00    -0.063 NA
HETATM   15  N7  UNL     1     -12.590 -50.261  10.041  1.00  0.00    -0.174 N 
ATOM     16  H7  UNL     1     -13.393 -50.214   9.414  1.00  0.00     0.186 HD
ENDROOT
BRANCH   1  17
HETATM   17  C15 UNL     1     -14.065 -49.613  11.865  1.00  0.00     0.019 A 
HETATM   18  C3  UNL     1     -14.179 -48.913  13.049  1.00  0.00    -0.020 A 
HETATM   19  C4  UNL     1     -15.442 -48.637  13.579  1.00  0.00     0.049 A 
HETATM   20  C5  UNL     1     -16.588 -49.047  12.951  1.00  0.00     0.070 A 
HETATM   21  C13 UNL     1     -16.448 -49.738  11.774  1.00  0.00     0.038 A 
HETATM   22  C14 UNL     1     -15.217 -50.027  11.224  1.00  0.00     0.019 A 
BRANCH  18  23
HETATM   23  C2  UNL     1     -13.053 -48.409  13.827  1.00  0.00     0.002 C 
HETATM   24  C1  UNL     1     -12.963 -48.745  15.095  1.00  0.00     0.012 C 
ENDBRANCH  18  23
BRANCH  20  25
HETATM   25  O1  UNL     1     -17.858 -48.803  13.428  1.00  0.00    -0.347 OA
BRANCH  25  26
HETATM   26  C6  UNL     1     -18.674 -49.811  13.996  1.00  0.00     0.214 C 
BRANCH  26  27
HETATM   27  C7  UNL     1     -19.933 -49.848  13.226  1.00  0.00    -0.034 A 
HETATM   28  C8  UNL     1     -21.031 -49.179  13.715  1.00  0.00     0.009 A 
HETATM   29  C9  UNL     1     -22.240 -49.192  13.015  1.00  0.00     0.001 A 
HETATM   30  C10 UNL     1     -22.316 -49.879  11.839  1.00  0.00     0.000 A 
HETATM   31  C11 UNL     1     -21.217 -50.565  11.324  1.00  0.00     0.001 A 
HETATM   32  C12 UNL     1     -20.020 -50.534  12.046  1.00  0.00     0.009 A 
ENDBRANCH  26  27
ENDBRANCH  25  26
ENDBRANCH  20  25
ENDBRANCH   1  17
BRANCH   4  33
HETATM   33  N2  UNL     1      -9.438 -50.451  12.463  1.00  0.00    -0.191 N 
ATOM     34  H2  UNL     1      -8.668 -49.795  12.339  1.00  0.00     0.184 HD
BRANCH  33  35
HETATM   35  C18 UNL     1      -9.376 -51.369  13.539  1.00  0.00     0.049 A 
HETATM   36  C19 UNL     1      -9.747 -51.028  14.823  1.00  0.00     0.030 A 
HETATM   37  C20 UNL     1      -9.666 -51.962  15.838  1.00  0.00     0.009 A 
HETATM   38  C21 UNL     1      -9.214 -53.236  15.564  1.00  0.00    -0.062 A 
HETATM   39  C22 UNL     1      -9.094 -54.302  16.594  1.00  0.00     0.048 C 
HETATM   40  C23 UNL     1      -8.847 -53.559  14.275  1.00  0.00     0.009 A 
HETATM   41  C24 UNL     1      -8.924 -52.643  13.270  1.00  0.00     0.030 A 
ENDBRANCH  33  35
ENDBRANCH   4  33
TORSDOF 7
ENDMDL
