MODEL 1
REMARK VINA RESULT: -7.483561999      0.000      0.000
REMARK  9 active torsions:
REMARK  status: ('A' for Active; 'I' for Inactive)
REMARK    1  A    between atoms: N1_1  and  C1_4 
REMARK    2  A    between atoms: C5_10  and  C6_11 
REMARK    3  A    between atoms: C6_11  and  N3_12 
REMARK    4  A    between atoms: N3_12  and  C7_14 
REMARK    5  A    between atoms: C10_21  and  C11_22 
REMARK    6  A    between atoms: C19_30  and  N6_31 
REMARK    7  A    between atoms: N6_31  and  C20_33 
REMARK    8  A    between atoms: C20_33  and  C21_34 
REMARK    9  A    between atoms: C21_34  and  C22_35 
ROOT
HETATM    1  C7  UNL     1     -14.548 -50.010  14.349  1.00  0.00     0.116 A 
HETATM    2  N4  UNL     1     -15.161 -49.611  15.529  1.00  0.00    -0.338 N 
ATOM      3  H4  UNL     1     -15.829 -50.222  15.998  1.00  0.00     0.168 HD
HETATM    4  C8  UNL     1     -14.855 -48.389  16.051  1.00  0.00     0.181 A 
HETATM    5  N5  UNL     1     -13.988 -47.610  15.444  1.00  0.00    -0.361 N 
ATOM      6  H5  UNL     1     -13.767 -46.698  15.844  1.00  0.00     0.166 HD
HETATM    7  C9  UNL     1     -13.387 -47.995  14.303  1.00  0.00     0.106 A 
HETATM    8  C10 UNL     1     -13.637 -49.211  13.699  1.00  0.00     0.050 A 
ENDROOT
BRANCH   8   9
HETATM    9  C11 UNL     1     -12.899 -49.596  12.488  1.00  0.00     0.050 A 
HETATM   10  C12 UNL     1     -13.394 -49.792  11.238  1.00  0.00     0.043 A 
HETATM   11  C13 UNL     1     -12.571 -50.171  10.207  1.00  0.00    -0.020 A 
HETATM   12  C14 UNL     1     -13.091 -50.358   8.948  1.00  0.00     0.012 A 
HETATM   13  C18 UNL     1     -11.202 -50.358  10.446  1.00  0.00     0.018 A 
HETATM   14  C15 UNL     1     -12.247 -50.731   7.920  1.00  0.00     0.001 A 
HETATM   15  C16 UNL     1     -10.880 -50.914   8.170  1.00  0.00     0.001 A 
HETATM   16  C17 UNL     1     -10.380 -50.720   9.434  1.00  0.00     0.016 A 
HETATM   17  C19 UNL     1     -10.709 -50.163  11.705  1.00  0.00     0.112 A 
HETATM   18  N7  UNL     1     -11.546 -49.795  12.679  1.00  0.00    -0.341 N 
ATOM     19  H7  UNL     1     -11.164 -49.653  13.614  1.00  0.00     0.167 HD
BRANCH  17  20
HETATM   20  N6  UNL     1      -9.472 -50.314  11.943  1.00  0.00    -0.375 N 
ATOM     21  H6  UNL     1      -8.855 -49.518  11.775  1.00  0.00     0.161 HD
BRANCH  20  22
HETATM   22  C20 UNL     1      -8.881 -51.529  12.431  1.00  0.00     0.126 C 
BRANCH  22  23
HETATM   23  C21 UNL     1      -8.128 -51.436  13.745  1.00  0.00     0.058 C 
BRANCH  23  24
HETATM   24  C22 UNL     1      -8.962 -52.087  14.803  1.00  0.00    -0.057 A 
HETATM   25  C23 UNL     1     -10.037 -51.459  15.375  1.00  0.00     0.007 A 
HETATM   26  C24 UNL     1     -10.816 -52.081  16.319  1.00  0.00     0.001 A 
HETATM   27  C25 UNL     1     -10.503 -53.387  16.701  1.00  0.00     0.000 A 
HETATM   28  C26 UNL     1      -9.443 -54.026  16.149  1.00  0.00     0.001 A 
HETATM   29  C27 UNL     1      -8.671 -53.368  15.195  1.00  0.00     0.007 A 
ENDBRANCH  23  24
ENDBRANCH  22  23
ENDBRANCH  20  22
ENDBRANCH  17  20
ENDBRANCH   8   9
BRANCH   1  30
HETATM   30  N3  UNL     1     -14.713 -51.242  13.957  1.00  0.00    -0.371 N 
ATOM     31  H3  UNL     1     -15.210 -51.388  13.078  1.00  0.00     0.161 HD
BRANCH  30  32
HETATM   32  C6  UNL     1     -14.263 -52.406  14.648  1.00  0.00     0.163 C 
BRANCH  32  33
HETATM   33  C5  UNL     1     -13.305 -53.313  14.004  1.00  0.00     0.003 A 
HETATM   34  C1  UNL     1     -13.169 -54.563  14.654  1.00  0.00     0.106 A 
HETATM   35  N2  UNL     1     -12.295 -55.488  14.318  1.00  0.00    -0.352 N 
HETATM   36  C2  UNL     1     -11.451 -55.254  13.271  1.00  0.00     0.089 A 
ATOM     37  H2  UNL     1     -12.250 -56.368  14.831  1.00  0.00     0.166 HD
HETATM   38  C3  UNL     1     -11.519 -54.064  12.586  1.00  0.00     0.018 A 
HETATM   39  C4  UNL     1     -12.455 -53.095  12.960  1.00  0.00     0.014 A 
BRANCH  34  40
HETATM   40  N1  UNL     1     -14.043 -54.853  15.629  1.00  0.00    -0.385 N 
ATOM     41  H12 UNL     1     -13.763 -55.548  16.321  1.00  0.00     0.157 HD
ATOM     42  H11 UNL     1     -14.913 -54.322  15.661  1.00  0.00     0.157 HD
ENDBRANCH  34  40
ENDBRANCH  32  33
ENDBRANCH  30  32
ENDBRANCH   1  30
TORSDOF 9
ENDMDL
MODEL 2
REMARK VINA RESULT: -7.437163874      1.895      5.070
REMARK  9 active torsions:
REMARK  status: ('A' for Active; 'I' for Inactive)
REMARK    1  A    between atoms: N1_1  and  C1_4 
REMARK    2  A    between atoms: C5_10  and  C6_11 
REMARK    3  A    between atoms: C6_11  and  N3_12 
REMARK    4  A    between atoms: N3_12  and  C7_14 
REMARK    5  A    between atoms: C10_21  and  C11_22 
REMARK    6  A    between atoms: C19_30  and  N6_31 
REMARK    7  A    between atoms: N6_31  and  C20_33 
REMARK    8  A    between atoms: C20_33  and  C21_34 
REMARK    9  A    between atoms: C21_34  and  C22_35 
ROOT
HETATM    1  C7  UNL     1     -13.944 -54.514  14.454  1.00  0.00     0.116 A 
HETATM    2  N4  UNL     1     -14.248 -55.850  14.236  1.00  0.00    -0.338 N 
ATOM      3  H4  UNL     1     -13.772 -56.582  14.763  1.00  0.00     0.168 HD
HETATM    4  C8  UNL     1     -15.194 -56.169  13.306  1.00  0.00     0.181 A 
HETATM    5  N5  UNL     1     -15.807 -55.220  12.636  1.00  0.00    -0.361 N 
ATOM      6  H5  UNL     1     -16.513 -55.470  11.943  1.00  0.00     0.166 HD
HETATM    7  C9  UNL     1     -15.519 -53.923  12.848  1.00  0.00     0.106 A 
HETATM    8  C10 UNL     1     -14.575 -53.506  13.764  1.00  0.00     0.050 A 
ENDROOT
BRANCH   8   9
HETATM    9  C11 UNL     1     -14.355 -52.070  13.992  1.00  0.00     0.050 A 
HETATM   10  C12 UNL     1     -14.883 -51.292  14.972  1.00  0.00     0.043 A 
HETATM   11  C13 UNL     1     -14.593 -49.953  15.040  1.00  0.00    -0.020 A 
HETATM   12  C14 UNL     1     -15.134 -49.183  16.043  1.00  0.00     0.012 A 
HETATM   13  C18 UNL     1     -13.738 -49.379  14.087  1.00  0.00     0.018 A 
HETATM   14  C15 UNL     1     -14.823 -47.839  16.102  1.00  0.00     0.001 A 
HETATM   15  C16 UNL     1     -13.967 -47.277  15.145  1.00  0.00     0.001 A 
HETATM   16  C17 UNL     1     -13.435 -48.062  14.152  1.00  0.00     0.016 A 
HETATM   17  C19 UNL     1     -13.211 -50.166  13.102  1.00  0.00     0.112 A 
HETATM   18  N7  UNL     1     -13.521 -51.464  13.073  1.00  0.00    -0.341 N 
ATOM     19  H7  UNL     1     -13.120 -52.039  12.332  1.00  0.00     0.167 HD
BRANCH  17  20
HETATM   20  N6  UNL     1     -12.425 -49.672  12.236  1.00  0.00    -0.375 N 
ATOM     21  H6  UNL     1     -12.500 -48.674  12.040  1.00  0.00     0.161 HD
BRANCH  20  22
HETATM   22  C20 UNL     1     -11.437 -50.424  11.513  1.00  0.00     0.126 C 
BRANCH  22  23
HETATM   23  C21 UNL     1     -10.011 -50.338  12.024  1.00  0.00     0.058 C 
BRANCH  23  24
HETATM   24  C22 UNL     1      -9.517 -51.731  12.256  1.00  0.00    -0.057 A 
HETATM   25  C23 UNL     1      -8.301 -51.988  12.830  1.00  0.00     0.007 A 
HETATM   26  C24 UNL     1      -7.874 -53.271  13.071  1.00  0.00     0.001 A 
HETATM   27  C25 UNL     1      -8.705 -54.336  12.722  1.00  0.00     0.000 A 
HETATM   28  C26 UNL     1      -9.913 -54.105  12.152  1.00  0.00     0.001 A 
HETATM   29  C27 UNL     1     -10.317 -52.792  11.919  1.00  0.00     0.007 A 
ENDBRANCH  23  24
ENDBRANCH  22  23
ENDBRANCH  20  22
ENDBRANCH  17  20
ENDBRANCH   8   9
BRANCH   1  30
HETATM   30  N3  UNL     1     -13.172 -54.216  15.461  1.00  0.00    -0.371 N 
ATOM     31  H3  UNL     1     -13.619 -53.812  16.285  1.00  0.00     0.161 HD
BRANCH  30  32
HETATM   32  C6  UNL     1     -11.759 -54.403  15.514  1.00  0.00     0.163 C 
BRANCH  32  33
HETATM   33  C5  UNL     1     -10.873 -53.243  15.664  1.00  0.00     0.003 A 
HETATM   34  C1  UNL     1      -9.606 -53.552  16.216  1.00  0.00     0.106 A 
HETATM   35  N2  UNL     1      -8.694 -52.660  16.537  1.00  0.00    -0.352 N 
HETATM   36  C2  UNL     1      -8.959 -51.337  16.333  1.00  0.00     0.089 A 
ATOM     37  H2  UNL     1      -7.801 -52.953  16.932  1.00  0.00     0.166 HD
HETATM   38  C3  UNL     1     -10.167 -50.952  15.801  1.00  0.00     0.018 A 
HETATM   39  C4  UNL     1     -11.123 -51.916  15.467  1.00  0.00     0.014 A 
BRANCH  34  40
HETATM   40  N1  UNL     1      -9.288 -54.849  16.345  1.00  0.00    -0.385 N 
ATOM     41  H12 UNL     1      -8.318 -55.075  16.562  1.00  0.00     0.157 HD
ATOM     42  H11 UNL     1     -10.041 -55.533  16.278  1.00  0.00     0.157 HD
ENDBRANCH  34  40
ENDBRANCH  32  33
ENDBRANCH  30  32
ENDBRANCH   1  30
TORSDOF 9
ENDMDL
MODEL 3
REMARK VINA RESULT: -7.287494255      1.707      5.517
REMARK  9 active torsions:
REMARK  status: ('A' for Active; 'I' for Inactive)
REMARK    1  A    between atoms: N1_1  and  C1_4 
REMARK    2  A    between atoms: C5_10  and  C6_11 
REMARK    3  A    between atoms: C6_11  and  N3_12 
REMARK    4  A    between atoms: N3_12  and  C7_14 
REMARK    5  A    between atoms: C10_21  and  C11_22 
REMARK    6  A    between atoms: C19_30  and  N6_31 
REMARK    7  A    between atoms: N6_31  and  C20_33 
REMARK    8  A    between atoms: C20_33  and  C21_34 
REMARK    9  A    between atoms: C21_34  and  C22_35 
ROOT
HETATM    1  C7  UNL     1     -10.878 -50.420  10.257  1.00  0.00     0.116 A 
HETATM    2  N4  UNL     1     -10.313 -50.763   9.036  1.00  0.00    -0.338 N 
ATOM      3  H4  UNL     1      -9.301 -50.843   8.938  1.00  0.00     0.168 HD
HETATM    4  C8  UNL     1     -11.133 -50.990   7.970  1.00  0.00     0.181 A 
HETATM    5  N5  UNL     1     -12.436 -50.890   8.106  1.00  0.00    -0.361 N 
ATOM      6  H5  UNL     1     -13.040 -51.063   7.301  1.00  0.00     0.166 HD
HETATM    7  C9  UNL     1     -12.988 -50.563   9.289  1.00  0.00     0.106 A 
HETATM    8  C10 UNL     1     -12.239 -50.311  10.420  1.00  0.00     0.050 A 
ENDROOT
BRANCH   8   9
HETATM    9  C11 UNL     1     -12.908 -50.021  11.696  1.00  0.00     0.050 A 
HETATM   10  C12 UNL     1     -12.831 -48.886  12.438  1.00  0.00     0.043 A 
HETATM   11  C13 UNL     1     -13.507 -48.776  13.627  1.00  0.00    -0.020 A 
HETATM   12  C14 UNL     1     -13.419 -47.616  14.361  1.00  0.00     0.012 A 
HETATM   13  C18 UNL     1     -14.289 -49.847  14.083  1.00  0.00     0.018 A 
HETATM   14  C15 UNL     1     -14.114 -47.519  15.551  1.00  0.00     0.001 A 
HETATM   15  C16 UNL     1     -14.893 -48.595  15.996  1.00  0.00     0.001 A 
HETATM   16  C17 UNL     1     -14.969 -49.744  15.247  1.00  0.00     0.016 A 
HETATM   17  C19 UNL     1     -14.362 -50.987  13.334  1.00  0.00     0.112 A 
HETATM   18  N7  UNL     1     -13.687 -51.052  12.183  1.00  0.00    -0.341 N 
ATOM     19  H7  UNL     1     -13.751 -51.910  11.635  1.00  0.00     0.167 HD
BRANCH  17  20
HETATM   20  N6  UNL     1     -15.073 -51.965  13.719  1.00  0.00    -0.375 N 
ATOM     21  H6  UNL     1     -16.085 -51.836  13.746  1.00  0.00     0.161 HD
BRANCH  20  22
HETATM   22  C20 UNL     1     -14.551 -53.243  14.118  1.00  0.00     0.126 C 
BRANCH  22  23
HETATM   23  C21 UNL     1     -13.466 -53.230  15.179  1.00  0.00     0.058 C 
BRANCH  23  24
HETATM   24  C22 UNL     1     -12.310 -54.030  14.669  1.00  0.00    -0.057 A 
HETATM   25  C23 UNL     1     -11.472 -54.718  15.506  1.00  0.00     0.007 A 
HETATM   26  C24 UNL     1     -10.436 -55.479  15.024  1.00  0.00     0.001 A 
HETATM   27  C25 UNL     1     -10.237 -55.552  13.644  1.00  0.00     0.000 A 
HETATM   28  C26 UNL     1     -11.053 -54.879  12.797  1.00  0.00     0.001 A 
HETATM   29  C27 UNL     1     -12.095 -54.114  13.317  1.00  0.00     0.007 A 
ENDBRANCH  23  24
ENDBRANCH  22  23
ENDBRANCH  20  22
ENDBRANCH  17  20
ENDBRANCH   8   9
BRANCH   1  30
HETATM   30  N3  UNL     1     -10.101 -50.378  11.302  1.00  0.00    -0.371 N 
ATOM     31  H3  UNL     1      -9.794 -49.457  11.616  1.00  0.00     0.161 HD
BRANCH  30  32
HETATM   32  C6  UNL     1      -9.642 -51.505  12.048  1.00  0.00     0.163 C 
BRANCH  32  33
HETATM   33  C5  UNL     1      -9.608 -51.446  13.514  1.00  0.00     0.003 A 
HETATM   34  C1  UNL     1      -8.630 -52.284  14.101  1.00  0.00     0.106 A 
HETATM   35  N2  UNL     1      -8.489 -52.473  15.396  1.00  0.00    -0.352 N 
HETATM   36  C2  UNL     1      -9.329 -51.826  16.256  1.00  0.00     0.089 A 
ATOM     37  H2  UNL     1      -7.762 -53.093  15.752  1.00  0.00     0.166 HD
HETATM   38  C3  UNL     1     -10.306 -50.993  15.766  1.00  0.00     0.018 A 
HETATM   39  C4  UNL     1     -10.439 -50.807  14.387  1.00  0.00     0.014 A 
BRANCH  34  40
HETATM   40  N1  UNL     1      -7.738 -52.863  13.283  1.00  0.00    -0.385 N 
ATOM     41  H12 UNL     1      -6.913 -52.321  13.028  1.00  0.00     0.157 HD
ATOM     42  H11 UNL     1      -7.903 -53.831  13.008  1.00  0.00     0.157 HD
ENDBRANCH  34  40
ENDBRANCH  32  33
ENDBRANCH  30  32
ENDBRANCH   1  30
TORSDOF 9
ENDMDL
MODEL 4
REMARK VINA RESULT: -7.233399862      2.182      5.117
REMARK  9 active torsions:
REMARK  status: ('A' for Active; 'I' for Inactive)
REMARK    1  A    between atoms: N1_1  and  C1_4 
REMARK    2  A    between atoms: C5_10  and  C6_11 
REMARK    3  A    between atoms: C6_11  and  N3_12 
REMARK    4  A    between atoms: N3_12  and  C7_14 
REMARK    5  A    between atoms: C10_21  and  C11_22 
REMARK    6  A    between atoms: C19_30  and  N6_31 
REMARK    7  A    between atoms: N6_31  and  C20_33 
REMARK    8  A    between atoms: C20_33  and  C21_34 
REMARK    9  A    between atoms: C21_34  and  C22_35 
ROOT
HETATM    1  C7  UNL     1     -14.562 -54.446  14.421  1.00  0.00     0.116 A 
HETATM    2  N4  UNL     1     -14.488 -55.832  14.377  1.00  0.00    -0.338 N 
ATOM      3  H4  UNL     1     -15.292 -56.384  14.080  1.00  0.00     0.168 HD
HETATM    4  C8  UNL     1     -13.323 -56.442  14.739  1.00  0.00     0.181 A 
HETATM    5  N5  UNL     1     -12.290 -55.723  15.115  1.00  0.00    -0.361 N 
ATOM      6  H5  UNL     1     -11.423 -56.191  15.382  1.00  0.00     0.166 HD
HETATM    7  C9  UNL     1     -12.356 -54.379  15.153  1.00  0.00     0.106 A 
HETATM    8  C10 UNL     1     -13.492 -53.676  14.811  1.00  0.00     0.050 A 
ENDROOT
BRANCH   8   9
HETATM    9  C11 UNL     1     -13.476 -52.206  14.814  1.00  0.00     0.050 A 
HETATM   10  C12 UNL     1     -14.301 -51.365  15.491  1.00  0.00     0.043 A 
HETATM   11  C13 UNL     1     -14.169 -50.005  15.375  1.00  0.00    -0.020 A 
HETATM   12  C14 UNL     1     -15.011 -49.171  16.073  1.00  0.00     0.012 A 
HETATM   13  C18 UNL     1     -13.170 -49.474  14.547  1.00  0.00     0.018 A 
HETATM   14  C15 UNL     1     -14.858 -47.804  15.951  1.00  0.00     0.001 A 
HETATM   15  C16 UNL     1     -13.855 -47.284  15.122  1.00  0.00     0.001 A 
HETATM   16  C17 UNL     1     -13.023 -48.134  14.433  1.00  0.00     0.016 A 
HETATM   17  C19 UNL     1     -12.344 -50.323  13.866  1.00  0.00     0.112 A 
HETATM   18  N7  UNL     1     -12.508 -51.640  14.008  1.00  0.00    -0.341 N 
ATOM     19  H7  UNL     1     -11.885 -52.262  13.493  1.00  0.00     0.167 HD
BRANCH  17  20
HETATM   20  N6  UNL     1     -11.424 -49.866  13.120  1.00  0.00    -0.375 N 
ATOM     21  H6  UNL     1     -11.340 -48.852  13.035  1.00  0.00     0.161 HD
BRANCH  20  22
HETATM   22  C20 UNL     1     -10.492 -50.678  12.388  1.00  0.00     0.126 C 
BRANCH  22  23
HETATM   23  C21 UNL     1      -9.054 -50.664  12.870  1.00  0.00     0.058 C 
BRANCH  23  24
HETATM   24  C22 UNL     1      -8.961 -51.545  14.075  1.00  0.00    -0.057 A 
HETATM   25  C23 UNL     1      -8.940 -51.041  15.348  1.00  0.00     0.007 A 
HETATM   26  C24 UNL     1      -8.891 -51.863  16.448  1.00  0.00     0.001 A 
HETATM   27  C25 UNL     1      -8.863 -53.245  16.258  1.00  0.00     0.000 A 
HETATM   28  C26 UNL     1      -8.882 -53.765  15.007  1.00  0.00     0.001 A 
HETATM   29  C27 UNL     1      -8.931 -52.906  13.911  1.00  0.00     0.007 A 
ENDBRANCH  23  24
ENDBRANCH  22  23
ENDBRANCH  20  22
ENDBRANCH  17  20
ENDBRANCH   8   9
BRANCH   1  30
HETATM   30  N3  UNL     1     -15.614 -53.871  13.910  1.00  0.00    -0.371 N 
ATOM     31  H3  UNL     1     -16.453 -53.835  14.490  1.00  0.00     0.161 HD
BRANCH  30  32
HETATM   32  C6  UNL     1     -15.698 -53.287  12.611  1.00  0.00     0.163 C 
BRANCH  32  33
HETATM   33  C5  UNL     1     -15.998 -51.857  12.471  1.00  0.00     0.003 A 
HETATM   34  C1  UNL     1     -15.080 -51.153  11.655  1.00  0.00     0.106 A 
HETATM   35  N2  UNL     1     -15.090 -49.850  11.474  1.00  0.00    -0.352 N 
HETATM   36  C2  UNL     1     -16.041 -49.099  12.103  1.00  0.00     0.089 A 
ATOM     37  H2  UNL     1     -14.397 -49.406  10.872  1.00  0.00     0.166 HD
HETATM   38  C3  UNL     1     -16.971 -49.707  12.914  1.00  0.00     0.018 A 
HETATM   39  C4  UNL     1     -16.943 -51.093  13.092  1.00  0.00     0.014 A 
BRANCH  34  40
HETATM   40  N1  UNL     1     -14.190 -51.875  10.959  1.00  0.00    -0.385 N 
ATOM     41  H12 UNL     1     -14.520 -52.341  10.114  1.00  0.00     0.157 HD
ATOM     42  H11 UNL     1     -13.221 -51.873  11.278  1.00  0.00     0.157 HD
ENDBRANCH  34  40
ENDBRANCH  32  33
ENDBRANCH  30  32
ENDBRANCH   1  30
TORSDOF 9
ENDMDL
MODEL 5
REMARK VINA RESULT: -7.223521540      1.966      5.777
REMARK  9 active torsions:
REMARK  status: ('A' for Active; 'I' for Inactive)
REMARK    1  A    between atoms: N1_1  and  C1_4 
REMARK    2  A    between atoms: C5_10  and  C6_11 
REMARK    3  A    between atoms: C6_11  and  N3_12 
REMARK    4  A    between atoms: N3_12  and  C7_14 
REMARK    5  A    between atoms: C10_21  and  C11_22 
REMARK    6  A    between atoms: C19_30  and  N6_31 
REMARK    7  A    between atoms: N6_31  and  C20_33 
REMARK    8  A    between atoms: C20_33  and  C21_34 
REMARK    9  A    between atoms: C21_34  and  C22_35 
ROOT
HETATM    1  C7  UNL     1     -11.612 -55.942  13.982  1.00  0.00     0.116 A 
HETATM    2  N4  UNL     1     -12.089 -57.104  14.573  1.00  0.00    -0.338 N 
ATOM      3  H4  UNL     1     -11.485 -57.920  14.672  1.00  0.00     0.168 HD
HETATM    4  C8  UNL     1     -13.377 -57.136  15.020  1.00  0.00     0.181 A 
HETATM    5  N5  UNL     1     -14.147 -56.079  14.894  1.00  0.00    -0.361 N 
ATOM      6  H5  UNL     1     -15.109 -56.114  15.233  1.00  0.00     0.166 HD
HETATM    7  C9  UNL     1     -13.687 -54.948  14.327  1.00  0.00     0.106 A 
HETATM    8  C10 UNL     1     -12.400 -54.824  13.843  1.00  0.00     0.050 A 
ENDROOT
BRANCH   8   9
HETATM    9  C11 UNL     1     -11.942 -53.541  13.292  1.00  0.00     0.050 A 
HETATM   10  C12 UNL     1     -11.423 -53.300  12.060  1.00  0.00     0.043 A 
HETATM   11  C13 UNL     1     -11.022 -52.039  11.699  1.00  0.00    -0.020 A 
HETATM   12  C14 UNL     1     -10.504 -51.816  10.445  1.00  0.00     0.012 A 
HETATM   13  C18 UNL     1     -11.149 -50.983  12.613  1.00  0.00     0.018 A 
HETATM   14  C15 UNL     1     -10.113 -50.538  10.096  1.00  0.00     0.001 A 
HETATM   15  C16 UNL     1     -10.246 -49.490  11.017  1.00  0.00     0.001 A 
HETATM   16  C17 UNL     1     -10.767 -49.733  12.264  1.00  0.00     0.016 A 
HETATM   17  C19 UNL     1     -11.670 -51.229  13.852  1.00  0.00     0.112 A 
HETATM   18  N7  UNL     1     -12.047 -52.473  14.161  1.00  0.00    -0.341 N 
ATOM     19  H7  UNL     1     -12.434 -52.642  15.090  1.00  0.00     0.167 HD
BRANCH  17  20
HETATM   20  N6  UNL     1     -11.807 -50.288  14.692  1.00  0.00    -0.375 N 
ATOM     21  H6  UNL     1     -10.961 -49.884  15.096  1.00  0.00     0.161 HD
BRANCH  20  22
HETATM   22  C20 UNL     1     -13.072 -49.752  15.113  1.00  0.00     0.126 C 
BRANCH  22  23
HETATM   23  C21 UNL     1     -13.527 -48.475  14.432  1.00  0.00     0.058 C 
BRANCH  23  24
HETATM   24  C22 UNL     1     -14.698 -48.805  13.563  1.00  0.00    -0.057 A 
HETATM   25  C23 UNL     1     -14.562 -49.485  12.382  1.00  0.00     0.007 A 
HETATM   26  C24 UNL     1     -15.650 -49.815  11.611  1.00  0.00     0.001 A 
HETATM   27  C25 UNL     1     -16.924 -49.447  12.046  1.00  0.00     0.000 A 
HETATM   28  C26 UNL     1     -17.081 -48.773  13.211  1.00  0.00     0.001 A 
HETATM   29  C27 UNL     1     -15.959 -48.452  13.971  1.00  0.00     0.007 A 
ENDBRANCH  23  24
ENDBRANCH  22  23
ENDBRANCH  20  22
ENDBRANCH  17  20
ENDBRANCH   8   9
BRANCH   1  30
HETATM   30  N3  UNL     1     -10.337 -55.864  13.721  1.00  0.00    -0.371 N 
ATOM     31  H3  UNL     1     -10.044 -56.086  12.769  1.00  0.00     0.161 HD
BRANCH  30  32
HETATM   32  C6  UNL     1      -9.316 -55.497  14.647  1.00  0.00     0.163 C 
BRANCH  32  33
HETATM   33  C5  UNL     1      -8.838 -54.110  14.695  1.00  0.00     0.003 A 
HETATM   34  C1  UNL     1      -9.133 -53.440  15.907  1.00  0.00     0.106 A 
HETATM   35  N2  UNL     1      -8.895 -52.166  16.132  1.00  0.00    -0.352 N 
HETATM   36  C2  UNL     1      -8.323 -51.413  15.147  1.00  0.00     0.089 A 
ATOM     37  H2  UNL     1      -9.134 -51.746  17.030  1.00  0.00     0.166 HD
HETATM   38  C3  UNL     1      -8.006 -51.988  13.940  1.00  0.00     0.018 A 
HETATM   39  C4  UNL     1      -8.266 -53.344  13.721  1.00  0.00     0.014 A 
BRANCH  34  40
HETATM   40  N1  UNL     1      -9.615 -54.176  16.919  1.00  0.00    -0.385 N 
ATOM     41  H12 UNL     1      -9.682 -53.731  17.834  1.00  0.00     0.157 HD
ATOM     42  H11 UNL     1      -9.943 -55.119  16.708  1.00  0.00     0.157 HD
ENDBRANCH  34  40
ENDBRANCH  32  33
ENDBRANCH  30  32
ENDBRANCH   1  30
TORSDOF 9
ENDMDL
