MODEL 1
REMARK VINA RESULT: -7.182850584      0.000      0.000
REMARK  9 active torsions:
REMARK  status: ('A' for Active; 'I' for Inactive)
REMARK    1  A    between atoms: C7_7  and  N1_8 
REMARK    2  A    between atoms: C10_11  and  N2_12 
REMARK    3  A    between atoms: N2_12  and  C11_14 
REMARK    4  A    between atoms: C11_14  and  C12_15 
REMARK    5  A    between atoms: C12_15  and  N3_16 
REMARK    6  A    between atoms: N3_16  and  C13_18 
REMARK    7  A    between atoms: C20_29  and  C21_30 
REMARK    8  A    between atoms: C21_30  and  C22_31 
REMARK    9  A    between atoms: C28_37  and  O1_38 
ROOT
HETATM    1  N1  UNL     1      52.874   2.225  -7.657  1.00  0.00    -0.302 N 
HETATM    2  C8  UNL     1      52.807   1.628  -6.470  1.00  0.00     0.102 A 
HETATM    3  C9  UNL     1      53.194   0.309  -6.238  1.00  0.00     0.047 A 
HETATM    4  C10 UNL     1      53.672  -0.415  -7.305  1.00  0.00     0.040 A 
HETATM    5  C20 UNL     1      53.751   0.199  -8.565  1.00  0.00     0.024 A 
HETATM    6  C28 UNL     1      53.342   1.514  -8.694  1.00  0.00     0.155 A 
ENDROOT
BRANCH   4   7
HETATM    7  N2  UNL     1      54.016  -1.621  -7.138  1.00  0.00    -0.388 N 
ATOM      8  H2  UNL     1      53.649  -2.304  -7.800  1.00  0.00     0.159 HD
BRANCH   7   9
HETATM    9  C11 UNL     1      54.872  -2.113  -6.107  1.00  0.00     0.140 C 
BRANCH   9  10
HETATM   10  C12 UNL     1      56.283  -2.379  -6.619  1.00  0.00     0.157 C 
BRANCH  10  11
HETATM   11  N3  UNL     1      56.348  -3.470  -7.551  1.00  0.00    -0.224 N 
ATOM     12  H3  UNL     1      55.864  -4.338  -7.320  1.00  0.00     0.177 HD
BRANCH  11  13
HETATM   13  C13 UNL     1      56.991  -3.402  -8.669  1.00  0.00     0.679 A 
HETATM   14  N4  UNL     1      58.287  -3.150  -8.876  1.00  0.00    -0.190 N 
HETATM   15  C14 UNL     1      58.595  -3.148 -10.192  1.00  0.00     0.076 A 
ATOM     16  H4  UNL     1      58.962  -2.979  -8.130  1.00  0.00     0.184 HD
HETATM   17  C15 UNL     1      59.752  -2.946 -10.927  1.00  0.00     0.032 A 
HETATM   18  C19 UNL     1      57.408  -3.418 -10.838  1.00  0.00     0.076 A 
HETATM   19  C16 UNL     1      59.751  -3.007 -12.290  1.00  0.00     0.002 A 
HETATM   20  C17 UNL     1      58.579  -3.276 -12.968  1.00  0.00     0.002 A 
HETATM   21  C18 UNL     1      57.435  -3.476 -12.228  1.00  0.00     0.032 A 
HETATM   22  N5  UNL     1      56.453  -3.569  -9.912  1.00  0.00    -0.190 N 
ATOM     23  H5  UNL     1      55.474  -3.778 -10.106  1.00  0.00     0.184 HD
ENDBRANCH  11  13
ENDBRANCH  10  11
ENDBRANCH   9  10
ENDBRANCH   7   9
ENDBRANCH   4   7
BRANCH   5  24
HETATM   24  C21 UNL     1      54.260  -0.518  -9.729  1.00  0.00     0.084 C 
BRANCH  24  25
HETATM   25  C22 UNL     1      55.633  -0.153 -10.151  1.00  0.00    -0.054 A 
HETATM   26  C23 UNL     1      55.969  -0.115 -11.509  1.00  0.00     0.007 A 
HETATM   27  C24 UNL     1      57.233   0.204 -11.958  1.00  0.00     0.001 A 
HETATM   28  C25 UNL     1      58.237   0.505 -11.070  1.00  0.00     0.000 A 
HETATM   29  C26 UNL     1      57.943   0.477  -9.727  1.00  0.00     0.001 A 
HETATM   30  C27 UNL     1      56.657   0.152  -9.284  1.00  0.00     0.007 A 
ENDBRANCH  24  25
ENDBRANCH   5  24
BRANCH   6  31
HETATM   31  O1  UNL     1      53.381   2.209  -9.910  1.00  0.00    -0.345 OA
ATOM     32  H1  UNL     1      54.124   1.999 -10.464  1.00  0.00     0.219 HD
ENDBRANCH   6  31
BRANCH   1  33
HETATM   33  C7  UNL     1      52.451   3.573  -7.775  1.00  0.00     0.046 A 
HETATM   34  C2  UNL     1      53.424   4.547  -7.646  1.00  0.00    -0.035 A 
HETATM   35  C1  UNL     1      54.856   4.259  -7.397  1.00  0.00     0.050 C 
HETATM   36  C3  UNL     1      53.032   5.860  -7.757  1.00  0.00     0.009 A 
HETATM   37  C4  UNL     1      51.712   6.199  -7.990  1.00  0.00     0.001 A 
HETATM   38  C5  UNL     1      50.765   5.227  -8.115  1.00  0.00     0.002 A 
HETATM   39  C6  UNL     1      51.140   3.924  -8.006  1.00  0.00     0.030 A 
ENDBRANCH   1  33
TORSDOF 9
ENDMDL
MODEL 2
REMARK VINA RESULT: -6.771349384      2.327      7.916
REMARK  9 active torsions:
REMARK  status: ('A' for Active; 'I' for Inactive)
REMARK    1  A    between atoms: C7_7  and  N1_8 
REMARK    2  A    between atoms: C10_11  and  N2_12 
REMARK    3  A    between atoms: N2_12  and  C11_14 
REMARK    4  A    between atoms: C11_14  and  C12_15 
REMARK    5  A    between atoms: C12_15  and  N3_16 
REMARK    6  A    between atoms: N3_16  and  C13_18 
REMARK    7  A    between atoms: C20_29  and  C21_30 
REMARK    8  A    between atoms: C21_30  and  C22_31 
REMARK    9  A    between atoms: C28_37  and  O1_38 
ROOT
HETATM    1  N1  UNL     1      56.460  -1.395 -10.869  1.00  0.00    -0.302 N 
HETATM    2  C8  UNL     1      55.846  -0.350 -11.417  1.00  0.00     0.102 A 
HETATM    3  C9  UNL     1      54.756   0.302 -10.841  1.00  0.00     0.047 A 
HETATM    4  C10 UNL     1      54.293  -0.168  -9.635  1.00  0.00     0.040 A 
HETATM    5  C20 UNL     1      54.929  -1.269  -9.042  1.00  0.00     0.024 A 
HETATM    6  C28 UNL     1      56.004  -1.849  -9.691  1.00  0.00     0.155 A 
ENDROOT
BRANCH   4   7
HETATM    7  N2  UNL     1      53.294   0.387  -9.090  1.00  0.00    -0.388 N 
ATOM      8  H2  UNL     1      52.453  -0.179  -8.977  1.00  0.00     0.159 HD
BRANCH   7   9
HETATM    9  C11 UNL     1      53.237   1.733  -8.620  1.00  0.00     0.140 C 
BRANCH   9  10
HETATM   10  C12 UNL     1      51.804   2.241  -8.523  1.00  0.00     0.157 C 
BRANCH  10  11
HETATM   11  N3  UNL     1      51.358   2.415  -7.168  1.00  0.00    -0.224 N 
ATOM     12  H3  UNL     1      50.650   3.124  -6.976  1.00  0.00     0.177 HD
BRANCH  11  13
HETATM   13  C13 UNL     1      51.812   1.715  -6.183  1.00  0.00     0.679 A 
HETATM   14  N4  UNL     1      51.693   0.402  -5.963  1.00  0.00    -0.190 N 
HETATM   15  C14 UNL     1      52.295   0.029  -4.812  1.00  0.00     0.076 A 
ATOM     16  H4  UNL     1      51.207  -0.240  -6.589  1.00  0.00     0.184 HD
HETATM   17  C15 UNL     1      52.461  -1.170  -4.137  1.00  0.00     0.032 A 
HETATM   18  C19 UNL     1      52.820   1.191  -4.289  1.00  0.00     0.076 A 
HETATM   19  C16 UNL     1      53.136  -1.235  -2.953  1.00  0.00     0.002 A 
HETATM   20  C17 UNL     1      53.675  -0.090  -2.402  1.00  0.00     0.002 A 
HETATM   21  C18 UNL     1      53.505   1.097  -3.081  1.00  0.00     0.032 A 
HETATM   22  N5  UNL     1      52.523   2.195  -5.122  1.00  0.00    -0.190 N 
ATOM     23  H5  UNL     1      52.789   3.171  -4.984  1.00  0.00     0.184 HD
ENDBRANCH  11  13
ENDBRANCH  10  11
ENDBRANCH   9  10
ENDBRANCH   7   9
ENDBRANCH   4   7
BRANCH   5  24
HETATM   24  C21 UNL     1      54.487  -1.803  -7.758  1.00  0.00     0.084 C 
BRANCH  24  25
HETATM   25  C22 UNL     1      55.284  -1.380  -6.583  1.00  0.00    -0.054 A 
HETATM   26  C23 UNL     1      55.711  -2.323  -5.641  1.00  0.00     0.007 A 
HETATM   27  C24 UNL     1      56.443  -1.985  -4.523  1.00  0.00     0.001 A 
HETATM   28  C25 UNL     1      56.793  -0.677  -4.284  1.00  0.00     0.000 A 
HETATM   29  C26 UNL     1      56.390   0.276  -5.188  1.00  0.00     0.001 A 
HETATM   30  C27 UNL     1      55.648  -0.079  -6.318  1.00  0.00     0.007 A 
ENDBRANCH  24  25
ENDBRANCH   5  24
BRANCH   6  31
HETATM   31  O1  UNL     1      56.701  -2.952  -9.179  1.00  0.00    -0.345 OA
ATOM     32  H1  UNL     1      56.246  -3.424  -8.492  1.00  0.00     0.219 HD
ENDBRANCH   6  31
BRANCH   1  33
HETATM   33  C7  UNL     1      57.560  -1.980 -11.546  1.00  0.00     0.046 A 
HETATM   34  C2  UNL     1      58.787  -1.360 -11.398  1.00  0.00    -0.035 A 
HETATM   35  C1  UNL     1      59.007  -0.142 -10.584  1.00  0.00     0.050 C 
HETATM   36  C3  UNL     1      59.865  -1.913 -12.048  1.00  0.00     0.009 A 
HETATM   37  C4  UNL     1      59.732  -3.050 -12.823  1.00  0.00     0.001 A 
HETATM   38  C5  UNL     1      58.515  -3.650 -12.959  1.00  0.00     0.002 A 
HETATM   39  C6  UNL     1      57.440  -3.112 -12.321  1.00  0.00     0.030 A 
ENDBRANCH   1  33
TORSDOF 9
ENDMDL
MODEL 3
REMARK VINA RESULT: -6.703975705      3.863      5.381
REMARK  9 active torsions:
REMARK  status: ('A' for Active; 'I' for Inactive)
REMARK    1  A    between atoms: C7_7  and  N1_8 
REMARK    2  A    between atoms: C10_11  and  N2_12 
REMARK    3  A    between atoms: N2_12  and  C11_14 
REMARK    4  A    between atoms: C11_14  and  C12_15 
REMARK    5  A    between atoms: C12_15  and  N3_16 
REMARK    6  A    between atoms: N3_16  and  C13_18 
REMARK    7  A    between atoms: C20_29  and  C21_30 
REMARK    8  A    between atoms: C21_30  and  C22_31 
REMARK    9  A    between atoms: C28_37  and  O1_38 
ROOT
HETATM    1  N1  UNL     1      55.420  -0.965  -7.944  1.00  0.00    -0.302 N 
HETATM    2  C8  UNL     1      56.190  -0.821  -6.869  1.00  0.00     0.102 A 
HETATM    3  C9  UNL     1      57.263  -1.657  -6.561  1.00  0.00     0.047 A 
HETATM    4  C10 UNL     1      57.536  -2.691  -7.424  1.00  0.00     0.040 A 
HETATM    5  C20 UNL     1      56.735  -2.858  -8.565  1.00  0.00     0.024 A 
HETATM    6  C28 UNL     1      55.693  -1.975  -8.784  1.00  0.00     0.155 A 
ENDROOT
BRANCH   4   7
HETATM    7  N2  UNL     1      58.491  -3.483  -7.169  1.00  0.00    -0.388 N 
ATOM      8  H2  UNL     1      58.969  -3.904  -7.965  1.00  0.00     0.159 HD
BRANCH   7   9
HETATM    9  C11 UNL     1      58.959  -3.838  -5.869  1.00  0.00     0.140 C 
BRANCH   9  10
HETATM   10  C12 UNL     1      60.440  -4.197  -5.877  1.00  0.00     0.157 C 
BRANCH  10  11
HETATM   11  N3  UNL     1      60.706  -5.503  -5.341  1.00  0.00    -0.224 N 
ATOM     12  H3  UNL     1      60.686  -5.628  -4.329  1.00  0.00     0.177 HD
BRANCH  11  13
HETATM   13  C13 UNL     1      60.969  -6.527  -6.083  1.00  0.00     0.679 A 
HETATM   14  N4  UNL     1      61.454  -6.556  -7.328  1.00  0.00    -0.190 N 
HETATM   15  C14 UNL     1      61.587  -7.821  -7.785  1.00  0.00     0.076 A 
ATOM     16  H4  UNL     1      61.695  -5.724  -7.867  1.00  0.00     0.184 HD
HETATM   17  C15 UNL     1      62.026  -8.394  -8.968  1.00  0.00     0.032 A 
HETATM   18  C19 UNL     1      61.155  -8.623  -6.752  1.00  0.00     0.076 A 
HETATM   19  C16 UNL     1      62.042  -9.747  -9.143  1.00  0.00     0.002 A 
HETATM   20  C17 UNL     1      61.617 -10.579  -8.127  1.00  0.00     0.002 A 
HETATM   21  C18 UNL     1      61.183 -10.000  -6.955  1.00  0.00     0.032 A 
HETATM   22  N5  UNL     1      60.788  -7.834  -5.736  1.00  0.00    -0.190 N 
ATOM     23  H5  UNL     1      60.427  -8.159  -4.839  1.00  0.00     0.184 HD
ENDBRANCH  11  13
ENDBRANCH  10  11
ENDBRANCH   9  10
ENDBRANCH   7   9
ENDBRANCH   4   7
BRANCH   5  24
HETATM   24  C21 UNL     1      56.986  -3.931  -9.521  1.00  0.00     0.084 C 
BRANCH  24  25
HETATM   25  C22 UNL     1      57.921  -3.598 -10.621  1.00  0.00    -0.054 A 
HETATM   26  C23 UNL     1      57.452  -3.473 -11.934  1.00  0.00     0.007 A 
HETATM   27  C24 UNL     1      58.278  -3.179 -12.998  1.00  0.00     0.001 A 
HETATM   28  C25 UNL     1      59.626  -2.991 -12.808  1.00  0.00     0.000 A 
HETATM   29  C26 UNL     1      60.122  -3.107 -11.531  1.00  0.00     0.001 A 
HETATM   30  C27 UNL     1      59.274  -3.406 -10.460  1.00  0.00     0.007 A 
ENDBRANCH  24  25
ENDBRANCH   5  24
BRANCH   6  31
HETATM   31  O1  UNL     1      54.839  -2.063  -9.891  1.00  0.00    -0.345 OA
ATOM     32  H1  UNL     1      54.091  -2.636  -9.772  1.00  0.00     0.219 HD
ENDBRANCH   6  31
BRANCH   1  33
HETATM   33  C7  UNL     1      54.355  -0.053  -8.156  1.00  0.00     0.046 A 
HETATM   34  C2  UNL     1      53.241  -0.196  -7.350  1.00  0.00    -0.035 A 
HETATM   35  C1  UNL     1      53.106  -1.231  -6.298  1.00  0.00     0.050 C 
HETATM   36  C3  UNL     1      52.197   0.679  -7.541  1.00  0.00     0.009 A 
HETATM   37  C4  UNL     1      52.257   1.670  -8.503  1.00  0.00     0.001 A 
HETATM   38  C5  UNL     1      53.363   1.798  -9.290  1.00  0.00     0.002 A 
HETATM   39  C6  UNL     1      54.402   0.937  -9.111  1.00  0.00     0.030 A 
ENDBRANCH   1  33
TORSDOF 9
ENDMDL
MODEL 4
REMARK VINA RESULT: -6.657848307      2.366      7.859
REMARK  9 active torsions:
REMARK  status: ('A' for Active; 'I' for Inactive)
REMARK    1  A    between atoms: C7_7  and  N1_8 
REMARK    2  A    between atoms: C10_11  and  N2_12 
REMARK    3  A    between atoms: N2_12  and  C11_14 
REMARK    4  A    between atoms: C11_14  and  C12_15 
REMARK    5  A    between atoms: C12_15  and  N3_16 
REMARK    6  A    between atoms: N3_16  and  C13_18 
REMARK    7  A    between atoms: C20_29  and  C21_30 
REMARK    8  A    between atoms: C21_30  and  C22_31 
REMARK    9  A    between atoms: C28_37  and  O1_38 
ROOT
HETATM    1  N1  UNL     1      56.359  -1.389 -10.823  1.00  0.00    -0.302 N 
HETATM    2  C8  UNL     1      55.779  -0.335 -11.392  1.00  0.00     0.102 A 
HETATM    3  C9  UNL     1      54.695   0.348 -10.843  1.00  0.00     0.047 A 
HETATM    4  C10 UNL     1      54.198  -0.100  -9.642  1.00  0.00     0.040 A 
HETATM    5  C20 UNL     1      54.799  -1.209  -9.026  1.00  0.00     0.024 A 
HETATM    6  C28 UNL     1      55.871  -1.820  -9.650  1.00  0.00     0.155 A 
ENDROOT
BRANCH   4   7
HETATM    7  N2  UNL     1      53.203   0.483  -9.121  1.00  0.00    -0.388 N 
ATOM      8  H2  UNL     1      52.441  -0.108  -8.788  1.00  0.00     0.159 HD
BRANCH   7   9
HETATM    9  C11 UNL     1      53.050   1.892  -8.957  1.00  0.00     0.140 C 
BRANCH   9  10
HETATM   10  C12 UNL     1      51.935   2.232  -7.974  1.00  0.00     0.157 C 
BRANCH  10  11
HETATM   11  N3  UNL     1      51.450   1.086  -7.254  1.00  0.00    -0.224 N 
ATOM     12  H3  UNL     1      50.728   0.511  -7.685  1.00  0.00     0.177 HD
BRANCH  11  13
HETATM   13  C13 UNL     1      51.889   0.753  -6.086  1.00  0.00     0.679 A 
HETATM   14  N4  UNL     1      52.599   1.481  -5.219  1.00  0.00    -0.190 N 
HETATM   15  C14 UNL     1      52.887   0.786  -4.096  1.00  0.00     0.076 A 
ATOM     16  H4  UNL     1      52.889   2.445  -5.384  1.00  0.00     0.184 HD
HETATM   17  C15 UNL     1      53.575   1.058  -2.924  1.00  0.00     0.032 A 
HETATM   18  C19 UNL     1      52.315  -0.453  -4.286  1.00  0.00     0.076 A 
HETATM   19  C16 UNL     1      53.705   0.122  -1.940  1.00  0.00     0.002 A 
HETATM   20  C17 UNL     1      53.144  -1.129  -2.097  1.00  0.00     0.002 A 
HETATM   21  C18 UNL     1      52.461  -1.389  -3.266  1.00  0.00     0.032 A 
HETATM   22  N5  UNL     1      51.719  -0.459  -5.484  1.00  0.00    -0.190 N 
ATOM     23  H5  UNL     1      51.214  -1.250  -5.885  1.00  0.00     0.184 HD
ENDBRANCH  11  13
ENDBRANCH  10  11
ENDBRANCH   9  10
ENDBRANCH   7   9
ENDBRANCH   4   7
BRANCH   5  24
HETATM   24  C21 UNL     1      54.320  -1.720  -7.746  1.00  0.00     0.084 C 
BRANCH  24  25
HETATM   25  C22 UNL     1      55.105  -1.304  -6.561  1.00  0.00    -0.054 A 
HETATM   26  C23 UNL     1      55.613  -0.003  -6.469  1.00  0.00     0.007 A 
HETATM   27  C24 UNL     1      56.361   0.435  -5.397  1.00  0.00     0.001 A 
HETATM   28  C25 UNL     1      56.644  -0.409  -4.349  1.00  0.00     0.000 A 
HETATM   29  C26 UNL     1      56.162  -1.694  -4.405  1.00  0.00     0.001 A 
HETATM   30  C27 UNL     1      55.404  -2.126  -5.499  1.00  0.00     0.007 A 
ENDBRANCH  24  25
ENDBRANCH   5  24
BRANCH   6  31
HETATM   31  O1  UNL     1      56.532  -2.933  -9.115  1.00  0.00    -0.345 OA
ATOM     32  H1  UNL     1      57.432  -3.036  -9.401  1.00  0.00     0.219 HD
ENDBRANCH   6  31
BRANCH   1  33
HETATM   33  C7  UNL     1      57.458  -2.005 -11.475  1.00  0.00     0.046 A 
HETATM   34  C2  UNL     1      58.704  -1.444 -11.265  1.00  0.00    -0.035 A 
HETATM   35  C1  UNL     1      58.945  -0.256 -10.413  1.00  0.00     0.050 C 
HETATM   36  C3  UNL     1      59.781  -2.028 -11.889  1.00  0.00     0.009 A 
HETATM   37  C4  UNL     1      59.627  -3.139 -12.698  1.00  0.00     0.001 A 
HETATM   38  C5  UNL     1      58.392  -3.681 -12.893  1.00  0.00     0.002 A 
HETATM   39  C6  UNL     1      57.318  -3.112 -12.282  1.00  0.00     0.030 A 
ENDBRANCH   1  33
TORSDOF 9
ENDMDL
MODEL 5
REMARK VINA RESULT: -6.636945676      2.285      3.479
REMARK  9 active torsions:
REMARK  status: ('A' for Active; 'I' for Inactive)
REMARK    1  A    between atoms: C7_7  and  N1_8 
REMARK    2  A    between atoms: C10_11  and  N2_12 
REMARK    3  A    between atoms: N2_12  and  C11_14 
REMARK    4  A    between atoms: C11_14  and  C12_15 
REMARK    5  A    between atoms: C12_15  and  N3_16 
REMARK    6  A    between atoms: N3_16  and  C13_18 
REMARK    7  A    between atoms: C20_29  and  C21_30 
REMARK    8  A    between atoms: C21_30  and  C22_31 
REMARK    9  A    between atoms: C28_37  and  O1_38 
ROOT
HETATM    1  N1  UNL     1      54.322  -1.007  -6.090  1.00  0.00    -0.302 N 
HETATM    2  C8  UNL     1      55.079  -1.438  -5.084  1.00  0.00     0.102 A 
HETATM    3  C9  UNL     1      56.144  -2.325  -5.234  1.00  0.00     0.047 A 
HETATM    4  C10 UNL     1      56.424  -2.780  -6.501  1.00  0.00     0.040 A 
HETATM    5  C20 UNL     1      55.637  -2.335  -7.575  1.00  0.00     0.024 A 
HETATM    6  C28 UNL     1      54.601  -1.453  -7.325  1.00  0.00     0.155 A 
ENDROOT
BRANCH   4   7
HETATM    7  N2  UNL     1      57.371  -3.601  -6.675  1.00  0.00    -0.388 N 
ATOM      8  H2  UNL     1      57.118  -4.554  -6.935  1.00  0.00     0.159 HD
BRANCH   7   9
HETATM    9  C11 UNL     1      58.763  -3.313  -6.542  1.00  0.00     0.140 C 
BRANCH   9  10
HETATM   10  C12 UNL     1      59.593  -4.583  -6.390  1.00  0.00     0.157 C 
BRANCH  10  11
HETATM   11  N3  UNL     1      60.451  -4.833  -7.515  1.00  0.00    -0.224 N 
ATOM     12  H3  UNL     1      61.313  -5.357  -7.362  1.00  0.00     0.177 HD
BRANCH  11  13
HETATM   13  C13 UNL     1      60.182  -4.424  -8.709  1.00  0.00     0.679 A 
HETATM   14  N4  UNL     1      59.151  -4.753  -9.495  1.00  0.00    -0.190 N 
HETATM   15  C14 UNL     1      59.212  -4.127 -10.691  1.00  0.00     0.076 A 
ATOM     16  H4  UNL     1      58.409  -5.399  -9.224  1.00  0.00     0.184 HD
HETATM   17  C15 UNL     1      58.426  -4.117 -11.832  1.00  0.00     0.032 A 
HETATM   18  C19 UNL     1      60.356  -3.362 -10.638  1.00  0.00     0.076 A 
HETATM   19  C16 UNL     1      58.757  -3.362 -12.920  1.00  0.00     0.002 A 
HETATM   20  C17 UNL     1      59.896  -2.583 -12.899  1.00  0.00     0.002 A 
HETATM   21  C18 UNL     1      60.670  -2.600 -11.760  1.00  0.00     0.032 A 
HETATM   22  N5  UNL     1      60.929  -3.548  -9.442  1.00  0.00    -0.190 N 
ATOM     23  H5  UNL     1      61.791  -3.104  -9.127  1.00  0.00     0.184 HD
ENDBRANCH  11  13
ENDBRANCH  10  11
ENDBRANCH   9  10
ENDBRANCH   7   9
ENDBRANCH   4   7
BRANCH   5  24
HETATM   24  C21 UNL     1      55.896  -2.776  -8.941  1.00  0.00     0.084 C 
BRANCH  24  25
HETATM   25  C22 UNL     1      56.532  -1.771  -9.826  1.00  0.00    -0.054 A 
HETATM   26  C23 UNL     1      57.701  -1.115  -9.425  1.00  0.00     0.007 A 
HETATM   27  C24 UNL     1      58.327  -0.162 -10.200  1.00  0.00     0.001 A 
HETATM   28  C25 UNL     1      57.817   0.189 -11.427  1.00  0.00     0.000 A 
HETATM   29  C26 UNL     1      56.669  -0.435 -11.853  1.00  0.00     0.001 A 
HETATM   30  C27 UNL     1      56.043  -1.400 -11.057  1.00  0.00     0.007 A 
ENDBRANCH  24  25
ENDBRANCH   5  24
BRANCH   6  31
HETATM   31  O1  UNL     1      53.762  -0.957  -8.330  1.00  0.00    -0.345 OA
ATOM     32  H1  UNL     1      53.818  -1.419  -9.158  1.00  0.00     0.219 HD
ENDBRANCH   6  31
BRANCH   1  33
HETATM   33  C7  UNL     1      53.264  -0.103  -5.818  1.00  0.00     0.046 A 
HETATM   34  C2  UNL     1      53.545   1.245  -5.944  1.00  0.00    -0.035 A 
HETATM   35  C1  UNL     1      54.867   1.782  -6.341  1.00  0.00     0.050 C 
HETATM   36  C3  UNL     1      52.530   2.136  -5.684  1.00  0.00     0.009 A 
HETATM   37  C4  UNL     1      51.271   1.703  -5.310  1.00  0.00     0.001 A 
HETATM   38  C5  UNL     1      51.011   0.370  -5.190  1.00  0.00     0.002 A 
HETATM   39  C6  UNL     1      52.006  -0.522  -5.444  1.00  0.00     0.030 A 
ENDBRANCH   1  33
TORSDOF 9
ENDMDL
