MODEL 1
REMARK VINA RESULT: -7.395801578      0.000      0.000
REMARK  8 active torsions:
REMARK  status: ('A' for Active; 'I' for Inactive)
REMARK    1  A    between atoms: N1_2  and  C2_4 
REMARK    2  A    between atoms: C2_4  and  C3_8 
REMARK    3  A    between atoms: C6_11  and  S1_12 
REMARK    4  A    between atoms: S1_12  and  N3_15 
REMARK    5  A    between atoms: N3_15  and  C7_17 
REMARK    6  A    between atoms: C10_20  and  N4_21 
REMARK    7  A    between atoms: N4_21  and  C11_22 
REMARK    8  A    between atoms: C12_23  and  C13_24 
ROOT
HETATM    1  C7  UNL     1      57.113  -1.196 -11.575  1.00  0.00     0.042 A 
HETATM    2  C8  UNL     1      57.155   0.052 -10.895  1.00  0.00     0.033 A 
HETATM    3  C9  UNL     1      56.209   0.353  -9.963  1.00  0.00     0.047 A 
HETATM    4  C10 UNL     1      55.184  -0.504  -9.624  1.00  0.00     0.107 A 
HETATM    5  C21 UNL     1      55.138  -1.714 -10.282  1.00  0.00     0.047 A 
HETATM    6  C22 UNL     1      56.097  -2.030 -11.235  1.00  0.00     0.033 A 
ENDROOT
BRANCH   1   7
HETATM    7  N3  UNL     1      58.134  -1.414 -12.522  1.00  0.00    -0.281 N 
ATOM      8  H3  UNL     1      58.217  -0.734 -13.277  1.00  0.00     0.179 HD
BRANCH   7   9
HETATM    9  S1  UNL     1      59.220  -2.681 -12.522  1.00  0.00     0.263 S 
HETATM   10  O1  UNL     1      58.622  -3.790 -13.436  1.00  0.00    -0.200 OA
HETATM   11  O2  UNL     1      60.481  -2.233 -13.253  1.00  0.00    -0.200 OA
BRANCH   9  12
HETATM   12  C6  UNL     1      59.713  -3.412 -11.064  1.00  0.00     0.079 A 
HETATM   13  C5  UNL     1      60.886  -3.269 -10.374  1.00  0.00     0.026 A 
HETATM   14  C4  UNL     1      61.139  -3.968  -9.220  1.00  0.00     0.017 A 
HETATM   15  C3  UNL     1      60.238  -4.857  -8.671  1.00  0.00     0.007 A 
HETATM   16  C24 UNL     1      59.043  -5.020  -9.350  1.00  0.00     0.017 A 
HETATM   17  C23 UNL     1      58.799  -4.320 -10.500  1.00  0.00     0.026 A 
BRANCH  15  18
HETATM   18  C2  UNL     1      60.447  -5.578  -7.441  1.00  0.00     0.104 C 
HETATM   19  N2  UNL     1      59.870  -5.349  -6.328  1.00  0.00    -0.385 N 
ATOM     20  H22 UNL     1      60.019  -5.859  -5.458  1.00  0.00     0.157 HD
ATOM     21  H21 UNL     1      59.191  -4.589  -6.374  1.00  0.00     0.157 HD
BRANCH  18  22
HETATM   22  N1  UNL     1      61.421  -6.666  -7.376  1.00  0.00    -0.380 N 
HETATM   23  C1  UNL     1      60.924  -7.858  -6.719  1.00  0.00     0.147 C 
ATOM     24  H1  UNL     1      62.364  -6.592  -7.758  1.00  0.00     0.160 HD
ENDBRANCH  18  22
ENDBRANCH  15  18
ENDBRANCH   9  12
ENDBRANCH   7   9
ENDBRANCH   1   7
BRANCH   4  25
HETATM   25  N4  UNL     1      54.311  -0.167  -8.693  1.00  0.00    -0.404 NA
BRANCH  25  26
HETATM   26  C11 UNL     1      53.560   0.170  -7.871  1.00  0.00     0.134 A 
HETATM   27  C12 UNL     1      53.321  -0.668  -6.759  1.00  0.00     0.059 A 
HETATM   28  C14 UNL     1      52.479  -0.335  -5.747  1.00  0.00     0.106 A 
HETATM   29  N5  UNL     1      51.856   0.825  -5.801  1.00  0.00    -0.364 N 
HETATM   30  C15 UNL     1      52.007   1.679  -6.791  1.00  0.00     0.045 A 
ATOM     31  H5  UNL     1      51.226   1.074  -5.039  1.00  0.00     0.165 HD
HETATM   32  C16 UNL     1      51.291   2.887  -6.777  1.00  0.00     0.030 A 
HETATM   33  C20 UNL     1      52.854   1.353  -7.823  1.00  0.00     0.032 A 
HETATM   34  C17 UNL     1      51.414   3.799  -7.796  1.00  0.00     0.002 A 
HETATM   35  C18 UNL     1      52.284   3.456  -8.842  1.00  0.00     0.001 A 
HETATM   36  C19 UNL     1      52.981   2.268  -8.845  1.00  0.00     0.017 A 
BRANCH  27  37
HETATM   37  C13 UNL     1      53.995  -1.944  -6.752  1.00  0.00     0.274 C 
HETATM   38  O3  UNL     1      54.761  -2.306  -5.809  1.00  0.00    -0.301 OA
ENDBRANCH  27  37
ENDBRANCH  25  26
ENDBRANCH   4  25
TORSDOF 8
ENDMDL
MODEL 2
REMARK VINA RESULT: -7.326947771      1.466      1.884
REMARK  8 active torsions:
REMARK  status: ('A' for Active; 'I' for Inactive)
REMARK    1  A    between atoms: N1_2  and  C2_4 
REMARK    2  A    between atoms: C2_4  and  C3_8 
REMARK    3  A    between atoms: C6_11  and  S1_12 
REMARK    4  A    between atoms: S1_12  and  N3_15 
REMARK    5  A    between atoms: N3_15  and  C7_17 
REMARK    6  A    between atoms: C10_20  and  N4_21 
REMARK    7  A    between atoms: N4_21  and  C11_22 
REMARK    8  A    between atoms: C12_23  and  C13_24 
ROOT
HETATM    1  C7  UNL     1      55.291  -1.858 -10.646  1.00  0.00     0.042 A 
HETATM    2  C8  UNL     1      54.841  -2.512  -9.466  1.00  0.00     0.033 A 
HETATM    3  C9  UNL     1      54.118  -1.826  -8.539  1.00  0.00     0.047 A 
HETATM    4  C10 UNL     1      53.778  -0.497  -8.679  1.00  0.00     0.107 A 
HETATM    5  C21 UNL     1      54.214   0.142  -9.820  1.00  0.00     0.047 A 
HETATM    6  C22 UNL     1      54.955  -0.549 -10.770  1.00  0.00     0.033 A 
ENDROOT
BRANCH   1   7
HETATM    7  N3  UNL     1      56.034  -2.652 -11.543  1.00  0.00    -0.281 N 
ATOM      8  H3  UNL     1      55.514  -3.124 -12.282  1.00  0.00     0.179 HD
BRANCH   7   9
HETATM    9  S1  UNL     1      57.685  -2.892 -11.506  1.00  0.00     0.263 S 
HETATM   10  O1  UNL     1      58.025  -3.875 -12.665  1.00  0.00    -0.200 OA
HETATM   11  O2  UNL     1      58.369  -1.590 -11.908  1.00  0.00    -0.200 OA
BRANCH   9  12
HETATM   12  C6  UNL     1      58.457  -3.456 -10.096  1.00  0.00     0.079 A 
HETATM   13  C5  UNL     1      58.401  -2.964  -8.820  1.00  0.00     0.026 A 
HETATM   14  C4  UNL     1      59.123  -3.524  -7.795  1.00  0.00     0.017 A 
HETATM   15  C3  UNL     1      59.948  -4.615  -7.970  1.00  0.00     0.007 A 
HETATM   16  C24 UNL     1      60.021  -5.132  -9.251  1.00  0.00     0.017 A 
HETATM   17  C23 UNL     1      59.300  -4.567 -10.268  1.00  0.00     0.026 A 
BRANCH  15  18
HETATM   18  C2  UNL     1      60.689  -5.257  -6.913  1.00  0.00     0.104 C 
HETATM   19  N2  UNL     1      61.830  -4.900  -6.472  1.00  0.00    -0.385 N 
ATOM     20  H22 UNL     1      62.354  -5.354  -5.724  1.00  0.00     0.157 HD
ATOM     21  H21 UNL     1      62.197  -4.064  -6.928  1.00  0.00     0.157 HD
BRANCH  18  22
HETATM   22  N1  UNL     1      60.164  -6.454  -6.260  1.00  0.00    -0.380 N 
HETATM   23  C1  UNL     1      60.860  -7.672  -6.622  1.00  0.00     0.147 C 
ATOM     24  H1  UNL     1      59.378  -6.434  -5.610  1.00  0.00     0.160 HD
ENDBRANCH  18  22
ENDBRANCH  15  18
ENDBRANCH   9  12
ENDBRANCH   7   9
ENDBRANCH   1   7
BRANCH   4  25
HETATM   25  N4  UNL     1      53.052   0.108  -7.758  1.00  0.00    -0.404 NA
BRANCH  25  26
HETATM   26  C11 UNL     1      52.387   0.658  -6.979  1.00  0.00     0.134 A 
HETATM   27  C12 UNL     1      52.116   0.044  -5.736  1.00  0.00     0.059 A 
HETATM   28  C14 UNL     1      51.370   0.632  -4.765  1.00  0.00     0.106 A 
HETATM   29  N5  UNL     1      50.875   1.832  -4.991  1.00  0.00    -0.364 N 
HETATM   30  C15 UNL     1      51.065   2.491  -6.113  1.00  0.00     0.045 A 
ATOM     31  H5  UNL     1      50.316   2.272  -4.260  1.00  0.00     0.165 HD
HETATM   32  C16 UNL     1      50.487   3.761  -6.277  1.00  0.00     0.030 A 
HETATM   33  C20 UNL     1      51.817   1.907  -7.105  1.00  0.00     0.032 A 
HETATM   34  C17 UNL     1      50.655   4.476  -7.437  1.00  0.00     0.002 A 
HETATM   35  C18 UNL     1      51.427   3.870  -8.440  1.00  0.00     0.001 A 
HETATM   36  C19 UNL     1      51.989   2.624  -8.268  1.00  0.00     0.017 A 
BRANCH  27  37
HETATM   37  C13 UNL     1      52.646  -1.283  -5.539  1.00  0.00     0.274 C 
HETATM   38  O3  UNL     1      53.184  -1.649  -4.451  1.00  0.00    -0.301 OA
ENDBRANCH  27  37
ENDBRANCH  25  26
ENDBRANCH   4  25
TORSDOF 8
ENDMDL
MODEL 3
REMARK VINA RESULT: -7.262697076      2.922      4.561
REMARK  8 active torsions:
REMARK  status: ('A' for Active; 'I' for Inactive)
REMARK    1  A    between atoms: N1_2  and  C2_4 
REMARK    2  A    between atoms: C2_4  and  C3_8 
REMARK    3  A    between atoms: C6_11  and  S1_12 
REMARK    4  A    between atoms: S1_12  and  N3_15 
REMARK    5  A    between atoms: N3_15  and  C7_17 
REMARK    6  A    between atoms: C10_20  and  N4_21 
REMARK    7  A    between atoms: N4_21  and  C11_22 
REMARK    8  A    between atoms: C12_23  and  C13_24 
ROOT
HETATM    1  C7  UNL     1      56.072  -2.682  -9.793  1.00  0.00     0.042 A 
HETATM    2  C8  UNL     1      54.964  -2.017 -10.386  1.00  0.00     0.033 A 
HETATM    3  C9  UNL     1      54.121  -1.274  -9.617  1.00  0.00     0.047 A 
HETATM    4  C10 UNL     1      54.282  -1.118  -8.256  1.00  0.00     0.107 A 
HETATM    5  C21 UNL     1      55.353  -1.763  -7.677  1.00  0.00     0.047 A 
HETATM    6  C22 UNL     1      56.217  -2.524  -8.453  1.00  0.00     0.033 A 
ENDROOT
BRANCH   1   7
HETATM    7  N3  UNL     1      56.884  -3.426 -10.672  1.00  0.00    -0.281 N 
ATOM      8  H3  UNL     1      56.674  -4.420 -10.766  1.00  0.00     0.179 HD
BRANCH   7   9
HETATM    9  S1  UNL     1      58.157  -2.833 -11.574  1.00  0.00     0.263 S 
HETATM   10  O1  UNL     1      59.364  -3.786 -11.334  1.00  0.00    -0.200 OA
HETATM   11  O2  UNL     1      57.824  -3.013 -13.051  1.00  0.00    -0.200 OA
BRANCH   9  12
HETATM   12  C6  UNL     1      58.704  -1.232 -11.369  1.00  0.00     0.079 A 
HETATM   13  C5  UNL     1      59.921  -0.780 -10.937  1.00  0.00     0.026 A 
HETATM   14  C4  UNL     1      60.187   0.560 -10.794  1.00  0.00     0.017 A 
HETATM   15  C3  UNL     1      59.259   1.541 -11.074  1.00  0.00     0.007 A 
HETATM   16  C24 UNL     1      58.020   1.109 -11.513  1.00  0.00     0.017 A 
HETATM   17  C23 UNL     1      57.762  -0.227 -11.652  1.00  0.00     0.026 A 
BRANCH  15  18
HETATM   18  C2  UNL     1      59.513   2.957 -10.976  1.00  0.00     0.104 C 
HETATM   19  N2  UNL     1      59.403   3.806 -11.920  1.00  0.00    -0.385 N 
ATOM     20  H22 UNL     1      59.582   4.808 -11.851  1.00  0.00     0.157 HD
ATOM     21  H21 UNL     1      59.081   3.397 -12.798  1.00  0.00     0.157 HD
BRANCH  18  22
HETATM   22  N1  UNL     1      59.973   3.543  -9.720  1.00  0.00    -0.380 N 
HETATM   23  C1  UNL     1      59.023   3.420  -8.633  1.00  0.00     0.147 C 
ATOM     24  H1  UNL     1      60.881   3.996  -9.616  1.00  0.00     0.160 HD
ENDBRANCH  18  22
ENDBRANCH  15  18
ENDBRANCH   9  12
ENDBRANCH   7   9
ENDBRANCH   1   7
BRANCH   4  25
HETATM   25  N4  UNL     1      53.447  -0.364  -7.567  1.00  0.00    -0.404 NA
BRANCH  25  26
HETATM   26  C11 UNL     1      52.727   0.336  -6.980  1.00  0.00     0.134 A 
HETATM   27  C12 UNL     1      52.216  -0.079  -5.730  1.00  0.00     0.059 A 
HETATM   28  C14 UNL     1      51.391   0.691  -4.974  1.00  0.00     0.106 A 
HETATM   29  N5  UNL     1      51.050   1.881  -5.425  1.00  0.00    -0.364 N 
HETATM   30  C15 UNL     1      51.468   2.363  -6.576  1.00  0.00     0.045 A 
ATOM     31  H5  UNL     1      50.432   2.458  -4.855  1.00  0.00     0.165 HD
HETATM   32  C16 UNL     1      51.043   3.636  -6.988  1.00  0.00     0.030 A 
HETATM   33  C20 UNL     1      52.302   1.594  -7.352  1.00  0.00     0.032 A 
HETATM   34  C17 UNL     1      51.450   4.169  -8.186  1.00  0.00     0.002 A 
HETATM   35  C18 UNL     1      52.303   3.376  -8.968  1.00  0.00     0.001 A 
HETATM   36  C19 UNL     1      52.714   2.128  -8.553  1.00  0.00     0.017 A 
BRANCH  27  37
HETATM   37  C13 UNL     1      52.584  -1.401  -5.285  1.00  0.00     0.274 C 
HETATM   38  O3  UNL     1      52.389  -1.801  -4.098  1.00  0.00    -0.301 OA
ENDBRANCH  27  37
ENDBRANCH  25  26
ENDBRANCH   4  25
TORSDOF 8
ENDMDL
MODEL 4
REMARK VINA RESULT: -7.240545728      1.104      1.469
REMARK  8 active torsions:
REMARK  status: ('A' for Active; 'I' for Inactive)
REMARK    1  A    between atoms: N1_2  and  C2_4 
REMARK    2  A    between atoms: C2_4  and  C3_8 
REMARK    3  A    between atoms: C6_11  and  S1_12 
REMARK    4  A    between atoms: S1_12  and  N3_15 
REMARK    5  A    between atoms: N3_15  and  C7_17 
REMARK    6  A    between atoms: C10_20  and  N4_21 
REMARK    7  A    between atoms: N4_21  and  C11_22 
REMARK    8  A    between atoms: C12_23  and  C13_24 
ROOT
HETATM    1  C7  UNL     1      55.689  -2.148 -11.017  1.00  0.00     0.042 A 
HETATM    2  C8  UNL     1      55.240  -2.807  -9.839  1.00  0.00     0.033 A 
HETATM    3  C9  UNL     1      54.531  -2.120  -8.901  1.00  0.00     0.047 A 
HETATM    4  C10 UNL     1      54.207  -0.786  -9.028  1.00  0.00     0.107 A 
HETATM    5  C21 UNL     1      54.642  -0.143 -10.166  1.00  0.00     0.047 A 
HETATM    6  C22 UNL     1      55.367  -0.834 -11.128  1.00  0.00     0.033 A 
ENDROOT
BRANCH   1   7
HETATM    7  N3  UNL     1      56.415  -2.944 -11.926  1.00  0.00    -0.281 N 
ATOM      8  H3  UNL     1      55.887  -3.628 -12.467  1.00  0.00     0.179 HD
BRANCH   7   9
HETATM    9  S1  UNL     1      58.060  -2.870 -12.199  1.00  0.00     0.263 S 
HETATM   10  O1  UNL     1      58.328  -3.601 -13.547  1.00  0.00    -0.200 OA
HETATM   11  O2  UNL     1      58.436  -1.419 -12.479  1.00  0.00    -0.200 OA
BRANCH   9  12
HETATM   12  C6  UNL     1      59.166  -3.467 -11.049  1.00  0.00     0.079 A 
HETATM   13  C5  UNL     1      60.481  -3.137 -10.856  1.00  0.00     0.026 A 
HETATM   14  C4  UNL     1      61.248  -3.748  -9.895  1.00  0.00     0.017 A 
HETATM   15  C3  UNL     1      60.757  -4.727  -9.057  1.00  0.00     0.007 A 
HETATM   16  C24 UNL     1      59.431  -5.079  -9.231  1.00  0.00     0.017 A 
HETATM   17  C23 UNL     1      58.673  -4.467 -10.193  1.00  0.00     0.026 A 
BRANCH  15  18
HETATM   18  C2  UNL     1      61.517  -5.363  -8.009  1.00  0.00     0.104 C 
HETATM   19  N2  UNL     1      62.788  -5.424  -7.935  1.00  0.00    -0.385 N 
ATOM     20  H22 UNL     1      63.325  -5.873  -7.194  1.00  0.00     0.157 HD
ATOM     21  H21 UNL     1      63.262  -4.943  -8.700  1.00  0.00     0.157 HD
BRANCH  18  22
HETATM   22  N1  UNL     1      60.838  -6.051  -6.915  1.00  0.00    -0.380 N 
HETATM   23  C1  UNL     1      61.189  -7.452  -6.796  1.00  0.00     0.147 C 
ATOM     24  H1  UNL     1      60.177  -5.588  -6.290  1.00  0.00     0.160 HD
ENDBRANCH  18  22
ENDBRANCH  15  18
ENDBRANCH   9  12
ENDBRANCH   7   9
ENDBRANCH   1   7
BRANCH   4  25
HETATM   25  N4  UNL     1      53.494  -0.180  -8.096  1.00  0.00    -0.404 NA
BRANCH  25  26
HETATM   26  C11 UNL     1      52.833   0.355  -7.304  1.00  0.00     0.134 A 
HETATM   27  C12 UNL     1      52.568  -0.282  -6.071  1.00  0.00     0.059 A 
HETATM   28  C14 UNL     1      51.826   0.288  -5.087  1.00  0.00     0.106 A 
HETATM   29  N5  UNL     1      51.330   1.492  -5.287  1.00  0.00    -0.364 N 
HETATM   30  C15 UNL     1      51.516   2.172  -6.398  1.00  0.00     0.045 A 
ATOM     31  H5  UNL     1      50.775   1.918  -4.546  1.00  0.00     0.165 HD
HETATM   32  C16 UNL     1      50.937   3.444  -6.535  1.00  0.00     0.030 A 
HETATM   33  C20 UNL     1      52.262   1.606  -7.404  1.00  0.00     0.032 A 
HETATM   34  C17 UNL     1      51.099   4.180  -7.683  1.00  0.00     0.002 A 
HETATM   35  C18 UNL     1      51.866   3.593  -8.700  1.00  0.00     0.001 A 
HETATM   36  C19 UNL     1      52.429   2.345  -8.555  1.00  0.00     0.017 A 
BRANCH  27  37
HETATM   37  C13 UNL     1      53.099  -1.613  -5.902  1.00  0.00     0.274 C 
HETATM   38  O3  UNL     1      54.166  -1.845  -5.256  1.00  0.00    -0.301 OA
ENDBRANCH  27  37
ENDBRANCH  25  26
ENDBRANCH   4  25
TORSDOF 8
ENDMDL
MODEL 5
REMARK VINA RESULT: -7.176912599      2.895      4.823
REMARK  8 active torsions:
REMARK  status: ('A' for Active; 'I' for Inactive)
REMARK    1  A    between atoms: N1_2  and  C2_4 
REMARK    2  A    between atoms: C2_4  and  C3_8 
REMARK    3  A    between atoms: C6_11  and  S1_12 
REMARK    4  A    between atoms: S1_12  and  N3_15 
REMARK    5  A    between atoms: N3_15  and  C7_17 
REMARK    6  A    between atoms: C10_20  and  N4_21 
REMARK    7  A    between atoms: N4_21  and  C11_22 
REMARK    8  A    between atoms: C12_23  and  C13_24 
ROOT
HETATM    1  C7  UNL     1      55.962  -2.893  -9.238  1.00  0.00     0.042 A 
HETATM    2  C8  UNL     1      54.937  -2.131  -9.864  1.00  0.00     0.033 A 
HETATM    3  C9  UNL     1      54.095  -1.371  -9.110  1.00  0.00     0.047 A 
HETATM    4  C10 UNL     1      54.179  -1.288  -7.737  1.00  0.00     0.107 A 
HETATM    5  C21 UNL     1      55.168  -2.027  -7.126  1.00  0.00     0.047 A 
HETATM    6  C22 UNL     1      56.031  -2.806  -7.885  1.00  0.00     0.033 A 
ENDROOT
BRANCH   1   7
HETATM    7  N3  UNL     1      56.780  -3.647 -10.103  1.00  0.00    -0.281 N 
ATOM      8  H3  UNL     1      56.666  -4.661 -10.081  1.00  0.00     0.179 HD
BRANCH   7   9
HETATM    9  S1  UNL     1      57.920  -3.037 -11.158  1.00  0.00     0.263 S 
HETATM   10  O1  UNL     1      59.231  -3.845 -10.925  1.00  0.00    -0.200 OA
HETATM   11  O2  UNL     1      57.503  -3.402 -12.579  1.00  0.00    -0.200 OA
BRANCH   9  12
HETATM   12  C6  UNL     1      58.317  -1.380 -11.156  1.00  0.00     0.079 A 
HETATM   13  C5  UNL     1      57.547  -0.303 -11.502  1.00  0.00     0.026 A 
HETATM   14  C4  UNL     1      58.040   0.978 -11.477  1.00  0.00     0.017 A 
HETATM   15  C3  UNL     1      59.334   1.275 -11.102  1.00  0.00     0.007 A 
HETATM   16  C24 UNL     1      60.133   0.203 -10.746  1.00  0.00     0.017 A 
HETATM   17  C23 UNL     1      59.635  -1.072 -10.775  1.00  0.00     0.026 A 
BRANCH  15  18
HETATM   18  C2  UNL     1      59.877   2.608 -11.022  1.00  0.00     0.104 C 
HETATM   19  N2  UNL     1      60.812   2.993 -10.246  1.00  0.00    -0.385 N 
ATOM     20  H22 UNL     1      61.195   3.936 -10.190  1.00  0.00     0.157 HD
ATOM     21  H21 UNL     1      61.191   2.244  -9.666  1.00  0.00     0.157 HD
BRANCH  18  22
HETATM   22  N1  UNL     1      59.334   3.680 -11.852  1.00  0.00    -0.380 N 
HETATM   23  C1  UNL     1      59.802   5.001 -11.484  1.00  0.00     0.147 C 
ATOM     24  H1  UNL     1      58.684   3.514 -12.621  1.00  0.00     0.160 HD
ENDBRANCH  18  22
ENDBRANCH  15  18
ENDBRANCH   9  12
ENDBRANCH   7   9
ENDBRANCH   1   7
BRANCH   4  25
HETATM   25  N4  UNL     1      53.350  -0.513  -7.062  1.00  0.00    -0.404 NA
BRANCH  25  26
HETATM   26  C11 UNL     1      52.625   0.200  -6.499  1.00  0.00     0.134 A 
HETATM   27  C12 UNL     1      52.152  -0.157  -5.216  1.00  0.00     0.059 A 
HETATM   28  C14 UNL     1      51.324   0.633  -4.485  1.00  0.00     0.106 A 
HETATM   29  N5  UNL     1      50.943   1.788  -4.993  1.00  0.00    -0.364 N 
HETATM   30  C15 UNL     1      51.324   2.215  -6.178  1.00  0.00     0.045 A 
ATOM     31  H5  UNL     1      50.323   2.380  -4.441  1.00  0.00     0.165 HD
HETATM   32  C16 UNL     1      50.857   3.453  -6.650  1.00  0.00     0.030 A 
HETATM   33  C20 UNL     1      52.160   1.425  -6.929  1.00  0.00     0.032 A 
HETATM   34  C17 UNL     1      51.224   3.928  -7.885  1.00  0.00     0.002 A 
HETATM   35  C18 UNL     1      52.081   3.113  -8.640  1.00  0.00     0.001 A 
HETATM   36  C19 UNL     1      52.532   1.901  -8.167  1.00  0.00     0.017 A 
BRANCH  27  37
HETATM   37  C13 UNL     1      52.563  -1.443  -4.708  1.00  0.00     0.274 C 
HETATM   38  O3  UNL     1      52.205  -1.874  -3.570  1.00  0.00    -0.301 OA
ENDBRANCH  27  37
ENDBRANCH  25  26
ENDBRANCH   4  25
TORSDOF 8
ENDMDL
