MODEL 1
REMARK VINA RESULT: -7.534691242      0.000      0.000
REMARK  8 active torsions:
REMARK  status: ('A' for Active; 'I' for Inactive)
REMARK    1  A    between atoms: O1_2  and  C2_3 
REMARK    2  A    between atoms: C5_6  and  N1_7 
REMARK    3  A    between atoms: C7_12  and  N3_13 
REMARK    4  A    between atoms: N3_13  and  C8_15 
REMARK    5  A    between atoms: C8_15  and  C9_16 
REMARK    6  A    between atoms: C9_16  and  C10_17 
REMARK    7  A    between atoms: C18_29  and  N6_30 
REMARK    8  A    between atoms: N6_30  and  C19_31 
ROOT
HETATM    1  N1  UNL     1      55.168  -0.177 -10.155  1.00  0.00    -0.191 N 
ATOM      2  H1  UNL     1      54.788  -1.043 -10.537  1.00  0.00     0.184 HD
HETATM    3  C6  UNL     1      56.271  -0.065 -10.692  1.00  0.00     0.700 A 
HETATM    4  N2  UNL     1      56.640  -1.056 -11.580  1.00  0.00    -0.022 N 
ATOM      5  H2  UNL     1      55.985  -1.820 -11.746  1.00  0.00     0.203 HD
HETATM    6  C7  UNL     1      57.808  -1.072 -12.236  1.00  0.00     0.696 A 
HETATM    7  N5  UNL     1      58.666  -0.071 -12.021  1.00  0.00    -0.148 N 
ATOM      8  H5  UNL     1      59.557  -0.076 -12.517  1.00  0.00     0.188 HD
HETATM    9  C18 UNL     1      58.394   0.967 -11.155  1.00  0.00     0.288 A 
HETATM   10  N7  UNL     1      57.173   0.890 -10.532  1.00  0.00    -0.148 N 
ATOM     11  H7  UNL     1      56.938   1.641  -9.884  1.00  0.00     0.188 HD
ENDROOT
BRANCH   6  12
HETATM   12  N3  UNL     1      58.091  -2.026 -13.050  1.00  0.00    -0.225 N 
ATOM     13  H3  UNL     1      57.598  -2.075 -13.942  1.00  0.00     0.177 HD
BRANCH  12  14
HETATM   14  C8  UNL     1      59.070  -3.019 -12.750  1.00  0.00     0.142 C 
BRANCH  14  15
HETATM   15  C9  UNL     1      58.451  -4.110 -11.898  1.00  0.00     0.061 C 
BRANCH  15  16
HETATM   16  C10 UNL     1      58.746  -3.959 -10.465  1.00  0.00    -0.029 A 
HETATM   17  C11 UNL     1      59.987  -3.994  -9.901  1.00  0.00     0.096 A 
HETATM   18  N4  UNL     1      59.846  -3.819  -8.570  1.00  0.00    -0.365 N 
HETATM   19  C12 UNL     1      58.533  -3.671  -8.269  1.00  0.00     0.042 A 
ATOM     20  H4  UNL     1      60.610  -3.802  -7.894  1.00  0.00     0.165 HD
HETATM   21  C13 UNL     1      57.852  -3.469  -7.094  1.00  0.00     0.030 A 
HETATM   22  C17 UNL     1      57.820  -3.758  -9.466  1.00  0.00    -0.002 A 
HETATM   23  C14 UNL     1      56.493  -3.348  -7.039  1.00  0.00     0.002 A 
HETATM   24  C15 UNL     1      55.785  -3.432  -8.216  1.00  0.00     0.001 A 
HETATM   25  C16 UNL     1      56.441  -3.636  -9.419  1.00  0.00     0.014 A 
ENDBRANCH  15  16
ENDBRANCH  14  15
ENDBRANCH  12  14
ENDBRANCH   6  12
BRANCH   9  26
HETATM   26  N6  UNL     1      59.187   1.863 -10.978  1.00  0.00    -0.370 NA
BRANCH  26  27
HETATM   27  C19 UNL     1      60.044   2.846 -10.948  1.00  0.00     0.111 A 
HETATM   28  C20 UNL     1      59.710   4.105 -11.489  1.00  0.00     0.045 A 
HETATM   29  C21 UNL     1      60.596   5.122 -11.456  1.00  0.00     0.003 A 
HETATM   30  C22 UNL     1      61.838   4.952 -10.892  1.00  0.00     0.000 A 
HETATM   31  C23 UNL     1      62.194   3.735 -10.354  1.00  0.00     0.003 A 
HETATM   32  C24 UNL     1      61.333   2.698 -10.372  1.00  0.00     0.045 A 
ENDBRANCH  26  27
ENDBRANCH   9  26
BRANCH   1  33
HETATM   33  C5  UNL     1      54.222   0.263  -9.326  1.00  0.00     0.049 A 
HETATM   34  C4  UNL     1      53.803  -0.388  -8.196  1.00  0.00     0.033 A 
HETATM   35  C3  UNL     1      52.812   0.149  -7.391  1.00  0.00     0.039 A 
HETATM   36  C2  UNL     1      52.221   1.336  -7.689  1.00  0.00     0.068 A 
HETATM   37  C26 UNL     1      52.620   2.023  -8.825  1.00  0.00     0.039 A 
HETATM   38  C25 UNL     1      53.581   1.509  -9.611  1.00  0.00     0.033 A 
BRANCH  36  39
HETATM   39  O1  UNL     1      51.235   1.856  -6.876  1.00  0.00    -0.356 OA
HETATM   40  C1  UNL     1      51.319   1.663  -5.478  1.00  0.00     0.210 C 
ENDBRANCH  36  39
ENDBRANCH   1  33
TORSDOF 8
ENDMDL
MODEL 2
REMARK VINA RESULT: -7.225899185      1.705      3.015
REMARK  8 active torsions:
REMARK  status: ('A' for Active; 'I' for Inactive)
REMARK    1  A    between atoms: O1_2  and  C2_3 
REMARK    2  A    between atoms: C5_6  and  N1_7 
REMARK    3  A    between atoms: C7_12  and  N3_13 
REMARK    4  A    between atoms: N3_13  and  C8_15 
REMARK    5  A    between atoms: C8_15  and  C9_16 
REMARK    6  A    between atoms: C9_16  and  C10_17 
REMARK    7  A    between atoms: C18_29  and  N6_30 
REMARK    8  A    between atoms: N6_30  and  C19_31 
ROOT
HETATM    1  N1  UNL     1      54.082  -0.030  -9.412  1.00  0.00    -0.191 N 
ATOM      2  H1  UNL     1      53.578  -0.907  -9.547  1.00  0.00     0.184 HD
HETATM    3  C6  UNL     1      55.145  -0.193 -10.013  1.00  0.00     0.700 A 
HETATM    4  N2  UNL     1      55.329  -1.409 -10.643  1.00  0.00    -0.022 N 
ATOM      5  H2  UNL     1      54.582  -2.100 -10.581  1.00  0.00     0.203 HD
HETATM    6  C7  UNL     1      56.433  -1.732 -11.329  1.00  0.00     0.696 A 
HETATM    7  N5  UNL     1      57.413  -0.829 -11.412  1.00  0.00    -0.148 N 
ATOM      8  H5  UNL     1      58.256  -1.067 -11.933  1.00  0.00     0.188 HD
HETATM    9  C18 UNL     1      57.327   0.415 -10.819  1.00  0.00     0.288 A 
HETATM   10  N7  UNL     1      56.158   0.648 -10.139  1.00  0.00    -0.148 N 
ATOM     11  H7  UNL     1      56.061   1.557  -9.688  1.00  0.00     0.188 HD
ENDROOT
BRANCH   6  12
HETATM   12  N3  UNL     1      56.542  -2.883 -11.893  1.00  0.00    -0.225 N 
ATOM     13  H3  UNL     1      55.738  -3.510 -11.890  1.00  0.00     0.177 HD
BRANCH  12  14
HETATM   14  C8  UNL     1      57.748  -3.313 -12.521  1.00  0.00     0.142 C 
BRANCH  14  15
HETATM   15  C9  UNL     1      58.501  -4.252 -11.598  1.00  0.00     0.061 C 
BRANCH  15  16
HETATM   16  C10 UNL     1      59.654  -3.615 -10.943  1.00  0.00    -0.029 A 
HETATM   17  C11 UNL     1      59.987  -3.735  -9.627  1.00  0.00     0.096 A 
HETATM   18  N4  UNL     1      61.102  -3.005  -9.410  1.00  0.00    -0.365 N 
HETATM   19  C12 UNL     1      61.491  -2.418 -10.568  1.00  0.00     0.042 A 
ATOM     20  H4  UNL     1      61.578  -2.910  -8.513  1.00  0.00     0.165 HD
HETATM   21  C13 UNL     1      62.535  -1.591 -10.900  1.00  0.00     0.030 A 
HETATM   22  C17 UNL     1      60.578  -2.797 -11.553  1.00  0.00    -0.002 A 
HETATM   23  C14 UNL     1      62.727  -1.114 -12.165  1.00  0.00     0.002 A 
HETATM   24  C15 UNL     1      61.830  -1.484 -13.142  1.00  0.00     0.001 A 
HETATM   25  C16 UNL     1      60.765  -2.318 -12.839  1.00  0.00     0.014 A 
ENDBRANCH  15  16
ENDBRANCH  14  15
ENDBRANCH  12  14
ENDBRANCH   6  12
BRANCH   9  26
HETATM   26  N6  UNL     1      58.228   1.217 -10.910  1.00  0.00    -0.370 NA
BRANCH  26  27
HETATM   27  C19 UNL     1      59.282   1.986 -10.909  1.00  0.00     0.111 A 
HETATM   28  C20 UNL     1      60.522   1.503 -10.441  1.00  0.00     0.045 A 
HETATM   29  C21 UNL     1      61.611   2.297 -10.443  1.00  0.00     0.003 A 
HETATM   30  C22 UNL     1      61.535   3.591 -10.901  1.00  0.00     0.000 A 
HETATM   31  C23 UNL     1      60.340   4.093 -11.365  1.00  0.00     0.003 A 
HETATM   32  C24 UNL     1      59.232   3.326 -11.376  1.00  0.00     0.045 A 
ENDBRANCH  26  27
ENDBRANCH   9  26
BRANCH   1  33
HETATM   33  C5  UNL     1      53.259   0.714  -8.674  1.00  0.00     0.049 A 
HETATM   34  C4  UNL     1      52.688   0.319  -7.494  1.00  0.00     0.033 A 
HETATM   35  C3  UNL     1      51.845   1.166  -6.793  1.00  0.00     0.039 A 
HETATM   36  C2  UNL     1      51.554   2.414  -7.246  1.00  0.00     0.068 A 
HETATM   37  C26 UNL     1      52.115   2.847  -8.437  1.00  0.00     0.039 A 
HETATM   38  C25 UNL     1      52.934   2.033  -9.123  1.00  0.00     0.033 A 
BRANCH  36  39
HETATM   39  O1  UNL     1      50.712   3.244  -6.534  1.00  0.00    -0.356 OA
HETATM   40  C1  UNL     1      50.354   2.895  -5.211  1.00  0.00     0.210 C 
ENDBRANCH  36  39
ENDBRANCH   1  33
TORSDOF 8
ENDMDL
MODEL 3
REMARK VINA RESULT: -7.157528706      4.019      7.260
REMARK  8 active torsions:
REMARK  status: ('A' for Active; 'I' for Inactive)
REMARK    1  A    between atoms: O1_2  and  C2_3 
REMARK    2  A    between atoms: C5_6  and  N1_7 
REMARK    3  A    between atoms: C7_12  and  N3_13 
REMARK    4  A    between atoms: N3_13  and  C8_15 
REMARK    5  A    between atoms: C8_15  and  C9_16 
REMARK    6  A    between atoms: C9_16  and  C10_17 
REMARK    7  A    between atoms: C18_29  and  N6_30 
REMARK    8  A    between atoms: N6_30  and  C19_31 
ROOT
HETATM    1  N1  UNL     1      52.184   0.299  -5.709  1.00  0.00    -0.191 N 
ATOM      2  H1  UNL     1      52.704  -0.497  -6.078  1.00  0.00     0.184 HD
HETATM    3  C6  UNL     1      52.214   1.130  -6.618  1.00  0.00     0.700 A 
HETATM    4  N2  UNL     1      52.883   0.773  -7.773  1.00  0.00    -0.022 N 
ATOM      5  H2  UNL     1      53.310  -0.152  -7.814  1.00  0.00     0.203 HD
HETATM    6  C7  UNL     1      53.003   1.572  -8.841  1.00  0.00     0.696 A 
HETATM    7  N5  UNL     1      52.444   2.783  -8.790  1.00  0.00    -0.148 N 
ATOM      8  H5  UNL     1      52.531   3.398  -9.600  1.00  0.00     0.188 HD
HETATM    9  C18 UNL     1      51.754   3.236  -7.684  1.00  0.00     0.288 A 
HETATM   10  N7  UNL     1      51.688   2.344  -6.644  1.00  0.00    -0.148 N 
ATOM     11  H7  UNL     1      51.186   2.646  -5.809  1.00  0.00     0.188 HD
ENDROOT
BRANCH   6  12
HETATM   12  N3  UNL     1      53.640   1.178  -9.886  1.00  0.00    -0.225 N 
ATOM     13  H3  UNL     1      53.323   1.492 -10.804  1.00  0.00     0.177 HD
BRANCH  12  14
HETATM   14  C8  UNL     1      54.776   0.318  -9.809  1.00  0.00     0.142 C 
BRANCH  14  15
HETATM   15  C9  UNL     1      54.513  -0.951 -10.598  1.00  0.00     0.061 C 
BRANCH  15  16
HETATM   16  C10 UNL     1      55.392  -2.064 -10.210  1.00  0.00    -0.029 A 
HETATM   17  C11 UNL     1      55.244  -2.844  -9.102  1.00  0.00     0.096 A 
HETATM   18  N4  UNL     1      56.244  -3.751  -9.094  1.00  0.00    -0.365 N 
HETATM   19  C12 UNL     1      57.032  -3.566 -10.181  1.00  0.00     0.042 A 
ATOM     20  H4  UNL     1      56.385  -4.465  -8.380  1.00  0.00     0.165 HD
HETATM   21  C13 UNL     1      58.159  -4.198 -10.647  1.00  0.00     0.030 A 
HETATM   22  C17 UNL     1      56.502  -2.495 -10.901  1.00  0.00    -0.002 A 
HETATM   23  C14 UNL     1      58.794  -3.824 -11.796  1.00  0.00     0.002 A 
HETATM   24  C15 UNL     1      58.276  -2.768 -12.511  1.00  0.00     0.001 A 
HETATM   25  C16 UNL     1      57.140  -2.108 -12.068  1.00  0.00     0.014 A 
ENDBRANCH  15  16
ENDBRANCH  14  15
ENDBRANCH  12  14
ENDBRANCH   6  12
BRANCH   9  26
HETATM   26  N6  UNL     1      51.255   4.338  -7.663  1.00  0.00    -0.370 NA
BRANCH  26  27
HETATM   27  C19 UNL     1      50.693   5.501  -7.483  1.00  0.00     0.111 A 
HETATM   28  C20 UNL     1      49.311   5.597  -7.217  1.00  0.00     0.045 A 
HETATM   29  C21 UNL     1      48.732   6.800  -7.029  1.00  0.00     0.003 A 
HETATM   30  C22 UNL     1      49.476   7.955  -7.091  1.00  0.00     0.000 A 
HETATM   31  C23 UNL     1      50.827   7.895  -7.348  1.00  0.00     0.003 A 
HETATM   32  C24 UNL     1      51.437   6.709  -7.541  1.00  0.00     0.045 A 
ENDBRANCH  26  27
ENDBRANCH   9  26
BRANCH   1  33
HETATM   33  C5  UNL     1      51.814  -0.083  -4.488  1.00  0.00     0.049 A 
HETATM   34  C4  UNL     1      50.741   0.417  -3.800  1.00  0.00     0.033 A 
HETATM   35  C3  UNL     1      50.430  -0.045  -2.531  1.00  0.00     0.039 A 
HETATM   36  C2  UNL     1      51.174  -1.006  -1.924  1.00  0.00     0.068 A 
HETATM   37  C26 UNL     1      52.268  -1.535  -2.590  1.00  0.00     0.039 A 
HETATM   38  C25 UNL     1      52.576  -1.093  -3.821  1.00  0.00     0.033 A 
BRANCH  36  39
HETATM   39  O1  UNL     1      50.850  -1.454  -0.659  1.00  0.00    -0.356 OA
HETATM   40  C1  UNL     1      49.490  -1.619  -0.312  1.00  0.00     0.210 C 
ENDBRANCH  36  39
ENDBRANCH   1  33
TORSDOF 8
ENDMDL
MODEL 4
REMARK VINA RESULT: -7.147380420      2.136      6.176
REMARK  8 active torsions:
REMARK  status: ('A' for Active; 'I' for Inactive)
REMARK    1  A    between atoms: O1_2  and  C2_3 
REMARK    2  A    between atoms: C5_6  and  N1_7 
REMARK    3  A    between atoms: C7_12  and  N3_13 
REMARK    4  A    between atoms: N3_13  and  C8_15 
REMARK    5  A    between atoms: C8_15  and  C9_16 
REMARK    6  A    between atoms: C9_16  and  C10_17 
REMARK    7  A    between atoms: C18_29  and  N6_30 
REMARK    8  A    between atoms: N6_30  and  C19_31 
ROOT
HETATM    1  N1  UNL     1      59.423   1.831 -11.138  1.00  0.00    -0.191 N 
ATOM      2  H1  UNL     1      60.107   1.423 -11.775  1.00  0.00     0.184 HD
HETATM    3  C6  UNL     1      58.480   1.039 -11.155  1.00  0.00     0.700 A 
HETATM    4  N2  UNL     1      58.612  -0.076 -11.960  1.00  0.00    -0.022 N 
ATOM      5  H2  UNL     1      59.476  -0.187 -12.490  1.00  0.00     0.203 HD
HETATM    6  C7  UNL     1      57.671  -1.021 -12.084  1.00  0.00     0.696 A 
HETATM    7  N5  UNL     1      56.538  -0.880 -11.390  1.00  0.00    -0.148 N 
ATOM      8  H5  UNL     1      55.817  -1.595 -11.479  1.00  0.00     0.188 HD
HETATM    9  C18 UNL     1      56.307   0.196 -10.558  1.00  0.00     0.288 A 
HETATM   10  N7  UNL     1      57.332   1.108 -10.501  1.00  0.00    -0.148 N 
ATOM     11  H7  UNL     1      57.195   1.917  -9.896  1.00  0.00     0.188 HD
ENDROOT
BRANCH   6  12
HETATM   12  N3  UNL     1      57.856  -2.036 -12.851  1.00  0.00    -0.225 N 
ATOM     13  H3  UNL     1      57.192  -2.211 -13.606  1.00  0.00     0.177 HD
BRANCH  12  14
HETATM   14  C8  UNL     1      58.958  -2.927 -12.686  1.00  0.00     0.142 C 
BRANCH  14  15
HETATM   15  C9  UNL     1      58.529  -4.127 -11.863  1.00  0.00     0.061 C 
BRANCH  15  16
HETATM   16  C10 UNL     1      58.783  -3.960 -10.425  1.00  0.00    -0.029 A 
HETATM   17  C11 UNL     1      60.008  -3.974  -9.827  1.00  0.00     0.096 A 
HETATM   18  N4  UNL     1      59.828  -3.790  -8.501  1.00  0.00    -0.365 N 
HETATM   19  C12 UNL     1      58.505  -3.659  -8.238  1.00  0.00     0.042 A 
ATOM     20  H4  UNL     1      60.573  -3.756  -7.806  1.00  0.00     0.165 HD
HETATM   21  C13 UNL     1      57.790  -3.457  -7.084  1.00  0.00     0.030 A 
HETATM   22  C17 UNL     1      57.827  -3.765  -9.453  1.00  0.00    -0.002 A 
HETATM   23  C14 UNL     1      56.429  -3.355  -7.066  1.00  0.00     0.002 A 
HETATM   24  C15 UNL     1      55.754  -3.459  -8.261  1.00  0.00     0.001 A 
HETATM   25  C16 UNL     1      56.446  -3.662  -9.445  1.00  0.00     0.014 A 
ENDBRANCH  15  16
ENDBRANCH  14  15
ENDBRANCH  12  14
ENDBRANCH   6  12
BRANCH   9  26
HETATM   26  N6  UNL     1      55.274   0.301  -9.938  1.00  0.00    -0.370 NA
BRANCH  26  27
HETATM   27  C19 UNL     1      54.241   0.508  -9.168  1.00  0.00     0.111 A 
HETATM   28  C20 UNL     1      54.024  -0.295  -8.029  1.00  0.00     0.045 A 
HETATM   29  C21 UNL     1      52.957  -0.080  -7.233  1.00  0.00     0.003 A 
HETATM   30  C22 UNL     1      52.063   0.926  -7.514  1.00  0.00     0.000 A 
HETATM   31  C23 UNL     1      52.248   1.728  -8.618  1.00  0.00     0.003 A 
HETATM   32  C24 UNL     1      53.302   1.539  -9.435  1.00  0.00     0.045 A 
ENDBRANCH  26  27
ENDBRANCH   9  26
BRANCH   1  33
HETATM   33  C5  UNL     1      59.998   2.952 -10.707  1.00  0.00     0.049 A 
HETATM   34  C4  UNL     1      60.715   3.071  -9.545  1.00  0.00     0.033 A 
HETATM   35  C3  UNL     1      61.281   4.281  -9.178  1.00  0.00     0.039 A 
HETATM   36  C2  UNL     1      61.149   5.390  -9.952  1.00  0.00     0.068 A 
HETATM   37  C26 UNL     1      60.431   5.307 -11.134  1.00  0.00     0.039 A 
HETATM   38  C25 UNL     1      59.878   4.137 -11.498  1.00  0.00     0.033 A 
BRANCH  36  39
HETATM   39  O1  UNL     1      61.720   6.587  -9.571  1.00  0.00    -0.356 OA
HETATM   40  C1  UNL     1      61.445   7.753 -10.321  1.00  0.00     0.210 C 
ENDBRANCH  36  39
ENDBRANCH   1  33
TORSDOF 8
ENDMDL
MODEL 5
REMARK VINA RESULT: -7.140460782      5.034     10.107
REMARK  8 active torsions:
REMARK  status: ('A' for Active; 'I' for Inactive)
REMARK    1  A    between atoms: O1_2  and  C2_3 
REMARK    2  A    between atoms: C5_6  and  N1_7 
REMARK    3  A    between atoms: C7_12  and  N3_13 
REMARK    4  A    between atoms: N3_13  and  C8_15 
REMARK    5  A    between atoms: C8_15  and  C9_16 
REMARK    6  A    between atoms: C9_16  and  C10_17 
REMARK    7  A    between atoms: C18_29  and  N6_30 
REMARK    8  A    between atoms: N6_30  and  C19_31 
ROOT
HETATM    1  N1  UNL     1      54.264  -1.983  -7.618  1.00  0.00    -0.191 N 
ATOM      2  H1  UNL     1      54.474  -2.774  -7.009  1.00  0.00     0.184 HD
HETATM    3  C6  UNL     1      53.559  -1.245  -6.927  1.00  0.00     0.700 A 
HETATM    4  N2  UNL     1      53.284  -1.666  -5.640  1.00  0.00    -0.022 N 
ATOM      5  H2  UNL     1      53.678  -2.554  -5.331  1.00  0.00     0.203 HD
HETATM    6  C7  UNL     1      52.530  -0.974  -4.775  1.00  0.00     0.696 A 
HETATM    7  N5  UNL     1      52.014   0.190  -5.178  1.00  0.00    -0.148 N 
ATOM      8  H5  UNL     1      51.439   0.723  -4.526  1.00  0.00     0.188 HD
HETATM    9  C18 UNL     1      52.229   0.699  -6.442  1.00  0.00     0.288 A 
HETATM   10  N7  UNL     1      53.013  -0.085  -7.252  1.00  0.00    -0.148 N 
ATOM     11  H7  UNL     1      53.191   0.261  -8.194  1.00  0.00     0.188 HD
ENDROOT
BRANCH   6  12
HETATM   12  N3  UNL     1      52.312  -1.422  -3.590  1.00  0.00    -0.225 N 
ATOM     13  H3  UNL     1      52.003  -2.388  -3.478  1.00  0.00     0.177 HD
BRANCH  12  14
HETATM   14  C8  UNL     1      52.488  -0.617  -2.426  1.00  0.00     0.142 C 
BRANCH  14  15
HETATM   15  C9  UNL     1      51.691  -1.200  -1.274  1.00  0.00     0.061 C 
BRANCH  15  16
HETATM   16  C10 UNL     1      50.315  -0.687  -1.208  1.00  0.00    -0.029 A 
HETATM   17  C11 UNL     1      49.872   0.477  -1.763  1.00  0.00     0.096 A 
HETATM   18  N4  UNL     1      48.556   0.598  -1.486  1.00  0.00    -0.365 N 
HETATM   19  C12 UNL     1      48.146  -0.472  -0.763  1.00  0.00     0.042 A 
ATOM     20  H4  UNL     1      47.963   1.375  -1.777  1.00  0.00     0.165 HD
HETATM   21  C13 UNL     1      46.934  -0.842  -0.232  1.00  0.00     0.030 A 
HETATM   22  C17 UNL     1      49.254  -1.298  -0.577  1.00  0.00    -0.002 A 
HETATM   23  C14 UNL     1      46.760  -1.994   0.478  1.00  0.00     0.002 A 
HETATM   24  C15 UNL     1      47.850  -2.814   0.664  1.00  0.00     0.001 A 
HETATM   25  C16 UNL     1      49.086  -2.470   0.142  1.00  0.00     0.014 A 
ENDBRANCH  15  16
ENDBRANCH  14  15
ENDBRANCH  12  14
ENDBRANCH   6  12
BRANCH   9  26
HETATM   26  N6  UNL     1      51.751   1.757  -6.783  1.00  0.00    -0.370 NA
BRANCH  26  27
HETATM   27  C19 UNL     1      51.213   2.926  -6.994  1.00  0.00     0.111 A 
HETATM   28  C20 UNL     1      51.523   3.660  -8.158  1.00  0.00     0.045 A 
HETATM   29  C21 UNL     1      50.965   4.868  -8.376  1.00  0.00     0.003 A 
HETATM   30  C22 UNL     1      50.082   5.406  -7.470  1.00  0.00     0.000 A 
HETATM   31  C23 UNL     1      49.758   4.715  -6.324  1.00  0.00     0.003 A 
HETATM   32  C24 UNL     1      50.299   3.506  -6.075  1.00  0.00     0.045 A 
ENDBRANCH  26  27
ENDBRANCH   9  26
BRANCH   1  33
HETATM   33  C5  UNL     1      54.889  -2.267  -8.759  1.00  0.00     0.049 A 
HETATM   34  C4  UNL     1      54.490  -1.843 -10.000  1.00  0.00     0.033 A 
HETATM   35  C3  UNL     1      55.208  -2.187 -11.134  1.00  0.00     0.039 A 
HETATM   36  C2  UNL     1      56.327  -2.952 -11.061  1.00  0.00     0.068 A 
HETATM   37  C26 UNL     1      56.761  -3.399  -9.822  1.00  0.00     0.039 A 
HETATM   38  C25 UNL     1      56.071  -3.070  -8.717  1.00  0.00     0.033 A 
BRANCH  36  39
HETATM   39  O1  UNL     1      57.029  -3.285 -12.201  1.00  0.00    -0.356 OA
HETATM   40  C1  UNL     1      58.309  -3.875 -12.078  1.00  0.00     0.210 C 
ENDBRANCH  36  39
ENDBRANCH   1  33
TORSDOF 8
ENDMDL
