MODEL 1
REMARK VINA RESULT: -10.344176658      0.000      0.000
REMARK  5 active torsions:
REMARK  status: ('A' for Active; 'I' for Inactive)
REMARK    1  A    between atoms: N4_15  and  C6_16 
REMARK    2  A    between atoms: C9_19  and  C10_20 
REMARK       I    between atoms: C10_20  and  N5_22 
REMARK       I    between atoms: N6_25  and  C13_26 
REMARK    3  A    between atoms: C13_26  and  C14_28 
REMARK    4  A    between atoms: C14_28  and  C15_29 
REMARK    5  A    between atoms: C18_32  and  C19_33 
ROOT
HETATM    1  C6  UNL     1      -7.740  21.878  -2.648  1.00  0.00     0.230 C 
HETATM    2  C7  UNL     1      -8.958  22.384  -3.333  1.00  0.00     0.037 C 
HETATM    3  C8  UNL     1      -9.828  21.141  -3.624  1.00  0.00     0.016 C 
HETATM    4  C9  UNL     1     -10.214  20.406  -2.391  1.00  0.00     0.078 C 
HETATM    5  C24 UNL     1      -9.643  21.133  -1.189  1.00  0.00     0.016 C 
HETATM    6  C25 UNL     1      -8.138  21.139  -1.374  1.00  0.00     0.037 C 
ENDROOT
BRANCH   4   7
HETATM    7  C10 UNL     1     -11.651  20.133  -2.239  1.00  0.00     0.224 C 
HETATM    8  O1  UNL     1     -12.430  21.121  -2.181  1.00  0.00    -0.273 OA
HETATM    9  N5  UNL     1     -12.185  18.827  -2.156  1.00  0.00    -0.349 N 
HETATM   10  C11 UNL     1     -11.356  17.627  -2.209  1.00  0.00     0.145 C 
HETATM   11  C23 UNL     1     -13.636  18.649  -2.007  1.00  0.00     0.145 C 
HETATM   12  C12 UNL     1     -12.195  16.380  -2.051  1.00  0.00     0.145 C 
HETATM   13  N6  UNL     1     -13.193  16.468  -1.034  1.00  0.00    -0.349 N 
HETATM   14  C13 UNL     1     -13.577  15.334  -0.277  1.00  0.00     0.220 C 
HETATM   15  C22 UNL     1     -13.820  17.765  -0.789  1.00  0.00     0.145 C 
HETATM   16  O2  UNL     1     -13.029  14.235  -0.506  1.00  0.00    -0.273 OA
BRANCH  14  17
HETATM   17  C14 UNL     1     -14.599  15.454   0.755  1.00  0.00     0.107 C 
BRANCH  17  18
HETATM   18  C15 UNL     1     -14.164  15.178   2.152  1.00  0.00    -0.006 C 
HETATM   19  C16 UNL     1     -12.958  15.937   2.594  1.00  0.00     0.006 C 
HETATM   20  C17 UNL     1     -12.926  15.931   4.116  1.00  0.00     0.014 C 
HETATM   21  C18 UNL     1     -13.622  14.710   4.670  1.00  0.00     0.075 C 
HETATM   22  C20 UNL     1     -13.363  13.502   3.765  1.00  0.00     0.014 C 
HETATM   23  C21 UNL     1     -14.032  13.692   2.410  1.00  0.00     0.006 C 
BRANCH  21  24
HETATM   24  C19 UNL     1     -13.006  14.385   5.983  1.00  0.00     0.235 C 
HETATM   25  N7  UNL     1     -13.528  13.311   6.764  1.00  0.00    -0.062 NA
HETATM   26  O3  UNL     1     -12.028  15.012   6.464  1.00  0.00    -0.277 OA
ENDBRANCH  21  24
ENDBRANCH  17  18
ENDBRANCH  14  17
ENDBRANCH   4   7
BRANCH   1  27
HETATM   27  N4  UNL     1      -6.615  22.713  -2.520  1.00  0.00     0.165 N 
HETATM   28  C5  UNL     1      -6.714  23.960  -1.885  1.00  0.00     0.443 C 
HETATM   29  C4  UNL     1      -5.650  24.939  -2.344  1.00  0.00     0.174 C 
HETATM   30  F1  UNL     1      -6.618  23.927  -0.509  1.00  0.00    -0.172 F 
HETATM   31  F2  UNL     1      -7.899  24.597  -2.178  1.00  0.00    -0.172 F 
HETATM   32  C3  UNL     1      -4.307  24.594  -1.874  1.00  0.00     0.057 A 
HETATM   33  C2  UNL     1      -3.671  23.389  -1.993  1.00  0.00     0.051 A 
HETATM   34  N3  UNL     1      -3.473  25.425  -1.240  1.00  0.00    -0.194 N 
HETATM   35  N2  UNL     1      -2.461  23.496  -1.432  1.00  0.00    -0.194 N 
HETATM   36  C27 UNL     1      -4.213  22.147  -2.635  1.00  0.00     0.090 C 
HETATM   37  C1  UNL     1      -2.348  24.748  -0.972  1.00  0.00     0.676 A 
ATOM     38  H2  UNL     1      -1.756  22.761  -1.367  1.00  0.00     0.184 HD
HETATM   39  N1  UNL     1      -1.333  25.252  -0.366  1.00  0.00    -0.234 N 
ATOM     40  H12 UNL     1      -0.477  24.736  -0.162  1.00  0.00     0.174 HD
ATOM     41  H11 UNL     1      -1.247  26.206  -0.016  1.00  0.00     0.174 HD
HETATM   42  C26 UNL     1      -5.540  21.874  -2.008  1.00  0.00     0.287 C 
ATOM     43  H3  UNL     1      -3.659  26.399  -1.002  1.00  0.00     0.184 HD
ENDBRANCH   1  27
TORSDOF 5
ENDMDL
MODEL 2
REMARK VINA RESULT: -10.035505635      1.148      1.667
REMARK  5 active torsions:
REMARK  status: ('A' for Active; 'I' for Inactive)
REMARK    1  A    between atoms: N4_15  and  C6_16 
REMARK    2  A    between atoms: C9_19  and  C10_20 
REMARK       I    between atoms: C10_20  and  N5_22 
REMARK       I    between atoms: N6_25  and  C13_26 
REMARK    3  A    between atoms: C13_26  and  C14_28 
REMARK    4  A    between atoms: C14_28  and  C15_29 
REMARK    5  A    between atoms: C18_32  and  C19_33 
ROOT
HETATM    1  C6  UNL     1      -7.560  22.013  -2.256  1.00  0.00     0.230 C 
HETATM    2  C7  UNL     1      -8.741  22.543  -2.986  1.00  0.00     0.037 C 
HETATM    3  C8  UNL     1      -9.572  21.308  -3.402  1.00  0.00     0.016 C 
HETATM    4  C9  UNL     1     -10.022  20.498  -2.239  1.00  0.00     0.078 C 
HETATM    5  C24 UNL     1      -9.538  21.162  -0.963  1.00  0.00     0.016 C 
HETATM    6  C25 UNL     1      -8.025  21.197  -1.054  1.00  0.00     0.037 C 
ENDROOT
BRANCH   4   7
HETATM    7  C10 UNL     1     -11.460  20.200  -2.192  1.00  0.00     0.224 C 
HETATM    8  O1  UNL     1     -12.258  21.173  -2.167  1.00  0.00    -0.273 OA
HETATM    9  N5  UNL     1     -11.977  18.884  -2.176  1.00  0.00    -0.349 N 
HETATM   10  C11 UNL     1     -11.125  17.698  -2.198  1.00  0.00     0.145 C 
HETATM   11  C23 UNL     1     -13.431  18.679  -2.132  1.00  0.00     0.145 C 
HETATM   12  C12 UNL     1     -11.951  16.435  -2.126  1.00  0.00     0.145 C 
HETATM   13  N6  UNL     1     -13.019  16.483  -1.179  1.00  0.00    -0.349 N 
HETATM   14  C13 UNL     1     -13.435  15.326  -0.475  1.00  0.00     0.220 C 
HETATM   15  C22 UNL     1     -13.684  17.764  -0.950  1.00  0.00     0.145 C 
HETATM   16  O2  UNL     1     -12.853  14.241  -0.690  1.00  0.00    -0.273 OA
BRANCH  14  17
HETATM   17  C14 UNL     1     -14.528  15.406   0.485  1.00  0.00     0.107 C 
BRANCH  17  18
HETATM   18  C15 UNL     1     -14.191  15.081   1.899  1.00  0.00    -0.006 C 
HETATM   19  C16 UNL     1     -13.039  15.847   2.460  1.00  0.00     0.006 C 
HETATM   20  C17 UNL     1     -13.120  15.777   3.980  1.00  0.00     0.014 C 
HETATM   21  C18 UNL     1     -13.826  14.519   4.429  1.00  0.00     0.075 C 
HETATM   22  C20 UNL     1     -13.471  13.356   3.498  1.00  0.00     0.014 C 
HETATM   23  C21 UNL     1     -14.041  13.588   2.106  1.00  0.00     0.006 C 
BRANCH  21  24
HETATM   24  C19 UNL     1     -13.301  14.152   5.770  1.00  0.00     0.235 C 
HETATM   25  N7  UNL     1     -13.694  12.920   6.373  1.00  0.00    -0.062 NA
HETATM   26  O3  UNL     1     -12.511  14.877   6.428  1.00  0.00    -0.277 OA
ENDBRANCH  21  24
ENDBRANCH  17  18
ENDBRANCH  14  17
ENDBRANCH   4   7
BRANCH   1  27
HETATM   27  N4  UNL     1      -6.459  22.853  -2.010  1.00  0.00     0.165 N 
HETATM   28  C5  UNL     1      -5.147  22.393  -2.204  1.00  0.00     0.443 C 
HETATM   29  C4  UNL     1      -4.132  23.145  -1.362  1.00  0.00     0.174 C 
HETATM   30  F1  UNL     1      -4.684  22.472  -3.500  1.00  0.00    -0.172 F 
HETATM   31  F2  UNL     1      -4.996  21.082  -1.814  1.00  0.00    -0.172 F 
HETATM   32  C3  UNL     1      -3.918  24.521  -1.809  1.00  0.00     0.057 A 
HETATM   33  C2  UNL     1      -4.870  25.476  -2.043  1.00  0.00     0.051 A 
HETATM   34  N3  UNL     1      -2.727  25.076  -2.064  1.00  0.00    -0.194 N 
HETATM   35  N2  UNL     1      -4.254  26.596  -2.438  1.00  0.00    -0.194 N 
HETATM   36  C27 UNL     1      -6.354  25.318  -1.894  1.00  0.00     0.090 C 
HETATM   37  C1  UNL     1      -2.940  26.341  -2.447  1.00  0.00     0.676 A 
ATOM     38  H2  UNL     1      -4.701  27.479  -2.684  1.00  0.00     0.184 HD
HETATM   39  N1  UNL     1      -2.004  27.162  -2.769  1.00  0.00    -0.234 N 
ATOM     40  H12 UNL     1      -2.166  28.125  -3.061  1.00  0.00     0.174 HD
ATOM     41  H11 UNL     1      -1.003  26.968  -2.776  1.00  0.00     0.174 HD
HETATM   42  C26 UNL     1      -6.748  24.112  -2.681  1.00  0.00     0.287 C 
ATOM     43  H3  UNL     1      -1.820  24.616  -1.980  1.00  0.00     0.184 HD
ENDBRANCH   1  27
TORSDOF 5
ENDMDL
MODEL 3
REMARK VINA RESULT: -9.948718105      3.979     11.191
REMARK  5 active torsions:
REMARK  status: ('A' for Active; 'I' for Inactive)
REMARK    1  A    between atoms: N4_15  and  C6_16 
REMARK    2  A    between atoms: C9_19  and  C10_20 
REMARK       I    between atoms: C10_20  and  N5_22 
REMARK       I    between atoms: N6_25  and  C13_26 
REMARK    3  A    between atoms: C13_26  and  C14_28 
REMARK    4  A    between atoms: C14_28  and  C15_29 
REMARK    5  A    between atoms: C18_32  and  C19_33 
ROOT
HETATM    1  C6  UNL     1     -12.454  18.893   1.129  1.00  0.00     0.230 C 
HETATM    2  C7  UNL     1     -12.515  18.404  -0.273  1.00  0.00     0.037 C 
HETATM    3  C8  UNL     1     -12.377  19.658  -1.165  1.00  0.00     0.016 C 
HETATM    4  C9  UNL     1     -11.099  20.386  -0.943  1.00  0.00     0.078 C 
HETATM    5  C24 UNL     1     -10.288  19.642   0.102  1.00  0.00     0.016 C 
HETATM    6  C25 UNL     1     -11.135  19.623   1.360  1.00  0.00     0.037 C 
ENDROOT
BRANCH   4   7
HETATM    7  C10 UNL     1     -10.312  20.670  -2.151  1.00  0.00     0.224 C 
HETATM    8  O1  UNL     1     -10.445  19.891  -3.131  1.00  0.00    -0.273 OA
HETATM    9  N5  UNL     1      -9.427  21.767  -2.256  1.00  0.00    -0.349 N 
HETATM   10  C11 UNL     1      -9.209  22.716  -1.169  1.00  0.00     0.145 C 
HETATM   11  C23 UNL     1      -8.682  21.977  -3.505  1.00  0.00     0.145 C 
HETATM   12  C12 UNL     1      -8.177  23.752  -1.551  1.00  0.00     0.145 C 
HETATM   13  N6  UNL     1      -7.036  23.225  -2.228  1.00  0.00    -0.349 N 
HETATM   14  C13 UNL     1      -5.750  23.797  -2.063  1.00  0.00     0.220 C 
HETATM   15  C22 UNL     1      -7.223  22.071  -3.104  1.00  0.00     0.145 C 
HETATM   16  O2  UNL     1      -5.616  24.785  -1.311  1.00  0.00    -0.273 OA
BRANCH  14  17
HETATM   17  C14 UNL     1      -4.604  23.237  -2.767  1.00  0.00     0.107 C 
BRANCH  17  18
HETATM   18  C15 UNL     1      -3.755  22.287  -1.996  1.00  0.00    -0.006 C 
HETATM   19  C16 UNL     1      -4.425  21.661  -0.818  1.00  0.00     0.006 C 
HETATM   20  C17 UNL     1      -3.646  20.409  -0.440  1.00  0.00     0.014 C 
HETATM   21  C18 UNL     1      -2.195  20.528  -0.844  1.00  0.00     0.075 C 
HETATM   22  C20 UNL     1      -1.714  21.971  -0.658  1.00  0.00     0.014 C 
HETATM   23  C21 UNL     1      -2.419  22.902  -1.635  1.00  0.00     0.006 C 
BRANCH  21  24
HETATM   24  C19 UNL     1      -1.388  19.698   0.088  1.00  0.00     0.235 C 
HETATM   25  N7  UNL     1      -1.902  19.381   1.381  1.00  0.00    -0.062 NA
HETATM   26  O3  UNL     1      -0.251  19.243  -0.195  1.00  0.00    -0.277 OA
ENDBRANCH  21  24
ENDBRANCH  17  18
ENDBRANCH  14  17
ENDBRANCH   4   7
BRANCH   1  27
HETATM   27  N4  UNL     1     -12.851  18.046   2.180  1.00  0.00     0.165 N 
HETATM   28  C5  UNL     1     -14.176  17.593   2.276  1.00  0.00     0.443 C 
HETATM   29  C4  UNL     1     -14.571  17.230   3.696  1.00  0.00     0.174 C 
HETATM   30  F1  UNL     1     -14.473  16.483   1.514  1.00  0.00    -0.172 F 
HETATM   31  F2  UNL     1     -15.082  18.566   1.918  1.00  0.00    -0.172 F 
HETATM   32  C3  UNL     1     -13.919  16.014   4.183  1.00  0.00     0.057 A 
HETATM   33  C2  UNL     1     -12.582  15.725   4.166  1.00  0.00     0.051 A 
HETATM   34  N3  UNL     1     -14.546  14.969   4.735  1.00  0.00    -0.194 N 
HETATM   35  N2  UNL     1     -12.407  14.512   4.704  1.00  0.00    -0.194 N 
HETATM   36  C27 UNL     1     -11.482  16.597   3.639  1.00  0.00     0.090 C 
HETATM   37  C1  UNL     1     -13.618  14.057   5.050  1.00  0.00     0.676 A 
ATOM     38  H2  UNL     1     -11.519  14.026   4.828  1.00  0.00     0.184 HD
HETATM   39  N1  UNL     1     -13.880  12.925   5.601  1.00  0.00    -0.234 N 
ATOM     40  H12 UNL     1     -13.173  12.230   5.840  1.00  0.00     0.174 HD
ATOM     41  H11 UNL     1     -14.802  12.577   5.865  1.00  0.00     0.174 HD
HETATM   42  C26 UNL     1     -11.858  16.983   2.246  1.00  0.00     0.287 C 
ATOM     43  H3  UNL     1     -15.550  14.884   4.889  1.00  0.00     0.184 HD
ENDBRANCH   1  27
TORSDOF 5
ENDMDL
MODEL 4
REMARK VINA RESULT: -9.891081002      1.434      1.876
REMARK  5 active torsions:
REMARK  status: ('A' for Active; 'I' for Inactive)
REMARK    1  A    between atoms: N4_15  and  C6_16 
REMARK    2  A    between atoms: C9_19  and  C10_20 
REMARK       I    between atoms: C10_20  and  N5_22 
REMARK       I    between atoms: N6_25  and  C13_26 
REMARK    3  A    between atoms: C13_26  and  C14_28 
REMARK    4  A    between atoms: C14_28  and  C15_29 
REMARK    5  A    between atoms: C18_32  and  C19_33 
ROOT
HETATM    1  C6  UNL     1      -8.348  21.677  -2.115  1.00  0.00     0.230 C 
HETATM    2  C7  UNL     1      -9.608  22.176  -2.723  1.00  0.00     0.037 C 
HETATM    3  C8  UNL     1     -10.432  20.919  -3.084  1.00  0.00     0.016 C 
HETATM    4  C9  UNL     1     -10.745  20.075  -1.901  1.00  0.00     0.078 C 
HETATM    5  C24 UNL     1     -10.168  20.735  -0.663  1.00  0.00     0.016 C 
HETATM    6  C25 UNL     1      -8.671  20.826  -0.891  1.00  0.00     0.037 C 
ENDROOT
BRANCH   4   7
HETATM    7  C10 UNL     1     -12.162  19.725  -1.728  1.00  0.00     0.224 C 
HETATM    8  O1  UNL     1     -12.991  20.669  -1.647  1.00  0.00    -0.273 OA
HETATM    9  N5  UNL     1     -12.625  18.392  -1.652  1.00  0.00    -0.349 N 
HETATM   10  C11 UNL     1     -11.734  17.238  -1.732  1.00  0.00     0.145 C 
HETATM   11  C23 UNL     1     -14.062  18.135  -1.482  1.00  0.00     0.145 C 
HETATM   12  C12 UNL     1     -12.503  15.947  -1.575  1.00  0.00     0.145 C 
HETATM   13  N6  UNL     1     -13.488  15.970  -0.541  1.00  0.00    -0.349 N 
HETATM   14  C13 UNL     1     -13.798  14.809   0.209  1.00  0.00     0.220 C 
HETATM   15  C22 UNL     1     -14.178  17.229  -0.271  1.00  0.00     0.145 C 
HETATM   16  O2  UNL     1     -13.197  13.744  -0.041  1.00  0.00    -0.273 OA
BRANCH  14  17
HETATM   17  C14 UNL     1     -14.808  14.864   1.258  1.00  0.00     0.107 C 
BRANCH  17  18
HETATM   18  C15 UNL     1     -14.312  14.764   2.659  1.00  0.00    -0.006 C 
HETATM   19  C16 UNL     1     -13.273  15.768   3.029  1.00  0.00     0.006 C 
HETATM   20  C17 UNL     1     -13.224  15.860   4.549  1.00  0.00     0.014 C 
HETATM   21  C18 UNL     1     -13.662  14.563   5.187  1.00  0.00     0.075 C 
HETATM   22  C20 UNL     1     -13.182  13.376   4.347  1.00  0.00     0.014 C 
HETATM   23  C21 UNL     1     -13.889  13.350   2.999  1.00  0.00     0.006 C 
BRANCH  21  24
HETATM   24  C19 UNL     1     -12.980  14.444   6.502  1.00  0.00     0.235 C 
HETATM   25  N7  UNL     1     -11.944  15.362   6.849  1.00  0.00    -0.062 NA
HETATM   26  O3  UNL     1     -13.265  13.564   7.354  1.00  0.00    -0.277 OA
ENDBRANCH  21  24
ENDBRANCH  17  18
ENDBRANCH  14  17
ENDBRANCH   4   7
BRANCH   1  27
HETATM   27  N4  UNL     1      -7.258  22.551  -1.955  1.00  0.00     0.165 N 
HETATM   28  C5  UNL     1      -6.313  22.716  -2.979  1.00  0.00     0.443 C 
HETATM   29  C4  UNL     1      -4.961  23.174  -2.462  1.00  0.00     0.174 C 
HETATM   30  F1  UNL     1      -6.661  23.624  -3.958  1.00  0.00    -0.172 F 
HETATM   31  F2  UNL     1      -6.038  21.532  -3.625  1.00  0.00    -0.172 F 
HETATM   32  C3  UNL     1      -4.964  24.556  -1.983  1.00  0.00     0.057 A 
HETATM   33  C2  UNL     1      -5.829  25.122  -1.086  1.00  0.00     0.051 A 
HETATM   34  N3  UNL     1      -4.099  25.506  -2.356  1.00  0.00    -0.194 N 
HETATM   35  N2  UNL     1      -5.485  26.405  -0.923  1.00  0.00    -0.194 N 
HETATM   36  C27 UNL     1      -6.974  24.444  -0.394  1.00  0.00     0.090 C 
HETATM   37  C1  UNL     1      -4.423  26.631  -1.706  1.00  0.00     0.676 A 
ATOM     38  H2  UNL     1      -5.945  27.083  -0.316  1.00  0.00     0.184 HD
HETATM   39  N1  UNL     1      -3.791  27.743  -1.835  1.00  0.00    -0.234 N 
ATOM     40  H12 UNL     1      -4.038  28.600  -1.340  1.00  0.00     0.174 HD
ATOM     41  H11 UNL     1      -2.982  27.916  -2.431  1.00  0.00     0.174 HD
HETATM   42  C26 UNL     1      -7.808  23.802  -1.453  1.00  0.00     0.287 C 
ATOM     43  H3  UNL     1      -3.330  25.393  -3.017  1.00  0.00     0.184 HD
ENDBRANCH   1  27
TORSDOF 5
ENDMDL
MODEL 5
REMARK VINA RESULT: -9.611307035      1.297      1.756
REMARK  5 active torsions:
REMARK  status: ('A' for Active; 'I' for Inactive)
REMARK    1  A    between atoms: N4_15  and  C6_16 
REMARK    2  A    between atoms: C9_19  and  C10_20 
REMARK       I    between atoms: C10_20  and  N5_22 
REMARK       I    between atoms: N6_25  and  C13_26 
REMARK    3  A    between atoms: C13_26  and  C14_28 
REMARK    4  A    between atoms: C14_28  and  C15_29 
REMARK    5  A    between atoms: C18_32  and  C19_33 
ROOT
HETATM    1  C6  UNL     1      -9.397  22.806  -1.586  1.00  0.00     0.230 C 
HETATM    2  C7  UNL     1      -9.863  21.555  -0.933  1.00  0.00     0.037 C 
HETATM    3  C8  UNL     1     -11.365  21.767  -0.635  1.00  0.00     0.016 C 
HETATM    4  C9  UNL     1     -12.165  22.021  -1.862  1.00  0.00     0.078 C 
HETATM    5  C24 UNL     1     -11.245  21.969  -3.066  1.00  0.00     0.016 C 
HETATM    6  C25 UNL     1     -10.208  23.055  -2.853  1.00  0.00     0.037 C 
ENDROOT
BRANCH   4   7
HETATM    7  C10 UNL     1     -13.349  21.167  -2.036  1.00  0.00     0.224 C 
HETATM    8  O1  UNL     1     -14.471  21.732  -2.116  1.00  0.00    -0.273 OA
HETATM    9  N5  UNL     1     -13.279  19.757  -2.116  1.00  0.00    -0.349 N 
HETATM   10  C11 UNL     1     -12.022  19.020  -2.027  1.00  0.00     0.145 C 
HETATM   11  C23 UNL     1     -14.514  18.982  -2.294  1.00  0.00     0.145 C 
HETATM   12  C12 UNL     1     -12.261  17.530  -2.099  1.00  0.00     0.145 C 
HETATM   13  N6  UNL     1     -13.368  17.073  -1.322  1.00  0.00    -0.349 N 
HETATM   14  C13 UNL     1     -13.362  15.797  -0.706  1.00  0.00     0.220 C 
HETATM   15  C22 UNL     1     -14.522  17.957  -1.176  1.00  0.00     0.145 C 
HETATM   16  O2  UNL     1     -12.366  15.058  -0.847  1.00  0.00    -0.273 OA
BRANCH  14  17
HETATM   17  C14 UNL     1     -14.508  15.359   0.081  1.00  0.00     0.107 C 
BRANCH  17  18
HETATM   18  C15 UNL     1     -14.257  15.100   1.526  1.00  0.00    -0.006 C 
HETATM   19  C16 UNL     1     -13.184  15.939   2.136  1.00  0.00     0.006 C 
HETATM   20  C17 UNL     1     -13.368  15.917   3.648  1.00  0.00     0.014 C 
HETATM   21  C18 UNL     1     -14.046  14.644   4.095  1.00  0.00     0.075 C 
HETATM   22  C20 UNL     1     -13.575  13.467   3.235  1.00  0.00     0.014 C 
HETATM   23  C21 UNL     1     -14.056  13.624   1.799  1.00  0.00     0.006 C 
BRANCH  21  24
HETATM   24  C19 UNL     1     -13.602  14.349   5.482  1.00  0.00     0.235 C 
HETATM   25  N7  UNL     1     -13.712  13.023   5.996  1.00  0.00    -0.062 NA
HETATM   26  O3  UNL     1     -13.120  15.217   6.255  1.00  0.00    -0.277 OA
ENDBRANCH  21  24
ENDBRANCH  17  18
ENDBRANCH  14  17
ENDBRANCH   4   7
BRANCH   1  27
HETATM   27  N4  UNL     1      -8.018  23.055  -1.709  1.00  0.00     0.165 N 
HETATM   28  C5  UNL     1      -7.329  23.785  -0.728  1.00  0.00     0.443 C 
HETATM   29  C4  UNL     1      -6.081  24.459  -1.266  1.00  0.00     0.174 C 
HETATM   30  F1  UNL     1      -6.913  23.052   0.364  1.00  0.00    -0.172 F 
HETATM   31  F2  UNL     1      -8.082  24.826  -0.235  1.00  0.00    -0.172 F 
HETATM   32  C3  UNL     1      -5.009  23.516  -1.587  1.00  0.00     0.057 A 
HETATM   33  C2  UNL     1      -5.096  22.393  -2.365  1.00  0.00     0.051 A 
HETATM   34  N3  UNL     1      -3.745  23.608  -1.161  1.00  0.00    -0.194 N 
HETATM   35  N2  UNL     1      -3.891  21.814  -2.403  1.00  0.00    -0.194 N 
HETATM   36  C27 UNL     1      -6.320  21.879  -3.063  1.00  0.00     0.090 C 
HETATM   37  C1  UNL     1      -3.068  22.566  -1.662  1.00  0.00     0.676 A 
ATOM     38  H2  UNL     1      -3.644  20.961  -2.904  1.00  0.00     0.184 HD
HETATM   39  N1  UNL     1      -1.819  22.348  -1.446  1.00  0.00    -0.234 N 
ATOM     40  H12 UNL     1      -1.305  21.555  -1.827  1.00  0.00     0.174 HD
ATOM     41  H11 UNL     1      -1.193  22.921  -0.881  1.00  0.00     0.174 HD
HETATM   42  C26 UNL     1      -7.399  21.778  -2.037  1.00  0.00     0.287 C 
ATOM     43  H3  UNL     1      -3.364  24.340  -0.561  1.00  0.00     0.184 HD
ENDBRANCH   1  27
TORSDOF 5
ENDMDL
