MODEL 1
REMARK VINA RESULT: -6.176338081      0.000      0.000
REMARK  7 active torsions:
REMARK  status: ('A' for Active; 'I' for Inactive)
REMARK    1  A    between atoms: O1_2  and  C2_3 
REMARK    2  A    between atoms: C6_7  and  O2_8 
REMARK    3  A    between atoms: C8_10  and  C9_11 
REMARK    4  A    between atoms: C14_18  and  C15_19 
REMARK    5  A    between atoms: C14_18  and  C16_22 
REMARK    6  A    between atoms: C15_19  and  O3_20 
REMARK    7  A    between atoms: C17_24  and  O4_25 
ROOT
HETATM    1  C9  UNL     1      -5.740  14.191  10.097  1.00  0.00    -0.029 C 
HETATM    2  C10 UNL     1      -5.212  15.534  10.406  1.00  0.00     0.067 C 
HETATM    3  C11 UNL     1      -6.052  16.453  11.212  1.00  0.00     0.023 C 
HETATM    4  C12 UNL     1      -5.103  17.698  11.332  1.00  0.00     0.038 C 
HETATM    5  C13 UNL     1      -7.193  17.096  10.432  1.00  0.00     0.038 C 
HETATM    6  N1  UNL     1      -6.318  16.119  12.550  1.00  0.00    -0.400 N 
ATOM      7  H1  UNL     1      -6.180  16.836  13.261  1.00  0.00     0.155 HD
HETATM    8  C14 UNL     1      -6.756  14.867  12.960  1.00  0.00     0.085 C 
HETATM    9  C17 UNL     1      -6.069  13.645  12.552  1.00  0.00     0.183 C 
HETATM   10  C18 UNL     1      -6.132  13.243  11.112  1.00  0.00     0.128 C 
HETATM   11 BR2  UNL     1      -5.021  11.631  10.996  1.00  0.00    -0.065 Br
HETATM   12 BR3  UNL     1      -7.930  12.515  10.715  1.00  0.00    -0.065 Br
ENDROOT
BRANCH   1  13
HETATM   13  C8  UNL     1      -5.227  13.638   8.789  1.00  0.00     0.035 A 
HETATM   14  C2  UNL     1      -6.097  13.489   7.711  1.00  0.00     0.081 A 
HETATM   15  C3  UNL     1      -5.687  13.158   6.443  1.00  0.00     0.038 A 
HETATM   16  C4  UNL     1      -4.334  12.958   6.236  1.00  0.00     0.005 A 
HETATM   17  C5  UNL     1      -3.449  13.090   7.266  1.00  0.00     0.038 A 
HETATM   18  C6  UNL     1      -3.887  13.425   8.527  1.00  0.00     0.081 A 
BRANCH  14  19
HETATM   19  O1  UNL     1      -7.445  13.677   7.955  1.00  0.00    -0.355 OA
HETATM   20  C1  UNL     1      -8.295  14.591   7.337  1.00  0.00     0.210 C 
ENDBRANCH  14  19
BRANCH  18  21
HETATM   21  O2  UNL     1      -2.972  13.561   9.589  1.00  0.00    -0.355 OA
HETATM   22  C7  UNL     1      -1.753  12.879   9.612  1.00  0.00     0.210 C 
ENDBRANCH  18  21
ENDBRANCH   1  13
BRANCH   9  23
HETATM   23  O4  UNL     1      -4.791  13.430  13.058  1.00  0.00    -0.390 OA
ATOM     24  H4  UNL     1      -4.303  12.692  12.713  1.00  0.00     0.210 HD
ENDBRANCH   9  23
BRANCH   8  25
HETATM   25  C15 UNL     1      -8.270  14.673  12.889  1.00  0.00     0.198 C 
BRANCH  25  26
HETATM   26  O3  UNL     1      -8.938  15.851  13.188  1.00  0.00    -0.398 OA
ATOM     27  H3  UNL     1      -9.573  16.064  12.514  1.00  0.00     0.209 HD
ENDBRANCH  25  26
ENDBRANCH   8  25
BRANCH   8  28
HETATM   28  C16 UNL     1      -6.594  14.884  14.511  1.00  0.00     0.120 C 
HETATM   29 BR1  UNL     1      -7.491  13.403  15.316  1.00  0.00    -0.094 Br
ENDBRANCH   8  28
TORSDOF 7
ENDMDL
MODEL 2
REMARK VINA RESULT: -5.944035309      1.995      4.120
REMARK  7 active torsions:
REMARK  status: ('A' for Active; 'I' for Inactive)
REMARK    1  A    between atoms: O1_2  and  C2_3 
REMARK    2  A    between atoms: C6_7  and  O2_8 
REMARK    3  A    between atoms: C8_10  and  C9_11 
REMARK    4  A    between atoms: C14_18  and  C15_19 
REMARK    5  A    between atoms: C14_18  and  C16_22 
REMARK    6  A    between atoms: C15_19  and  O3_20 
REMARK    7  A    between atoms: C17_24  and  O4_25 
ROOT
HETATM    1  C9  UNL     1      -6.419  13.984  11.010  1.00  0.00    -0.029 C 
HETATM    2  C10 UNL     1      -7.036  12.805  11.650  1.00  0.00     0.067 C 
HETATM    3  C11 UNL     1      -6.660  12.486  13.048  1.00  0.00     0.023 C 
HETATM    4  C12 UNL     1      -7.565  11.232  13.321  1.00  0.00     0.038 C 
HETATM    5  C13 UNL     1      -5.292  11.830  13.190  1.00  0.00     0.038 C 
HETATM    6  N1  UNL     1      -7.035  13.382  14.064  1.00  0.00    -0.400 N 
ATOM      7  H1  UNL     1      -7.486  13.004  14.896  1.00  0.00     0.155 HD
HETATM    8  C14 UNL     1      -6.828  14.752  13.998  1.00  0.00     0.085 C 
HETATM    9  C17 UNL     1      -7.246  15.535  12.839  1.00  0.00     0.183 C 
HETATM   10  C18 UNL     1      -6.530  15.321  11.543  1.00  0.00     0.128 C 
HETATM   11 BR2  UNL     1      -7.458  16.482  10.263  1.00  0.00    -0.065 Br
HETATM   12 BR3  UNL     1      -4.747  16.176  11.632  1.00  0.00    -0.065 Br
ENDROOT
BRANCH   1  13
HETATM   13  C8  UNL     1      -6.274  13.839   9.514  1.00  0.00     0.035 A 
HETATM   14  C2  UNL     1      -5.024  13.568   8.961  1.00  0.00     0.081 A 
HETATM   15  C3  UNL     1      -4.830  13.254   7.639  1.00  0.00     0.038 A 
HETATM   16  C4  UNL     1      -5.941  13.214   6.817  1.00  0.00     0.005 A 
HETATM   17  C5  UNL     1      -7.182  13.479   7.317  1.00  0.00     0.038 A 
HETATM   18  C6  UNL     1      -7.350  13.788   8.648  1.00  0.00     0.081 A 
BRANCH  14  19
HETATM   19  O1  UNL     1      -3.931  13.635   9.806  1.00  0.00    -0.355 OA
HETATM   20  C1  UNL     1      -3.024  12.619  10.093  1.00  0.00     0.210 C 
ENDBRANCH  14  19
BRANCH  18  21
HETATM   21  O2  UNL     1      -8.632  14.060   9.162  1.00  0.00    -0.355 OA
HETATM   22  C7  UNL     1      -9.646  13.100   9.177  1.00  0.00     0.210 C 
ENDBRANCH  18  21
ENDBRANCH   1  13
BRANCH   9  23
HETATM   23  O4  UNL     1      -8.614  15.669  12.618  1.00  0.00    -0.390 OA
ATOM     24  H4  UNL     1      -8.932  15.510  11.737  1.00  0.00     0.210 HD
ENDBRANCH   9  23
BRANCH   8  25
HETATM   25  C15 UNL     1      -5.448  15.206  14.473  1.00  0.00     0.198 C 
BRANCH  25  26
HETATM   26  O3  UNL     1      -5.282  14.961  15.828  1.00  0.00    -0.398 OA
ATOM     27  H3  UNL     1      -6.009  15.313  16.329  1.00  0.00     0.209 HD
ENDBRANCH  25  26
ENDBRANCH   8  25
BRANCH   8  28
HETATM   28  C16 UNL     1      -7.681  15.334  15.166  1.00  0.00     0.120 C 
HETATM   29 BR1  UNL     1      -8.844  14.009  15.900  1.00  0.00    -0.094 Br
ENDBRANCH   8  28
TORSDOF 7
ENDMDL
MODEL 3
REMARK VINA RESULT: -5.818200319      1.186      1.238
REMARK  7 active torsions:
REMARK  status: ('A' for Active; 'I' for Inactive)
REMARK    1  A    between atoms: O1_2  and  C2_3 
REMARK    2  A    between atoms: C6_7  and  O2_8 
REMARK    3  A    between atoms: C8_10  and  C9_11 
REMARK    4  A    between atoms: C14_18  and  C15_19 
REMARK    5  A    between atoms: C14_18  and  C16_22 
REMARK    6  A    between atoms: C15_19  and  O3_20 
REMARK    7  A    between atoms: C17_24  and  O4_25 
ROOT
HETATM    1  C9  UNL     1      -6.011  14.201  10.107  1.00  0.00    -0.029 C 
HETATM    2  C10 UNL     1      -5.671  15.571  10.538  1.00  0.00     0.067 C 
HETATM    3  C11 UNL     1      -6.763  16.445  11.033  1.00  0.00     0.023 C 
HETATM    4  C12 UNL     1      -5.959  17.739  11.414  1.00  0.00     0.038 C 
HETATM    5  C13 UNL     1      -7.643  17.024   9.932  1.00  0.00     0.038 C 
HETATM    6  N1  UNL     1      -7.406  16.099  12.233  1.00  0.00    -0.400 N 
ATOM      7  H1  UNL     1      -7.528  16.824  12.940  1.00  0.00     0.155 HD
HETATM    8  C14 UNL     1      -7.883  14.826  12.513  1.00  0.00     0.085 C 
HETATM    9  C17 UNL     1      -7.044  13.642  12.355  1.00  0.00     0.183 C 
HETATM   10  C18 UNL     1      -6.645  13.235  10.972  1.00  0.00     0.128 C 
HETATM   11 BR2  UNL     1      -5.471  11.685  11.228  1.00  0.00    -0.065 Br
HETATM   12 BR3  UNL     1      -8.198  12.410  10.060  1.00  0.00    -0.065 Br
ENDROOT
BRANCH   1  13
HETATM   13  C8  UNL     1      -5.097  13.675   9.026  1.00  0.00     0.035 A 
HETATM   14  C2  UNL     1      -5.579  13.510   7.730  1.00  0.00     0.081 A 
HETATM   15  C3  UNL     1      -4.782  13.202   6.656  1.00  0.00     0.038 A 
HETATM   16  C4  UNL     1      -3.427  13.042   6.884  1.00  0.00     0.005 A 
HETATM   17  C5  UNL     1      -2.915  13.190   8.140  1.00  0.00     0.038 A 
HETATM   18  C6  UNL     1      -3.737  13.502   9.199  1.00  0.00     0.081 A 
BRANCH  14  19
HETATM   19  O1  UNL     1      -6.941  13.658   7.537  1.00  0.00    -0.355 OA
HETATM   20  C1  UNL     1      -7.586  14.110   6.390  1.00  0.00     0.210 C 
ENDBRANCH  14  19
BRANCH  18  21
HETATM   21  O2  UNL     1      -3.206  13.654  10.495  1.00  0.00    -0.355 OA
HETATM   22  C7  UNL     1      -1.923  13.216  10.829  1.00  0.00     0.210 C 
ENDBRANCH  18  21
ENDBRANCH   1  13
BRANCH   9  23
HETATM   23  O4  UNL     1      -5.971  13.498  13.229  1.00  0.00    -0.390 OA
ATOM     24  H4  UNL     1      -5.200  13.048  12.904  1.00  0.00     0.210 HD
ENDBRANCH   9  23
BRANCH   8  25
HETATM   25  C15 UNL     1      -9.292  14.551  11.989  1.00  0.00     0.198 C 
BRANCH  25  26
HETATM   26  O3  UNL     1      -9.971  13.673  12.820  1.00  0.00    -0.398 OA
ATOM     27  H3  UNL     1     -10.839  14.000  13.026  1.00  0.00     0.209 HD
ENDBRANCH  25  26
ENDBRANCH   8  25
BRANCH   8  28
HETATM   28  C16 UNL     1      -8.203  14.855  14.039  1.00  0.00     0.120 C 
HETATM   29 BR1  UNL     1      -8.837  16.572  14.581  1.00  0.00    -0.094 Br
ENDBRANCH   8  28
TORSDOF 7
ENDMDL
MODEL 4
REMARK VINA RESULT: -5.676627289      2.175      5.833
REMARK  7 active torsions:
REMARK  status: ('A' for Active; 'I' for Inactive)
REMARK    1  A    between atoms: O1_2  and  C2_3 
REMARK    2  A    between atoms: C6_7  and  O2_8 
REMARK    3  A    between atoms: C8_10  and  C9_11 
REMARK    4  A    between atoms: C14_18  and  C15_19 
REMARK    5  A    between atoms: C14_18  and  C16_22 
REMARK    6  A    between atoms: C15_19  and  O3_20 
REMARK    7  A    between atoms: C17_24  and  O4_25 
ROOT
HETATM    1  C9  UNL     1      -7.942  15.045  11.270  1.00  0.00    -0.029 C 
HETATM    2  C10 UNL     1      -7.156  16.277  11.055  1.00  0.00     0.067 C 
HETATM    3  C11 UNL     1      -5.714  16.261  11.396  1.00  0.00     0.023 C 
HETATM    4  C12 UNL     1      -5.290  17.712  10.972  1.00  0.00     0.038 C 
HETATM    5  C13 UNL     1      -5.427  16.354  12.890  1.00  0.00     0.038 C 
HETATM    6  N1  UNL     1      -4.856  15.441  10.643  1.00  0.00    -0.400 N 
ATOM      7  H1  UNL     1      -3.993  15.849  10.285  1.00  0.00     0.155 HD
HETATM    8  C14 UNL     1      -5.117  14.108  10.359  1.00  0.00     0.085 C 
HETATM    9  C17 UNL     1      -6.394  13.682   9.793  1.00  0.00     0.183 C 
HETATM   10  C18 UNL     1      -7.617  13.784  10.648  1.00  0.00     0.128 C 
HETATM   11 BR2  UNL     1      -9.087  13.207   9.485  1.00  0.00    -0.065 Br
HETATM   12 BR3  UNL     1      -7.591  12.337  12.001  1.00  0.00    -0.065 Br
ENDROOT
BRANCH   1  13
HETATM   13  C8  UNL     1      -9.393  15.314  11.585  1.00  0.00     0.035 A 
HETATM   14  C2  UNL     1      -9.877  15.086  12.872  1.00  0.00     0.081 A 
HETATM   15  C3  UNL     1     -11.130  15.460  13.290  1.00  0.00     0.038 A 
HETATM   16  C4  UNL     1     -11.952  16.092  12.375  1.00  0.00     0.005 A 
HETATM   17  C5  UNL     1     -11.519  16.330  11.104  1.00  0.00     0.038 A 
HETATM   18  C6  UNL     1     -10.257  15.947  10.711  1.00  0.00     0.081 A 
BRANCH  14  19
HETATM   19  O1  UNL     1      -9.038  14.435  13.757  1.00  0.00    -0.355 OA
HETATM   20  C1  UNL     1      -8.467  14.955  14.916  1.00  0.00     0.210 C 
ENDBRANCH  14  19
BRANCH  18  21
HETATM   21  O2  UNL     1      -9.811  16.193   9.398  1.00  0.00    -0.355 OA
HETATM   22  C7  UNL     1     -10.696  16.433   8.345  1.00  0.00     0.210 C 
ENDBRANCH  18  21
ENDBRANCH   1  13
BRANCH   9  23
HETATM   23  O4  UNL     1      -6.681  14.079   8.491  1.00  0.00    -0.390 OA
ATOM     24  H4  UNL     1      -7.412  13.656   8.056  1.00  0.00     0.210 HD
ENDBRANCH   9  23
BRANCH   8  25
HETATM   25  C15 UNL     1      -4.665  13.130  11.443  1.00  0.00     0.198 C 
BRANCH  25  26
HETATM   26  O3  UNL     1      -3.432  13.496  11.961  1.00  0.00    -0.398 OA
ATOM     27  H3  UNL     1      -2.990  14.110  11.387  1.00  0.00     0.209 HD
ENDBRANCH  25  26
ENDBRANCH   8  25
BRANCH   8  28
HETATM   28  C16 UNL     1      -4.079  13.732   9.258  1.00  0.00     0.120 C 
HETATM   29 BR1  UNL     1      -4.055  11.849   8.944  1.00  0.00    -0.094 Br
ENDBRANCH   8  28
TORSDOF 7
ENDMDL
MODEL 5
REMARK VINA RESULT: -5.618827454      1.971      3.312
REMARK  7 active torsions:
REMARK  status: ('A' for Active; 'I' for Inactive)
REMARK    1  A    between atoms: O1_2  and  C2_3 
REMARK    2  A    between atoms: C6_7  and  O2_8 
REMARK    3  A    between atoms: C8_10  and  C9_11 
REMARK    4  A    between atoms: C14_18  and  C15_19 
REMARK    5  A    between atoms: C14_18  and  C16_22 
REMARK    6  A    between atoms: C15_19  and  O3_20 
REMARK    7  A    between atoms: C17_24  and  O4_25 
ROOT
HETATM    1  C9  UNL     1      -6.335  13.670  11.198  1.00  0.00    -0.029 C 
HETATM    2  C10 UNL     1      -7.012  12.551  11.882  1.00  0.00     0.067 C 
HETATM    3  C11 UNL     1      -6.718  12.321  13.317  1.00  0.00     0.023 C 
HETATM    4  C12 UNL     1      -7.666  11.108  13.625  1.00  0.00     0.038 C 
HETATM    5  C13 UNL     1      -5.375  11.649  13.576  1.00  0.00     0.038 C 
HETATM    6  N1  UNL     1      -7.123  13.292  14.248  1.00  0.00    -0.400 N 
ATOM      7  H1  UNL     1      -7.626  12.982  15.079  1.00  0.00     0.155 HD
HETATM    8  C14 UNL     1      -6.879  14.650  14.101  1.00  0.00     0.085 C 
HETATM    9  C17 UNL     1      -7.218  15.360  12.871  1.00  0.00     0.183 C 
HETATM   10  C18 UNL     1      -6.441  15.042  11.633  1.00  0.00     0.128 C 
HETATM   11 BR2  UNL     1      -7.273  16.132  10.230  1.00  0.00    -0.065 Br
HETATM   12 BR3  UNL     1      -4.644  15.865  11.760  1.00  0.00    -0.065 Br
ENDROOT
BRANCH   1  13
HETATM   13  C8  UNL     1      -6.116  13.420   9.725  1.00  0.00     0.035 A 
HETATM   14  C2  UNL     1      -7.207  13.382   8.859  1.00  0.00     0.081 A 
HETATM   15  C3  UNL     1      -7.090  13.330   7.492  1.00  0.00     0.038 A 
HETATM   16  C4  UNL     1      -5.816  13.310   6.955  1.00  0.00     0.005 A 
HETATM   17  C5  UNL     1      -4.721  13.341   7.769  1.00  0.00     0.038 A 
HETATM   18  C6  UNL     1      -4.866  13.395   9.136  1.00  0.00     0.081 A 
BRANCH  14  19
HETATM   19  O1  UNL     1      -8.467  13.385   9.428  1.00  0.00    -0.355 OA
HETATM   20  C1  UNL     1      -9.678  13.653   8.795  1.00  0.00     0.210 C 
ENDBRANCH  14  19
BRANCH  18  21
HETATM   21  O2  UNL     1      -3.735  13.427   9.974  1.00  0.00    -0.355 OA
HETATM   22  C7  UNL     1      -2.480  12.985   9.547  1.00  0.00     0.210 C 
ENDBRANCH  18  21
ENDBRANCH   1  13
BRANCH   9  23
HETATM   23  O4  UNL     1      -8.569  15.507  12.569  1.00  0.00    -0.390 OA
ATOM     24  H4  UNL     1      -9.144  14.780  12.776  1.00  0.00     0.210 HD
ENDBRANCH   9  23
BRANCH   8  25
HETATM   25  C15 UNL     1      -5.516  15.107  14.618  1.00  0.00     0.198 C 
BRANCH  25  26
HETATM   26  O3  UNL     1      -5.394  14.870  15.979  1.00  0.00    -0.398 OA
ATOM     27  H3  UNL     1      -4.522  15.088  16.286  1.00  0.00     0.209 HD
ENDBRANCH  25  26
ENDBRANCH   8  25
BRANCH   8  28
HETATM   28  C16 UNL     1      -7.778  15.329  15.181  1.00  0.00     0.120 C 
HETATM   29 BR1  UNL     1      -8.996  14.077  15.952  1.00  0.00    -0.094 Br
ENDBRANCH   8  28
TORSDOF 7
ENDMDL
