MODEL 1
REMARK VINA RESULT: -10.335383598      0.000      0.000
REMARK  5 active torsions:
REMARK  status: ('A' for Active; 'I' for Inactive)
REMARK       I    between atoms: N2_10  and  C7_11 
REMARK       I    between atoms: C7_11  and  N3_13 
REMARK    1  A    between atoms: N3_13  and  C8_15 
REMARK    2  A    between atoms: N4_19  and  C12_20 
REMARK    3  A    between atoms: C12_20  and  C13_21 
REMARK       I    between atoms: C13_21  and  N5_23 
REMARK       I    between atoms: N5_23  and  C14_24 
REMARK    4  A    between atoms: N5_23  and  C20_36 
REMARK       I    between atoms: C14_24  and  N6_26 
REMARK    5  A    between atoms: N6_26  and  C15_28 
ROOT
HETATM    1  C12 UNL     1      -9.236  13.691  11.482  1.00  0.00     0.229 C 
ENDROOT
BRANCH   1   2
HETATM    2  N4  UNL     1      -9.927  14.818  10.831  1.00  0.00    -0.342 N 
HETATM    3  C11 UNL     1      -9.881  16.151  11.397  1.00  0.00     0.126 C 
HETATM    4  C10 UNL     1     -11.168  16.898  11.331  1.00  0.00     0.022 C 
HETATM    5  C9  UNL     1     -12.075  16.523  10.206  1.00  0.00     0.037 C 
HETATM    6  C8  UNL     1     -11.271  15.928   9.093  1.00  0.00     0.178 C 
HETATM    7  C26 UNL     1     -10.665  14.658   9.625  1.00  0.00     0.243 C 
HETATM    8  O5  UNL     1     -10.776  13.550   9.088  1.00  0.00    -0.271 OA
BRANCH   6   9
HETATM    9  N3  UNL     1     -12.066  15.659   7.910  1.00  0.00    -0.330 N 
HETATM   10  C7  UNL     1     -11.419  15.839   6.644  1.00  0.00     0.320 C 
HETATM   11  N2  UNL     1     -12.021  15.632   5.391  1.00  0.00    -0.315 N 
HETATM   12  O2  UNL     1     -10.191  16.221   6.619  1.00  0.00    -0.247 OA
HETATM   13  C2  UNL     1     -13.397  15.211   5.278  1.00  0.00     0.110 C 
HETATM   14  C6  UNL     1     -11.245  15.846   4.187  1.00  0.00     0.148 C 
HETATM   15  C1  UNL     1     -14.363  16.227   5.866  1.00  0.00     0.049 C 
HETATM   16  C3  UNL     1     -13.655  13.855   5.894  1.00  0.00     0.049 C 
HETATM   17  C4  UNL     1     -13.780  15.094   3.819  1.00  0.00     0.245 C 
HETATM   18  O1  UNL     1     -14.524  14.171   3.404  1.00  0.00    -0.271 OA
HETATM   19  N1  UNL     1     -13.289  16.049   2.888  1.00  0.00    -0.357 N 
HETATM   20  C5  UNL     1     -12.006  16.670   3.171  1.00  0.00     0.142 C 
ATOM     21  H1  UNL     1     -13.819  16.290   2.051  1.00  0.00     0.162 HD
ATOM     22  H3  UNL     1     -13.038  15.357   7.975  1.00  0.00     0.165 HD
ENDBRANCH   6   9
ENDBRANCH   1   2
BRANCH   1  23
HETATM   23  C13 UNL     1      -8.051  13.302  10.681  1.00  0.00     0.246 C 
HETATM   24  O3  UNL     1      -8.260  12.283   9.952  1.00  0.00    -0.271 OA
HETATM   25  N5  UNL     1      -6.790  13.944  10.667  1.00  0.00    -0.264 N 
HETATM   26  C14 UNL     1      -5.727  13.544   9.818  1.00  0.00     0.325 C 
HETATM   27  O4  UNL     1      -4.630  14.217   9.932  1.00  0.00    -0.247 OA
HETATM   28  N6  UNL     1      -5.785  12.502   8.894  1.00  0.00    -0.335 N 
ATOM     29  H6  UNL     1      -6.638  11.953   8.782  1.00  0.00     0.164 HD
BRANCH  25  30
HETATM   30  C20 UNL     1      -6.473  15.071  11.528  1.00  0.00     0.097 C 
HETATM   31  C21 UNL     1      -5.369  14.940  12.486  1.00  0.00     0.026 C 
HETATM   32  C22 UNL     1      -5.567  16.084  13.512  1.00  0.00     0.002 C 
HETATM   33  C23 UNL     1      -6.545  17.108  13.026  1.00  0.00     0.000 C 
HETATM   34  C24 UNL     1      -6.461  17.513  11.606  1.00  0.00     0.002 C 
HETATM   35  C25 UNL     1      -6.242  16.338  10.689  1.00  0.00     0.026 C 
ENDBRANCH  25  30
BRANCH  28  36
HETATM   36  C15 UNL     1      -4.584  12.206   8.079  1.00  0.00     0.126 C 
HETATM   37  C16 UNL     1      -3.384  11.977   8.972  1.00  0.00     0.107 C 
HETATM   38  C17 UNL     1      -2.216  12.357   8.086  1.00  0.00     0.248 C 
HETATM   39  F1  UNL     1      -1.244  12.934   8.863  1.00  0.00    -0.206 F 
HETATM   40  F2  UNL     1      -1.683  11.239   7.451  1.00  0.00    -0.206 F 
HETATM   41  C18 UNL     1      -2.758  13.352   7.094  1.00  0.00     0.118 C 
HETATM   42  C19 UNL     1      -4.250  13.306   7.131  1.00  0.00     0.198 C 
HETATM   43  F3  UNL     1      -4.694  12.987   5.846  1.00  0.00    -0.247 F 
ENDBRANCH  28  36
ENDBRANCH   1  23
TORSDOF 5
ENDMDL
MODEL 2
REMARK VINA RESULT: -10.271433245     11.090     14.192
REMARK  5 active torsions:
REMARK  status: ('A' for Active; 'I' for Inactive)
REMARK       I    between atoms: N2_10  and  C7_11 
REMARK       I    between atoms: C7_11  and  N3_13 
REMARK    1  A    between atoms: N3_13  and  C8_15 
REMARK    2  A    between atoms: N4_19  and  C12_20 
REMARK    3  A    between atoms: C12_20  and  C13_21 
REMARK       I    between atoms: C13_21  and  N5_23 
REMARK       I    between atoms: N5_23  and  C14_24 
REMARK    4  A    between atoms: N5_23  and  C20_36 
REMARK       I    between atoms: C14_24  and  N6_26 
REMARK    5  A    between atoms: N6_26  and  C15_28 
ROOT
HETATM    1  C12 UNL     1      -6.654  22.188  -1.111  1.00  0.00     0.229 C 
ENDROOT
BRANCH   1   2
HETATM    2  N4  UNL     1      -7.850  21.715  -1.831  1.00  0.00    -0.342 N 
HETATM    3  C11 UNL     1      -8.035  21.999  -3.240  1.00  0.00     0.126 C 
HETATM    4  C10 UNL     1      -9.429  22.357  -3.624  1.00  0.00     0.022 C 
HETATM    5  C9  UNL     1     -10.503  21.781  -2.762  1.00  0.00     0.037 C 
HETATM    6  C8  UNL     1      -9.997  20.541  -2.094  1.00  0.00     0.178 C 
HETATM    7  C26 UNL     1      -8.873  20.963  -1.189  1.00  0.00     0.243 C 
HETATM    8  O5  UNL     1      -8.807  20.697   0.017  1.00  0.00    -0.271 OA
BRANCH   6   9
HETATM    9  N3  UNL     1     -11.027  19.849  -1.343  1.00  0.00    -0.330 N 
HETATM   10  C7  UNL     1     -11.591  18.680  -1.949  1.00  0.00     0.320 C 
HETATM   11  N2  UNL     1     -12.597  17.880  -1.381  1.00  0.00    -0.315 N 
HETATM   12  O2  UNL     1     -11.166  18.307  -3.104  1.00  0.00    -0.247 OA
HETATM   13  C2  UNL     1     -13.168  18.191  -0.092  1.00  0.00     0.110 C 
HETATM   14  C6  UNL     1     -13.073  16.717  -2.103  1.00  0.00     0.148 C 
HETATM   15  C1  UNL     1     -13.871  19.539  -0.081  1.00  0.00     0.049 C 
HETATM   16  C3  UNL     1     -12.159  18.140   1.033  1.00  0.00     0.049 C 
HETATM   17  C4  UNL     1     -14.239  17.179   0.253  1.00  0.00     0.245 C 
HETATM   18  O1  UNL     1     -14.388  16.749   1.424  1.00  0.00    -0.271 OA
HETATM   19  N1  UNL     1     -15.103  16.699  -0.768  1.00  0.00    -0.357 N 
HETATM   20  C5  UNL     1     -14.584  16.653  -2.124  1.00  0.00     0.142 C 
ATOM     21  H1  UNL     1     -16.054  16.398  -0.555  1.00  0.00     0.162 HD
ATOM     22  H3  UNL     1     -11.335  20.179  -0.428  1.00  0.00     0.165 HD
ENDBRANCH   6   9
ENDBRANCH   1   2
BRANCH   1  23
HETATM   23  C13 UNL     1      -6.925  23.515  -0.512  1.00  0.00     0.246 C 
HETATM   24  O3  UNL     1      -7.851  23.486   0.357  1.00  0.00    -0.271 OA
HETATM   25  N5  UNL     1      -6.267  24.732  -0.813  1.00  0.00    -0.264 N 
HETATM   26  C14 UNL     1      -6.545  25.950  -0.143  1.00  0.00     0.325 C 
HETATM   27  O4  UNL     1      -5.873  26.980  -0.541  1.00  0.00    -0.247 OA
HETATM   28  N6  UNL     1      -7.469  26.106   0.890  1.00  0.00    -0.335 N 
ATOM     29  H6  UNL     1      -8.012  25.311   1.225  1.00  0.00     0.164 HD
BRANCH  25  30
HETATM   30  C20 UNL     1      -5.247  24.838  -1.843  1.00  0.00     0.097 C 
HETATM   31  C21 UNL     1      -4.214  23.800  -1.925  1.00  0.00     0.026 C 
HETATM   32  C22 UNL     1      -3.077  24.407  -2.785  1.00  0.00     0.002 C 
HETATM   33  C23 UNL     1      -3.522  25.638  -3.512  1.00  0.00     0.000 C 
HETATM   34  C24 UNL     1      -4.867  25.618  -4.128  1.00  0.00     0.002 C 
HETATM   35  C25 UNL     1      -5.898  24.987  -3.227  1.00  0.00     0.026 C 
ENDBRANCH  25  30
BRANCH  28  36
HETATM   36  C15 UNL     1      -7.645  27.449   1.489  1.00  0.00     0.126 C 
HETATM   37  C16 UNL     1      -8.059  27.329   2.940  1.00  0.00     0.107 C 
HETATM   38  C17 UNL     1      -8.817  28.615   3.192  1.00  0.00     0.248 C 
HETATM   39  F1  UNL     1      -9.838  28.358   4.071  1.00  0.00    -0.206 F 
HETATM   40  F2  UNL     1      -7.987  29.590   3.736  1.00  0.00    -0.206 F 
HETATM   41  C18 UNL     1      -9.366  29.038   1.855  1.00  0.00     0.118 C 
HETATM   42  C19 UNL     1      -8.676  28.261   0.783  1.00  0.00     0.198 C 
HETATM   43  F3  UNL     1      -8.064  29.177  -0.075  1.00  0.00    -0.247 F 
ENDBRANCH  28  36
ENDBRANCH   1  23
TORSDOF 5
ENDMDL
MODEL 3
REMARK VINA RESULT: -10.194663493      9.379     13.279
REMARK  5 active torsions:
REMARK  status: ('A' for Active; 'I' for Inactive)
REMARK       I    between atoms: N2_10  and  C7_11 
REMARK       I    between atoms: C7_11  and  N3_13 
REMARK    1  A    between atoms: N3_13  and  C8_15 
REMARK    2  A    between atoms: N4_19  and  C12_20 
REMARK    3  A    between atoms: C12_20  and  C13_21 
REMARK       I    between atoms: C13_21  and  N5_23 
REMARK       I    between atoms: N5_23  and  C14_24 
REMARK    4  A    between atoms: N5_23  and  C20_36 
REMARK       I    between atoms: C14_24  and  N6_26 
REMARK    5  A    between atoms: N6_26  and  C15_28 
ROOT
HETATM    1  C12 UNL     1      -8.070  21.603  -1.111  1.00  0.00     0.229 C 
ENDROOT
BRANCH   1   2
HETATM    2  N4  UNL     1      -9.413  21.030  -1.304  1.00  0.00    -0.342 N 
HETATM    3  C11 UNL     1     -10.209  21.365  -2.468  1.00  0.00     0.126 C 
HETATM    4  C10 UNL     1     -11.658  21.573  -2.191  1.00  0.00     0.022 C 
HETATM    5  C9  UNL     1     -12.204  20.825  -1.020  1.00  0.00     0.037 C 
HETATM    6  C8  UNL     1     -11.356  19.621  -0.756  1.00  0.00     0.178 C 
HETATM    7  C26 UNL     1      -9.992  20.126  -0.370  1.00  0.00     0.243 C 
HETATM    8  O5  UNL     1      -9.393  19.805   0.662  1.00  0.00    -0.271 OA
BRANCH   6   9
HETATM    9  N3  UNL     1     -11.900  18.770   0.286  1.00  0.00    -0.330 N 
HETATM   10  C7  UNL     1     -12.299  17.451  -0.104  1.00  0.00     0.320 C 
HETATM   11  N2  UNL     1     -12.848  16.485   0.757  1.00  0.00    -0.315 N 
HETATM   12  O2  UNL     1     -12.158  17.091  -1.330  1.00  0.00    -0.247 OA
HETATM   13  C2  UNL     1     -13.066  16.762   2.157  1.00  0.00     0.110 C 
HETATM   14  C6  UNL     1     -13.202  15.183   0.230  1.00  0.00     0.148 C 
HETATM   15  C1  UNL     1     -14.056  17.896   2.375  1.00  0.00     0.049 C 
HETATM   16  C3  UNL     1     -11.790  17.056   2.911  1.00  0.00     0.049 C 
HETATM   17  C4  UNL     1     -13.688  15.556   2.828  1.00  0.00     0.245 C 
HETATM   18  O1  UNL     1     -13.364  15.208   3.991  1.00  0.00    -0.271 OA
HETATM   19  N1  UNL     1     -14.664  14.794   2.132  1.00  0.00    -0.357 N 
HETATM   20  C5  UNL     1     -14.581  14.754   0.682  1.00  0.00     0.142 C 
ATOM     21  H1  UNL     1     -15.397  14.292   2.633  1.00  0.00     0.162 HD
ATOM     22  H3  UNL     1     -11.994  19.095   1.248  1.00  0.00     0.165 HD
ENDBRANCH   6   9
ENDBRANCH   1   2
BRANCH   1  23
HETATM   23  C13 UNL     1      -8.186  22.967  -0.543  1.00  0.00     0.246 C 
HETATM   24  O3  UNL     1      -9.318  23.185  -0.009  1.00  0.00    -0.271 OA
HETATM   25  N5  UNL     1      -7.192  23.975  -0.546  1.00  0.00    -0.264 N 
HETATM   26  C14 UNL     1      -7.365  25.234   0.080  1.00  0.00     0.325 C 
HETATM   27  O4  UNL     1      -6.373  26.057  -0.023  1.00  0.00    -0.247 OA
HETATM   28  N6  UNL     1      -8.501  25.635   0.782  1.00  0.00    -0.335 N 
ATOM     29  H6  UNL     1      -9.299  25.007   0.880  1.00  0.00     0.164 HD
BRANCH  25  30
HETATM   30  C20 UNL     1      -5.905  23.805  -1.199  1.00  0.00     0.097 C 
HETATM   31  C21 UNL     1      -5.170  22.551  -0.998  1.00  0.00     0.026 C 
HETATM   32  C22 UNL     1      -3.712  22.846  -1.431  1.00  0.00     0.002 C 
HETATM   33  C23 UNL     1      -3.606  24.122  -2.207  1.00  0.00     0.000 C 
HETATM   34  C24 UNL     1      -4.654  24.399  -3.213  1.00  0.00     0.002 C 
HETATM   35  C25 UNL     1      -6.034  24.057  -2.710  1.00  0.00     0.026 C 
ENDBRANCH  25  30
BRANCH  28  36
HETATM   36  C15 UNL     1      -8.527  26.990   1.380  1.00  0.00     0.126 C 
HETATM   37  C16 UNL     1      -8.575  26.898   2.890  1.00  0.00     0.107 C 
HETATM   38  C17 UNL     1      -9.251  28.191   3.295  1.00  0.00     0.248 C 
HETATM   39  F1  UNL     1     -10.027  27.955   4.401  1.00  0.00    -0.206 F 
HETATM   40  F2  UNL     1      -8.313  29.173   3.601  1.00  0.00    -0.206 F 
HETATM   41  C18 UNL     1     -10.109  28.591   2.124  1.00  0.00     0.118 C 
HETATM   42  C19 UNL     1      -9.700  27.791   0.931  1.00  0.00     0.198 C 
HETATM   43  F3  UNL     1      -9.316  28.689  -0.068  1.00  0.00    -0.247 F 
ENDBRANCH  28  36
ENDBRANCH   1  23
TORSDOF 5
ENDMDL
MODEL 4
REMARK VINA RESULT: -10.149999601      8.171     11.794
REMARK  5 active torsions:
REMARK  status: ('A' for Active; 'I' for Inactive)
REMARK       I    between atoms: N2_10  and  C7_11 
REMARK       I    between atoms: C7_11  and  N3_13 
REMARK    1  A    between atoms: N3_13  and  C8_15 
REMARK    2  A    between atoms: N4_19  and  C12_20 
REMARK    3  A    between atoms: C12_20  and  C13_21 
REMARK       I    between atoms: C13_21  and  N5_23 
REMARK       I    between atoms: N5_23  and  C14_24 
REMARK    4  A    between atoms: N5_23  and  C20_36 
REMARK       I    between atoms: C14_24  and  N6_26 
REMARK    5  A    between atoms: N6_26  and  C15_28 
ROOT
HETATM    1  C12 UNL     1      -8.982  22.515  -0.227  1.00  0.00     0.229 C 
ENDROOT
BRANCH   1   2
HETATM    2  N4  UNL     1      -9.886  21.437  -0.667  1.00  0.00    -0.342 N 
HETATM    3  C11 UNL     1     -10.259  21.296  -2.060  1.00  0.00     0.126 C 
HETATM    4  C10 UNL     1     -11.688  20.940  -2.287  1.00  0.00     0.022 C 
HETATM    5  C9  UNL     1     -12.344  20.173  -1.188  1.00  0.00     0.037 C 
HETATM    6  C8  UNL     1     -11.303  19.443  -0.398  1.00  0.00     0.178 C 
HETATM    7  C26 UNL     1     -10.430  20.488   0.242  1.00  0.00     0.243 C 
HETATM    8  O5  UNL     1     -10.184  20.550   1.452  1.00  0.00    -0.271 OA
BRANCH   6   9
HETATM    9  N3  UNL     1     -11.875  18.568   0.609  1.00  0.00    -0.330 N 
HETATM   10  C7  UNL     1     -12.304  17.274   0.169  1.00  0.00     0.320 C 
HETATM   11  N2  UNL     1     -12.882  16.291   0.990  1.00  0.00    -0.315 N 
HETATM   12  O2  UNL     1     -12.163  16.956  -1.069  1.00  0.00    -0.247 OA
HETATM   13  C2  UNL     1     -13.104  16.522   2.397  1.00  0.00     0.110 C 
HETATM   14  C6  UNL     1     -13.264  15.018   0.413  1.00  0.00     0.148 C 
HETATM   15  C1  UNL     1     -14.067  17.671   2.650  1.00  0.00     0.049 C 
HETATM   16  C3  UNL     1     -11.826  16.757   3.170  1.00  0.00     0.049 C 
HETATM   17  C4  UNL     1     -13.759  15.308   3.020  1.00  0.00     0.245 C 
HETATM   18  O1  UNL     1     -13.453  14.910   4.171  1.00  0.00    -0.271 OA
HETATM   19  N1  UNL     1     -14.748  14.595   2.290  1.00  0.00    -0.357 N 
HETATM   20  C5  UNL     1     -14.656  14.607   0.840  1.00  0.00     0.142 C 
ATOM     21  H1  UNL     1     -15.497  14.093   2.768  1.00  0.00     0.162 HD
ATOM     22  H3  UNL     1     -11.969  18.860   1.582  1.00  0.00     0.165 HD
ENDBRANCH   6   9
ENDBRANCH   1   2
BRANCH   1  23
HETATM   23  C13 UNL     1      -7.575  22.061  -0.335  1.00  0.00     0.246 C 
HETATM   24  O3  UNL     1      -7.143  21.534   0.736  1.00  0.00    -0.271 OA
HETATM   25  N5  UNL     1      -6.737  22.163  -1.471  1.00  0.00    -0.264 N 
HETATM   26  C14 UNL     1      -5.419  21.642  -1.509  1.00  0.00     0.325 C 
HETATM   27  O4  UNL     1      -4.770  21.827  -2.612  1.00  0.00    -0.247 OA
HETATM   28  N6  UNL     1      -4.793  20.962  -0.466  1.00  0.00    -0.335 N 
ATOM     29  H6  UNL     1      -5.280  20.801   0.416  1.00  0.00     0.164 HD
BRANCH  25  30
HETATM   30  C20 UNL     1      -7.155  22.816  -2.700  1.00  0.00     0.097 C 
HETATM   31  C21 UNL     1      -6.455  24.032  -3.128  1.00  0.00     0.026 C 
HETATM   32  C22 UNL     1      -7.381  24.704  -4.172  1.00  0.00     0.002 C 
HETATM   33  C23 UNL     1      -8.455  23.775  -4.647  1.00  0.00     0.000 C 
HETATM   34  C24 UNL     1      -8.072  22.373  -4.921  1.00  0.00     0.002 C 
HETATM   35  C25 UNL     1      -7.151  21.815  -3.866  1.00  0.00     0.026 C 
ENDBRANCH  25  30
BRANCH  28  36
HETATM   36  C15 UNL     1      -3.406  20.479  -0.662  1.00  0.00     0.126 C 
HETATM   37  C16 UNL     1      -3.080  19.391   0.339  1.00  0.00     0.107 C 
HETATM   38  C17 UNL     1      -1.576  19.487   0.478  1.00  0.00     0.248 C 
HETATM   39  F1  UNL     1      -1.234  19.191   1.773  1.00  0.00    -0.206 F 
HETATM   40  F2  UNL     1      -0.934  18.594  -0.374  1.00  0.00    -0.206 F 
HETATM   41  C18 UNL     1      -1.223  20.915   0.152  1.00  0.00     0.118 C 
HETATM   42  C19 UNL     1      -2.394  21.562  -0.508  1.00  0.00     0.198 C 
HETATM   43  F3  UNL     1      -1.976  22.013  -1.762  1.00  0.00    -0.247 F 
ENDBRANCH  28  36
ENDBRANCH   1  23
TORSDOF 5
ENDMDL
MODEL 5
REMARK VINA RESULT: -10.093310358      7.856     12.835
REMARK  5 active torsions:
REMARK  status: ('A' for Active; 'I' for Inactive)
REMARK       I    between atoms: N2_10  and  C7_11 
REMARK       I    between atoms: C7_11  and  N3_13 
REMARK    1  A    between atoms: N3_13  and  C8_15 
REMARK    2  A    between atoms: N4_19  and  C12_20 
REMARK    3  A    between atoms: C12_20  and  C13_21 
REMARK       I    between atoms: C13_21  and  N5_23 
REMARK       I    between atoms: N5_23  and  C14_24 
REMARK    4  A    between atoms: N5_23  and  C20_36 
REMARK       I    between atoms: C14_24  and  N6_26 
REMARK    5  A    between atoms: N6_26  and  C15_28 
ROOT
HETATM    1  C12 UNL     1     -12.839  20.505   0.239  1.00  0.00     0.229 C 
ENDROOT
BRANCH   1   2
HETATM    2  N4  UNL     1     -11.523  21.103  -0.050  1.00  0.00    -0.342 N 
HETATM    3  C11 UNL     1     -10.524  20.379  -0.809  1.00  0.00     0.126 C 
HETATM    4  C10 UNL     1      -9.131  20.527  -0.302  1.00  0.00     0.022 C 
HETATM    5  C9  UNL     1      -8.839  21.801   0.419  1.00  0.00     0.037 C 
HETATM    6  C8  UNL     1      -9.799  22.859  -0.027  1.00  0.00     0.178 C 
HETATM    7  C26 UNL     1     -11.171  22.408   0.394  1.00  0.00     0.243 C 
HETATM    8  O5  UNL     1     -11.954  23.085   1.069  1.00  0.00    -0.271 OA
BRANCH   6   9
HETATM    9  N3  UNL     1      -9.495  24.163   0.532  1.00  0.00    -0.330 N 
HETATM   10  C7  UNL     1      -9.517  25.273  -0.373  1.00  0.00     0.320 C 
HETATM   11  N2  UNL     1      -9.248  26.607  -0.023  1.00  0.00    -0.315 N 
HETATM   12  O2  UNL     1      -9.799  25.066  -1.611  1.00  0.00    -0.247 OA
HETATM   13  C2  UNL     1      -8.909  26.977   1.330  1.00  0.00     0.110 C 
HETATM   14  C6  UNL     1      -9.312  27.636  -1.042  1.00  0.00     0.148 C 
HETATM   15  C1  UNL     1      -7.623  26.320   1.804  1.00  0.00     0.049 C 
HETATM   16  C3  UNL     1     -10.016  26.688   2.320  1.00  0.00     0.049 C 
HETATM   17  C4  UNL     1      -8.649  28.465   1.407  1.00  0.00     0.245 C 
HETATM   18  O1  UNL     1      -9.021  29.151   2.392  1.00  0.00    -0.271 OA
HETATM   19  N1  UNL     1      -7.966  29.111   0.342  1.00  0.00    -0.357 N 
HETATM   20  C5  UNL     1      -8.107  28.549  -0.990  1.00  0.00     0.142 C 
ATOM     21  H1  UNL     1      -7.397  29.942   0.507  1.00  0.00     0.162 HD
ATOM     22  H3  UNL     1      -9.276  24.284   1.521  1.00  0.00     0.165 HD
ENDBRANCH   6   9
ENDBRANCH   1   2
BRANCH   1  23
HETATM   23  C13 UNL     1     -12.666  19.311   1.099  1.00  0.00     0.246 C 
HETATM   24  O3  UNL     1     -12.193  19.590   2.244  1.00  0.00    -0.271 OA
HETATM   25  N5  UNL     1     -12.973  17.971   0.761  1.00  0.00    -0.264 N 
HETATM   26  C14 UNL     1     -12.837  16.892   1.671  1.00  0.00     0.325 C 
HETATM   27  O4  UNL     1     -13.142  15.724   1.210  1.00  0.00    -0.247 OA
HETATM   28  N6  UNL     1     -12.410  17.005   2.993  1.00  0.00    -0.335 N 
ATOM     29  H6  UNL     1     -12.163  17.914   3.384  1.00  0.00     0.164 HD
BRANCH  25  30
HETATM   30  C20 UNL     1     -13.453  17.584  -0.555  1.00  0.00     0.097 C 
HETATM   31  C21 UNL     1     -14.550  18.348  -1.160  1.00  0.00     0.026 C 
HETATM   32  C22 UNL     1     -15.104  17.456  -2.299  1.00  0.00     0.002 C 
HETATM   33  C23 UNL     1     -14.174  16.331  -2.631  1.00  0.00     0.000 C 
HETATM   34  C24 UNL     1     -12.727  16.636  -2.687  1.00  0.00     0.002 C 
HETATM   35  C25 UNL     1     -12.288  17.529  -1.555  1.00  0.00     0.026 C 
ENDBRANCH  25  30
BRANCH  28  36
HETATM   36  C15 UNL     1     -12.319  15.777   3.818  1.00  0.00     0.126 C 
HETATM   37  C16 UNL     1     -13.636  15.513   4.516  1.00  0.00     0.107 C 
HETATM   38  C17 UNL     1     -13.226  14.730   5.745  1.00  0.00     0.248 C 
HETATM   39  F1  UNL     1     -14.058  15.071   6.781  1.00  0.00    -0.206 F 
HETATM   40  F2  UNL     1     -13.318  13.360   5.522  1.00  0.00    -0.206 F 
HETATM   41  C18 UNL     1     -11.811  15.148   6.046  1.00  0.00     0.118 C 
HETATM   42  C19 UNL     1     -11.257  15.864   4.859  1.00  0.00     0.198 C 
HETATM   43  F3  UNL     1     -10.117  15.173   4.443  1.00  0.00    -0.247 F 
ENDBRANCH  28  36
ENDBRANCH   1  23
TORSDOF 5
ENDMDL
