MODEL 1
REMARK VINA RESULT: -8.270244818      0.000      0.000
REMARK  5 active torsions:
REMARK  status: ('A' for Active; 'I' for Inactive)
REMARK    1  A    between atoms: N1_2  and  C2_5 
REMARK    2  A    between atoms: C5_9  and  C6_11 
REMARK    3  A    between atoms: C6_11  and  N2_12 
REMARK       I    between atoms: N3_21  and  C14_22 
REMARK       I    between atoms: C14_22  and  N4_24 
REMARK    4  A    between atoms: N4_24  and  C15_26 
REMARK    5  A    between atoms: C18_29  and  C19_30 
ROOT
HETATM    1  N2  UNL     1      -6.540  14.224  12.662  1.00  0.00    -0.347 N 
HETATM    2  C7  UNL     1      -5.564  14.976  11.887  1.00  0.00     0.151 C 
HETATM    3  C8  UNL     1      -4.698  14.144  11.000  1.00  0.00     0.108 C 
HETATM    4  C9  UNL     1      -3.429  13.686  11.683  1.00  0.00     0.027 C 
HETATM    5  C10 UNL     1      -3.367  12.219  11.934  1.00  0.00     0.004 C 
HETATM    6  C11 UNL     1      -4.685  11.626  12.378  1.00  0.00     0.035 C 
HETATM    7  C12 UNL     1      -5.834  12.048  11.540  1.00  0.00     0.181 C 
HETATM    8  C13 UNL     1      -6.775  12.865  12.351  1.00  0.00     0.243 C 
HETATM    9  O1  UNL     1      -7.835  12.265  12.762  1.00  0.00    -0.271 OA
HETATM   10  N3  UNL     1      -5.354  12.965  10.492  1.00  0.00    -0.314 N 
HETATM   11  C14 UNL     1      -5.554  12.655   9.127  1.00  0.00     0.319 C 
HETATM   12  O2  UNL     1      -6.153  11.568   8.843  1.00  0.00    -0.247 OA
HETATM   13  N4  UNL     1      -5.136  13.468   8.060  1.00  0.00    -0.338 N 
ATOM     14  H4  UNL     1      -4.653  14.342   8.267  1.00  0.00     0.164 HD
ENDROOT
BRANCH   1  15
HETATM   15  C6  UNL     1      -7.239  14.933  13.683  1.00  0.00     0.148 C 
BRANCH  15  16
HETATM   16  C5  UNL     1      -8.329  15.849  13.310  1.00  0.00     0.053 C 
HETATM   17  C4  UNL     1      -9.512  15.764  14.236  1.00  0.00     0.105 C 
HETATM   18  C3  UNL     1     -10.387  16.977  13.887  1.00  0.00     0.057 C 
HETATM   19 CL1  UNL     1     -10.421  14.274  13.772  1.00  0.00    -0.123 Cl
HETATM   20  C2  UNL     1     -10.867  16.926  12.480  1.00  0.00     0.220 C 
HETATM   21  C23 UNL     1      -9.797  16.575  11.515  1.00  0.00     0.202 C 
HETATM   22  C22 UNL     1      -8.872  15.468  11.931  1.00  0.00     0.063 C 
HETATM   23  F1  UNL     1     -10.416  16.164  10.335  1.00  0.00    -0.247 F 
HETATM   24 BR1  UNL     1      -7.731  17.688  13.105  1.00  0.00    -0.082 Br
BRANCH  20  25
HETATM   25  N1  UNL     1     -11.975  16.004  12.304  1.00  0.00    -0.072 N 
HETATM   26  C1  UNL     1     -13.206  16.509  12.857  1.00  0.00     0.267 C 
ATOM     27  H12 UNL     1     -11.752  15.085  12.684  1.00  0.00     0.277 HD
ATOM     28  H11 UNL     1     -12.090  15.752  11.322  1.00  0.00     0.277 HD
ENDBRANCH  20  25
ENDBRANCH  15  16
ENDBRANCH   1  15
BRANCH  13  29
HETATM   29  C15 UNL     1      -5.370  13.101   6.656  1.00  0.00     0.086 C 
HETATM   30  C16 UNL     1      -6.658  13.667   6.157  1.00  0.00     0.026 C 
HETATM   31  C17 UNL     1      -6.824  13.764   4.690  1.00  0.00     0.015 C 
HETATM   32  C18 UNL     1      -5.641  13.174   3.947  1.00  0.00     0.075 C 
HETATM   33  C20 UNL     1      -4.420  13.932   4.471  1.00  0.00     0.015 C 
HETATM   34  C21 UNL     1      -4.162  13.406   5.841  1.00  0.00     0.026 C 
BRANCH  32  35
HETATM   35  C19 UNL     1      -5.787  13.329   2.495  1.00  0.00     0.235 C 
HETATM   36  N5  UNL     1      -6.404  14.485   1.977  1.00  0.00    -0.062 NA
HETATM   37  O3  UNL     1      -5.367  12.442   1.728  1.00  0.00    -0.277 OA
ENDBRANCH  32  35
ENDBRANCH  13  29
TORSDOF 5
ENDMDL
MODEL 2
REMARK VINA RESULT: -8.248780031      1.953      2.429
REMARK  5 active torsions:
REMARK  status: ('A' for Active; 'I' for Inactive)
REMARK    1  A    between atoms: N1_2  and  C2_5 
REMARK    2  A    between atoms: C5_9  and  C6_11 
REMARK    3  A    between atoms: C6_11  and  N2_12 
REMARK       I    between atoms: N3_21  and  C14_22 
REMARK       I    between atoms: C14_22  and  N4_24 
REMARK    4  A    between atoms: N4_24  and  C15_26 
REMARK    5  A    between atoms: C18_29  and  C19_30 
ROOT
HETATM    1  N2  UNL     1      -8.135  15.188  12.396  1.00  0.00    -0.347 N 
HETATM    2  C7  UNL     1      -7.730  16.118  11.352  1.00  0.00     0.151 C 
HETATM    3  C8  UNL     1      -6.518  15.706  10.585  1.00  0.00     0.108 C 
HETATM    4  C9  UNL     1      -5.235  16.223  11.195  1.00  0.00     0.027 C 
HETATM    5  C10 UNL     1      -4.363  15.163  11.773  1.00  0.00     0.004 C 
HETATM    6  C11 UNL     1      -5.129  14.082  12.502  1.00  0.00     0.035 C 
HETATM    7  C12 UNL     1      -6.288  13.561  11.737  1.00  0.00     0.181 C 
HETATM    8  C13 UNL     1      -7.551  13.901  12.443  1.00  0.00     0.243 C 
HETATM    9  O1  UNL     1      -8.100  12.949  13.111  1.00  0.00    -0.271 OA
HETATM   10  N3  UNL     1      -6.377  14.277  10.452  1.00  0.00    -0.314 N 
HETATM   11  C14 UNL     1      -6.323  13.563   9.233  1.00  0.00     0.319 C 
HETATM   12  O2  UNL     1      -6.193  12.297   9.287  1.00  0.00    -0.247 OA
HETATM   13  N4  UNL     1      -6.402  14.156   7.962  1.00  0.00    -0.338 N 
ATOM     14  H4  UNL     1      -6.505  15.169   7.898  1.00  0.00     0.164 HD
ENDROOT
BRANCH   1  15
HETATM   15  C6  UNL     1      -9.145  15.632  13.299  1.00  0.00     0.148 C 
BRANCH  15  16
HETATM   16  C5  UNL     1     -10.530  15.775  12.823  1.00  0.00     0.053 C 
HETATM   17  C4  UNL     1     -10.869  17.182  12.413  1.00  0.00     0.105 C 
HETATM   18  C3  UNL     1     -12.209  17.076  11.669  1.00  0.00     0.057 C 
HETATM   19 CL1  UNL     1     -11.154  18.106  13.938  1.00  0.00    -0.123 Cl
HETATM   20  C2  UNL     1     -13.289  16.553  12.548  1.00  0.00     0.220 C 
HETATM   21  C23 UNL     1     -12.869  15.371  13.341  1.00  0.00     0.202 C 
HETATM   22  C22 UNL     1     -11.502  15.442  13.957  1.00  0.00     0.063 C 
HETATM   23  F1  UNL     1     -13.778  15.225  14.388  1.00  0.00    -0.247 F 
HETATM   24 BR1  UNL     1     -10.976  14.509  11.416  1.00  0.00    -0.082 Br
BRANCH  20  25
HETATM   25  N1  UNL     1     -13.806  17.562  13.454  1.00  0.00    -0.072 N 
HETATM   26  C1  UNL     1     -15.038  18.145  12.985  1.00  0.00     0.267 C 
ATOM     27  H12 UNL     1     -13.107  18.282  13.640  1.00  0.00     0.277 HD
ATOM     28  H11 UNL     1     -13.913  17.189  14.398  1.00  0.00     0.277 HD
ENDBRANCH  20  25
ENDBRANCH  15  16
ENDBRANCH   1  15
BRANCH  13  29
HETATM   29  C15 UNL     1      -6.343  13.368   6.723  1.00  0.00     0.086 C 
HETATM   30  C16 UNL     1      -7.310  13.882   5.708  1.00  0.00     0.026 C 
HETATM   31  C17 UNL     1      -7.071  13.498   4.300  1.00  0.00     0.015 C 
HETATM   32  C18 UNL     1      -5.892  12.555   4.164  1.00  0.00     0.075 C 
HETATM   33  C20 UNL     1      -4.712  13.291   4.799  1.00  0.00     0.015 C 
HETATM   34  C21 UNL     1      -4.932  13.232   6.272  1.00  0.00     0.026 C 
BRANCH  32  35
HETATM   35  C19 UNL     1      -5.626  12.226   2.758  1.00  0.00     0.235 C 
HETATM   36  N5  UNL     1      -5.268  13.251   1.859  1.00  0.00    -0.062 NA
HETATM   37  O3  UNL     1      -5.716  11.048   2.365  1.00  0.00    -0.277 OA
ENDBRANCH  32  35
ENDBRANCH  13  29
TORSDOF 5
ENDMDL
MODEL 3
REMARK VINA RESULT: -8.162714035      5.495      7.909
REMARK  5 active torsions:
REMARK  status: ('A' for Active; 'I' for Inactive)
REMARK    1  A    between atoms: N1_2  and  C2_5 
REMARK    2  A    between atoms: C5_9  and  C6_11 
REMARK    3  A    between atoms: C6_11  and  N2_12 
REMARK       I    between atoms: N3_21  and  C14_22 
REMARK       I    between atoms: C14_22  and  N4_24 
REMARK    4  A    between atoms: N4_24  and  C15_26 
REMARK    5  A    between atoms: C18_29  and  C19_30 
ROOT
HETATM    1  N2  UNL     1     -12.195  15.487   7.348  1.00  0.00    -0.347 N 
HETATM    2  C7  UNL     1     -11.099  16.405   7.622  1.00  0.00     0.151 C 
HETATM    3  C8  UNL     1     -10.255  16.037   8.797  1.00  0.00     0.108 C 
HETATM    4  C9  UNL     1     -10.754  16.643  10.089  1.00  0.00     0.027 C 
HETATM    5  C10 UNL     1     -11.294  15.651  11.060  1.00  0.00     0.004 C 
HETATM    6  C11 UNL     1     -12.107  14.552  10.413  1.00  0.00     0.035 C 
HETATM    7  C12 UNL     1     -11.444  13.945   9.233  1.00  0.00     0.181 C 
HETATM    8  C13 UNL     1     -12.232  14.236   8.007  1.00  0.00     0.243 C 
HETATM    9  O1  UNL     1     -12.964  13.277   7.564  1.00  0.00    -0.271 OA
HETATM   10  N3  UNL     1     -10.151  14.615   9.010  1.00  0.00    -0.314 N 
HETATM   11  C14 UNL     1      -8.950  13.868   9.016  1.00  0.00     0.319 C 
HETATM   12  O2  UNL     1      -9.028  12.613   9.221  1.00  0.00    -0.247 OA
HETATM   13  N4  UNL     1      -7.673  14.417   8.810  1.00  0.00    -0.338 N 
ATOM     14  H4  UNL     1      -7.590  15.420   8.645  1.00  0.00     0.164 HD
ENDROOT
BRANCH   1  15
HETATM   15  C6  UNL     1     -13.159  15.901   6.383  1.00  0.00     0.148 C 
BRANCH  15  16
HETATM   16  C5  UNL     1     -12.910  15.644   4.956  1.00  0.00     0.053 C 
HETATM   17  C4  UNL     1     -13.307  16.794   4.071  1.00  0.00     0.105 C 
HETATM   18  C3  UNL     1     -12.699  16.477   2.697  1.00  0.00     0.057 C 
HETATM   19 CL1  UNL     1     -15.104  16.723   3.912  1.00  0.00    -0.123 Cl
HETATM   20  C2  UNL     1     -13.246  15.216   2.128  1.00  0.00     0.220 C 
HETATM   21  C23 UNL     1     -13.289  14.107   3.112  1.00  0.00     0.202 C 
HETATM   22  C22 UNL     1     -13.768  14.465   4.489  1.00  0.00     0.063 C 
HETATM   23  F1  UNL     1     -14.164  13.141   2.617  1.00  0.00    -0.247 F 
HETATM   24 BR1  UNL     1     -11.082  15.084   4.599  1.00  0.00    -0.082 Br
BRANCH  20  25
HETATM   25  N1  UNL     1     -14.573  15.391   1.564  1.00  0.00    -0.072 N 
HETATM   26  C1  UNL     1     -14.544  16.024   0.270  1.00  0.00     0.267 C 
ATOM     27  H12 UNL     1     -15.181  15.898   2.207  1.00  0.00     0.277 HD
ATOM     28  H11 UNL     1     -15.076  14.504   1.528  1.00  0.00     0.277 HD
ENDBRANCH  20  25
ENDBRANCH  15  16
ENDBRANCH   1  15
BRANCH  13  29
HETATM   29  C15 UNL     1      -6.455  13.595   8.824  1.00  0.00     0.086 C 
HETATM   30  C16 UNL     1      -5.940  13.368   7.442  1.00  0.00     0.026 C 
HETATM   31  C17 UNL     1      -4.525  12.953   7.312  1.00  0.00     0.015 C 
HETATM   32  C18 UNL     1      -3.870  12.754   8.665  1.00  0.00     0.075 C 
HETATM   33  C20 UNL     1      -4.046  14.085   9.397  1.00  0.00     0.015 C 
HETATM   34  C21 UNL     1      -5.479  14.147   9.803  1.00  0.00     0.026 C 
BRANCH  32  35
HETATM   35  C19 UNL     1      -2.451  12.400   8.527  1.00  0.00     0.235 C 
HETATM   36  N5  UNL     1      -1.591  12.533   9.636  1.00  0.00    -0.062 NA
HETATM   37  O3  UNL     1      -2.014  11.985   7.438  1.00  0.00    -0.277 OA
ENDBRANCH  32  35
ENDBRANCH  13  29
TORSDOF 5
ENDMDL
MODEL 4
REMARK VINA RESULT: -8.115344535      9.940     14.415
REMARK  5 active torsions:
REMARK  status: ('A' for Active; 'I' for Inactive)
REMARK    1  A    between atoms: N1_2  and  C2_5 
REMARK    2  A    between atoms: C5_9  and  C6_11 
REMARK    3  A    between atoms: C6_11  and  N2_12 
REMARK       I    between atoms: N3_21  and  C14_22 
REMARK       I    between atoms: C14_22  and  N4_24 
REMARK    4  A    between atoms: N4_24  and  C15_26 
REMARK    5  A    between atoms: C18_29  and  C19_30 
ROOT
HETATM    1  N2  UNL     1     -11.855  20.038  -1.835  1.00  0.00    -0.347 N 
HETATM    2  C7  UNL     1     -12.853  20.294  -0.806  1.00  0.00     0.151 C 
HETATM    3  C8  UNL     1     -13.781  19.156  -0.540  1.00  0.00     0.108 C 
HETATM    4  C9  UNL     1     -15.023  19.200  -1.401  1.00  0.00     0.027 C 
HETATM    5  C10 UNL     1     -15.104  18.108  -2.410  1.00  0.00     0.004 C 
HETATM    6  C11 UNL     1     -13.779  17.790  -3.065  1.00  0.00     0.035 C 
HETATM    7  C12 UNL     1     -12.665  17.637  -2.098  1.00  0.00     0.181 C 
HETATM    8  C13 UNL     1     -11.666  18.718  -2.305  1.00  0.00     0.243 C 
HETATM    9  O1  UNL     1     -10.600  18.389  -2.943  1.00  0.00    -0.271 OA
HETATM   10  N3  UNL     1     -13.178  17.861  -0.735  1.00  0.00    -0.314 N 
HETATM   11  C14 UNL     1     -13.054  16.852   0.248  1.00  0.00     0.319 C 
HETATM   12  O2  UNL     1     -12.495  15.758  -0.086  1.00  0.00    -0.247 OA
HETATM   13  N4  UNL     1     -13.508  16.975   1.572  1.00  0.00    -0.338 N 
ATOM     14  H4  UNL     1     -13.960  17.843   1.859  1.00  0.00     0.164 HD
ENDROOT
BRANCH   1  15
HETATM   15  C6  UNL     1     -11.090  21.155  -2.283  1.00  0.00     0.148 C 
BRANCH  15  16
HETATM   16  C5  UNL     1      -9.894  21.562  -1.528  1.00  0.00     0.053 C 
HETATM   17  C4  UNL     1      -9.906  23.018  -1.147  1.00  0.00     0.105 C 
HETATM   18  C3  UNL     1      -8.771  23.178  -0.126  1.00  0.00     0.057 C 
HETATM   19 CL1  UNL     1      -9.451  23.941  -2.631  1.00  0.00    -0.123 Cl
HETATM   20  C2  UNL     1      -7.446  22.841  -0.714  1.00  0.00     0.220 C 
HETATM   21  C23 UNL     1      -7.465  21.584  -1.501  1.00  0.00     0.202 C 
HETATM   22  C22 UNL     1      -8.650  21.387  -2.401  1.00  0.00     0.063 C 
HETATM   23  F1  UNL     1      -6.333  21.582  -2.314  1.00  0.00    -0.247 F 
HETATM   24 BR1  UNL     1      -9.562  20.435   0.021  1.00  0.00    -0.082 Br
BRANCH  20  25
HETATM   25  N1  UNL     1      -6.922  23.906  -1.550  1.00  0.00    -0.072 N 
HETATM   26  C1  UNL     1      -6.541  25.069  -0.788  1.00  0.00     0.267 C 
ATOM     27  H12 UNL     1      -7.581  24.151  -2.289  1.00  0.00     0.277 HD
ATOM     28  H11 UNL     1      -6.148  23.575  -2.125  1.00  0.00     0.277 HD
ENDBRANCH  20  25
ENDBRANCH  15  16
ENDBRANCH   1  15
BRANCH  13  29
HETATM   29  C15 UNL     1     -13.354  15.895   2.557  1.00  0.00     0.086 C 
HETATM   30  C16 UNL     1     -12.275  16.210   3.540  1.00  0.00     0.026 C 
HETATM   31  C17 UNL     1     -12.291  15.462   4.817  1.00  0.00     0.015 C 
HETATM   32  C18 UNL     1     -13.396  14.424   4.849  1.00  0.00     0.075 C 
HETATM   33  C20 UNL     1     -14.686  15.202   4.585  1.00  0.00     0.015 C 
HETATM   34  C21 UNL     1     -14.679  15.537   3.133  1.00  0.00     0.026 C 
BRANCH  32  35
HETATM   35  C19 UNL     1     -13.443  13.729   6.141  1.00  0.00     0.235 C 
HETATM   36  N5  UNL     1     -13.224  14.454   7.330  1.00  0.00    -0.062 NA
HETATM   37  O3  UNL     1     -13.675  12.506   6.184  1.00  0.00    -0.277 OA
ENDBRANCH  32  35
ENDBRANCH  13  29
TORSDOF 5
ENDMDL
MODEL 5
REMARK VINA RESULT: -8.097256722      1.914      2.370
REMARK  5 active torsions:
REMARK  status: ('A' for Active; 'I' for Inactive)
REMARK    1  A    between atoms: N1_2  and  C2_5 
REMARK    2  A    between atoms: C5_9  and  C6_11 
REMARK    3  A    between atoms: C6_11  and  N2_12 
REMARK       I    between atoms: N3_21  and  C14_22 
REMARK       I    between atoms: C14_22  and  N4_24 
REMARK    4  A    between atoms: N4_24  and  C15_26 
REMARK    5  A    between atoms: C18_29  and  C19_30 
ROOT
HETATM    1  N2  UNL     1      -8.061  15.395  12.302  1.00  0.00    -0.347 N 
HETATM    2  C7  UNL     1      -7.494  16.265  11.282  1.00  0.00     0.151 C 
HETATM    3  C8  UNL     1      -6.295  15.713  10.587  1.00  0.00     0.108 C 
HETATM    4  C9  UNL     1      -4.998  16.086  11.269  1.00  0.00     0.027 C 
HETATM    5  C10 UNL     1      -4.287  14.939  11.897  1.00  0.00     0.004 C 
HETATM    6  C11 UNL     1      -5.210  13.957  12.583  1.00  0.00     0.035 C 
HETATM    7  C12 UNL     1      -6.375  13.565  11.753  1.00  0.00     0.181 C 
HETATM    8  C13 UNL     1      -7.630  14.050  12.385  1.00  0.00     0.243 C 
HETATM    9  O1  UNL     1      -8.320  13.172  13.021  1.00  0.00    -0.271 OA
HETATM   10  N3  UNL     1      -6.309  14.276  10.465  1.00  0.00    -0.314 N 
HETATM   11  C14 UNL     1      -6.266  13.550   9.252  1.00  0.00     0.319 C 
HETATM   12  O2  UNL     1      -6.285  12.279   9.315  1.00  0.00    -0.247 OA
HETATM   13  N4  UNL     1      -6.206  14.139   7.977  1.00  0.00    -0.338 N 
ATOM     14  H4  UNL     1      -6.189  15.157   7.905  1.00  0.00     0.164 HD
ENDROOT
BRANCH   1  15
HETATM   15  C6  UNL     1      -9.064  15.957  13.146  1.00  0.00     0.148 C 
BRANCH  15  16
HETATM   16  C5  UNL     1     -10.483  15.786  12.795  1.00  0.00     0.053 C 
HETATM   17  C4  UNL     1     -10.685  15.025  11.514  1.00  0.00     0.105 C 
HETATM   18  C3  UNL     1     -12.181  14.681  11.479  1.00  0.00     0.057 C 
HETATM   19 CL1  UNL     1     -10.352  16.185  10.170  1.00  0.00    -0.123 Cl
HETATM   20  C2  UNL     1     -13.029  15.903  11.457  1.00  0.00     0.220 C 
HETATM   21  C23 UNL     1     -12.601  16.923  12.445  1.00  0.00     0.202 C 
HETATM   22  C22 UNL     1     -11.122  17.155  12.555  1.00  0.00     0.063 C 
HETATM   23  F1  UNL     1     -13.175  18.137  12.070  1.00  0.00    -0.247 F 
HETATM   24 BR1  UNL     1     -11.527  15.011  14.242  1.00  0.00    -0.082 Br
BRANCH  20  25
HETATM   25  N1  UNL     1     -13.082  16.519  10.144  1.00  0.00    -0.072 N 
HETATM   26  C1  UNL     1     -13.706  15.670   9.161  1.00  0.00     0.267 C 
ATOM     27  H12 UNL     1     -12.154  16.814   9.839  1.00  0.00     0.277 HD
ATOM     28  H11 UNL     1     -13.538  17.431  10.184  1.00  0.00     0.277 HD
ENDBRANCH  20  25
ENDBRANCH  15  16
ENDBRANCH   1  15
BRANCH  13  29
HETATM   29  C15 UNL     1      -6.166  13.340   6.744  1.00  0.00     0.086 C 
HETATM   30  C16 UNL     1      -7.215  13.782   5.779  1.00  0.00     0.026 C 
HETATM   31  C17 UNL     1      -7.029  13.394   4.363  1.00  0.00     0.015 C 
HETATM   32  C18 UNL     1      -5.804  12.521   4.172  1.00  0.00     0.075 C 
HETATM   33  C20 UNL     1      -4.639  13.335   4.736  1.00  0.00     0.015 C 
HETATM   34  C21 UNL     1      -4.775  13.282   6.218  1.00  0.00     0.026 C 
BRANCH  32  35
HETATM   35  C19 UNL     1      -5.595  12.190   2.758  1.00  0.00     0.235 C 
HETATM   36  N5  UNL     1      -5.336  13.222   1.833  1.00  0.00    -0.062 NA
HETATM   37  O3  UNL     1      -5.645  11.005   2.380  1.00  0.00    -0.277 OA
ENDBRANCH  32  35
ENDBRANCH  13  29
TORSDOF 5
ENDMDL
