MODEL 1
REMARK VINA RESULT: -7.566577993      0.000      0.000
REMARK  7 active torsions:
REMARK  status: ('A' for Active; 'I' for Inactive)
REMARK    1  A    between atoms: C2_2  and  C3_3 
REMARK    2  A    between atoms: C3_3  and  O1_4 
REMARK    3  A    between atoms: O1_4  and  C4_5 
REMARK       I    between atoms: C4_5  and  N1_7 
REMARK    4  A    between atoms: N1_7  and  C5_9 
REMARK    5  A    between atoms: N2_13  and  N3_15 
REMARK       I    between atoms: N3_15  and  C8_17 
REMARK    6  A    between atoms: C8_17  and  C9_19 
REMARK    7  A    between atoms: C12_22  and  N4_23 
ROOT
HETATM    1  C1  UNL     1      -7.823 -18.016 -10.657  1.00  0.00     0.067 C 
HETATM    2  C2  UNL     1      -7.136 -16.871 -11.336  1.00  0.00     0.024 C 
HETATM    3  N2  UNL     1      -5.994 -16.446 -10.947  1.00  0.00    -0.304 N 
ATOM      4  H2  UNL     1      -5.568 -15.663 -11.445  1.00  0.00     0.186 HD
ENDROOT
BRANCH   3   5
HETATM    5  N3  UNL     1      -5.302 -17.012  -9.863  1.00  0.00    -0.266 N 
HETATM    6  C8  UNL     1      -4.251 -16.291  -9.278  1.00  0.00     0.270 C 
HETATM    7  O3  UNL     1      -3.960 -15.150  -9.747  1.00  0.00    -0.266 OA
ATOM      8  H3  UNL     1      -5.560 -17.933  -9.507  1.00  0.00     0.190 HD
BRANCH   6   9
HETATM    9  C9  UNL     1      -3.502 -16.841  -8.147  1.00  0.00     0.033 A 
HETATM   10  C10 UNL     1      -2.174 -16.603  -7.924  1.00  0.00     0.019 A 
HETATM   11  C11 UNL     1      -1.507 -17.158  -6.819  1.00  0.00     0.037 A 
HETATM   12  C12 UNL     1      -2.154 -17.965  -5.911  1.00  0.00     0.102 A 
HETATM   13  C13 UNL     1      -3.493 -18.204  -6.135  1.00  0.00     0.037 A 
HETATM   14  C14 UNL     1      -4.154 -17.663  -7.216  1.00  0.00     0.019 A 
BRANCH  12  15
HETATM   15  N4  UNL     1      -1.451 -18.510  -4.805  1.00  0.00    -0.116 N 
HETATM   16  O4  UNL     1      -0.522 -19.314  -4.985  1.00  0.00    -0.532 OA
HETATM   17  O5  UNL     1      -1.769 -18.172  -3.516  1.00  0.00    -0.532 OA
ENDBRANCH  12  15
ENDBRANCH   6   9
ENDBRANCH   3   5
BRANCH   2  18
HETATM   18  C3  UNL     1      -7.795 -16.217 -12.485  1.00  0.00     0.234 C 
BRANCH  18  19
HETATM   19  O1  UNL     1      -8.517 -15.107 -12.050  1.00  0.00    -0.298 OA
BRANCH  19  20
HETATM   20  C4  UNL     1      -9.171 -14.199 -12.839  1.00  0.00     0.362 C 
HETATM   21  O2  UNL     1     -10.422 -14.102 -12.709  1.00  0.00    -0.238 OA
HETATM   22  N1  UNL     1      -8.430 -13.417 -13.755  1.00  0.00    -0.315 N 
ATOM     23  H1  UNL     1      -7.420 -13.542 -13.814  1.00  0.00     0.166 HD
BRANCH  22  24
HETATM   24  C5  UNL     1      -9.074 -12.442 -14.612  1.00  0.00     0.105 C 
HETATM   25  C6  UNL     1      -9.742 -11.350 -13.815  1.00  0.00     0.056 C 
HETATM   26  C7  UNL     1      -8.005 -11.836 -15.495  1.00  0.00     0.056 C 
HETATM   27 CL1  UNL     1     -10.294 -13.173 -15.670  1.00  0.00    -0.096 Cl
ENDBRANCH  22  24
ENDBRANCH  19  20
ENDBRANCH  18  19
ENDBRANCH   2  18
TORSDOF 7
ENDMDL
MODEL 2
REMARK VINA RESULT: -7.479397387      1.797      1.951
REMARK  7 active torsions:
REMARK  status: ('A' for Active; 'I' for Inactive)
REMARK    1  A    between atoms: C2_2  and  C3_3 
REMARK    2  A    between atoms: C3_3  and  O1_4 
REMARK    3  A    between atoms: O1_4  and  C4_5 
REMARK       I    between atoms: C4_5  and  N1_7 
REMARK    4  A    between atoms: N1_7  and  C5_9 
REMARK    5  A    between atoms: N2_13  and  N3_15 
REMARK       I    between atoms: N3_15  and  C8_17 
REMARK    6  A    between atoms: C8_17  and  C9_19 
REMARK    7  A    between atoms: C12_22  and  N4_23 
ROOT
HETATM    1  C1  UNL     1      -7.632 -18.009 -10.625  1.00  0.00     0.067 C 
HETATM    2  C2  UNL     1      -6.999 -16.794 -11.231  1.00  0.00     0.024 C 
HETATM    3  N2  UNL     1      -5.880 -16.338 -10.812  1.00  0.00    -0.304 N 
ATOM      4  H2  UNL     1      -5.491 -15.508 -11.259  1.00  0.00     0.186 HD
ENDROOT
BRANCH   3   5
HETATM    5  N3  UNL     1      -5.164 -16.935  -9.759  1.00  0.00    -0.266 N 
HETATM    6  C8  UNL     1      -4.151 -16.199  -9.126  1.00  0.00     0.270 C 
HETATM    7  O3  UNL     1      -3.916 -15.019  -9.525  1.00  0.00    -0.266 OA
ATOM      8  H3  UNL     1      -5.377 -17.886  -9.461  1.00  0.00     0.190 HD
BRANCH   6   9
HETATM    9  C9  UNL     1      -3.380 -16.779  -8.025  1.00  0.00     0.033 A 
HETATM   10  C10 UNL     1      -2.033 -16.609  -7.867  1.00  0.00     0.019 A 
HETATM   11  C11 UNL     1      -1.344 -17.190  -6.789  1.00  0.00     0.037 A 
HETATM   12  C12 UNL     1      -1.988 -17.954  -5.843  1.00  0.00     0.102 A 
HETATM   13  C13 UNL     1      -3.348 -18.125  -6.002  1.00  0.00     0.037 A 
HETATM   14  C14 UNL     1      -4.029 -17.558  -7.057  1.00  0.00     0.019 A 
BRANCH  12  15
HETATM   15  N4  UNL     1      -1.264 -18.527  -4.766  1.00  0.00    -0.116 N 
HETATM   16  O4  UNL     1      -0.405 -19.399  -4.979  1.00  0.00    -0.532 OA
HETATM   17  O5  UNL     1      -1.483 -18.142  -3.470  1.00  0.00    -0.532 OA
ENDBRANCH  12  15
ENDBRANCH   6   9
ENDBRANCH   3   5
BRANCH   2  18
HETATM   18  C3  UNL     1      -7.686 -16.105 -12.343  1.00  0.00     0.234 C 
BRANCH  18  19
HETATM   19  O1  UNL     1      -7.246 -16.617 -13.563  1.00  0.00    -0.298 OA
BRANCH  19  20
HETATM   20  C4  UNL     1      -7.520 -16.111 -14.805  1.00  0.00     0.362 C 
HETATM   21  O2  UNL     1      -7.923 -16.915 -15.690  1.00  0.00    -0.238 OA
HETATM   22  N1  UNL     1      -7.344 -14.729 -15.045  1.00  0.00    -0.315 N 
ATOM     23  H1  UNL     1      -7.015 -14.130 -14.288  1.00  0.00     0.166 HD
BRANCH  22  24
HETATM   24  C5  UNL     1      -7.620 -14.144 -16.341  1.00  0.00     0.105 C 
HETATM   25  C6  UNL     1      -9.088 -14.202 -16.681  1.00  0.00     0.056 C 
HETATM   26  C7  UNL     1      -7.174 -12.699 -16.293  1.00  0.00     0.056 C 
HETATM   27 CL1  UNL     1      -6.724 -14.940 -17.647  1.00  0.00    -0.096 Cl
ENDBRANCH  22  24
ENDBRANCH  19  20
ENDBRANCH  18  19
ENDBRANCH   2  18
TORSDOF 7
ENDMDL
MODEL 3
REMARK VINA RESULT: -7.476362633      1.084      1.238
REMARK  7 active torsions:
REMARK  status: ('A' for Active; 'I' for Inactive)
REMARK    1  A    between atoms: C2_2  and  C3_3 
REMARK    2  A    between atoms: C3_3  and  O1_4 
REMARK    3  A    between atoms: O1_4  and  C4_5 
REMARK       I    between atoms: C4_5  and  N1_7 
REMARK    4  A    between atoms: N1_7  and  C5_9 
REMARK    5  A    between atoms: N2_13  and  N3_15 
REMARK       I    between atoms: N3_15  and  C8_17 
REMARK    6  A    between atoms: C8_17  and  C9_19 
REMARK    7  A    between atoms: C12_22  and  N4_23 
ROOT
HETATM    1  C1  UNL     1      -7.887 -18.135 -10.564  1.00  0.00     0.067 C 
HETATM    2  C2  UNL     1      -7.192 -17.042 -11.318  1.00  0.00     0.024 C 
HETATM    3  N2  UNL     1      -6.030 -16.626 -10.980  1.00  0.00    -0.304 N 
ATOM      4  H2  UNL     1      -5.600 -15.880 -11.527  1.00  0.00     0.186 HD
ENDROOT
BRANCH   3   5
HETATM    5  N3  UNL     1      -5.322 -17.155  -9.887  1.00  0.00    -0.266 N 
HETATM    6  C8  UNL     1      -4.296 -16.392  -9.311  1.00  0.00     0.270 C 
HETATM    7  O3  UNL     1      -4.041 -15.249  -9.796  1.00  0.00    -0.266 OA
ATOM      8  H3  UNL     1      -5.551 -18.079  -9.519  1.00  0.00     0.190 HD
BRANCH   6   9
HETATM    9  C9  UNL     1      -3.532 -16.902  -8.171  1.00  0.00     0.033 A 
HETATM   10  C10 UNL     1      -2.217 -16.606  -7.941  1.00  0.00     0.019 A 
HETATM   11  C11 UNL     1      -1.535 -17.125  -6.828  1.00  0.00     0.037 A 
HETATM   12  C12 UNL     1      -2.152 -17.952  -5.919  1.00  0.00     0.102 A 
HETATM   13  C13 UNL     1      -3.479 -18.250  -6.150  1.00  0.00     0.037 A 
HETATM   14  C14 UNL     1      -4.154 -17.745  -7.239  1.00  0.00     0.019 A 
BRANCH  12  15
HETATM   15  N4  UNL     1      -1.434 -18.459  -4.804  1.00  0.00    -0.116 N 
HETATM   16  O4  UNL     1      -0.469 -19.222  -4.973  1.00  0.00    -0.532 OA
HETATM   17  O5  UNL     1      -1.776 -18.128  -3.520  1.00  0.00    -0.532 OA
ENDBRANCH  12  15
ENDBRANCH   6   9
ENDBRANCH   3   5
BRANCH   2  18
HETATM   18  C3  UNL     1      -7.867 -16.430 -12.481  1.00  0.00     0.234 C 
BRANCH  18  19
HETATM   19  O1  UNL     1      -7.702 -15.046 -12.451  1.00  0.00    -0.298 OA
BRANCH  19  20
HETATM   20  C4  UNL     1      -7.967 -14.172 -13.471  1.00  0.00     0.362 C 
HETATM   21  O2  UNL     1      -8.688 -13.169 -13.211  1.00  0.00    -0.238 OA
HETATM   22  N1  UNL     1      -7.432 -14.422 -14.755  1.00  0.00    -0.315 N 
ATOM     23  H1  UNL     1      -6.857 -15.251 -14.903  1.00  0.00     0.166 HD
BRANCH  22  24
HETATM   24  C5  UNL     1      -7.683 -13.528 -15.867  1.00  0.00     0.105 C 
HETATM   25  C6  UNL     1      -6.954 -12.217 -15.708  1.00  0.00     0.056 C 
HETATM   26  C7  UNL     1      -7.203 -14.219 -17.124  1.00  0.00     0.056 C 
HETATM   27 CL1  UNL     1      -9.407 -13.173 -16.074  1.00  0.00    -0.096 Cl
ENDBRANCH  22  24
ENDBRANCH  19  20
ENDBRANCH  18  19
ENDBRANCH   2  18
TORSDOF 7
ENDMDL
MODEL 4
REMARK VINA RESULT: -7.412503709      1.218      1.352
REMARK  7 active torsions:
REMARK  status: ('A' for Active; 'I' for Inactive)
REMARK    1  A    between atoms: C2_2  and  C3_3 
REMARK    2  A    between atoms: C3_3  and  O1_4 
REMARK    3  A    between atoms: O1_4  and  C4_5 
REMARK       I    between atoms: C4_5  and  N1_7 
REMARK    4  A    between atoms: N1_7  and  C5_9 
REMARK    5  A    between atoms: N2_13  and  N3_15 
REMARK       I    between atoms: N3_15  and  C8_17 
REMARK    6  A    between atoms: C8_17  and  C9_19 
REMARK    7  A    between atoms: C12_22  and  N4_23 
ROOT
HETATM    1  C1  UNL     1      -5.819 -19.299 -11.124  1.00  0.00     0.067 C 
HETATM    2  C2  UNL     1      -6.158 -17.840 -11.118  1.00  0.00     0.024 C 
HETATM    3  N2  UNL     1      -5.850 -17.081 -10.134  1.00  0.00    -0.304 N 
ATOM      4  H2  UNL     1      -6.103 -16.094 -10.180  1.00  0.00     0.186 HD
ENDROOT
BRANCH   3   5
HETATM    5  N3  UNL     1      -5.177 -17.553  -8.994  1.00  0.00    -0.266 N 
HETATM    6  C8  UNL     1      -3.947 -16.976  -8.645  1.00  0.00     0.270 C 
HETATM    7  O3  UNL     1      -3.483 -16.046  -9.370  1.00  0.00    -0.266 OA
ATOM      8  H3  UNL     1      -5.576 -18.303  -8.429  1.00  0.00     0.190 HD
BRANCH   6   9
HETATM    9  C9  UNL     1      -3.211 -17.434  -7.465  1.00  0.00     0.033 A 
HETATM   10  C10 UNL     1      -1.865 -17.265  -7.293  1.00  0.00     0.019 A 
HETATM   11  C11 UNL     1      -1.212 -17.726  -6.139  1.00  0.00     0.037 A 
HETATM   12  C12 UNL     1      -1.890 -18.368  -5.128  1.00  0.00     0.102 A 
HETATM   13  C13 UNL     1      -3.248 -18.538  -5.300  1.00  0.00     0.037 A 
HETATM   14  C14 UNL     1      -3.895 -18.088  -6.430  1.00  0.00     0.019 A 
BRANCH  12  15
HETATM   15  N4  UNL     1      -1.200 -18.821  -3.974  1.00  0.00    -0.116 N 
HETATM   16  O4  UNL     1      -0.447 -18.056  -3.350  1.00  0.00    -0.532 OA
HETATM   17  O5  UNL     1      -1.339 -20.104  -3.513  1.00  0.00    -0.532 OA
ENDBRANCH  12  15
ENDBRANCH   6   9
ENDBRANCH   3   5
BRANCH   2  18
HETATM   18  C3  UNL     1      -6.866 -17.262 -12.278  1.00  0.00     0.234 C 
BRANCH  18  19
HETATM   19  O1  UNL     1      -7.722 -16.247 -11.855  1.00  0.00    -0.298 OA
BRANCH  19  20
HETATM   20  C4  UNL     1      -8.378 -15.348 -12.652  1.00  0.00     0.362 C 
HETATM   21  O2  UNL     1      -9.640 -15.340 -12.612  1.00  0.00    -0.238 OA
HETATM   22  N1  UNL     1      -7.630 -14.477 -13.477  1.00  0.00    -0.315 N 
ATOM     23  H1  UNL     1      -6.612 -14.532 -13.466  1.00  0.00     0.166 HD
BRANCH  22  24
HETATM   24  C5  UNL     1      -8.276 -13.509 -14.339  1.00  0.00     0.105 C 
HETATM   25  C6  UNL     1      -9.085 -12.509 -13.551  1.00  0.00     0.056 C 
HETATM   26  C7  UNL     1      -7.190 -12.783 -15.103  1.00  0.00     0.056 C 
HETATM   27 CL1  UNL     1      -9.351 -14.269 -15.525  1.00  0.00    -0.096 Cl
ENDBRANCH  22  24
ENDBRANCH  19  20
ENDBRANCH  18  19
ENDBRANCH   2  18
TORSDOF 7
ENDMDL
MODEL 5
REMARK VINA RESULT: -7.381468410      5.247      7.457
REMARK  7 active torsions:
REMARK  status: ('A' for Active; 'I' for Inactive)
REMARK    1  A    between atoms: C2_2  and  C3_3 
REMARK    2  A    between atoms: C3_3  and  O1_4 
REMARK    3  A    between atoms: O1_4  and  C4_5 
REMARK       I    between atoms: C4_5  and  N1_7 
REMARK    4  A    between atoms: N1_7  and  C5_9 
REMARK    5  A    between atoms: N2_13  and  N3_15 
REMARK       I    between atoms: N3_15  and  C8_17 
REMARK    6  A    between atoms: C8_17  and  C9_19 
REMARK    7  A    between atoms: C12_22  and  N4_23 
ROOT
HETATM    1  C1  UNL     1      -7.206 -18.537  -8.570  1.00  0.00     0.067 C 
HETATM    2  C2  UNL     1      -6.197 -18.394  -9.669  1.00  0.00     0.024 C 
HETATM    3  N2  UNL     1      -5.482 -19.380 -10.059  1.00  0.00    -0.304 N 
ATOM      4  H2  UNL     1      -4.810 -19.230 -10.812  1.00  0.00     0.186 HD
ENDROOT
BRANCH   3   5
HETATM    5  N3  UNL     1      -5.585 -20.663  -9.493  1.00  0.00    -0.266 N 
HETATM    6  C8  UNL     1      -4.612 -21.077  -8.571  1.00  0.00     0.270 C 
HETATM    7  O3  UNL     1      -3.672 -20.279  -8.279  1.00  0.00    -0.266 OA
ATOM      8  H3  UNL     1      -6.354 -21.282  -9.748  1.00  0.00     0.190 HD
BRANCH   6   9
HETATM    9  C9  UNL     1      -4.679 -22.404  -7.956  1.00  0.00     0.033 A 
HETATM   10  C10 UNL     1      -5.468 -23.419  -8.418  1.00  0.00     0.019 A 
HETATM   11  C11 UNL     1      -5.491 -24.674  -7.787  1.00  0.00     0.037 A 
HETATM   12  C12 UNL     1      -4.723 -24.942  -6.676  1.00  0.00     0.102 A 
HETATM   13  C13 UNL     1      -3.926 -23.918  -6.210  1.00  0.00     0.037 A 
HETATM   14  C14 UNL     1      -3.899 -22.685  -6.825  1.00  0.00     0.019 A 
BRANCH  12  15
HETATM   15  N4  UNL     1      -4.769 -26.220  -6.062  1.00  0.00    -0.116 N 
HETATM   16  O4  UNL     1      -4.165 -26.427  -4.996  1.00  0.00    -0.532 OA
HETATM   17  O5  UNL     1      -5.471 -27.257  -6.616  1.00  0.00    -0.532 OA
ENDBRANCH  12  15
ENDBRANCH   6   9
ENDBRANCH   3   5
BRANCH   2  18
HETATM   18  C3  UNL     1      -6.025 -17.078 -10.318  1.00  0.00     0.234 C 
BRANCH  18  19
HETATM   19  O1  UNL     1      -4.670 -16.756 -10.386  1.00  0.00    -0.298 OA
BRANCH  19  20
HETATM   20  C4  UNL     1      -3.902 -16.250  -9.373  1.00  0.00     0.362 C 
HETATM   21  O2  UNL     1      -3.730 -15.000  -9.334  1.00  0.00    -0.238 OA
HETATM   22  N1  UNL     1      -3.339 -17.132  -8.422  1.00  0.00    -0.315 N 
ATOM     23  H1  UNL     1      -3.514 -18.134  -8.507  1.00  0.00     0.166 HD
BRANCH  22  24
HETATM   24  C5  UNL     1      -2.519 -16.647  -7.331  1.00  0.00     0.105 C 
HETATM   25  C6  UNL     1      -3.354 -16.064  -6.218  1.00  0.00     0.056 C 
HETATM   26  C7  UNL     1      -1.727 -17.822  -6.800  1.00  0.00     0.056 C 
HETATM   27 CL1  UNL     1      -1.361 -15.411  -7.852  1.00  0.00    -0.096 Cl
ENDBRANCH  22  24
ENDBRANCH  19  20
ENDBRANCH  18  19
ENDBRANCH   2  18
TORSDOF 7
ENDMDL
