MODEL 1
REMARK VINA RESULT: -6.915957058      0.000      0.000
REMARK  6 active torsions:
REMARK  status: ('A' for Active; 'I' for Inactive)
REMARK    1  A    between atoms: C2_2  and  N1_4 
REMARK       I    between atoms: N1_4  and  C3_6 
REMARK    2  A    between atoms: C3_6  and  O2_8 
REMARK    3  A    between atoms: O2_8  and  C4_9 
REMARK    4  A    between atoms: C4_9  and  C5_10 
REMARK       I    between atoms: C5_10  and  N2_12 
REMARK    5  A    between atoms: N2_12  and  C6_14 
REMARK    6  A    between atoms: C10_18  and  N3_19 
ROOT
HETATM    1  C5  UNL     1      -1.556 -17.999  -5.276  1.00  0.00     0.246 C 
HETATM    2  O3  UNL     1      -0.507 -17.960  -6.001  1.00  0.00    -0.271 OA
HETATM    3  N2  UNL     1      -2.778 -17.509  -5.715  1.00  0.00    -0.325 N 
ATOM      4  H2  UNL     1      -3.545 -17.600  -5.049  1.00  0.00     0.169 HD
ENDROOT
BRANCH   1   5
HETATM    5  C4  UNL     1      -1.316 -18.620  -3.942  1.00  0.00     0.283 C 
BRANCH   5   6
HETATM    6  O2  UNL     1      -1.533 -19.987  -3.879  1.00  0.00    -0.295 OA
BRANCH   6   7
HETATM    7  C3  UNL     1      -2.713 -20.615  -4.203  1.00  0.00     0.361 C 
HETATM    8  N1  UNL     1      -3.005 -21.183  -5.448  1.00  0.00    -0.323 N 
ATOM      9  H1  UNL     1      -2.301 -21.139  -6.184  1.00  0.00     0.166 HD
HETATM   10  O1  UNL     1      -3.603 -20.678  -3.293  1.00  0.00    -0.238 OA
BRANCH   8  11
HETATM   11  C2  UNL     1      -4.267 -21.831  -5.727  1.00  0.00     0.155 C 
HETATM   12  C1  UNL     1      -5.190 -20.837  -6.423  1.00  0.00     0.044 C 
HETATM   13 BR1  UNL     1      -3.986 -23.374  -6.881  1.00  0.00    -0.069 Br
ENDBRANCH   8  11
ENDBRANCH   6   7
ENDBRANCH   5   6
ENDBRANCH   1   5
BRANCH   3  14
HETATM   14  C6  UNL     1      -3.117 -16.912  -6.924  1.00  0.00     0.037 A 
HETATM   15  C7  UNL     1      -2.436 -15.873  -7.475  1.00  0.00     0.029 A 
HETATM   16  C8  UNL     1      -2.816 -15.287  -8.695  1.00  0.00     0.005 A 
HETATM   17  C9  UNL     1      -3.907 -15.776  -9.357  1.00  0.00     0.036 A 
HETATM   18  C10 UNL     1      -4.624 -16.829  -8.835  1.00  0.00     0.105 A 
HETATM   19  C11 UNL     1      -4.224 -17.378  -7.639  1.00  0.00     0.065 A 
BRANCH  18  20
HETATM   20  N3  UNL     1      -5.760 -17.327  -9.543  1.00  0.00    -0.116 N 
HETATM   21  O4  UNL     1      -6.064 -16.963 -10.677  1.00  0.00    -0.532 OA
HETATM   22  O5  UNL     1      -6.549 -18.258  -8.916  1.00  0.00    -0.532 OA
ENDBRANCH  18  20
ENDBRANCH   3  14
TORSDOF 6
ENDMDL
MODEL 2
REMARK VINA RESULT: -6.806091928      1.038      1.111
REMARK  6 active torsions:
REMARK  status: ('A' for Active; 'I' for Inactive)
REMARK    1  A    between atoms: C2_2  and  N1_4 
REMARK       I    between atoms: N1_4  and  C3_6 
REMARK    2  A    between atoms: C3_6  and  O2_8 
REMARK    3  A    between atoms: O2_8  and  C4_9 
REMARK    4  A    between atoms: C4_9  and  C5_10 
REMARK       I    between atoms: C5_10  and  N2_12 
REMARK    5  A    between atoms: N2_12  and  C6_14 
REMARK    6  A    between atoms: C10_18  and  N3_19 
ROOT
HETATM    1  C5  UNL     1      -2.316 -17.827  -5.365  1.00  0.00     0.246 C 
HETATM    2  O3  UNL     1      -3.187 -17.176  -4.700  1.00  0.00    -0.271 OA
HETATM    3  N2  UNL     1      -2.327 -17.875  -6.753  1.00  0.00    -0.325 N 
ATOM      4  H2  UNL     1      -1.576 -18.423  -7.172  1.00  0.00     0.169 HD
ENDROOT
BRANCH   1   5
HETATM    5  C4  UNL     1      -1.313 -18.507  -4.497  1.00  0.00     0.283 C 
BRANCH   5   6
HETATM    6  O2  UNL     1      -1.386 -19.890  -4.482  1.00  0.00    -0.295 OA
BRANCH   6   7
HETATM    7  C3  UNL     1      -2.551 -20.620  -4.540  1.00  0.00     0.361 C 
HETATM    8  N1  UNL     1      -3.082 -21.193  -5.700  1.00  0.00    -0.323 N 
ATOM      9  H1  UNL     1      -2.582 -21.071  -6.581  1.00  0.00     0.166 HD
HETATM   10  O1  UNL     1      -3.187 -20.781  -3.448  1.00  0.00    -0.238 OA
BRANCH   8  11
HETATM   11  C2  UNL     1      -4.313 -21.951  -5.698  1.00  0.00     0.155 C 
HETATM   12  C1  UNL     1      -5.438 -21.071  -6.233  1.00  0.00     0.044 C 
HETATM   13 BR1  UNL     1      -4.131 -23.529  -6.823  1.00  0.00    -0.069 Br
ENDBRANCH   8  11
ENDBRANCH   6   7
ENDBRANCH   5   6
ENDBRANCH   1   5
BRANCH   3  14
HETATM   14  C6  UNL     1      -3.205 -17.289  -7.657  1.00  0.00     0.037 A 
HETATM   15  C7  UNL     1      -2.951 -16.131  -8.321  1.00  0.00     0.029 A 
HETATM   16  C8  UNL     1      -3.870 -15.563  -9.220  1.00  0.00     0.005 A 
HETATM   17  C9  UNL     1      -5.062 -16.192  -9.440  1.00  0.00     0.036 A 
HETATM   18  C10 UNL     1      -5.359 -17.368  -8.789  1.00  0.00     0.105 A 
HETATM   19  C11 UNL     1      -4.437 -17.896  -7.916  1.00  0.00     0.065 A 
BRANCH  18  20
HETATM   20  N3  UNL     1      -6.611 -18.012  -9.034  1.00  0.00    -0.116 N 
HETATM   21  O4  UNL     1      -7.052 -18.228 -10.160  1.00  0.00    -0.532 OA
HETATM   22  O5  UNL     1      -7.353 -18.403  -7.948  1.00  0.00    -0.532 OA
ENDBRANCH  18  20
ENDBRANCH   3  14
TORSDOF 6
ENDMDL
MODEL 3
REMARK VINA RESULT: -6.800353371      1.767      2.052
REMARK  6 active torsions:
REMARK  status: ('A' for Active; 'I' for Inactive)
REMARK    1  A    between atoms: C2_2  and  N1_4 
REMARK       I    between atoms: N1_4  and  C3_6 
REMARK    2  A    between atoms: C3_6  and  O2_8 
REMARK    3  A    between atoms: O2_8  and  C4_9 
REMARK    4  A    between atoms: C4_9  and  C5_10 
REMARK       I    between atoms: C5_10  and  N2_12 
REMARK    5  A    between atoms: N2_12  and  C6_14 
REMARK    6  A    between atoms: C10_18  and  N3_19 
ROOT
HETATM    1  C5  UNL     1      -2.164 -19.081  -4.893  1.00  0.00     0.246 C 
HETATM    2  O3  UNL     1      -2.471 -18.137  -4.092  1.00  0.00    -0.271 OA
HETATM    3  N2  UNL     1      -1.961 -18.866  -6.249  1.00  0.00    -0.325 N 
ATOM      4  H2  UNL     1      -1.715 -19.697  -6.786  1.00  0.00     0.169 HD
ENDROOT
BRANCH   1   5
HETATM    5  C4  UNL     1      -2.050 -20.404  -4.213  1.00  0.00     0.283 C 
BRANCH   5   6
HETATM    6  O2  UNL     1      -3.198 -21.179  -4.233  1.00  0.00    -0.295 OA
BRANCH   6   7
HETATM    7  C3  UNL     1      -3.855 -21.587  -5.370  1.00  0.00     0.361 C 
HETATM    8  N1  UNL     1      -4.993 -20.973  -5.905  1.00  0.00    -0.323 N 
ATOM      9  H1  UNL     1      -5.380 -20.158  -5.429  1.00  0.00     0.166 HD
HETATM   10  O1  UNL     1      -3.384 -22.604  -5.977  1.00  0.00    -0.238 OA
BRANCH   8  11
HETATM   11  C2  UNL     1      -5.640 -21.450  -7.107  1.00  0.00     0.155 C 
HETATM   12  C1  UNL     1      -7.083 -20.957  -7.121  1.00  0.00     0.044 C 
HETATM   13 BR1  UNL     1      -4.709 -20.780  -8.680  1.00  0.00    -0.069 Br
ENDBRANCH   8  11
ENDBRANCH   6   7
ENDBRANCH   5   6
ENDBRANCH   1   5
BRANCH   3  14
HETATM   14  C6  UNL     1      -2.042 -17.690  -6.986  1.00  0.00     0.037 A 
HETATM   15  C7  UNL     1      -1.068 -16.743  -7.014  1.00  0.00     0.029 A 
HETATM   16  C8  UNL     1      -1.191 -15.560  -7.763  1.00  0.00     0.005 A 
HETATM   17  C9  UNL     1      -2.328 -15.348  -8.491  1.00  0.00     0.036 A 
HETATM   18  C10 UNL     1      -3.339 -16.282  -8.491  1.00  0.00     0.105 A 
HETATM   19  C11 UNL     1      -3.185 -17.429  -7.747  1.00  0.00     0.065 A 
BRANCH  18  20
HETATM   20  N3  UNL     1      -4.519 -16.043  -9.259  1.00  0.00    -0.116 N 
HETATM   21  O4  UNL     1      -4.656 -15.077 -10.007  1.00  0.00    -0.532 OA
HETATM   22  O5  UNL     1      -5.550 -16.943  -9.149  1.00  0.00    -0.532 OA
ENDBRANCH  18  20
ENDBRANCH   3  14
TORSDOF 6
ENDMDL
MODEL 4
REMARK VINA RESULT: -6.798055383      2.572      5.650
REMARK  6 active torsions:
REMARK  status: ('A' for Active; 'I' for Inactive)
REMARK    1  A    between atoms: C2_2  and  N1_4 
REMARK       I    between atoms: N1_4  and  C3_6 
REMARK    2  A    between atoms: C3_6  and  O2_8 
REMARK    3  A    between atoms: O2_8  and  C4_9 
REMARK    4  A    between atoms: C4_9  and  C5_10 
REMARK       I    between atoms: C5_10  and  N2_12 
REMARK    5  A    between atoms: N2_12  and  C6_14 
REMARK    6  A    between atoms: C10_18  and  N3_19 
ROOT
HETATM    1  C5  UNL     1      -2.167 -16.692  -7.523  1.00  0.00     0.246 C 
HETATM    2  O3  UNL     1      -1.208 -17.353  -8.042  1.00  0.00    -0.271 OA
HETATM    3  N2  UNL     1      -2.956 -17.209  -6.503  1.00  0.00    -0.325 N 
ATOM      4  H2  UNL     1      -3.688 -16.585  -6.166  1.00  0.00     0.169 HD
ENDROOT
BRANCH   1   5
HETATM    5  C4  UNL     1      -2.331 -15.337  -8.124  1.00  0.00     0.283 C 
BRANCH   5   6
HETATM    6  O2  UNL     1      -3.140 -15.283  -9.246  1.00  0.00    -0.295 OA
BRANCH   6   7
HETATM    7  C3  UNL     1      -4.348 -15.927  -9.380  1.00  0.00     0.361 C 
HETATM    8  N1  UNL     1      -4.813 -16.527 -10.556  1.00  0.00    -0.323 N 
ATOM      9  H1  UNL     1      -4.224 -16.496 -11.388  1.00  0.00     0.166 HD
HETATM   10  O1  UNL     1      -5.095 -15.974  -8.349  1.00  0.00    -0.238 OA
BRANCH   8  11
HETATM   11  C2  UNL     1      -6.095 -17.190 -10.633  1.00  0.00     0.155 C 
HETATM   12  C1  UNL     1      -6.968 -16.463 -11.650  1.00  0.00     0.044 C 
HETATM   13 BR1  UNL     1      -5.859 -19.042 -11.187  1.00  0.00    -0.069 Br
ENDBRANCH   8  11
ENDBRANCH   6   7
ENDBRANCH   5   6
ENDBRANCH   1   5
BRANCH   3  14
HETATM   14  C6  UNL     1      -2.899 -18.446  -5.873  1.00  0.00     0.037 A 
HETATM   15  C7  UNL     1      -1.969 -18.782  -4.941  1.00  0.00     0.029 A 
HETATM   16  C8  UNL     1      -1.937 -20.049  -4.334  1.00  0.00     0.005 A 
HETATM   17  C9  UNL     1      -2.871 -20.982  -4.688  1.00  0.00     0.036 A 
HETATM   18  C10 UNL     1      -3.831 -20.683  -5.629  1.00  0.00     0.105 A 
HETATM   19  C11 UNL     1      -3.833 -19.433  -6.202  1.00  0.00     0.065 A 
BRANCH  18  20
HETATM   20  N3  UNL     1      -4.799 -21.671  -5.985  1.00  0.00    -0.116 N 
HETATM   21  O4  UNL     1      -4.590 -22.880  -5.915  1.00  0.00    -0.532 OA
HETATM   22  O5  UNL     1      -6.023 -21.238  -6.431  1.00  0.00    -0.532 OA
ENDBRANCH  18  20
ENDBRANCH   3  14
TORSDOF 6
ENDMDL
MODEL 5
REMARK VINA RESULT: -6.742704197      2.963      6.320
REMARK  6 active torsions:
REMARK  status: ('A' for Active; 'I' for Inactive)
REMARK    1  A    between atoms: C2_2  and  N1_4 
REMARK       I    between atoms: N1_4  and  C3_6 
REMARK    2  A    between atoms: C3_6  and  O2_8 
REMARK    3  A    between atoms: O2_8  and  C4_9 
REMARK    4  A    between atoms: C4_9  and  C5_10 
REMARK       I    between atoms: C5_10  and  N2_12 
REMARK    5  A    between atoms: N2_12  and  C6_14 
REMARK    6  A    between atoms: C10_18  and  N3_19 
ROOT
HETATM    1  C5  UNL     1      -4.947 -20.355  -8.041  1.00  0.00     0.246 C 
HETATM    2  O3  UNL     1      -4.047 -21.167  -8.439  1.00  0.00    -0.271 OA
HETATM    3  N2  UNL     1      -4.642 -19.199  -7.337  1.00  0.00    -0.325 N 
ATOM      4  H2  UNL     1      -5.445 -18.626  -7.078  1.00  0.00     0.169 HD
ENDROOT
BRANCH   1   5
HETATM    5  C4  UNL     1      -6.324 -20.786  -8.418  1.00  0.00     0.283 C 
BRANCH   5   6
HETATM    6  O2  UNL     1      -6.682 -20.539  -9.733  1.00  0.00    -0.295 OA
BRANCH   6   7
HETATM    7  C3  UNL     1      -6.272 -19.453 -10.471  1.00  0.00     0.361 C 
HETATM    8  N1  UNL     1      -6.577 -18.120 -10.176  1.00  0.00    -0.323 N 
ATOM      9  H1  UNL     1      -7.147 -17.917  -9.355  1.00  0.00     0.166 HD
HETATM   10  O1  UNL     1      -5.560 -19.690 -11.501  1.00  0.00    -0.238 OA
BRANCH   8  11
HETATM   11  C2  UNL     1      -6.116 -17.019 -10.993  1.00  0.00     0.155 C 
HETATM   12  C1  UNL     1      -7.324 -16.262 -11.532  1.00  0.00     0.044 C 
HETATM   13 BR1  UNL     1      -5.015 -15.814  -9.933  1.00  0.00    -0.069 Br
ENDBRANCH   8  11
ENDBRANCH   6   7
ENDBRANCH   5   6
ENDBRANCH   1   5
BRANCH   3  14
HETATM   14  C6  UNL     1      -3.409 -18.701  -6.931  1.00  0.00     0.037 A 
HETATM   15  C7  UNL     1      -2.631 -17.888  -7.692  1.00  0.00     0.029 A 
HETATM   16  C8  UNL     1      -1.383 -17.415  -7.252  1.00  0.00     0.005 A 
HETATM   17  C9  UNL     1      -0.930 -17.781  -6.015  1.00  0.00     0.036 A 
HETATM   18  C10 UNL     1      -1.688 -18.603  -5.212  1.00  0.00     0.105 A 
HETATM   19  C11 UNL     1      -2.904 -19.047  -5.675  1.00  0.00     0.065 A 
BRANCH  18  20
HETATM   20  N3  UNL     1      -1.198 -18.973  -3.922  1.00  0.00    -0.116 N 
HETATM   21  O4  UNL     1      -1.367 -20.086  -3.428  1.00  0.00    -0.532 OA
HETATM   22  O5  UNL     1      -0.505 -18.031  -3.205  1.00  0.00    -0.532 OA
ENDBRANCH  18  20
ENDBRANCH   3  14
TORSDOF 6
ENDMDL
