MODEL 1
REMARK VINA RESULT: -7.528563123      0.000      0.000
REMARK  6 active torsions:
REMARK  status: ('A' for Active; 'I' for Inactive)
REMARK    1  A    between atoms: C1_2  and  C2_4 
REMARK    2  A    between atoms: C2_4  and  O3_5 
REMARK    3  A    between atoms: C2_4  and  C3_7 
REMARK    4  A    between atoms: C6_10  and  N1_11 
REMARK    5  A    between atoms: N1_11  and  S1_13 
REMARK    6  A    between atoms: S1_13  and  C7_16 
ROOT
HETATM    1  C3  UNL     1      -5.370 -21.855  -8.734  1.00  0.00     0.004 A 
HETATM    2  C4  UNL     1      -4.047 -22.042  -8.302  1.00  0.00     0.017 A 
HETATM    3  C5  UNL     1      -3.620 -21.568  -7.080  1.00  0.00     0.031 A 
HETATM    4  C6  UNL     1      -4.463 -20.896  -6.232  1.00  0.00     0.042 A 
HETATM    5  C13 UNL     1      -5.752 -20.708  -6.644  1.00  0.00     0.031 A 
HETATM    6  C14 UNL     1      -6.197 -21.183  -7.880  1.00  0.00     0.017 A 
ENDROOT
BRANCH   4   7
HETATM    7  N1  UNL     1      -4.042 -20.410  -4.990  1.00  0.00    -0.281 N 
ATOM      8  H1  UNL     1      -4.572 -20.634  -4.147  1.00  0.00     0.179 HD
BRANCH   7   9
HETATM    9  S1  UNL     1      -2.636 -19.435  -4.887  1.00  0.00     0.263 S 
HETATM   10  O4  UNL     1      -2.606 -18.704  -3.563  1.00  0.00    -0.200 OA
HETATM   11  O5  UNL     1      -1.392 -20.285  -4.936  1.00  0.00    -0.200 OA
BRANCH   9  12
HETATM   12  C7  UNL     1      -2.527 -18.231  -6.134  1.00  0.00     0.081 A 
HETATM   13  C8  UNL     1      -1.286 -17.808  -6.553  1.00  0.00     0.025 A 
HETATM   14  C9  UNL     1      -1.149 -16.838  -7.552  1.00  0.00     0.003 A 
HETATM   15  C10 UNL     1      -2.291 -16.300  -8.124  1.00  0.00     0.024 A 
HETATM   16  C11 UNL     1      -3.534 -16.715  -7.713  1.00  0.00     0.035 A 
HETATM   17 CL1  UNL     1      -4.977 -16.033  -8.438  1.00  0.00    -0.084 Cl
HETATM   18  C12 UNL     1      -3.647 -17.687  -6.712  1.00  0.00     0.049 A 
ENDBRANCH   9  12
ENDBRANCH   7   9
ENDBRANCH   4   7
BRANCH   1  19
HETATM   19  C2  UNL     1      -5.798 -22.351 -10.003  1.00  0.00     0.153 C 
BRANCH  19  20
HETATM   20  C1  UNL     1      -6.569 -21.642 -10.965  1.00  0.00     0.234 C 
HETATM   21  O1  UNL     1      -7.786 -21.495 -10.948  1.00  0.00    -0.642 OA
HETATM   22  O2  UNL     1      -5.898 -21.041 -12.060  1.00  0.00    -0.642 OA
ENDBRANCH  19  20
BRANCH  19  23
HETATM   23  O3  UNL     1      -5.427 -23.574 -10.271  1.00  0.00    -0.354 OA
ATOM     24  H3  UNL     1      -6.004 -24.125 -10.786  1.00  0.00     0.218 HD
ENDBRANCH  19  23
ENDBRANCH   1  19
TORSDOF 6
ENDMDL
MODEL 2
REMARK VINA RESULT: -7.508988242      3.935      7.138
REMARK  6 active torsions:
REMARK  status: ('A' for Active; 'I' for Inactive)
REMARK    1  A    between atoms: C1_2  and  C2_4 
REMARK    2  A    between atoms: C2_4  and  O3_5 
REMARK    3  A    between atoms: C2_4  and  C3_7 
REMARK    4  A    between atoms: C6_10  and  N1_11 
REMARK    5  A    between atoms: N1_11  and  S1_13 
REMARK    6  A    between atoms: S1_13  and  C7_16 
ROOT
HETATM    1  C3  UNL     1      -2.589 -18.243  -6.227  1.00  0.00     0.004 A 
HETATM    2  C4  UNL     1      -3.167 -16.991  -6.492  1.00  0.00     0.017 A 
HETATM    3  C5  UNL     1      -4.289 -16.875  -7.284  1.00  0.00     0.031 A 
HETATM    4  C6  UNL     1      -4.891 -17.970  -7.848  1.00  0.00     0.042 A 
HETATM    5  C13 UNL     1      -4.336 -19.193  -7.597  1.00  0.00     0.031 A 
HETATM    6  C14 UNL     1      -3.199 -19.324  -6.795  1.00  0.00     0.017 A 
ENDROOT
BRANCH   4   7
HETATM    7  N1  UNL     1      -6.029 -17.865  -8.655  1.00  0.00    -0.281 N 
ATOM      8  H1  UNL     1      -6.958 -17.865  -8.231  1.00  0.00     0.179 HD
BRANCH   7   9
HETATM    9  S1  UNL     1      -5.861 -17.738 -10.355  1.00  0.00     0.263 S 
HETATM   10  O4  UNL     1      -4.757 -16.762 -10.698  1.00  0.00    -0.200 OA
HETATM   11  O5  UNL     1      -5.464 -19.063 -10.954  1.00  0.00    -0.200 OA
BRANCH   9  12
HETATM   12  C7  UNL     1      -7.297 -17.181 -11.160  1.00  0.00     0.081 A 
HETATM   13  C8  UNL     1      -8.361 -18.040 -11.306  1.00  0.00     0.025 A 
HETATM   14  C9  UNL     1      -9.536 -17.637 -11.950  1.00  0.00     0.003 A 
HETATM   15  C10 UNL     1      -9.619 -16.345 -12.446  1.00  0.00     0.024 A 
HETATM   16  C11 UNL     1      -8.562 -15.480 -12.306  1.00  0.00     0.035 A 
HETATM   17 CL1  UNL     1      -8.668 -13.847 -12.933  1.00  0.00    -0.084 Cl
HETATM   18  C12 UNL     1      -7.396 -15.904 -11.657  1.00  0.00     0.049 A 
ENDBRANCH   9  12
ENDBRANCH   7   9
ENDBRANCH   4   7
BRANCH   1  19
HETATM   19  C2  UNL     1      -1.427 -18.348  -5.404  1.00  0.00     0.153 C 
BRANCH  19  20
HETATM   20  C1  UNL     1      -1.344 -19.008  -4.147  1.00  0.00     0.234 C 
HETATM   21  O1  UNL     1      -1.789 -20.120  -3.885  1.00  0.00    -0.642 OA
HETATM   22  O2  UNL     1      -0.694 -18.343  -3.077  1.00  0.00    -0.642 OA
ENDBRANCH  19  20
BRANCH  19  23
HETATM   23  O3  UNL     1      -0.357 -17.772  -5.884  1.00  0.00    -0.354 OA
ATOM     24  H3  UNL     1      -0.353 -16.828  -5.988  1.00  0.00     0.218 HD
ENDBRANCH  19  23
ENDBRANCH   1  19
TORSDOF 6
ENDMDL
MODEL 3
REMARK VINA RESULT: -7.504770169      0.935      1.293
REMARK  6 active torsions:
REMARK  status: ('A' for Active; 'I' for Inactive)
REMARK    1  A    between atoms: C1_2  and  C2_4 
REMARK    2  A    between atoms: C2_4  and  O3_5 
REMARK    3  A    between atoms: C2_4  and  C3_7 
REMARK    4  A    between atoms: C6_10  and  N1_11 
REMARK    5  A    between atoms: N1_11  and  S1_13 
REMARK    6  A    between atoms: S1_13  and  C7_16 
ROOT
HETATM    1  C3  UNL     1      -5.918 -20.808  -8.357  1.00  0.00     0.004 A 
HETATM    2  C4  UNL     1      -4.572 -20.947  -8.731  1.00  0.00     0.017 A 
HETATM    3  C5  UNL     1      -3.567 -20.977  -7.787  1.00  0.00     0.031 A 
HETATM    4  C6  UNL     1      -3.833 -20.873  -6.446  1.00  0.00     0.042 A 
HETATM    5  C13 UNL     1      -5.140 -20.737  -6.072  1.00  0.00     0.031 A 
HETATM    6  C14 UNL     1      -6.168 -20.705  -7.018  1.00  0.00     0.017 A 
ENDROOT
BRANCH   4   7
HETATM    7  N1  UNL     1      -2.823 -20.901  -5.479  1.00  0.00    -0.281 N 
ATOM      8  H1  UNL     1      -2.505 -21.792  -5.097  1.00  0.00     0.179 HD
BRANCH   7   9
HETATM    9  S1  UNL     1      -2.120 -19.435  -4.937  1.00  0.00     0.263 S 
HETATM   10  O4  UNL     1      -2.837 -18.939  -3.701  1.00  0.00    -0.200 OA
HETATM   11  O5  UNL     1      -0.680 -19.647  -4.542  1.00  0.00    -0.200 OA
BRANCH   9  12
HETATM   12  C7  UNL     1      -2.183 -18.154  -6.109  1.00  0.00     0.081 A 
HETATM   13  C8  UNL     1      -1.011 -17.565  -6.525  1.00  0.00     0.025 A 
HETATM   14  C9  UNL     1      -1.014 -16.528  -7.464  1.00  0.00     0.003 A 
HETATM   15  C10 UNL     1      -2.225 -16.093  -7.979  1.00  0.00     0.024 A 
HETATM   16  C11 UNL     1      -3.401 -16.674  -7.569  1.00  0.00     0.035 A 
HETATM   17 CL1  UNL     1      -4.931 -16.123  -8.221  1.00  0.00    -0.084 Cl
HETATM   18  C12 UNL     1      -3.374 -17.710  -6.629  1.00  0.00     0.049 A 
ENDBRANCH   9  12
ENDBRANCH   7   9
ENDBRANCH   4   7
BRANCH   1  19
HETATM   19  C2  UNL     1      -6.948 -20.779  -9.345  1.00  0.00     0.153 C 
BRANCH  19  20
HETATM   20  C1  UNL     1      -6.846 -21.258 -10.680  1.00  0.00     0.234 C 
HETATM   21  O1  UNL     1      -7.072 -22.403 -11.056  1.00  0.00    -0.642 OA
HETATM   22  O2  UNL     1      -6.446 -20.351 -11.694  1.00  0.00    -0.642 OA
ENDBRANCH  19  20
BRANCH  19  23
HETATM   23  O3  UNL     1      -8.078 -20.256  -8.948  1.00  0.00    -0.354 OA
ATOM     24  H3  UNL     1      -8.541 -20.661  -8.225  1.00  0.00     0.218 HD
ENDBRANCH  19  23
ENDBRANCH   1  19
TORSDOF 6
ENDMDL
MODEL 4
REMARK VINA RESULT: -7.487569108      0.034      1.001
REMARK  6 active torsions:
REMARK  status: ('A' for Active; 'I' for Inactive)
REMARK    1  A    between atoms: C1_2  and  C2_4 
REMARK    2  A    between atoms: C2_4  and  O3_5 
REMARK    3  A    between atoms: C2_4  and  C3_7 
REMARK    4  A    between atoms: C6_10  and  N1_11 
REMARK    5  A    between atoms: N1_11  and  S1_13 
REMARK    6  A    between atoms: S1_13  and  C7_16 
ROOT
HETATM    1  C3  UNL     1      -5.322 -21.862  -8.730  1.00  0.00     0.004 A 
HETATM    2  C4  UNL     1      -6.182 -21.132  -7.894  1.00  0.00     0.017 A 
HETATM    3  C5  UNL     1      -5.758 -20.658  -6.671  1.00  0.00     0.031 A 
HETATM    4  C6  UNL     1      -4.483 -20.874  -6.215  1.00  0.00     0.042 A 
HETATM    5  C13 UNL     1      -3.638 -21.584  -7.020  1.00  0.00     0.031 A 
HETATM    6  C14 UNL     1      -4.055 -22.070  -8.263  1.00  0.00     0.017 A 
ENDROOT
BRANCH   4   7
HETATM    7  N1  UNL     1      -4.041 -20.399  -4.976  1.00  0.00    -0.281 N 
ATOM      8  H1  UNL     1      -4.558 -20.627  -4.126  1.00  0.00     0.179 HD
BRANCH   7   9
HETATM    9  S1  UNL     1      -2.629 -19.432  -4.888  1.00  0.00     0.263 S 
HETATM   10  O4  UNL     1      -2.583 -18.696  -3.567  1.00  0.00    -0.200 OA
HETATM   11  O5  UNL     1      -1.390 -20.289  -4.945  1.00  0.00    -0.200 OA
BRANCH   9  12
HETATM   12  C7  UNL     1      -2.523 -18.233  -6.140  1.00  0.00     0.081 A 
HETATM   13  C8  UNL     1      -1.283 -17.810  -6.563  1.00  0.00     0.025 A 
HETATM   14  C9  UNL     1      -1.150 -16.844  -7.566  1.00  0.00     0.003 A 
HETATM   15  C10 UNL     1      -2.293 -16.310  -8.139  1.00  0.00     0.024 A 
HETATM   16  C11 UNL     1      -3.535 -16.724  -7.724  1.00  0.00     0.035 A 
HETATM   17 CL1  UNL     1      -4.980 -16.047  -8.448  1.00  0.00    -0.084 Cl
HETATM   18  C12 UNL     1      -3.645 -17.692  -6.719  1.00  0.00     0.049 A 
ENDBRANCH   9  12
ENDBRANCH   7   9
ENDBRANCH   4   7
BRANCH   1  19
HETATM   19  C2  UNL     1      -5.774 -22.348  -9.994  1.00  0.00     0.153 C 
BRANCH  19  20
HETATM   20  C1  UNL     1      -6.557 -21.629 -10.939  1.00  0.00     0.234 C 
HETATM   21  O1  UNL     1      -7.771 -21.464 -10.895  1.00  0.00    -0.642 OA
HETATM   22  O2  UNL     1      -5.901 -21.036 -12.048  1.00  0.00    -0.642 OA
ENDBRANCH  19  20
BRANCH  19  23
HETATM   23  O3  UNL     1      -5.415 -23.572 -10.275  1.00  0.00    -0.354 OA
ATOM     24  H3  UNL     1      -6.002 -24.284 -10.048  1.00  0.00     0.218 HD
ENDBRANCH  19  23
ENDBRANCH   1  19
TORSDOF 6
ENDMDL
MODEL 5
REMARK VINA RESULT: -7.469874980      3.752      4.633
REMARK  6 active torsions:
REMARK  status: ('A' for Active; 'I' for Inactive)
REMARK    1  A    between atoms: C1_2  and  C2_4 
REMARK    2  A    between atoms: C2_4  and  O3_5 
REMARK    3  A    between atoms: C2_4  and  C3_7 
REMARK    4  A    between atoms: C6_10  and  N1_11 
REMARK    5  A    between atoms: N1_11  and  S1_13 
REMARK    6  A    between atoms: S1_13  and  C7_16 
ROOT
HETATM    1  C3  UNL     1      -7.034 -17.329 -10.808  1.00  0.00     0.004 A 
HETATM    2  C4  UNL     1      -5.898 -16.924 -10.090  1.00  0.00     0.017 A 
HETATM    3  C5  UNL     1      -5.521 -17.563  -8.928  1.00  0.00     0.031 A 
HETATM    4  C6  UNL     1      -6.233 -18.619  -8.421  1.00  0.00     0.042 A 
HETATM    5  C13 UNL     1      -7.341 -19.021  -9.112  1.00  0.00     0.031 A 
HETATM    6  C14 UNL     1      -7.734 -18.382 -10.292  1.00  0.00     0.017 A 
ENDROOT
BRANCH   4   7
HETATM    7  N1  UNL     1      -5.862 -19.275  -7.243  1.00  0.00    -0.281 N 
ATOM      8  H1  UNL     1      -6.428 -19.172  -6.400  1.00  0.00     0.179 HD
BRANCH   7   9
HETATM    9  S1  UNL     1      -4.455 -20.253  -7.218  1.00  0.00     0.263 S 
HETATM   10  O4  UNL     1      -4.712 -21.515  -6.425  1.00  0.00    -0.200 OA
HETATM   11  O5  UNL     1      -4.083 -20.690  -8.612  1.00  0.00    -0.200 OA
BRANCH   9  12
HETATM   12  C7  UNL     1      -3.076 -19.476  -6.502  1.00  0.00     0.081 A 
HETATM   13  C8  UNL     1      -2.595 -19.938  -5.298  1.00  0.00     0.025 A 
HETATM   14  C9  UNL     1      -1.489 -19.341  -4.683  1.00  0.00     0.003 A 
HETATM   15  C10 UNL     1      -0.874 -18.266  -5.305  1.00  0.00     0.024 A 
HETATM   16  C11 UNL     1      -1.348 -17.797  -6.505  1.00  0.00     0.035 A 
HETATM   17 CL1  UNL     1      -0.570 -16.437  -7.291  1.00  0.00    -0.084 Cl
HETATM   18  C12 UNL     1      -2.455 -18.409  -7.104  1.00  0.00     0.049 A 
ENDBRANCH   9  12
ENDBRANCH   7   9
ENDBRANCH   4   7
BRANCH   1  19
HETATM   19  C2  UNL     1      -7.413 -16.659 -12.010  1.00  0.00     0.153 C 
BRANCH  19  20
HETATM   20  C1  UNL     1      -8.539 -15.805 -12.177  1.00  0.00     0.234 C 
HETATM   21  O1  UNL     1      -8.540 -14.584 -12.074  1.00  0.00    -0.642 OA
HETATM   22  O2  UNL     1      -9.791 -16.392 -12.492  1.00  0.00    -0.642 OA
ENDBRANCH  19  20
BRANCH  19  23
HETATM   23  O3  UNL     1      -6.628 -16.872 -13.032  1.00  0.00    -0.354 OA
ATOM     24  H3  UNL     1      -6.511 -16.180 -13.672  1.00  0.00     0.218 HD
ENDBRANCH  19  23
ENDBRANCH   1  19
TORSDOF 6
ENDMDL
