MODEL 1
REMARK VINA RESULT: -8.753006078      0.000      0.000
REMARK  7 active torsions:
REMARK  status: ('A' for Active; 'I' for Inactive)
REMARK    1  A    between atoms: C2_2  and  O2_4 
REMARK    2  A    between atoms: O2_4  and  C3_5 
REMARK    3  A    between atoms: C3_5  and  N1_6 
REMARK    4  A    between atoms: C3_5  and  C4_10 
REMARK    5  A    between atoms: C4_10  and  C5_12 
REMARK    6  A    between atoms: N2_14  and  N3_16 
REMARK       I    between atoms: N3_16  and  C6_18 
REMARK    7  A    between atoms: C6_18  and  C7_20 
ROOT
HETATM    1  C5  UNL     1       6.520   2.444   0.192  1.00  0.00     0.169 C 
HETATM    2 CL1  UNL     1       8.323   2.504   0.123  1.00  0.00    -0.059 Cl
HETATM    3  N2  UNL     1       5.967   2.410  -0.895  1.00  0.00    -0.284 N 
ATOM      4  H2  UNL     1       6.644   2.421  -1.659  1.00  0.00     0.188 HD
ENDROOT
BRANCH   3   5
HETATM    5  N3  UNL     1       4.710   2.360  -1.354  1.00  0.00    -0.265 N 
HETATM    6  C6  UNL     1       3.914   3.557  -1.355  1.00  0.00     0.270 C 
HETATM    7  O4  UNL     1       4.396   4.646  -0.924  1.00  0.00    -0.266 OA
ATOM      8  H3  UNL     1       4.323   1.483  -1.701  1.00  0.00     0.190 HD
BRANCH   6   9
HETATM    9  C7  UNL     1       2.566   3.541  -1.838  1.00  0.00     0.034 A 
HETATM   10  C8  UNL     1       1.590   2.701  -1.356  1.00  0.00     0.018 A 
HETATM   11  C9  UNL     1       0.292   2.717  -1.844  1.00  0.00     0.013 A 
HETATM   12  C10 UNL     1      -0.075   3.586  -2.842  1.00  0.00    -0.026 A 
HETATM   13  C11 UNL     1      -1.369   3.625  -3.349  1.00  0.00     0.012 A 
HETATM   14  C15 UNL     1       0.911   4.430  -3.325  1.00  0.00    -0.025 A 
HETATM   15  C12 UNL     1      -1.718   4.504  -4.349  1.00  0.00     0.001 A 
HETATM   16  C13 UNL     1      -0.752   5.356  -4.848  1.00  0.00     0.001 A 
HETATM   17  C14 UNL     1       0.518   5.304  -4.337  1.00  0.00     0.012 A 
HETATM   18  C16 UNL     1       2.191   4.416  -2.845  1.00  0.00     0.029 A 
ENDBRANCH   6   9
ENDBRANCH   3   5
BRANCH   1  19
HETATM   19  C4  UNL     1       5.970   2.445   1.504  1.00  0.00     0.245 C 
HETATM   20  O3  UNL     1       6.226   3.448   2.283  1.00  0.00    -0.285 OA
BRANCH  19  21
HETATM   21  C3  UNL     1       5.117   1.400   2.092  1.00  0.00     0.404 C 
BRANCH  21  22
HETATM   22  O2  UNL     1       3.768   1.526   1.625  1.00  0.00    -0.280 OA
BRANCH  22  23
HETATM   23  C2  UNL     1       2.855   2.133   2.454  1.00  0.00     0.257 C 
HETATM   24  C1  UNL     1       2.461   3.566   2.224  1.00  0.00     0.126 C 
HETATM   25  O1  UNL     1       2.324   1.521   3.423  1.00  0.00    -0.266 OA
ENDBRANCH  22  23
ENDBRANCH  21  22
BRANCH  21  26
HETATM   26  N1  UNL     1       5.125   1.580   3.546  1.00  0.00    -0.045 N 
ATOM     27  H13 UNL     1       4.187   1.684   3.933  1.00  0.00     0.277 HD
ATOM     28  H12 UNL     1       5.388   0.729   4.045  1.00  0.00     0.277 HD
ATOM     29  H11 UNL     1       5.730   2.369   3.772  1.00  0.00     0.277 HD
ENDBRANCH  21  26
ENDBRANCH  19  21
ENDBRANCH   1  19
TORSDOF 7
ENDMDL
MODEL 2
REMARK VINA RESULT: -8.709228201      1.285      1.381
REMARK  7 active torsions:
REMARK  status: ('A' for Active; 'I' for Inactive)
REMARK    1  A    between atoms: C2_2  and  O2_4 
REMARK    2  A    between atoms: O2_4  and  C3_5 
REMARK    3  A    between atoms: C3_5  and  N1_6 
REMARK    4  A    between atoms: C3_5  and  C4_10 
REMARK    5  A    between atoms: C4_10  and  C5_12 
REMARK    6  A    between atoms: N2_14  and  N3_16 
REMARK       I    between atoms: N3_16  and  C6_18 
REMARK    7  A    between atoms: C6_18  and  C7_20 
ROOT
HETATM    1  C5  UNL     1       5.798   2.031   0.602  1.00  0.00     0.169 C 
HETATM    2 CL1  UNL     1       7.361   1.128   0.660  1.00  0.00    -0.059 Cl
HETATM    3  N2  UNL     1       4.983   1.591  -0.193  1.00  0.00    -0.284 N 
ATOM      4  H2  UNL     1       5.345   0.775  -0.686  1.00  0.00     0.188 HD
ENDROOT
BRANCH   3   5
HETATM    5  N3  UNL     1       3.740   1.893  -0.589  1.00  0.00    -0.265 N 
HETATM    6  C6  UNL     1       3.552   2.685  -1.773  1.00  0.00     0.270 C 
HETATM    7  O4  UNL     1       4.551   3.095  -2.434  1.00  0.00    -0.266 OA
ATOM      8  H3  UNL     1       2.935   1.563  -0.055  1.00  0.00     0.190 HD
BRANCH   6   9
HETATM    9  C7  UNL     1       2.236   3.027  -2.226  1.00  0.00     0.034 A 
HETATM   10  C8  UNL     1       1.084   2.486  -1.706  1.00  0.00     0.018 A 
HETATM   11  C9  UNL     1      -0.174   2.845  -2.165  1.00  0.00     0.013 A 
HETATM   12  C10 UNL     1      -0.321   3.769  -3.170  1.00  0.00    -0.026 A 
HETATM   13  C11 UNL     1      -1.570   4.148  -3.649  1.00  0.00     0.012 A 
HETATM   14  C15 UNL     1       0.842   4.311  -3.692  1.00  0.00    -0.025 A 
HETATM   15  C12 UNL     1      -1.696   5.077  -4.658  1.00  0.00     0.001 A 
HETATM   16  C13 UNL     1      -0.551   5.632  -5.193  1.00  0.00     0.001 A 
HETATM   17  C14 UNL     1       0.671   5.246  -4.710  1.00  0.00     0.012 A 
HETATM   18  C16 UNL     1       2.084   3.958  -3.241  1.00  0.00     0.029 A 
ENDBRANCH   6   9
ENDBRANCH   3   5
BRANCH   1  19
HETATM   19  C4  UNL     1       5.715   3.141   1.487  1.00  0.00     0.245 C 
HETATM   20  O3  UNL     1       6.353   4.227   1.184  1.00  0.00    -0.285 OA
BRANCH  19  21
HETATM   21  C3  UNL     1       4.959   3.193   2.749  1.00  0.00     0.404 C 
BRANCH  21  22
HETATM   22  O2  UNL     1       3.558   3.015   2.508  1.00  0.00    -0.280 OA
BRANCH  22  23
HETATM   23  C2  UNL     1       2.990   1.818   2.875  1.00  0.00     0.257 C 
HETATM   24  C1  UNL     1       2.586   1.581   4.304  1.00  0.00     0.126 C 
HETATM   25  O1  UNL     1       2.790   0.891   2.042  1.00  0.00    -0.266 OA
ENDBRANCH  22  23
ENDBRANCH  21  22
BRANCH  21  26
HETATM   26  N1  UNL     1       5.164   4.518   3.340  1.00  0.00    -0.045 N 
ATOM     27  H13 UNL     1       5.169   5.262   2.643  1.00  0.00     0.277 HD
ATOM     28  H12 UNL     1       4.358   4.837   3.878  1.00  0.00     0.277 HD
ATOM     29  H11 UNL     1       6.021   4.497   3.895  1.00  0.00     0.277 HD
ENDBRANCH  21  26
ENDBRANCH  19  21
ENDBRANCH   1  19
TORSDOF 7
ENDMDL
MODEL 3
REMARK VINA RESULT: -8.619449617      2.208      3.701
REMARK  7 active torsions:
REMARK  status: ('A' for Active; 'I' for Inactive)
REMARK    1  A    between atoms: C2_2  and  O2_4 
REMARK    2  A    between atoms: O2_4  and  C3_5 
REMARK    3  A    between atoms: C3_5  and  N1_6 
REMARK    4  A    between atoms: C3_5  and  C4_10 
REMARK    5  A    between atoms: C4_10  and  C5_12 
REMARK    6  A    between atoms: N2_14  and  N3_16 
REMARK       I    between atoms: N3_16  and  C6_18 
REMARK    7  A    between atoms: C6_18  and  C7_20 
ROOT
HETATM    1  C5  UNL     1       4.005   2.174   0.014  1.00  0.00     0.169 C 
HETATM    2 CL1  UNL     1       4.878   1.098   1.172  1.00  0.00    -0.059 Cl
HETATM    3  N2  UNL     1       3.241   1.598  -0.742  1.00  0.00    -0.284 N 
ATOM      4  H2  UNL     1       3.238   0.591  -0.576  1.00  0.00     0.188 HD
ENDROOT
BRANCH   3   5
HETATM    5  N3  UNL     1       2.405   1.933  -1.733  1.00  0.00    -0.265 N 
HETATM    6  C6  UNL     1       1.219   2.686  -1.428  1.00  0.00     0.270 C 
HETATM    7  O4  UNL     1       0.967   3.027  -0.235  1.00  0.00    -0.266 OA
ATOM      8  H3  UNL     1       2.608   1.657  -2.694  1.00  0.00     0.190 HD
BRANCH   6   9
HETATM    9  C7  UNL     1       0.302   3.063  -2.463  1.00  0.00     0.034 A 
HETATM   10  C8  UNL     1      -0.870   2.395  -2.726  1.00  0.00     0.018 A 
HETATM   11  C9  UNL     1      -1.738   2.791  -3.733  1.00  0.00     0.013 A 
HETATM   12  C10 UNL     1      -1.456   3.882  -4.517  1.00  0.00    -0.026 A 
HETATM   13  C11 UNL     1      -2.308   4.303  -5.532  1.00  0.00     0.012 A 
HETATM   14  C15 UNL     1      -0.274   4.552  -4.249  1.00  0.00    -0.025 A 
HETATM   15  C12 UNL     1      -2.008   5.400  -6.307  1.00  0.00     0.001 A 
HETATM   16  C13 UNL     1      -0.834   6.084  -6.059  1.00  0.00     0.001 A 
HETATM   17  C14 UNL     1      -0.007   5.656  -5.056  1.00  0.00     0.012 A 
HETATM   18  C16 UNL     1       0.583   4.162  -3.257  1.00  0.00     0.029 A 
ENDBRANCH   6   9
ENDBRANCH   3   5
BRANCH   1  19
HETATM   19  C4  UNL     1       4.317   3.557   0.130  1.00  0.00     0.245 C 
HETATM   20  O3  UNL     1       4.046   4.163   1.242  1.00  0.00    -0.285 OA
BRANCH  19  21
HETATM   21  C3  UNL     1       4.933   4.401  -0.906  1.00  0.00     0.404 C 
BRANCH  21  22
HETATM   22  O2  UNL     1       4.126   4.418  -2.090  1.00  0.00    -0.280 OA
BRANCH  22  23
HETATM   23  C2  UNL     1       4.654   3.873  -3.236  1.00  0.00     0.257 C 
HETATM   24  C1  UNL     1       5.067   4.762  -4.375  1.00  0.00     0.126 C 
HETATM   25  O1  UNL     1       4.808   2.627  -3.371  1.00  0.00    -0.266 OA
ENDBRANCH  22  23
ENDBRANCH  21  22
BRANCH  21  26
HETATM   26  N1  UNL     1       6.236   3.820  -1.240  1.00  0.00    -0.045 N 
ATOM     27  H13 UNL     1       6.600   4.160  -2.130  1.00  0.00     0.277 HD
ATOM     28  H12 UNL     1       6.986   4.168  -0.642  1.00  0.00     0.277 HD
ATOM     29  H11 UNL     1       6.155   2.803  -1.214  1.00  0.00     0.277 HD
ENDBRANCH  21  26
ENDBRANCH  19  21
ENDBRANCH   1  19
TORSDOF 7
ENDMDL
MODEL 4
REMARK VINA RESULT: -8.551717768      2.248      3.921
REMARK  7 active torsions:
REMARK  status: ('A' for Active; 'I' for Inactive)
REMARK    1  A    between atoms: C2_2  and  O2_4 
REMARK    2  A    between atoms: O2_4  and  C3_5 
REMARK    3  A    between atoms: C3_5  and  N1_6 
REMARK    4  A    between atoms: C3_5  and  C4_10 
REMARK    5  A    between atoms: C4_10  and  C5_12 
REMARK    6  A    between atoms: N2_14  and  N3_16 
REMARK       I    between atoms: N3_16  and  C6_18 
REMARK    7  A    between atoms: C6_18  and  C7_20 
ROOT
HETATM    1  C5  UNL     1       3.771   2.210  -0.287  1.00  0.00     0.169 C 
HETATM    2 CL1  UNL     1       4.383   0.818   0.688  1.00  0.00    -0.059 Cl
HETATM    3  N2  UNL     1       3.133   1.897  -1.279  1.00  0.00    -0.284 N 
ATOM      4  H2  UNL     1       3.062   0.884  -1.374  1.00  0.00     0.188 HD
ENDROOT
BRANCH   3   5
HETATM    5  N3  UNL     1       2.500   2.528  -2.275  1.00  0.00    -0.265 N 
HETATM    6  C6  UNL     1       1.223   3.139  -2.023  1.00  0.00     0.270 C 
HETATM    7  O4  UNL     1       0.702   3.078  -0.871  1.00  0.00    -0.266 OA
ATOM      8  H3  UNL     1       2.920   2.576  -3.204  1.00  0.00     0.190 HD
BRANCH   6   9
HETATM    9  C7  UNL     1       0.517   3.822  -3.066  1.00  0.00     0.034 A 
HETATM   10  C8  UNL     1      -0.818   3.638  -3.334  1.00  0.00     0.018 A 
HETATM   11  C9  UNL     1      -1.470   4.322  -4.349  1.00  0.00     0.013 A 
HETATM   12  C10 UNL     1      -0.799   5.225  -5.135  1.00  0.00    -0.026 A 
HETATM   13  C11 UNL     1      -1.428   5.926  -6.158  1.00  0.00     0.012 A 
HETATM   14  C15 UNL     1       0.547   5.408  -4.862  1.00  0.00    -0.025 A 
HETATM   15  C12 UNL     1      -0.736   6.828  -6.935  1.00  0.00     0.001 A 
HETATM   16  C13 UNL     1       0.606   7.028  -6.682  1.00  0.00     0.001 A 
HETATM   17  C14 UNL     1       1.210   6.329  -5.671  1.00  0.00     0.012 A 
HETATM   18  C16 UNL     1       1.191   4.734  -3.862  1.00  0.00     0.029 A 
ENDBRANCH   6   9
ENDBRANCH   3   5
BRANCH   1  19
HETATM   19  C4  UNL     1       4.110   3.494   0.223  1.00  0.00     0.245 C 
HETATM   20  O3  UNL     1       3.698   3.819   1.407  1.00  0.00    -0.285 OA
BRANCH  19  21
HETATM   21  C3  UNL     1       4.901   4.524  -0.468  1.00  0.00     0.404 C 
BRANCH  21  22
HETATM   22  O2  UNL     1       4.177   5.050  -1.588  1.00  0.00    -0.280 OA
BRANCH  22  23
HETATM   23  C2  UNL     1       4.731   4.902  -2.837  1.00  0.00     0.257 C 
HETATM   24  C1  UNL     1       5.314   6.090  -3.552  1.00  0.00     0.126 C 
HETATM   25  O1  UNL     1       4.771   3.783  -3.421  1.00  0.00    -0.266 OA
ENDBRANCH  22  23
ENDBRANCH  21  22
BRANCH  21  26
HETATM   26  N1  UNL     1       6.127   3.892  -0.962  1.00  0.00    -0.045 N 
ATOM     27  H13 UNL     1       6.962   4.236  -0.488  1.00  0.00     0.277 HD
ATOM     28  H12 UNL     1       6.202   2.913  -0.684  1.00  0.00     0.277 HD
ATOM     29  H11 UNL     1       6.172   4.017  -1.973  1.00  0.00     0.277 HD
ENDBRANCH  21  26
ENDBRANCH  19  21
ENDBRANCH   1  19
TORSDOF 7
ENDMDL
MODEL 5
REMARK VINA RESULT: -8.443658170      1.141      1.314
REMARK  7 active torsions:
REMARK  status: ('A' for Active; 'I' for Inactive)
REMARK    1  A    between atoms: C2_2  and  O2_4 
REMARK    2  A    between atoms: O2_4  and  C3_5 
REMARK    3  A    between atoms: C3_5  and  N1_6 
REMARK    4  A    between atoms: C3_5  and  C4_10 
REMARK    5  A    between atoms: C4_10  and  C5_12 
REMARK    6  A    between atoms: N2_14  and  N3_16 
REMARK       I    between atoms: N3_16  and  C6_18 
REMARK    7  A    between atoms: C6_18  and  C7_20 
ROOT
HETATM    1  C5  UNL     1       6.098   2.149  -0.185  1.00  0.00     0.169 C 
HETATM    2 CL1  UNL     1       7.900   2.241  -0.122  1.00  0.00    -0.059 Cl
HETATM    3  N2  UNL     1       5.613   2.370  -1.283  1.00  0.00    -0.284 N 
ATOM      4  H2  UNL     1       6.334   2.570  -1.977  1.00  0.00     0.188 HD
ENDROOT
BRANCH   3   5
HETATM    5  N3  UNL     1       4.388   2.420  -1.821  1.00  0.00    -0.265 N 
HETATM    6  C6  UNL     1       3.529   3.531  -1.513  1.00  0.00     0.270 C 
HETATM    7  O4  UNL     1       3.927   4.452  -0.740  1.00  0.00    -0.266 OA
ATOM      8  H3  UNL     1       4.067   1.677  -2.442  1.00  0.00     0.190 HD
BRANCH   6   9
HETATM    9  C7  UNL     1       2.212   3.617  -2.070  1.00  0.00     0.034 A 
HETATM   10  C8  UNL     1       1.145   2.870  -1.629  1.00  0.00     0.018 A 
HETATM   11  C9  UNL     1      -0.119   2.984  -2.189  1.00  0.00     0.013 A 
HETATM   12  C10 UNL     1      -0.358   3.860  -3.218  1.00  0.00    -0.026 A 
HETATM   13  C11 UNL     1      -1.615   3.995  -3.796  1.00  0.00     0.012 A 
HETATM   14  C15 UNL     1       0.719   4.610  -3.659  1.00  0.00    -0.025 A 
HETATM   15  C12 UNL     1      -1.835   4.880  -4.828  1.00  0.00     0.001 A 
HETATM   16  C13 UNL     1      -0.776   5.640  -5.285  1.00  0.00     0.001 A 
HETATM   17  C14 UNL     1       0.455   5.493  -4.704  1.00  0.00     0.012 A 
HETATM   18  C16 UNL     1       1.966   4.499  -3.109  1.00  0.00     0.029 A 
ENDBRANCH   6   9
ENDBRANCH   3   5
BRANCH   1  19
HETATM   19  C4  UNL     1       5.471   1.831   1.051  1.00  0.00     0.245 C 
HETATM   20  O3  UNL     1       4.735   0.767   1.118  1.00  0.00    -0.285 OA
BRANCH  19  21
HETATM   21  C3  UNL     1       5.569   2.601   2.301  1.00  0.00     0.404 C 
BRANCH  21  22
HETATM   22  O2  UNL     1       4.434   2.352   3.139  1.00  0.00    -0.280 OA
BRANCH  22  23
HETATM   23  C2  UNL     1       3.443   3.304   3.177  1.00  0.00     0.257 C 
HETATM   24  C1  UNL     1       2.287   3.230   2.217  1.00  0.00     0.126 C 
HETATM   25  O1  UNL     1       3.465   4.259   4.003  1.00  0.00    -0.266 OA
ENDBRANCH  22  23
ENDBRANCH  21  22
BRANCH  21  26
HETATM   26  N1  UNL     1       5.586   4.024   1.951  1.00  0.00    -0.045 N 
ATOM     27  H13 UNL     1       5.627   4.178   0.944  1.00  0.00     0.277 HD
ATOM     28  H12 UNL     1       4.692   4.481   2.126  1.00  0.00     0.277 HD
ATOM     29  H11 UNL     1       6.358   4.470   2.447  1.00  0.00     0.277 HD
ENDBRANCH  21  26
ENDBRANCH  19  21
ENDBRANCH   1  19
TORSDOF 7
ENDMDL
