MODEL 1
REMARK VINA RESULT: -6.706418714      0.000      0.000
REMARK  5 active torsions:
REMARK  status: ('A' for Active; 'I' for Inactive)
REMARK    1  A    between atoms: C2_2  and  N1_3 
REMARK    2  A    between atoms: C2_2  and  C11_19 
REMARK       I    between atoms: N1_3  and  C3_5 
REMARK    3  A    between atoms: C3_5  and  C4_7 
REMARK    4  A    between atoms: C4_7  and  S1_10 
REMARK    5  A    between atoms: S1_10  and  C7_13 
ROOT
HETATM    1  C4  UNL     1       4.952   4.990  -2.314  1.00  0.00     0.142 C 
HETATM    2  C5  UNL     1       6.222   5.585  -2.917  1.00  0.00     0.042 C 
HETATM    3  C6  UNL     1       4.034   6.184  -2.059  1.00  0.00     0.042 C 
ENDROOT
BRANCH   1   4
HETATM    4  C3  UNL     1       5.339   4.345  -1.052  1.00  0.00     0.241 C 
HETATM    5  N1  UNL     1       6.289   3.303  -0.991  1.00  0.00    -0.345 N 
ATOM      6  H1  UNL     1       6.716   2.994  -1.864  1.00  0.00     0.163 HD
HETATM    7  O1  UNL     1       4.820   4.714   0.026  1.00  0.00    -0.272 OA
BRANCH   5   8
HETATM    8  C2  UNL     1       6.690   2.649   0.226  1.00  0.00     0.181 C 
HETATM    9  C1  UNL     1       5.885   1.362   0.445  1.00  0.00     0.043 C 
BRANCH   8  10
HETATM   10  C11 UNL     1       8.105   2.322   0.288  1.00  0.00     0.196 C 
HETATM   11  O4  UNL     1       8.970   3.184   0.023  1.00  0.00    -0.646 OA
HETATM   12  O5  UNL     1       8.524   1.057   0.642  1.00  0.00    -0.646 OA
ENDBRANCH   8  10
ENDBRANCH   5   8
ENDBRANCH   1   4
BRANCH   1  13
HETATM   13  S1  UNL     1       4.198   3.951  -3.497  1.00  0.00     0.198 S 
HETATM   14  O2  UNL     1       4.659   2.528  -3.203  1.00  0.00    -0.221 OA
HETATM   15  O3  UNL     1       4.616   4.331  -4.881  1.00  0.00    -0.221 OA
BRANCH  13  16
HETATM   16  C7  UNL     1       2.439   3.962  -3.431  1.00  0.00     0.102 A 
HETATM   17  C8  UNL     1       1.633   3.382  -2.487  1.00  0.00     0.033 A 
HETATM   18  C9  UNL     1       0.310   3.513  -2.630  1.00  0.00     0.033 A 
HETATM   19  C10 UNL     1      -0.135   4.223  -3.716  1.00  0.00     0.075 A 
HETATM   20 CL1  UNL     1      -1.815   4.565  -4.168  1.00  0.00    -0.076 Cl
HETATM   21  S2  UNL     1       1.314   4.676  -4.490  1.00  0.00    -0.066 SA
ENDBRANCH  13  16
ENDBRANCH   1  13
TORSDOF 5
ENDMDL
MODEL 2
REMARK VINA RESULT: -6.389293114      2.996      3.938
REMARK  5 active torsions:
REMARK  status: ('A' for Active; 'I' for Inactive)
REMARK    1  A    between atoms: C2_2  and  N1_3 
REMARK    2  A    between atoms: C2_2  and  C11_19 
REMARK       I    between atoms: N1_3  and  C3_5 
REMARK    3  A    between atoms: C3_5  and  C4_7 
REMARK    4  A    between atoms: C4_7  and  S1_10 
REMARK    5  A    between atoms: S1_10  and  C7_13 
ROOT
HETATM    1  C4  UNL     1       3.707   5.680  -4.541  1.00  0.00     0.142 C 
HETATM    2  C5  UNL     1       3.529   4.950  -5.869  1.00  0.00     0.042 C 
HETATM    3  C6  UNL     1       4.861   6.655  -4.773  1.00  0.00     0.042 C 
ENDROOT
BRANCH   1   4
HETATM    4  C3  UNL     1       4.069   4.667  -3.541  1.00  0.00     0.241 C 
HETATM    5  N1  UNL     1       3.718   4.785  -2.178  1.00  0.00    -0.345 N 
ATOM      6  H1  UNL     1       3.192   5.609  -1.890  1.00  0.00     0.163 HD
HETATM    7  O1  UNL     1       4.716   3.651  -3.881  1.00  0.00    -0.272 OA
BRANCH   5   8
HETATM    8  C2  UNL     1       4.056   3.813  -1.173  1.00  0.00     0.181 C 
HETATM    9  C1  UNL     1       4.539   4.503   0.110  1.00  0.00     0.043 C 
BRANCH   8  10
HETATM   10  C11 UNL     1       2.971   2.909  -0.828  1.00  0.00     0.196 C 
HETATM   11  O4  UNL     1       2.446   2.185  -1.700  1.00  0.00    -0.646 OA
HETATM   12  O5  UNL     1       2.500   2.829   0.465  1.00  0.00    -0.646 OA
ENDBRANCH   8  10
ENDBRANCH   5   8
ENDBRANCH   1   4
BRANCH   1  13
HETATM   13  S1  UNL     1       2.262   6.598  -4.202  1.00  0.00     0.198 S 
HETATM   14  O2  UNL     1       2.183   7.710  -5.243  1.00  0.00    -0.221 OA
HETATM   15  O3  UNL     1       2.323   7.202  -2.836  1.00  0.00    -0.221 OA
BRANCH  13  16
HETATM   16  C7  UNL     1       0.780   5.655  -4.322  1.00  0.00     0.102 A 
HETATM   17  C8  UNL     1      -0.208   5.764  -5.265  1.00  0.00     0.033 A 
HETATM   18  C9  UNL     1      -1.257   4.941  -5.167  1.00  0.00     0.033 A 
HETATM   19  C10 UNL     1      -1.259   4.049  -4.124  1.00  0.00     0.075 A 
HETATM   20 CL1  UNL     1      -2.499   2.843  -3.736  1.00  0.00    -0.076 Cl
HETATM   21  S2  UNL     1       0.206   4.400  -3.326  1.00  0.00    -0.066 SA
ENDBRANCH  13  16
ENDBRANCH   1  13
TORSDOF 5
ENDMDL
MODEL 3
REMARK VINA RESULT: -6.338207977      2.787      3.294
REMARK  5 active torsions:
REMARK  status: ('A' for Active; 'I' for Inactive)
REMARK    1  A    between atoms: C2_2  and  N1_3 
REMARK    2  A    between atoms: C2_2  and  C11_19 
REMARK       I    between atoms: N1_3  and  C3_5 
REMARK    3  A    between atoms: C3_5  and  C4_7 
REMARK    4  A    between atoms: C4_7  and  S1_10 
REMARK    5  A    between atoms: S1_10  and  C7_13 
ROOT
HETATM    1  C4  UNL     1       5.107   4.093  -0.546  1.00  0.00     0.142 C 
HETATM    2  C5  UNL     1       6.542   4.215  -1.052  1.00  0.00     0.042 C 
HETATM    3  C6  UNL     1       4.434   5.410  -0.929  1.00  0.00     0.042 C 
ENDROOT
BRANCH   1   4
HETATM    4  C3  UNL     1       5.179   3.945   0.914  1.00  0.00     0.241 C 
HETATM    5  N1  UNL     1       4.124   3.396   1.675  1.00  0.00    -0.345 N 
ATOM      6  H1  UNL     1       3.285   3.093   1.181  1.00  0.00     0.163 HD
HETATM    7  O1  UNL     1       6.203   4.313   1.532  1.00  0.00    -0.272 OA
BRANCH   5   8
HETATM    8  C2  UNL     1       4.160   3.236   3.104  1.00  0.00     0.181 C 
HETATM    9  C1  UNL     1       3.164   4.185   3.784  1.00  0.00     0.043 C 
BRANCH   8  10
HETATM   10  C11 UNL     1       3.892   1.883   3.561  1.00  0.00     0.196 C 
HETATM   11  O4  UNL     1       4.787   1.207   4.110  1.00  0.00    -0.646 OA
HETATM   12  O5  UNL     1       2.645   1.316   3.400  1.00  0.00    -0.646 OA
ENDBRANCH   8  10
ENDBRANCH   5   8
ENDBRANCH   1   4
BRANCH   1  13
HETATM   13  S1  UNL     1       4.315   2.794  -1.402  1.00  0.00     0.198 S 
HETATM   14  O2  UNL     1       4.353   1.569  -0.495  1.00  0.00    -0.221 OA
HETATM   15  O3  UNL     1       5.028   2.487  -2.680  1.00  0.00    -0.221 OA
BRANCH  13  16
HETATM   16  C7  UNL     1       2.626   3.120  -1.779  1.00  0.00     0.102 A 
HETATM   17  C8  UNL     1       1.521   2.751  -1.059  1.00  0.00     0.033 A 
HETATM   18  C9  UNL     1       0.322   3.106  -1.532  1.00  0.00     0.033 A 
HETATM   19  C10 UNL     1       0.295   3.816  -2.705  1.00  0.00     0.075 A 
HETATM   20 CL1  UNL     1      -1.130   4.422  -3.569  1.00  0.00    -0.076 Cl
HETATM   21  S2  UNL     1       1.948   3.957  -3.097  1.00  0.00    -0.066 SA
ENDBRANCH  13  16
ENDBRANCH   1  13
TORSDOF 5
ENDMDL
MODEL 4
REMARK VINA RESULT: -6.281255713      3.424      4.841
REMARK  5 active torsions:
REMARK  status: ('A' for Active; 'I' for Inactive)
REMARK    1  A    between atoms: C2_2  and  N1_3 
REMARK    2  A    between atoms: C2_2  and  C11_19 
REMARK       I    between atoms: N1_3  and  C3_5 
REMARK    3  A    between atoms: C3_5  and  C4_7 
REMARK    4  A    between atoms: C4_7  and  S1_10 
REMARK    5  A    between atoms: S1_10  and  C7_13 
ROOT
HETATM    1  C4  UNL     1       4.011   5.292  -4.359  1.00  0.00     0.142 C 
HETATM    2  C5  UNL     1       4.091   4.855  -5.818  1.00  0.00     0.042 C 
HETATM    3  C6  UNL     1       5.425   5.744  -3.998  1.00  0.00     0.042 C 
ENDROOT
BRANCH   1   4
HETATM    4  C3  UNL     1       3.622   4.110  -3.578  1.00  0.00     0.241 C 
HETATM    5  N1  UNL     1       2.454   4.072  -2.787  1.00  0.00    -0.345 N 
ATOM      6  H1  UNL     1       1.865   4.904  -2.764  1.00  0.00     0.163 HD
HETATM    7  O1  UNL     1       4.337   3.082  -3.597  1.00  0.00    -0.272 OA
BRANCH   5   8
HETATM    8  C2  UNL     1       2.043   2.932  -2.011  1.00  0.00     0.181 C 
HETATM    9  C1  UNL     1       2.688   2.960  -0.618  1.00  0.00     0.043 C 
BRANCH   8  10
HETATM   10  C11 UNL     1       0.605   2.808  -1.849  1.00  0.00     0.196 C 
HETATM   11  O4  UNL     1      -0.097   3.810  -1.595  1.00  0.00    -0.646 OA
HETATM   12  O5  UNL     1      -0.018   1.584  -1.972  1.00  0.00    -0.646 OA
ENDBRANCH   8  10
ENDBRANCH   5   8
ENDBRANCH   1   4
BRANCH   1  13
HETATM   13  S1  UNL     1       2.941   6.666  -4.239  1.00  0.00     0.198 S 
HETATM   14  O2  UNL     1       3.648   7.845  -4.898  1.00  0.00    -0.221 OA
HETATM   15  O3  UNL     1       2.656   6.995  -2.808  1.00  0.00    -0.221 OA
BRANCH  13  16
HETATM   16  C7  UNL     1       1.404   6.441  -5.068  1.00  0.00     0.102 A 
HETATM   17  C8  UNL     1       0.335   5.686  -4.660  1.00  0.00     0.033 A 
HETATM   18  C9  UNL     1      -0.743   5.655  -5.450  1.00  0.00     0.033 A 
HETATM   19  C10 UNL     1      -0.693   6.386  -6.610  1.00  0.00     0.075 A 
HETATM   20 CL1  UNL     1      -1.954   6.540  -7.845  1.00  0.00    -0.076 Cl
HETATM   21  S2  UNL     1       0.860   7.085  -6.546  1.00  0.00    -0.066 SA
ENDBRANCH  13  16
ENDBRANCH   1  13
TORSDOF 5
ENDMDL
MODEL 5
REMARK VINA RESULT: -6.248108002      3.940      6.663
REMARK  5 active torsions:
REMARK  status: ('A' for Active; 'I' for Inactive)
REMARK    1  A    between atoms: C2_2  and  N1_3 
REMARK    2  A    between atoms: C2_2  and  C11_19 
REMARK       I    between atoms: N1_3  and  C3_5 
REMARK    3  A    between atoms: C3_5  and  C4_7 
REMARK    4  A    between atoms: C4_7  and  S1_10 
REMARK    5  A    between atoms: S1_10  and  C7_13 
ROOT
HETATM    1  C4  UNL     1       2.920   4.509  -3.144  1.00  0.00     0.142 C 
HETATM    2  C5  UNL     1       3.538   5.765  -2.535  1.00  0.00     0.042 C 
HETATM    3  C6  UNL     1       3.515   4.412  -4.548  1.00  0.00     0.042 C 
ENDROOT
BRANCH   1   4
HETATM    4  C3  UNL     1       1.469   4.733  -3.203  1.00  0.00     0.241 C 
HETATM    5  N1  UNL     1       0.553   3.701  -3.502  1.00  0.00    -0.345 N 
ATOM      6  H1  UNL     1       0.925   2.768  -3.682  1.00  0.00     0.163 HD
HETATM    7  O1  UNL     1       1.000   5.873  -2.985  1.00  0.00    -0.272 OA
BRANCH   5   8
HETATM    8  C2  UNL     1      -0.872   3.883  -3.568  1.00  0.00     0.181 C 
HETATM    9  C1  UNL     1      -1.293   4.395  -4.952  1.00  0.00     0.043 C 
BRANCH   8  10
HETATM   10  C11 UNL     1      -1.642   2.688  -3.267  1.00  0.00     0.196 C 
HETATM   11  O4  UNL     1      -2.802   2.549  -3.710  1.00  0.00    -0.646 OA
HETATM   12  O5  UNL     1      -1.110   1.681  -2.489  1.00  0.00    -0.646 OA
ENDBRANCH   8  10
ENDBRANCH   5   8
ENDBRANCH   1   4
BRANCH   1  13
HETATM   13  S1  UNL     1       3.437   3.120  -2.223  1.00  0.00     0.198 S 
HETATM   14  O2  UNL     1       4.783   2.682  -2.789  1.00  0.00    -0.221 OA
HETATM   15  O3  UNL     1       2.456   2.000  -2.354  1.00  0.00    -0.221 OA
BRANCH  13  16
HETATM   16  C7  UNL     1       3.668   3.453  -0.509  1.00  0.00     0.102 A 
HETATM   17  C8  UNL     1       4.654   4.205   0.072  1.00  0.00     0.033 A 
HETATM   18  C9  UNL     1       4.641   4.328   1.404  1.00  0.00     0.033 A 
HETATM   19  C10 UNL     1       3.635   3.689   2.083  1.00  0.00     0.075 A 
HETATM   20 CL1  UNL     1       3.356   3.668   3.833  1.00  0.00    -0.076 Cl
HETATM   21  S2  UNL     1       2.751   2.943   0.831  1.00  0.00    -0.066 SA
ENDBRANCH  13  16
ENDBRANCH   1  13
TORSDOF 5
ENDMDL
