MODEL 1
REMARK VINA RESULT: -7.264824825      0.000      0.000
REMARK  7 active torsions:
REMARK  status: ('A' for Active; 'I' for Inactive)
REMARK    1  A    between atoms: C3_3  and  C4_4 
REMARK    2  A    between atoms: C4_4  and  N1_5 
REMARK       I    between atoms: C5_7  and  N2_8 
REMARK       I    between atoms: C5_7  and  N4_19 
REMARK    3  A    between atoms: C6_10  and  C7_11 
REMARK    4  A    between atoms: C10_14  and  N3_15 
REMARK    5  A    between atoms: N4_19  and  N5_21 
REMARK    6  A    between atoms: N5_21  and  C11_23 
REMARK    7  A    between atoms: C11_23  and  C12_25 
ROOT
HETATM    1  C1  UNL     1      -2.018   3.180  -5.034  1.00  0.00     0.012 C 
HETATM    2  C2  UNL     1      -1.781   2.595  -4.025  1.00  0.00    -0.116 C 
HETATM    3  C3  UNL     1      -1.468   1.878  -2.801  1.00  0.00     0.113 C 
ENDROOT
BRANCH   3   4
HETATM    4  C4  UNL     1      -0.511   2.698  -1.969  1.00  0.00     0.150 C 
BRANCH   4   5
HETATM    5  N1  UNL     1       0.664   1.982  -1.591  1.00  0.00    -0.224 N 
HETATM    6  C5  UNL     1       1.844   2.475  -1.742  1.00  0.00     0.692 C 
HETATM    7  N2  UNL     1       1.962   3.773  -2.305  1.00  0.00    -0.198 N 
HETATM    8  N4  UNL     1       3.014   1.778  -1.373  1.00  0.00    -0.131 N 
HETATM    9  C6  UNL     1       2.958   4.156  -3.001  1.00  0.00     0.143 C 
ATOM     10  H2  UNL     1       1.205   4.438  -2.144  1.00  0.00     0.183 HD
ATOM     11  H4  UNL     1       3.493   1.231  -2.087  1.00  0.00     0.205 HD
ATOM     12  H1  UNL     1       0.565   1.050  -1.188  1.00  0.00     0.177 HD
BRANCH   9  13
HETATM   13  C7  UNL     1       3.041   5.505  -3.565  1.00  0.00     0.094 A 
HETATM   14  C8  UNL     1       2.280   6.605  -3.185  1.00  0.00     0.043 A 
HETATM   15  C9  UNL     1       2.654   7.688  -3.949  1.00  0.00     0.065 A 
HETATM   16  C10 UNL     1       3.643   7.188  -4.773  1.00  0.00     0.215 A 
HETATM   17  O3  UNL     1       3.838   5.921  -4.519  1.00  0.00    -0.287 OA
BRANCH  16  18
HETATM   18  N3  UNL     1       4.337   7.971  -5.754  1.00  0.00    -0.090 N 
HETATM   19  O1  UNL     1       4.748   9.109  -5.452  1.00  0.00    -0.530 OA
HETATM   20  O2  UNL     1       4.565   7.511  -7.006  1.00  0.00    -0.530 OA
ENDBRANCH  16  18
ENDBRANCH   9  13
BRANCH   8  21
HETATM   21  N5  UNL     1       3.553   1.794  -0.084  1.00  0.00    -0.279 N 
ATOM     22  H5  UNL     1       4.009   0.951   0.265  1.00  0.00     0.188 HD
BRANCH  21  23
HETATM   23  C11 UNL     1       3.494   2.933   0.759  1.00  0.00     0.106 C 
HETATM   24  S1  UNL     1       4.524   4.170   0.514  1.00  0.00    -0.063 SA
BRANCH  23  25
HETATM   25  C12 UNL     1       2.521   3.047   1.869  1.00  0.00     0.185 C 
HETATM   26 CL1  UNL     1       3.228   3.812   3.278  1.00  0.00    -0.123 Cl
ENDBRANCH  23  25
ENDBRANCH  21  23
ENDBRANCH   8  21
ENDBRANCH   4   5
ENDBRANCH   3   4
TORSDOF 7
ENDMDL
MODEL 2
REMARK VINA RESULT: -7.231407814      1.839      1.998
REMARK  7 active torsions:
REMARK  status: ('A' for Active; 'I' for Inactive)
REMARK    1  A    between atoms: C3_3  and  C4_4 
REMARK    2  A    between atoms: C4_4  and  N1_5 
REMARK       I    between atoms: C5_7  and  N2_8 
REMARK       I    between atoms: C5_7  and  N4_19 
REMARK    3  A    between atoms: C6_10  and  C7_11 
REMARK    4  A    between atoms: C10_14  and  N3_15 
REMARK    5  A    between atoms: N4_19  and  N5_21 
REMARK    6  A    between atoms: N5_21  and  C11_23 
REMARK    7  A    between atoms: C11_23  and  C12_25 
ROOT
HETATM    1  C1  UNL     1      -2.410   1.889  -4.671  1.00  0.00     0.012 C 
HETATM    2  C2  UNL     1      -1.939   1.858  -3.578  1.00  0.00    -0.116 C 
HETATM    3  C3  UNL     1      -1.346   1.806  -2.254  1.00  0.00     0.113 C 
ENDROOT
BRANCH   3   4
HETATM    4  C4  UNL     1      -0.077   2.625  -2.240  1.00  0.00     0.150 C 
BRANCH   4   5
HETATM    5  N1  UNL     1       0.930   2.090  -1.383  1.00  0.00    -0.224 N 
HETATM    6  C5  UNL     1       2.176   2.386  -1.522  1.00  0.00     0.692 C 
HETATM    7  N2  UNL     1       2.541   3.275  -2.568  1.00  0.00    -0.198 N 
HETATM    8  N4  UNL     1       3.182   1.865  -0.683  1.00  0.00    -0.131 N 
HETATM    9  C6  UNL     1       3.662   3.237  -3.172  1.00  0.00     0.143 C 
ATOM     10  H2  UNL     1       1.866   3.985  -2.854  1.00  0.00     0.183 HD
ATOM     11  H4  UNL     1       3.673   1.024  -0.986  1.00  0.00     0.205 HD
ATOM     12  H1  UNL     1       0.655   1.452  -0.636  1.00  0.00     0.177 HD
BRANCH   9  13
HETATM   13  C7  UNL     1       4.000   4.172  -4.247  1.00  0.00     0.094 A 
HETATM   14  C8  UNL     1       3.105   4.780  -5.121  1.00  0.00     0.043 A 
HETATM   15  C9  UNL     1       3.810   5.589  -5.984  1.00  0.00     0.065 A 
HETATM   16  C10 UNL     1       5.124   5.433  -5.590  1.00  0.00     0.215 A 
HETATM   17  O3  UNL     1       5.191   4.605  -4.580  1.00  0.00    -0.287 OA
BRANCH  16  18
HETATM   18  N3  UNL     1       6.231   6.097  -6.214  1.00  0.00    -0.090 N 
HETATM   19  O1  UNL     1       6.029   7.132  -6.880  1.00  0.00    -0.530 OA
HETATM   20  O2  UNL     1       7.498   5.635  -6.103  1.00  0.00    -0.530 OA
ENDBRANCH  16  18
ENDBRANCH   9  13
BRANCH   8  21
HETATM   21  N5  UNL     1       3.545   2.433   0.540  1.00  0.00    -0.279 N 
ATOM     22  H5  UNL     1       3.047   3.265   0.859  1.00  0.00     0.188 HD
BRANCH  21  23
HETATM   23  C11 UNL     1       4.576   1.904   1.358  1.00  0.00     0.106 C 
HETATM   24  S1  UNL     1       5.959   1.383   0.674  1.00  0.00    -0.063 SA
BRANCH  23  25
HETATM   25  C12 UNL     1       4.446   1.803   2.830  1.00  0.00     0.185 C 
HETATM   26 CL1  UNL     1       2.770   1.831   3.339  1.00  0.00    -0.123 Cl
ENDBRANCH  23  25
ENDBRANCH  21  23
ENDBRANCH   8  21
ENDBRANCH   4   5
ENDBRANCH   3   4
TORSDOF 7
ENDMDL
MODEL 3
REMARK VINA RESULT: -7.187160585      2.066      2.206
REMARK  7 active torsions:
REMARK  status: ('A' for Active; 'I' for Inactive)
REMARK    1  A    between atoms: C3_3  and  C4_4 
REMARK    2  A    between atoms: C4_4  and  N1_5 
REMARK       I    between atoms: C5_7  and  N2_8 
REMARK       I    between atoms: C5_7  and  N4_19 
REMARK    3  A    between atoms: C6_10  and  C7_11 
REMARK    4  A    between atoms: C10_14  and  N3_15 
REMARK    5  A    between atoms: N4_19  and  N5_21 
REMARK    6  A    between atoms: N5_21  and  C11_23 
REMARK    7  A    between atoms: C11_23  and  C12_25 
ROOT
HETATM    1  C1  UNL     1      -0.878   5.612  -5.411  1.00  0.00     0.012 C 
HETATM    2  C2  UNL     1      -0.908   4.752  -4.589  1.00  0.00    -0.116 C 
HETATM    3  C3  UNL     1      -0.921   3.697  -3.590  1.00  0.00     0.113 C 
ENDROOT
BRANCH   3   4
HETATM    4  C4  UNL     1      -0.113   4.133  -2.391  1.00  0.00     0.150 C 
BRANCH   4   5
HETATM    5  N1  UNL     1       0.588   3.061  -1.763  1.00  0.00    -0.224 N 
HETATM    6  C5  UNL     1       1.849   2.871  -1.941  1.00  0.00     0.692 C 
HETATM    7  N2  UNL     1       2.549   3.766  -2.793  1.00  0.00    -0.198 N 
HETATM    8  N4  UNL     1       2.555   1.815  -1.327  1.00  0.00    -0.131 N 
HETATM    9  C6  UNL     1       3.567   3.436  -3.484  1.00  0.00     0.143 C 
ATOM     10  H2  UNL     1       2.217   4.729  -2.855  1.00  0.00     0.183 HD
ATOM     11  H4  UNL     1       2.671   0.946  -1.849  1.00  0.00     0.205 HD
ATOM     12  H1  UNL     1       0.073   2.424  -1.155  1.00  0.00     0.177 HD
BRANCH   9  13
HETATM   13  C7  UNL     1       4.261   4.391  -4.352  1.00  0.00     0.094 A 
HETATM   14  C8  UNL     1       3.673   5.216  -5.305  1.00  0.00     0.043 A 
HETATM   15  C9  UNL     1       4.658   5.965  -5.909  1.00  0.00     0.065 A 
HETATM   16  C10 UNL     1       5.819   5.555  -5.286  1.00  0.00     0.215 A 
HETATM   17  O3  UNL     1       5.547   4.642  -4.390  1.00  0.00    -0.287 OA
BRANCH  16  18
HETATM   18  N3  UNL     1       7.120   6.072  -5.597  1.00  0.00    -0.090 N 
HETATM   19  O1  UNL     1       7.630   6.934  -4.854  1.00  0.00    -0.530 OA
HETATM   20  O2  UNL     1       7.818   5.653  -6.677  1.00  0.00    -0.530 OA
ENDBRANCH  16  18
ENDBRANCH   9  13
BRANCH   8  21
HETATM   21  N5  UNL     1       3.104   1.889  -0.045  1.00  0.00    -0.279 N 
ATOM     22  H5  UNL     1       2.710   1.301   0.690  1.00  0.00     0.188 HD
BRANCH  21  23
HETATM   23  C11 UNL     1       4.185   2.748   0.279  1.00  0.00     0.106 C 
HETATM   24  S1  UNL     1       5.650   2.481  -0.380  1.00  0.00    -0.063 SA
BRANCH  23  25
HETATM   25  C12 UNL     1       4.037   3.894   1.204  1.00  0.00     0.185 C 
HETATM   26 CL1  UNL     1       2.804   3.599   2.414  1.00  0.00    -0.123 Cl
ENDBRANCH  23  25
ENDBRANCH  21  23
ENDBRANCH   8  21
ENDBRANCH   4   5
ENDBRANCH   3   4
TORSDOF 7
ENDMDL
MODEL 4
REMARK VINA RESULT: -7.179362940      1.817      2.009
REMARK  7 active torsions:
REMARK  status: ('A' for Active; 'I' for Inactive)
REMARK    1  A    between atoms: C3_3  and  C4_4 
REMARK    2  A    between atoms: C4_4  and  N1_5 
REMARK       I    between atoms: C5_7  and  N2_8 
REMARK       I    between atoms: C5_7  and  N4_19 
REMARK    3  A    between atoms: C6_10  and  C7_11 
REMARK    4  A    between atoms: C10_14  and  N3_15 
REMARK    5  A    between atoms: N4_19  and  N5_21 
REMARK    6  A    between atoms: N5_21  and  C11_23 
REMARK    7  A    between atoms: C11_23  and  C12_25 
ROOT
HETATM    1  C1  UNL     1      -2.025   3.387  -5.199  1.00  0.00     0.012 C 
HETATM    2  C2  UNL     1      -1.872   2.668  -4.263  1.00  0.00    -0.116 C 
HETATM    3  C3  UNL     1      -1.661   1.789  -3.126  1.00  0.00     0.113 C 
ENDROOT
BRANCH   3   4
HETATM    4  C4  UNL     1      -0.915   2.536  -2.046  1.00  0.00     0.150 C 
BRANCH   4   5
HETATM    5  N1  UNL     1       0.306   1.905  -1.665  1.00  0.00    -0.224 N 
HETATM    6  C5  UNL     1       1.456   2.387  -1.989  1.00  0.00     0.692 C 
HETATM    7  N2  UNL     1       1.490   3.584  -2.752  1.00  0.00    -0.198 N 
HETATM    8  N4  UNL     1       2.671   1.774  -1.620  1.00  0.00    -0.131 N 
HETATM    9  C6  UNL     1       2.415   3.870  -3.581  1.00  0.00     0.143 C 
ATOM     10  H2  UNL     1       0.730   4.254  -2.630  1.00  0.00     0.183 HD
ATOM     11  H4  UNL     1       3.106   1.130  -2.281  1.00  0.00     0.205 HD
ATOM     12  H1  UNL     1       0.268   1.045  -1.118  1.00  0.00     0.177 HD
BRANCH   9  13
HETATM   13  C7  UNL     1       2.412   5.118  -4.349  1.00  0.00     0.094 A 
HETATM   14  C8  UNL     1       2.393   6.407  -3.827  1.00  0.00     0.043 A 
HETATM   15  C9  UNL     1       2.398   7.306  -4.870  1.00  0.00     0.065 A 
HETATM   16  C10 UNL     1       2.420   6.510  -5.997  1.00  0.00     0.215 A 
HETATM   17  O3  UNL     1       2.429   5.249  -5.653  1.00  0.00    -0.287 OA
BRANCH  16  18
HETATM   18  N3  UNL     1       2.434   7.020  -7.337  1.00  0.00    -0.090 N 
HETATM   19  O1  UNL     1       1.365   7.387  -7.865  1.00  0.00    -0.530 OA
HETATM   20  O2  UNL     1       3.578   7.120  -8.054  1.00  0.00    -0.530 OA
ENDBRANCH  16  18
ENDBRANCH   9  13
BRANCH   8  21
HETATM   21  N5  UNL     1       3.313   1.997  -0.400  1.00  0.00    -0.279 N 
ATOM     22  H5  UNL     1       2.767   1.931   0.459  1.00  0.00     0.188 HD
BRANCH  21  23
HETATM   23  C11 UNL     1       4.694   2.310  -0.304  1.00  0.00     0.106 C 
HETATM   24  S1  UNL     1       5.670   1.379   0.608  1.00  0.00    -0.063 SA
BRANCH  23  25
HETATM   25  C12 UNL     1       5.294   3.466  -1.010  1.00  0.00     0.185 C 
HETATM   26 CL1  UNL     1       4.370   4.933  -0.757  1.00  0.00    -0.123 Cl
ENDBRANCH  23  25
ENDBRANCH  21  23
ENDBRANCH   8  21
ENDBRANCH   4   5
ENDBRANCH   3   4
TORSDOF 7
ENDMDL
MODEL 5
REMARK VINA RESULT: -7.171773669      1.388      1.503
REMARK  7 active torsions:
REMARK  status: ('A' for Active; 'I' for Inactive)
REMARK    1  A    between atoms: C3_3  and  C4_4 
REMARK    2  A    between atoms: C4_4  and  N1_5 
REMARK       I    between atoms: C5_7  and  N2_8 
REMARK       I    between atoms: C5_7  and  N4_19 
REMARK    3  A    between atoms: C6_10  and  C7_11 
REMARK    4  A    between atoms: C10_14  and  N3_15 
REMARK    5  A    between atoms: N4_19  and  N5_21 
REMARK    6  A    between atoms: N5_21  and  C11_23 
REMARK    7  A    between atoms: C11_23  and  C12_25 
ROOT
HETATM    1  C1  UNL     1      -2.070   3.476  -5.158  1.00  0.00     0.012 C 
HETATM    2  C2  UNL     1      -1.843   2.789  -4.212  1.00  0.00    -0.116 C 
HETATM    3  C3  UNL     1      -1.542   1.949  -3.066  1.00  0.00     0.113 C 
ENDROOT
BRANCH   3   4
HETATM    4  C4  UNL     1      -0.654   2.707  -2.108  1.00  0.00     0.150 C 
BRANCH   4   5
HETATM    5  N1  UNL     1       0.506   1.975  -1.715  1.00  0.00    -0.224 N 
HETATM    6  C5  UNL     1       1.694   2.459  -1.834  1.00  0.00     0.692 C 
HETATM    7  N2  UNL     1       1.834   3.764  -2.377  1.00  0.00    -0.198 N 
HETATM    8  N4  UNL     1       2.849   1.747  -1.450  1.00  0.00    -0.131 N 
HETATM    9  C6  UNL     1       2.849   4.147  -3.046  1.00  0.00     0.143 C 
ATOM     10  H2  UNL     1       1.080   4.433  -2.222  1.00  0.00     0.183 HD
ATOM     11  H4  UNL     1       3.339   1.205  -2.163  1.00  0.00     0.205 HD
ATOM     12  H1  UNL     1       0.391   1.038  -1.328  1.00  0.00     0.177 HD
BRANCH   9  13
HETATM   13  C7  UNL     1       2.955   5.503  -3.589  1.00  0.00     0.094 A 
HETATM   14  C8  UNL     1       2.212   6.610  -3.193  1.00  0.00     0.043 A 
HETATM   15  C9  UNL     1       2.606   7.698  -3.940  1.00  0.00     0.065 A 
HETATM   16  C10 UNL     1       3.587   7.195  -4.771  1.00  0.00     0.215 A 
HETATM   17  O3  UNL     1       3.760   5.920  -4.536  1.00  0.00    -0.287 OA
BRANCH  16  18
HETATM   18  N3  UNL     1       4.296   7.980  -5.739  1.00  0.00    -0.090 N 
HETATM   19  O1  UNL     1       4.826   9.053  -5.388  1.00  0.00    -0.530 OA
HETATM   20  O2  UNL     1       4.411   7.591  -7.030  1.00  0.00    -0.530 OA
ENDBRANCH  16  18
ENDBRANCH   9  13
BRANCH   8  21
HETATM   21  N5  UNL     1       3.361   1.740  -0.151  1.00  0.00    -0.279 N 
ATOM     22  H5  UNL     1       2.769   1.395   0.605  1.00  0.00     0.188 HD
BRANCH  21  23
HETATM   23  C11 UNL     1       4.669   2.191   0.162  1.00  0.00     0.106 C 
HETATM   24  S1  UNL     1       4.998   3.786   0.134  1.00  0.00    -0.063 SA
BRANCH  23  25
HETATM   25  C12 UNL     1       5.764   1.261   0.518  1.00  0.00     0.185 C 
HETATM   26 CL1  UNL     1       7.332   1.901   0.072  1.00  0.00    -0.123 Cl
ENDBRANCH  23  25
ENDBRANCH  21  23
ENDBRANCH   8  21
ENDBRANCH   4   5
ENDBRANCH   3   4
TORSDOF 7
ENDMDL
