MODEL 1
REMARK VINA RESULT: -5.466926467      0.000      0.000
REMARK  2 active torsions:
REMARK  status: ('A' for Active; 'I' for Inactive)
REMARK    1  A    between atoms: C2_2  and  C4_4 
REMARK    2  A    between atoms: C5_5  and  C6_6 
ROOT
HETATM    1  C6  UNL     1      -3.916   4.355  15.039  1.00  0.00     0.147 C 
HETATM    2  C7  UNL     1      -4.982   5.393  14.871  1.00  0.00     0.063 C 
HETATM    3  C8  UNL     1      -4.947   6.126  13.574  1.00  0.00     0.237 C 
HETATM    4  N1  UNL     1      -4.541   5.321  12.450  1.00  0.00    -0.054 N 
ATOM      5  H11 UNL     1      -3.711   5.708  12.003  1.00  0.00     0.279 HD
ATOM      6  H12 UNL     1      -5.201   5.410  11.677  1.00  0.00     0.279 HD
HETATM    7  C9  UNL     1      -4.341   3.933  12.805  1.00  0.00     0.400 C 
HETATM    8  O1  UNL     1      -3.445   3.837  13.847  1.00  0.00    -0.355 OA
ENDROOT
BRANCH   1   9
HETATM    9  C5  UNL     1      -4.438   3.298  15.932  1.00  0.00     0.001 C 
HETATM   10  C4  UNL     1      -5.659   3.364  16.410  1.00  0.00    -0.024 C 
BRANCH  10  11
HETATM   11  C2  UNL     1      -6.260   2.348  17.312  1.00  0.00    -0.001 C 
HETATM   12  C1  UNL     1      -7.563   1.808  16.821  1.00  0.00     0.013 C 
HETATM   13  C3  UNL     1      -6.389   2.958  18.691  1.00  0.00     0.013 C 
ENDBRANCH  10  11
ENDBRANCH   1   9
TORSDOF 2
ENDMDL
MODEL 2
REMARK VINA RESULT: -5.456872077      0.486      1.163
REMARK  2 active torsions:
REMARK  status: ('A' for Active; 'I' for Inactive)
REMARK    1  A    between atoms: C2_2  and  C4_4 
REMARK    2  A    between atoms: C5_5  and  C6_6 
ROOT
HETATM    1  C6  UNL     1      -4.091   4.229  15.022  1.00  0.00     0.147 C 
HETATM    2  C7  UNL     1      -4.853   5.474  14.687  1.00  0.00     0.063 C 
HETATM    3  C8  UNL     1      -4.608   6.012  13.320  1.00  0.00     0.237 C 
HETATM    4  N1  UNL     1      -4.400   5.001  12.315  1.00  0.00    -0.054 N 
ATOM      5  H11 UNL     1      -3.490   5.111  11.868  1.00  0.00     0.279 HD
ATOM      6  H12 UNL     1      -5.000   5.160  11.505  1.00  0.00     0.279 HD
HETATM    7  C9  UNL     1      -4.567   3.661  12.831  1.00  0.00     0.400 C 
HETATM    8  O1  UNL     1      -3.746   3.469  13.920  1.00  0.00    -0.355 OA
ENDROOT
BRANCH   1   9
HETATM    9  C5  UNL     1      -4.882   3.453  16.002  1.00  0.00     0.001 C 
HETATM   10  C4  UNL     1      -6.113   3.801  16.299  1.00  0.00    -0.024 C 
BRANCH  10  11
HETATM   11  C2  UNL     1      -6.975   3.079  17.269  1.00  0.00    -0.001 C 
HETATM   12  C1  UNL     1      -6.398   3.007  18.644  1.00  0.00     0.013 C 
HETATM   13  C3  UNL     1      -7.266   1.702  16.710  1.00  0.00     0.013 C 
ENDBRANCH  10  11
ENDBRANCH   1   9
TORSDOF 2
ENDMDL
MODEL 3
REMARK VINA RESULT: -5.354854419      1.207      1.902
REMARK  2 active torsions:
REMARK  status: ('A' for Active; 'I' for Inactive)
REMARK    1  A    between atoms: C2_2  and  C4_4 
REMARK    2  A    between atoms: C5_5  and  C6_6 
ROOT
HETATM    1  C6  UNL     1      -4.954   3.968  14.053  1.00  0.00     0.147 C 
HETATM    2  C7  UNL     1      -3.782   4.462  14.844  1.00  0.00     0.063 C 
HETATM    3  C8  UNL     1      -2.884   5.402  14.116  1.00  0.00     0.237 C 
HETATM    4  N1  UNL     1      -3.567   6.288  13.207  1.00  0.00    -0.054 N 
ATOM      5  H11 UNL     1      -3.223   6.172  12.255  1.00  0.00     0.279 HD
ATOM      6  H12 UNL     1      -3.291   7.258  13.365  1.00  0.00     0.279 HD
HETATM    7  C9  UNL     1      -5.004   6.141  13.263  1.00  0.00     0.400 C 
HETATM    8  O1  UNL     1      -5.353   4.826  13.045  1.00  0.00    -0.355 OA
ENDROOT
BRANCH   1   9
HETATM    9  C5  UNL     1      -6.055   3.674  14.995  1.00  0.00     0.001 C 
HETATM   10  C4  UNL     1      -5.806   3.375  16.250  1.00  0.00    -0.024 C 
BRANCH  10  11
HETATM   11  C2  UNL     1      -6.850   3.067  17.259  1.00  0.00    -0.001 C 
HETATM   12  C1  UNL     1      -6.333   3.016  18.659  1.00  0.00     0.013 C 
HETATM   13  C3  UNL     1      -7.524   1.770  16.862  1.00  0.00     0.013 C 
ENDBRANCH  10  11
ENDBRANCH   1   9
TORSDOF 2
ENDMDL
MODEL 4
REMARK VINA RESULT: -5.296239371      1.313      2.122
REMARK  2 active torsions:
REMARK  status: ('A' for Active; 'I' for Inactive)
REMARK    1  A    between atoms: C2_2  and  C4_4 
REMARK    2  A    between atoms: C5_5  and  C6_6 
ROOT
HETATM    1  C6  UNL     1      -5.344   4.988  14.317  1.00  0.00     0.147 C 
HETATM    2  C7  UNL     1      -5.140   3.715  13.552  1.00  0.00     0.063 C 
HETATM    3  C8  UNL     1      -3.900   3.670  12.727  1.00  0.00     0.237 C 
HETATM    4  N1  UNL     1      -2.773   4.347  13.316  1.00  0.00    -0.054 N 
ATOM      5  H11 UNL     1      -2.431   5.089  12.706  1.00  0.00     0.279 HD
ATOM      6  H12 UNL     1      -1.947   3.747  13.323  1.00  0.00     0.279 HD
HETATM    7  C9  UNL     1      -3.058   4.853  14.640  1.00  0.00     0.400 C 
HETATM    8  O1  UNL     1      -4.173   5.662  14.607  1.00  0.00    -0.355 OA
ENDROOT
BRANCH   1   9
HETATM    9  C5  UNL     1      -6.117   4.673  15.538  1.00  0.00     0.001 C 
HETATM   10  C4  UNL     1      -6.328   3.428  15.898  1.00  0.00    -0.024 C 
BRANCH  10  11
HETATM   11  C2  UNL     1      -7.092   3.025  17.107  1.00  0.00    -0.001 C 
HETATM   12  C1  UNL     1      -6.322   3.171  18.377  1.00  0.00     0.013 C 
HETATM   13  C3  UNL     1      -7.581   1.607  16.906  1.00  0.00     0.013 C 
ENDBRANCH  10  11
ENDBRANCH   1   9
TORSDOF 2
ENDMDL
MODEL 5
REMARK VINA RESULT: -5.267289702      1.188      1.565
REMARK  2 active torsions:
REMARK  status: ('A' for Active; 'I' for Inactive)
REMARK    1  A    between atoms: C2_2  and  C4_4 
REMARK    2  A    between atoms: C5_5  and  C6_6 
ROOT
HETATM    1  C6  UNL     1      -4.958   3.844  14.249  1.00  0.00     0.147 C 
HETATM    2  C7  UNL     1      -3.754   4.404  14.941  1.00  0.00     0.063 C 
HETATM    3  C8  UNL     1      -3.110   5.555  14.249  1.00  0.00     0.237 C 
HETATM    4  N1  UNL     1      -4.034   6.437  13.582  1.00  0.00    -0.054 N 
ATOM      5  H11 UNL     1      -3.828   6.498  12.585  1.00  0.00     0.279 HD
ATOM      6  H12 UNL     1      -3.867   7.409  13.844  1.00  0.00     0.279 HD
HETATM    7  C9  UNL     1      -5.414   6.068  13.806  1.00  0.00     0.400 C 
HETATM    8  O1  UNL     1      -5.616   4.754  13.443  1.00  0.00    -0.355 OA
ENDROOT
BRANCH   1   9
HETATM    9  C5  UNL     1      -5.854   3.267  15.275  1.00  0.00     0.001 C 
HETATM   10  C4  UNL     1      -5.366   2.754  16.382  1.00  0.00    -0.024 C 
BRANCH  10  11
HETATM   11  C2  UNL     1      -6.194   2.156  17.461  1.00  0.00    -0.001 C 
HETATM   12  C1  UNL     1      -7.491   1.596  16.980  1.00  0.00     0.013 C 
HETATM   13  C3  UNL     1      -6.398   3.204  18.534  1.00  0.00     0.013 C 
ENDBRANCH  10  11
ENDBRANCH   1   9
TORSDOF 2
ENDMDL
