MODEL 1
REMARK VINA RESULT: -5.694515214      0.000      0.000
REMARK  3 active torsions:
REMARK  status: ('A' for Active; 'I' for Inactive)
REMARK    1  A    between atoms: C2_2  and  C4_4 
REMARK    2  A    between atoms: C4_4  and  O1_5 
REMARK    3  A    between atoms: C4_4  and  C5_7 
ROOT
HETATM    1  C4  UNL     1      -5.274   3.130  16.425  1.00  0.00     0.134 C 
ENDROOT
BRANCH   1   2
HETATM    2  C2  UNL     1      -6.045   3.723  15.282  1.00  0.00     0.007 C 
HETATM    3  C1  UNL     1      -5.352   3.599  13.953  1.00  0.00     0.012 C 
HETATM    4  C3  UNL     1      -6.157   5.226  15.564  1.00  0.00     0.012 C 
ENDBRANCH   1   2
BRANCH   1   5
HETATM    5  O1  UNL     1      -4.189   2.404  15.941  1.00  0.00    -0.394 OA
ATOM      6  H1  UNL     1      -3.864   1.818  16.615  1.00  0.00     0.210 HD
ENDBRANCH   1   5
BRANCH   1   7
HETATM    7  C5  UNL     1      -6.091   2.407  17.431  1.00  0.00     0.025 C 
HETATM    8  C6  UNL     1      -6.409   3.077  18.713  1.00  0.00     0.022 C 
HETATM    9  C7  UNL     1      -7.311   1.775  16.748  1.00  0.00     0.181 C 
HETATM   10  O2  UNL     1      -6.474   0.721  16.377  1.00  0.00    -0.389 OA
HETATM   11  C8  UNL     1      -5.787   0.940  17.590  1.00  0.00     0.181 C 
ENDBRANCH   1   7
TORSDOF 3
ENDMDL
MODEL 2
REMARK VINA RESULT: -5.459020658      1.176      3.596
REMARK  3 active torsions:
REMARK  status: ('A' for Active; 'I' for Inactive)
REMARK    1  A    between atoms: C2_2  and  C4_4 
REMARK    2  A    between atoms: C4_4  and  O1_5 
REMARK    3  A    between atoms: C4_4  and  C5_7 
ROOT
HETATM    1  C4  UNL     1      -5.659   2.847  16.061  1.00  0.00     0.134 C 
ENDROOT
BRANCH   1   2
HETATM    2  C2  UNL     1      -6.780   2.973  17.051  1.00  0.00     0.007 C 
HETATM    3  C1  UNL     1      -6.326   2.977  18.484  1.00  0.00     0.012 C 
HETATM    4  C3  UNL     1      -7.653   1.724  16.885  1.00  0.00     0.012 C 
ENDBRANCH   1   2
BRANCH   1   5
HETATM    5  O1  UNL     1      -4.536   2.307  16.680  1.00  0.00    -0.394 OA
ATOM      6  H1  UNL     1      -3.773   2.424  16.126  1.00  0.00     0.210 HD
ENDBRANCH   1   5
BRANCH   1   7
HETATM    7  C5  UNL     1      -5.387   4.064  15.257  1.00  0.00     0.025 C 
HETATM    8  C6  UNL     1      -6.166   5.294  15.530  1.00  0.00     0.022 C 
HETATM    9  C7  UNL     1      -3.873   4.299  15.173  1.00  0.00     0.181 C 
HETATM   10  O2  UNL     1      -3.853   3.366  14.135  1.00  0.00    -0.389 OA
HETATM   11  C8  UNL     1      -5.137   3.836  13.788  1.00  0.00     0.181 C 
ENDBRANCH   1   7
TORSDOF 3
ENDMDL
MODEL 3
REMARK VINA RESULT: -5.258447683      1.481      3.166
REMARK  3 active torsions:
REMARK  status: ('A' for Active; 'I' for Inactive)
REMARK    1  A    between atoms: C2_2  and  C4_4 
REMARK    2  A    between atoms: C4_4  and  O1_5 
REMARK    3  A    between atoms: C4_4  and  C5_7 
ROOT
HETATM    1  C4  UNL     1      -6.268   2.295  16.115  1.00  0.00     0.134 C 
ENDROOT
BRANCH   1   2
HETATM    2  C2  UNL     1      -6.106   3.251  17.260  1.00  0.00     0.007 C 
HETATM    3  C1  UNL     1      -6.540   2.690  18.586  1.00  0.00     0.012 C 
HETATM    4  C3  UNL     1      -7.038   4.436  16.975  1.00  0.00     0.012 C 
ENDBRANCH   1   2
BRANCH   1   5
HETATM    5  O1  UNL     1      -6.721   1.065  16.582  1.00  0.00    -0.394 OA
ATOM      6  H1  UNL     1      -5.999   0.450  16.632  1.00  0.00     0.210 HD
ENDBRANCH   1   5
BRANCH   1   7
HETATM    7  C5  UNL     1      -5.106   2.207  15.196  1.00  0.00     0.025 C 
HETATM    8  C6  UNL     1      -5.131   2.977  13.931  1.00  0.00     0.022 C 
HETATM    9  C7  UNL     1      -3.805   2.373  15.992  1.00  0.00     0.181 C 
HETATM   10  O2  UNL     1      -3.907   1.018  16.314  1.00  0.00    -0.389 OA
HETATM   11  C8  UNL     1      -4.493   0.838  15.044  1.00  0.00     0.181 C 
ENDBRANCH   1   7
TORSDOF 3
ENDMDL
MODEL 4
REMARK VINA RESULT: -5.254035597      1.374      1.727
REMARK  3 active torsions:
REMARK  status: ('A' for Active; 'I' for Inactive)
REMARK    1  A    between atoms: C2_2  and  C4_4 
REMARK    2  A    between atoms: C4_4  and  O1_5 
REMARK    3  A    between atoms: C4_4  and  C5_7 
ROOT
HETATM    1  C4  UNL     1      -6.169   3.303  15.898  1.00  0.00     0.134 C 
ENDROOT
BRANCH   1   2
HETATM    2  C2  UNL     1      -4.755   3.266  15.397  1.00  0.00     0.007 C 
HETATM    3  C1  UNL     1      -4.153   4.625  15.178  1.00  0.00     0.012 C 
HETATM    4  C3  UNL     1      -4.797   2.592  14.019  1.00  0.00     0.012 C 
ENDBRANCH   1   2
BRANCH   1   5
HETATM    5  O1  UNL     1      -6.640   4.613  15.898  1.00  0.00    -0.394 OA
ATOM      6  H1  UNL     1      -6.236   5.103  15.191  1.00  0.00     0.210 HD
ENDBRANCH   1   5
BRANCH   1   7
HETATM    7  C5  UNL     1      -6.410   2.568  17.164  1.00  0.00     0.025 C 
HETATM    8  C6  UNL     1      -6.409   3.319  18.441  1.00  0.00     0.022 C 
HETATM    9  C7  UNL     1      -7.617   1.636  16.999  1.00  0.00     0.181 C 
HETATM   10  O2  UNL     1      -6.746   0.723  16.402  1.00  0.00    -0.389 OA
HETATM   11  C8  UNL     1      -5.752   1.217  17.272  1.00  0.00     0.181 C 
ENDBRANCH   1   7
TORSDOF 3
ENDMDL
MODEL 5
REMARK VINA RESULT: -5.144780161      1.272      1.566
REMARK  3 active torsions:
REMARK  status: ('A' for Active; 'I' for Inactive)
REMARK    1  A    between atoms: C2_2  and  C4_4 
REMARK    2  A    between atoms: C4_4  and  O1_5 
REMARK    3  A    between atoms: C4_4  and  C5_7 
ROOT
HETATM    1  C4  UNL     1      -5.830   3.162  15.816  1.00  0.00     0.134 C 
ENDROOT
BRANCH   1   2
HETATM    2  C2  UNL     1      -5.149   4.494  15.931  1.00  0.00     0.007 C 
HETATM    3  C1  UNL     1      -5.944   5.634  15.357  1.00  0.00     0.012 C 
HETATM    4  C3  UNL     1      -3.868   4.405  15.092  1.00  0.00     0.012 C 
ENDBRANCH   1   2
BRANCH   1   5
HETATM    5  O1  UNL     1      -6.796   3.205  14.815  1.00  0.00    -0.394 OA
ATOM      6  H1  UNL     1      -7.612   3.541  15.165  1.00  0.00     0.210 HD
ENDBRANCH   1   5
BRANCH   1   7
HETATM    7  C5  UNL     1      -6.305   2.583  17.097  1.00  0.00     0.025 C 
HETATM    8  C6  UNL     1      -6.415   3.462  18.285  1.00  0.00     0.022 C 
HETATM    9  C7  UNL     1      -7.553   1.728  16.846  1.00  0.00     0.181 C 
HETATM   10  O2  UNL     1      -6.691   0.697  16.470  1.00  0.00    -0.389 OA
HETATM   11  C8  UNL     1      -5.787   1.207  17.426  1.00  0.00     0.181 C 
ENDBRANCH   1   7
TORSDOF 3
ENDMDL
