MODEL 1
REMARK VINA RESULT: -5.486009000      0.000      0.000
REMARK  3 active torsions:
REMARK  status: ('A' for Active; 'I' for Inactive)
REMARK    1  A    between atoms: C2_2  and  C3_3 
REMARK    2  A    between atoms: C3_3  and  C5_5 
REMARK    3  A    between atoms: C8_9  and  O2_10 
ROOT
HETATM    1  C5  UNL     1      -4.912   2.798  16.261  1.00  0.00     0.050 C 
HETATM    2  C6  UNL     1      -4.390   3.651  15.128  1.00  0.00     0.036 C 
HETATM    3  C7  UNL     1      -4.510   2.705  13.965  1.00  0.00     0.171 C 
HETATM    4  O1  UNL     1      -4.801   1.445  14.452  1.00  0.00    -0.361 OA
HETATM    5  C8  UNL     1      -4.498   1.450  15.805  1.00  0.00     0.261 C 
ENDROOT
BRANCH   1   6
HETATM    6  C3  UNL     1      -6.367   2.998  16.475  1.00  0.00     0.012 C 
HETATM    7  C4  UNL     1      -6.690   4.484  16.297  1.00  0.00     0.015 C 
BRANCH   6   8
HETATM    8  C2  UNL     1      -6.917   2.570  17.745  1.00  0.00    -0.032 C 
HETATM    9  C1  UNL     1      -6.341   2.907  18.885  1.00  0.00     0.007 C 
ENDBRANCH   6   8
ENDBRANCH   1   6
BRANCH   5  10
HETATM   10  O2  UNL     1      -4.995   0.397  16.498  1.00  0.00    -0.371 OA
ATOM     11  H2  UNL     1      -4.666  -0.462  16.260  1.00  0.00     0.212 HD
ENDBRANCH   5  10
TORSDOF 3
ENDMDL
MODEL 2
REMARK VINA RESULT: -5.467507024      1.270      3.180
REMARK  3 active torsions:
REMARK  status: ('A' for Active; 'I' for Inactive)
REMARK    1  A    between atoms: C2_2  and  C3_3 
REMARK    2  A    between atoms: C3_3  and  C5_5 
REMARK    3  A    between atoms: C8_9  and  O2_10 
ROOT
HETATM    1  C5  UNL     1      -5.684   2.553  15.720  1.00  0.00     0.050 C 
HETATM    2  C6  UNL     1      -7.047   2.583  16.371  1.00  0.00     0.036 C 
HETATM    3  C7  UNL     1      -6.724   2.098  17.757  1.00  0.00     0.171 C 
HETATM    4  O1  UNL     1      -5.426   1.624  17.766  1.00  0.00    -0.361 OA
HETATM    5  C8  UNL     1      -5.056   1.423  16.445  1.00  0.00     0.261 C 
ENDROOT
BRANCH   1   6
HETATM    6  C3  UNL     1      -4.995   3.863  15.827  1.00  0.00     0.012 C 
HETATM    7  C4  UNL     1      -6.042   4.977  15.753  1.00  0.00     0.015 C 
BRANCH   6   8
HETATM    8  C2  UNL     1      -3.963   4.154  14.852  1.00  0.00    -0.032 C 
HETATM    9  C1  UNL     1      -3.752   5.388  14.432  1.00  0.00     0.007 C 
ENDBRANCH   6   8
ENDBRANCH   1   6
BRANCH   5  10
HETATM   10  O2  UNL     1      -3.727   1.244  16.252  1.00  0.00    -0.371 OA
ATOM     11  H2  UNL     1      -3.466   0.450  15.800  1.00  0.00     0.212 HD
ENDBRANCH   5  10
TORSDOF 3
ENDMDL
MODEL 3
REMARK VINA RESULT: -5.350512490      1.397      2.950
REMARK  3 active torsions:
REMARK  status: ('A' for Active; 'I' for Inactive)
REMARK    1  A    between atoms: C2_2  and  C3_3 
REMARK    2  A    between atoms: C3_3  and  C5_5 
REMARK    3  A    between atoms: C8_9  and  O2_10 
ROOT
HETATM    1  C5  UNL     1      -6.361   2.694  15.796  1.00  0.00     0.050 C 
HETATM    2  C6  UNL     1      -6.995   1.834  16.865  1.00  0.00     0.036 C 
HETATM    3  C7  UNL     1      -5.781   1.240  17.525  1.00  0.00     0.171 C 
HETATM    4  O1  UNL     1      -4.673   1.530  16.751  1.00  0.00    -0.361 OA
HETATM    5  C8  UNL     1      -5.137   1.911  15.502  1.00  0.00     0.261 C 
ENDROOT
BRANCH   1   6
HETATM    6  C3  UNL     1      -6.151   4.087  16.263  1.00  0.00     0.012 C 
HETATM    7  C4  UNL     1      -7.157   4.389  17.376  1.00  0.00     0.015 C 
BRANCH   6   8
HETATM    8  C2  UNL     1      -6.246   5.141  15.274  1.00  0.00    -0.032 C 
HETATM    9  C1  UNL     1      -5.264   6.010  15.109  1.00  0.00     0.007 C 
ENDBRANCH   6   8
ENDBRANCH   1   6
BRANCH   5  10
HETATM   10  O2  UNL     1      -4.210   2.509  14.715  1.00  0.00    -0.371 OA
ATOM     11  H2  UNL     1      -3.600   1.936  14.266  1.00  0.00     0.212 HD
ENDBRANCH   5  10
TORSDOF 3
ENDMDL
MODEL 4
REMARK VINA RESULT: -5.147563690      1.231      3.376
REMARK  3 active torsions:
REMARK  status: ('A' for Active; 'I' for Inactive)
REMARK    1  A    between atoms: C2_2  and  C3_3 
REMARK    2  A    between atoms: C3_3  and  C5_5 
REMARK    3  A    between atoms: C8_9  and  O2_10 
ROOT
HETATM    1  C5  UNL     1      -6.324   2.361  16.181  1.00  0.00     0.050 C 
HETATM    2  C6  UNL     1      -6.870   3.393  17.142  1.00  0.00     0.036 C 
HETATM    3  C7  UNL     1      -6.244   2.952  18.437  1.00  0.00     0.171 C 
HETATM    4  O1  UNL     1      -5.665   1.712  18.245  1.00  0.00    -0.361 OA
HETATM    5  C8  UNL     1      -6.199   1.188  17.078  1.00  0.00     0.261 C 
ENDROOT
BRANCH   1   6
HETATM    6  C3  UNL     1      -5.073   2.824  15.530  1.00  0.00     0.012 C 
HETATM    7  C4  UNL     1      -5.099   4.352  15.446  1.00  0.00     0.015 C 
BRANCH   6   8
HETATM    8  C2  UNL     1      -4.782   2.307  14.208  1.00  0.00    -0.032 C 
HETATM    9  C1  UNL     1      -4.800   3.097  13.150  1.00  0.00     0.007 C 
ENDBRANCH   6   8
ENDBRANCH   1   6
BRANCH   5  10
HETATM   10  O2  UNL     1      -5.532   0.117  16.585  1.00  0.00    -0.371 OA
ATOM     11  H2  UNL     1      -4.756   0.301  16.069  1.00  0.00     0.212 HD
ENDBRANCH   5  10
TORSDOF 3
ENDMDL
MODEL 5
REMARK VINA RESULT: -5.020326934      1.428      2.630
REMARK  3 active torsions:
REMARK  status: ('A' for Active; 'I' for Inactive)
REMARK    1  A    between atoms: C2_2  and  C3_3 
REMARK    2  A    between atoms: C3_3  and  C5_5 
REMARK    3  A    between atoms: C8_9  and  O2_10 
ROOT
HETATM    1  C5  UNL     1      -5.413   2.849  16.684  1.00  0.00     0.050 C 
HETATM    2  C6  UNL     1      -4.150   2.146  16.241  1.00  0.00     0.036 C 
HETATM    3  C7  UNL     1      -4.698   0.833  15.754  1.00  0.00     0.171 C 
HETATM    4  O1  UNL     1      -6.025   0.743  16.129  1.00  0.00    -0.361 OA
HETATM    5  C8  UNL     1      -6.235   1.694  17.116  1.00  0.00     0.261 C 
ENDROOT
BRANCH   1   6
HETATM    6  C3  UNL     1      -5.983   3.690  15.602  1.00  0.00     0.012 C 
HETATM    7  C4  UNL     1      -4.901   3.931  14.546  1.00  0.00     0.015 C 
BRANCH   6   8
HETATM    8  C2  UNL     1      -6.535   4.975  15.979  1.00  0.00    -0.032 C 
HETATM    9  C1  UNL     1      -6.097   6.092  15.426  1.00  0.00     0.007 C 
ENDBRANCH   6   8
ENDBRANCH   1   6
BRANCH   5  10
HETATM   10  O2  UNL     1      -7.538   1.946  17.387  1.00  0.00    -0.371 OA
ATOM     11  H2  UNL     1      -8.176   1.371  16.980  1.00  0.00     0.212 HD
ENDBRANCH   5  10
TORSDOF 3
ENDMDL
