MODEL 1
REMARK VINA RESULT: -5.150260628      0.000      0.000
REMARK  2 active torsions:
REMARK  status: ('A' for Active; 'I' for Inactive)
REMARK    1  A    between atoms: C3_3  and  C4_4 
REMARK    2  A    between atoms: C5_5  and  C6_6 
ROOT
HETATM    1  C6  UNL     1      -4.262   2.818  13.001  1.00  0.00     0.170 C 
HETATM    2  C7  UNL     1      -5.411   2.969  12.049  1.00  0.00     0.268 C 
HETATM    3  N1  UNL     1      -4.939   2.590  10.718  1.00  0.00    -0.070 N 
ATOM      4  H11 UNL     1      -4.087   3.070  10.425  1.00  0.00     0.277 HD
ATOM      5  H12 UNL     1      -5.525   2.928   9.955  1.00  0.00     0.277 HD
HETATM    6  C8  UNL     1      -4.814   1.131  10.778  1.00  0.00     0.258 C 
HETATM    7  C9  UNL     1      -4.400   0.719  12.185  1.00  0.00     0.196 C 
HETATM    8  O1  UNL     1      -3.590   1.661  12.770  1.00  0.00    -0.379 OA
ENDROOT
BRANCH   1   9
HETATM    9  C5  UNL     1      -4.833   2.908  14.373  1.00  0.00     0.006 C 
HETATM   10  C4  UNL     1      -5.860   3.662  14.693  1.00  0.00    -0.002 C 
BRANCH  10  11
HETATM   11  C3  UNL     1      -6.370   3.708  16.038  1.00  0.00    -0.005 C 
HETATM   12  C2  UNL     1      -5.903   2.970  17.028  1.00  0.00    -0.031 C 
HETATM   13  C1  UNL     1      -6.452   3.044  18.398  1.00  0.00     0.036 C 
ENDBRANCH  10  11
ENDBRANCH   1   9
TORSDOF 2
ENDMDL
MODEL 2
REMARK VINA RESULT: -5.020950713      3.523      4.920
REMARK  2 active torsions:
REMARK  status: ('A' for Active; 'I' for Inactive)
REMARK    1  A    between atoms: C3_3  and  C4_4 
REMARK    2  A    between atoms: C5_5  and  C6_6 
ROOT
HETATM    1  C6  UNL     1      -6.352   3.423  15.558  1.00  0.00     0.170 C 
HETATM    2  C7  UNL     1      -6.954   3.171  16.909  1.00  0.00     0.268 C 
HETATM    3  N1  UNL     1      -7.285   1.749  16.989  1.00  0.00    -0.070 N 
ATOM      4  H11 UNL     1      -7.847   1.406  16.209  1.00  0.00     0.277 HD
ATOM      5  H12 UNL     1      -7.956   1.517  17.722  1.00  0.00     0.277 HD
HETATM    6  C8  UNL     1      -5.988   1.081  17.132  1.00  0.00     0.258 C 
HETATM    7  C9  UNL     1      -4.933   1.862  16.357  1.00  0.00     0.196 C 
HETATM    8  O1  UNL     1      -5.461   2.450  15.235  1.00  0.00    -0.379 OA
ENDROOT
BRANCH   1   9
HETATM    9  C5  UNL     1      -5.750   4.784  15.610  1.00  0.00     0.006 C 
HETATM   10  C4  UNL     1      -4.762   5.180  14.840  1.00  0.00    -0.002 C 
BRANCH  10  11
HETATM   11  C3  UNL     1      -4.220   6.510  14.935  1.00  0.00    -0.005 C 
HETATM   12  C2  UNL     1      -3.177   6.932  14.244  1.00  0.00    -0.031 C 
HETATM   13  C1  UNL     1      -2.649   8.307  14.368  1.00  0.00     0.036 C 
ENDBRANCH  10  11
ENDBRANCH   1   9
TORSDOF 2
ENDMDL
MODEL 3
REMARK VINA RESULT: -4.817994782      2.722      3.040
REMARK  2 active torsions:
REMARK  status: ('A' for Active; 'I' for Inactive)
REMARK    1  A    between atoms: C3_3  and  C4_4 
REMARK    2  A    between atoms: C5_5  and  C6_6 
ROOT
HETATM    1  C6  UNL     1      -3.327   4.982  14.420  1.00  0.00     0.170 C 
HETATM    2  C7  UNL     1      -4.042   6.064  13.666  1.00  0.00     0.268 C 
HETATM    3  N1  UNL     1      -3.097   6.634  12.705  1.00  0.00    -0.070 N 
ATOM      4  H11 UNL     1      -2.209   6.926  13.115  1.00  0.00     0.277 HD
ATOM      5  H12 UNL     1      -3.365   7.552  12.352  1.00  0.00     0.277 HD
HETATM    6  C8  UNL     1      -2.969   5.606  11.668  1.00  0.00     0.258 C 
HETATM    7  C9  UNL     1      -3.099   4.229  12.306  1.00  0.00     0.196 C 
HETATM    8  O1  UNL     1      -2.590   4.211  13.581  1.00  0.00    -0.379 OA
ENDROOT
BRANCH   1   9
HETATM    9  C5  UNL     1      -4.371   4.221  15.161  1.00  0.00     0.006 C 
HETATM   10  C4  UNL     1      -5.555   4.703  15.463  1.00  0.00    -0.002 C 
BRANCH  10  11
HETATM   11  C3  UNL     1      -6.526   3.919  16.181  1.00  0.00    -0.005 C 
HETATM   12  C2  UNL     1      -6.483   2.603  16.278  1.00  0.00    -0.031 C 
HETATM   13  C1  UNL     1      -7.498   1.831  17.024  1.00  0.00     0.036 C 
ENDBRANCH  10  11
ENDBRANCH   1   9
TORSDOF 2
ENDMDL
MODEL 4
REMARK VINA RESULT: -4.800112675      1.514      1.726
REMARK  2 active torsions:
REMARK  status: ('A' for Active; 'I' for Inactive)
REMARK    1  A    between atoms: C3_3  and  C4_4 
REMARK    2  A    between atoms: C5_5  and  C6_6 
ROOT
HETATM    1  C6  UNL     1      -3.646   4.291  13.530  1.00  0.00     0.170 C 
HETATM    2  C7  UNL     1      -4.550   5.142  12.688  1.00  0.00     0.268 C 
HETATM    3  N1  UNL     1      -4.031   5.124  11.321  1.00  0.00    -0.070 N 
ATOM      4  H11 UNL     1      -3.041   5.364  11.247  1.00  0.00     0.277 HD
ATOM      5  H12 UNL     1      -4.375   5.884  10.735  1.00  0.00     0.277 HD
HETATM    6  C8  UNL     1      -4.362   3.786  10.823  1.00  0.00     0.258 C 
HETATM    7  C9  UNL     1      -4.293   2.790  11.974  1.00  0.00     0.196 C 
HETATM    8  O1  UNL     1      -3.328   3.137  12.888  1.00  0.00    -0.379 OA
ENDROOT
BRANCH   1   9
HETATM    9  C5  UNL     1      -4.352   4.073  14.823  1.00  0.00     0.006 C 
HETATM   10  C4  UNL     1      -5.634   4.296  15.007  1.00  0.00    -0.002 C 
BRANCH  10  11
HETATM   11  C3  UNL     1      -6.262   4.066  16.282  1.00  0.00    -0.005 C 
HETATM   12  C2  UNL     1      -5.859   3.155  17.148  1.00  0.00    -0.031 C 
HETATM   13  C1  UNL     1      -6.530   2.948  18.448  1.00  0.00     0.036 C 
ENDBRANCH  10  11
ENDBRANCH   1   9
TORSDOF 2
ENDMDL
MODEL 5
REMARK VINA RESULT: -4.791145954      3.558      5.094
REMARK  2 active torsions:
REMARK  status: ('A' for Active; 'I' for Inactive)
REMARK    1  A    between atoms: C3_3  and  C4_4 
REMARK    2  A    between atoms: C5_5  and  C6_6 
ROOT
HETATM    1  C6  UNL     1      -4.802   3.006  16.415  1.00  0.00     0.170 C 
HETATM    2  C7  UNL     1      -4.987   1.617  15.879  1.00  0.00     0.268 C 
HETATM    3  N1  UNL     1      -5.578   0.806  16.943  1.00  0.00    -0.070 N 
ATOM      4  H11 UNL     1      -5.075   0.850  17.830  1.00  0.00     0.277 HD
ATOM      5  H12 UNL     1      -5.477  -0.199  16.806  1.00  0.00     0.277 HD
HETATM    6  C8  UNL     1      -6.968   1.264  17.020  1.00  0.00     0.258 C 
HETATM    7  C9  UNL     1      -7.026   2.751  16.691  1.00  0.00     0.196 C 
HETATM    8  O1  UNL     1      -5.896   3.407  17.111  1.00  0.00    -0.379 OA
ENDROOT
BRANCH   1   9
HETATM    9  C5  UNL     1      -4.494   3.874  15.244  1.00  0.00     0.006 C 
HETATM   10  C4  UNL     1      -4.721   5.168  15.208  1.00  0.00    -0.002 C 
BRANCH  10  11
HETATM   11  C3  UNL     1      -4.402   5.956  14.047  1.00  0.00    -0.005 C 
HETATM   12  C2  UNL     1      -3.501   6.921  14.037  1.00  0.00    -0.031 C 
HETATM   13  C1  UNL     1      -3.200   7.710  12.824  1.00  0.00     0.036 C 
ENDBRANCH  10  11
ENDBRANCH   1   9
TORSDOF 2
ENDMDL
