MODEL 1
REMARK VINA RESULT: -7.900702571      0.000      0.000
REMARK  5 active torsions:
REMARK  status: ('A' for Active; 'I' for Inactive)
REMARK    1  A    between atoms: C3_5  and  C4_6 
REMARK    2  A    between atoms: C4_6  and  C5_7 
REMARK    3  A    between atoms: C18_21  and  C19_22 
REMARK    4  A    between atoms: C19_22  and  O3_24 
REMARK    5  A    between atoms: O3_24  and  C20_25 
ROOT
HETATM    1  C1  UNL     1      -3.988   0.544  12.519  1.00  0.00     0.044 C 
HETATM    2  C2  UNL     1      -4.293   1.759  12.956  1.00  0.00     0.040 A 
HETATM    3  N1  UNL     1      -4.509   2.848  12.138  1.00  0.00    -0.356 N 
ATOM      4  H1  UNL     1      -4.454   2.819  11.119  1.00  0.00     0.166 HD
HETATM    5  C3  UNL     1      -4.798   3.941  12.838  1.00  0.00     0.040 A 
HETATM    6  C16 UNL     1      -4.757   3.495  14.178  1.00  0.00    -0.017 A 
HETATM    7  C17 UNL     1      -5.010   4.324  15.373  1.00  0.00     0.052 C 
HETATM    8  C18 UNL     1      -4.450   2.167  14.246  1.00  0.00     0.073 A 
ENDROOT
BRANCH   5   9
HETATM    9  C4  UNL     1      -5.074   5.184  12.541  1.00  0.00     0.042 C 
BRANCH   9  10
HETATM   10  C5  UNL     1      -4.174   6.220  12.104  1.00  0.00    -0.018 A 
HETATM   11  C6  UNL     1      -2.857   6.232  12.160  1.00  0.00     0.068 A 
HETATM   12  C7  UNL     1      -2.374   7.480  11.607  1.00  0.00     0.183 A 
HETATM   13  O1  UNL     1      -1.152   7.821  11.507  1.00  0.00    -0.288 OA
HETATM   14  C8  UNL     1      -3.512   8.259  11.194  1.00  0.00     0.026 A 
HETATM   15  C9  UNL     1      -3.622   9.518  10.608  1.00  0.00     0.023 A 
HETATM   16  C15 UNL     1      -4.629   7.509  11.487  1.00  0.00    -0.006 A 
HETATM   17  C10 UNL     1      -4.837  10.067  10.296  1.00  0.00    -0.060 A 
HETATM   18  C11 UNL     1      -4.993  11.402   9.672  1.00  0.00     0.048 C 
HETATM   19  C12 UNL     1      -5.939   9.315  10.592  1.00  0.00     0.014 A 
HETATM   20  C13 UNL     1      -5.839   8.045  11.183  1.00  0.00    -0.049 A 
HETATM   21  C14 UNL     1      -7.110   7.343  11.444  1.00  0.00     0.049 C 
ENDBRANCH   9  10
ENDBRANCH   5   9
BRANCH   8  22
HETATM   22  C19 UNL     1      -4.313   1.335  15.436  1.00  0.00     0.296 C 
HETATM   23  O2  UNL     1      -3.226   1.384  16.109  1.00  0.00    -0.259 OA
BRANCH  22  24
HETATM   24  O3  UNL     1      -5.287   0.486  15.892  1.00  0.00    -0.318 OA
BRANCH  24  25
HETATM   25  C20 UNL     1      -5.903   0.711  17.147  1.00  0.00     0.174 C 
HETATM   26  C21 UNL     1      -7.288   1.313  16.902  1.00  0.00     0.034 C 
ENDBRANCH  24  25
ENDBRANCH  22  24
ENDBRANCH   8  22
TORSDOF 5
ENDMDL
MODEL 2
REMARK VINA RESULT: -7.715470723      2.380      2.892
REMARK  5 active torsions:
REMARK  status: ('A' for Active; 'I' for Inactive)
REMARK    1  A    between atoms: C3_5  and  C4_6 
REMARK    2  A    between atoms: C4_6  and  C5_7 
REMARK    3  A    between atoms: C18_21  and  C19_22 
REMARK    4  A    between atoms: C19_22  and  O3_24 
REMARK    5  A    between atoms: O3_24  and  C20_25 
ROOT
HETATM    1  C1  UNL     1      -4.042   0.006  12.536  1.00  0.00     0.044 C 
HETATM    2  C2  UNL     1      -3.915   1.287  12.860  1.00  0.00     0.040 A 
HETATM    3  N1  UNL     1      -3.643   2.294  11.958  1.00  0.00    -0.356 N 
ATOM      4  H1  UNL     1      -3.515   2.146  10.956  1.00  0.00     0.166 HD
HETATM    5  C3  UNL     1      -3.569   3.481  12.552  1.00  0.00     0.040 A 
HETATM    6  C16 UNL     1      -3.811   3.185  13.913  1.00  0.00    -0.017 A 
HETATM    7  C17 UNL     1      -3.843   4.164  15.018  1.00  0.00     0.052 C 
HETATM    8  C18 UNL     1      -4.022   1.849  14.096  1.00  0.00     0.073 A 
ENDROOT
BRANCH   5   9
HETATM    9  C4  UNL     1      -3.341   4.704  12.151  1.00  0.00     0.042 C 
BRANCH   9  10
HETATM   10  C5  UNL     1      -4.262   5.636  11.552  1.00  0.00    -0.018 A 
HETATM   11  C6  UNL     1      -5.179   6.372  12.149  1.00  0.00     0.068 A 
HETATM   12  C7  UNL     1      -5.872   7.160  11.151  1.00  0.00     0.183 A 
HETATM   13  O1  UNL     1      -6.817   7.981  11.382  1.00  0.00    -0.288 OA
HETATM   14  C8  UNL     1      -5.307   6.853   9.863  1.00  0.00     0.026 A 
HETATM   15  C9  UNL     1      -5.592   7.316   8.581  1.00  0.00     0.023 A 
HETATM   16  C15 UNL     1      -4.317   5.921  10.081  1.00  0.00    -0.006 A 
HETATM   17  C10 UNL     1      -4.907   6.872   7.482  1.00  0.00    -0.060 A 
HETATM   18  C11 UNL     1      -5.182   7.342   6.104  1.00  0.00     0.048 C 
HETATM   19  C12 UNL     1      -3.927   5.947   7.709  1.00  0.00     0.014 A 
HETATM   20  C13 UNL     1      -3.632   5.472   8.997  1.00  0.00    -0.049 A 
HETATM   21  C14 UNL     1      -2.547   4.478   9.097  1.00  0.00     0.049 C 
ENDBRANCH   9  10
ENDBRANCH   5   9
BRANCH   8  22
HETATM   22  C19 UNL     1      -4.303   1.145  15.342  1.00  0.00     0.296 C 
HETATM   23  O2  UNL     1      -3.359   0.972  16.187  1.00  0.00    -0.259 OA
BRANCH  22  24
HETATM   24  O3  UNL     1      -5.535   0.647  15.677  1.00  0.00    -0.318 OA
BRANCH  24  25
HETATM   25  C20 UNL     1      -6.134   0.989  16.913  1.00  0.00     0.174 C 
HETATM   26  C21 UNL     1      -6.684   2.413  16.804  1.00  0.00     0.034 C 
ENDBRANCH  24  25
ENDBRANCH  22  24
ENDBRANCH   8  22
TORSDOF 5
ENDMDL
MODEL 3
REMARK VINA RESULT: -7.656051415      1.638      2.454
REMARK  5 active torsions:
REMARK  status: ('A' for Active; 'I' for Inactive)
REMARK    1  A    between atoms: C3_5  and  C4_6 
REMARK    2  A    between atoms: C4_6  and  C5_7 
REMARK    3  A    between atoms: C18_21  and  C19_22 
REMARK    4  A    between atoms: C19_22  and  O3_24 
REMARK    5  A    between atoms: O3_24  and  C20_25 
ROOT
HETATM    1  C1  UNL     1      -3.971   0.584  12.597  1.00  0.00     0.044 C 
HETATM    2  C2  UNL     1      -4.329   1.744  13.136  1.00  0.00     0.040 A 
HETATM    3  N1  UNL     1      -4.551   2.900  12.417  1.00  0.00    -0.356 N 
ATOM      4  H1  UNL     1      -4.460   2.969  11.403  1.00  0.00     0.166 HD
HETATM    5  C3  UNL     1      -4.897   3.912  13.207  1.00  0.00     0.040 A 
HETATM    6  C16 UNL     1      -4.888   3.340  14.499  1.00  0.00    -0.017 A 
HETATM    7  C17 UNL     1      -5.207   4.044  15.757  1.00  0.00     0.052 C 
HETATM    8  C18 UNL     1      -4.542   2.021  14.452  1.00  0.00     0.073 A 
ENDROOT
BRANCH   5   9
HETATM    9  C4  UNL     1      -5.202   5.169  13.019  1.00  0.00     0.042 C 
BRANCH   9  10
HETATM   10  C5  UNL     1      -4.649   6.090  12.058  1.00  0.00    -0.018 A 
HETATM   11  C6  UNL     1      -5.002   6.261  10.799  1.00  0.00     0.068 A 
HETATM   12  C7  UNL     1      -4.172   7.295  10.215  1.00  0.00     0.183 A 
HETATM   13  O1  UNL     1      -4.244   7.712   9.015  1.00  0.00    -0.288 OA
HETATM   14  C8  UNL     1      -3.259   7.762  11.226  1.00  0.00     0.026 A 
HETATM   15  C9  UNL     1      -2.259   8.732  11.208  1.00  0.00     0.023 A 
HETATM   16  C15 UNL     1      -3.531   7.040  12.366  1.00  0.00    -0.006 A 
HETATM   17  C10 UNL     1      -1.503   9.012  12.314  1.00  0.00    -0.060 A 
HETATM   18  C11 UNL     1      -0.431  10.035  12.332  1.00  0.00     0.048 C 
HETATM   19  C12 UNL     1      -1.781   8.289  13.440  1.00  0.00     0.014 A 
HETATM   20  C13 UNL     1      -2.786   7.309  13.468  1.00  0.00    -0.049 A 
HETATM   21  C14 UNL     1      -2.981   6.608  14.752  1.00  0.00     0.049 C 
ENDBRANCH   9  10
ENDBRANCH   5   9
BRANCH   8  22
HETATM   22  C19 UNL     1      -4.419   1.083  15.562  1.00  0.00     0.296 C 
HETATM   23  O2  UNL     1      -3.300   0.984  16.173  1.00  0.00    -0.259 OA
BRANCH  22  24
HETATM   24  O3  UNL     1      -5.441   0.284  16.004  1.00  0.00    -0.318 OA
BRANCH  24  25
HETATM   25  C20 UNL     1      -6.101   0.573  17.222  1.00  0.00     0.174 C 
HETATM   26  C21 UNL     1      -7.396   1.322  16.902  1.00  0.00     0.034 C 
ENDBRANCH  24  25
ENDBRANCH  22  24
ENDBRANCH   8  22
TORSDOF 5
ENDMDL
MODEL 4
REMARK VINA RESULT: -7.589417675      2.948      3.823
REMARK  5 active torsions:
REMARK  status: ('A' for Active; 'I' for Inactive)
REMARK    1  A    between atoms: C3_5  and  C4_6 
REMARK    2  A    between atoms: C4_6  and  C5_7 
REMARK    3  A    between atoms: C18_21  and  C19_22 
REMARK    4  A    between atoms: C19_22  and  O3_24 
REMARK    5  A    between atoms: O3_24  and  C20_25 
ROOT
HETATM    1  C1  UNL     1      -4.239  -0.072  12.607  1.00  0.00     0.044 C 
HETATM    2  C2  UNL     1      -3.882   1.163  12.937  1.00  0.00     0.040 A 
HETATM    3  N1  UNL     1      -3.368   2.087  12.052  1.00  0.00    -0.356 N 
ATOM      4  H1  UNL     1      -3.214   1.905  11.060  1.00  0.00     0.166 HD
HETATM    5  C3  UNL     1      -3.097   3.244  12.650  1.00  0.00     0.040 A 
HETATM    6  C16 UNL     1      -3.470   3.017  13.993  1.00  0.00    -0.017 A 
HETATM    7  C17 UNL     1      -3.373   3.996  15.095  1.00  0.00     0.052 C 
HETATM    8  C18 UNL     1      -3.947   1.750  14.164  1.00  0.00     0.073 A 
ENDROOT
BRANCH   5   9
HETATM    9  C4  UNL     1      -2.612   4.394  12.261  1.00  0.00     0.042 C 
BRANCH   9  10
HETATM   10  C5  UNL     1      -1.236   4.754  12.032  1.00  0.00    -0.018 A 
HETATM   11  C6  UNL     1      -0.298   4.046  11.434  1.00  0.00     0.068 A 
HETATM   12  C7  UNL     1       0.935   4.805  11.433  1.00  0.00     0.183 A 
HETATM   13  O1  UNL     1       2.041   4.419  10.936  1.00  0.00    -0.288 OA
HETATM   14  C8  UNL     1       0.689   6.064  12.087  1.00  0.00     0.026 A 
HETATM   15  C9  UNL     1       1.511   7.155  12.357  1.00  0.00     0.023 A 
HETATM   16  C15 UNL     1      -0.636   6.058  12.464  1.00  0.00    -0.006 A 
HETATM   17  C10 UNL     1       1.046   8.268  13.006  1.00  0.00    -0.060 A 
HETATM   18  C11 UNL     1       1.891   9.447  13.310  1.00  0.00     0.048 C 
HETATM   19  C12 UNL     1      -0.270   8.252  13.376  1.00  0.00     0.014 A 
HETATM   20  C13 UNL     1      -1.106   7.156  13.109  1.00  0.00    -0.049 A 
HETATM   21  C14 UNL     1      -2.505   7.276  13.562  1.00  0.00     0.049 C 
ENDBRANCH   9  10
ENDBRANCH   5   9
BRANCH   8  22
HETATM   22  C19 UNL     1      -4.432   1.129  15.392  1.00  0.00     0.296 C 
HETATM   23  O2  UNL     1      -3.591   0.795  16.296  1.00  0.00    -0.259 OA
BRANCH  22  24
HETATM   24  O3  UNL     1      -5.754   0.874  15.650  1.00  0.00    -0.318 OA
BRANCH  24  25
HETATM   25  C20 UNL     1      -6.332   1.262  16.882  1.00  0.00     0.174 C 
HETATM   26  C21 UNL     1      -6.766   2.725  16.770  1.00  0.00     0.034 C 
ENDBRANCH  24  25
ENDBRANCH  22  24
ENDBRANCH   8  22
TORSDOF 5
ENDMDL
MODEL 5
REMARK VINA RESULT: -7.568740526      2.158      2.411
REMARK  5 active torsions:
REMARK  status: ('A' for Active; 'I' for Inactive)
REMARK    1  A    between atoms: C3_5  and  C4_6 
REMARK    2  A    between atoms: C4_6  and  C5_7 
REMARK    3  A    between atoms: C18_21  and  C19_22 
REMARK    4  A    between atoms: C19_22  and  O3_24 
REMARK    5  A    between atoms: O3_24  and  C20_25 
ROOT
HETATM    1  C1  UNL     1      -4.019  -0.081  12.586  1.00  0.00     0.044 C 
HETATM    2  C2  UNL     1      -3.856   1.222  12.780  1.00  0.00     0.040 A 
HETATM    3  N1  UNL     1      -3.584   2.129  11.777  1.00  0.00    -0.356 N 
ATOM      4  H1  UNL     1      -3.482   1.881  10.793  1.00  0.00     0.166 HD
HETATM    5  C3  UNL     1      -3.471   3.367  12.251  1.00  0.00     0.040 A 
HETATM    6  C16 UNL     1      -3.688   3.211  13.638  1.00  0.00    -0.017 A 
HETATM    7  C17 UNL     1      -3.673   4.293  14.643  1.00  0.00     0.052 C 
HETATM    8  C18 UNL     1      -3.922   1.905  13.956  1.00  0.00     0.073 A 
ENDROOT
BRANCH   5   9
HETATM    9  C4  UNL     1      -3.227   4.539  11.726  1.00  0.00     0.042 C 
BRANCH   9  10
HETATM   10  C5  UNL     1      -3.571   5.021  10.413  1.00  0.00    -0.018 A 
HETATM   11  C6  UNL     1      -3.001   4.726   9.262  1.00  0.00     0.068 A 
HETATM   12  C7  UNL     1      -3.679   5.445   8.203  1.00  0.00     0.183 A 
HETATM   13  O1  UNL     1      -3.385   5.391   6.966  1.00  0.00    -0.288 OA
HETATM   14  C8  UNL     1      -4.734   6.226   8.794  1.00  0.00     0.026 A 
HETATM   15  C9  UNL     1      -5.680   7.088   8.246  1.00  0.00     0.023 A 
HETATM   16  C15 UNL     1      -4.690   5.983  10.149  1.00  0.00    -0.006 A 
HETATM   17  C10 UNL     1      -6.606   7.733   9.021  1.00  0.00    -0.060 A 
HETATM   18  C11 UNL     1      -7.628   8.657   8.474  1.00  0.00     0.048 C 
HETATM   19  C12 UNL     1      -6.554   7.486  10.365  1.00  0.00     0.014 A 
HETATM   20  C13 UNL     1      -5.604   6.619  10.927  1.00  0.00    -0.049 A 
HETATM   21  C14 UNL     1      -5.665   6.442  12.391  1.00  0.00     0.049 C 
ENDBRANCH   9  10
ENDBRANCH   5   9
BRANCH   8  22
HETATM   22  C19 UNL     1      -4.190   1.333  15.271  1.00  0.00     0.296 C 
HETATM   23  O2  UNL     1      -3.258   1.320  16.147  1.00  0.00    -0.259 OA
BRANCH  22  24
HETATM   24  O3  UNL     1      -5.397   0.798  15.641  1.00  0.00    -0.318 OA
BRANCH  24  25
HETATM   25  C20 UNL     1      -5.872   0.950  16.965  1.00  0.00     0.174 C 
HETATM   26  C21 UNL     1      -7.355   1.325  16.904  1.00  0.00     0.034 C 
ENDBRANCH  24  25
ENDBRANCH  22  24
ENDBRANCH   8  22
TORSDOF 5
ENDMDL
