MODEL 1
REMARK VINA RESULT: -8.565810942      0.000      0.000
REMARK  5 active torsions:
REMARK  status: ('A' for Active; 'I' for Inactive)
REMARK    1  A    between atoms: C2_2  and  C3_3 
REMARK    2  A    between atoms: C3_3  and  C4_4 
REMARK    3  A    between atoms: C4_4  and  C5_5 
REMARK    4  A    between atoms: C6_6  and  C7_7 
REMARK    5  A    between atoms: N2_21  and  C17_22 
ROOT
HETATM    1  C7  UNL     1      -2.965   6.070  12.115  1.00  0.00     0.018 A 
HETATM    2  C8  UNL     1      -3.029   5.923  10.751  1.00  0.00     0.023 A 
HETATM    3  C9  UNL     1      -3.482   4.763  10.159  1.00  0.00     0.039 A 
HETATM    4  C10 UNL     1      -3.890   3.700  10.988  1.00  0.00     0.078 A 
HETATM    5  C11 UNL     1      -3.839   3.811  12.350  1.00  0.00     0.014 A 
HETATM    6  C12 UNL     1      -3.370   5.012  12.896  1.00  0.00     0.033 A 
HETATM    7  C13 UNL     1      -4.251   2.740  13.234  1.00  0.00     0.148 C 
HETATM    8  C14 UNL     1      -4.400   1.446  12.480  1.00  0.00     0.073 C 
HETATM    9  C15 UNL     1      -5.193   1.706  11.191  1.00  0.00     0.179 C 
HETATM   10  O1  UNL     1      -4.347   2.528  10.412  1.00  0.00    -0.350 OA
HETATM   11  N1  UNL     1      -3.215   2.539  14.230  1.00  0.00    -0.320 N 
ATOM     12  H1  UNL     1      -2.221   2.746  14.136  1.00  0.00     0.165 HD
HETATM   13  C16 UNL     1      -3.872   1.998  15.355  1.00  0.00     0.326 C 
HETATM   14  O2  UNL     1      -3.302   1.351  16.273  1.00  0.00    -0.247 OA
HETATM   15  N2  UNL     1      -5.265   2.303  15.276  1.00  0.00    -0.264 N 
HETATM   16  C20 UNL     1      -5.426   3.044  14.074  1.00  0.00     0.261 C 
HETATM   17  O3  UNL     1      -6.406   3.791  13.837  1.00  0.00    -0.270 OA
ENDROOT
BRANCH  15  18
HETATM   18  C17 UNL     1      -6.272   1.917  16.249  1.00  0.00     0.089 C 
HETATM   19  C18 UNL     1      -5.905   0.617  16.938  1.00  0.00     0.032 C 
HETATM   20  C19 UNL     1      -6.521   2.985  17.277  1.00  0.00     0.032 C 
ENDBRANCH  15  18
BRANCH   1  21
HETATM   21  C6  UNL     1      -2.497   7.269  12.761  1.00  0.00    -0.067 C 
HETATM   22  C5  UNL     1      -2.121   8.273  13.312  1.00  0.00    -0.101 C 
BRANCH  22  23
HETATM   23  C4  UNL     1      -1.687   9.509  13.985  1.00  0.00     0.094 C 
BRANCH  23  24
HETATM   24  C3  UNL     1      -0.885   9.208  15.226  1.00  0.00     0.012 C 
BRANCH  24  25
HETATM   25  C2  UNL     1       0.360  10.079  15.304  1.00  0.00    -0.004 C 
HETATM   26  C1  UNL     1       1.261   9.830  14.116  1.00  0.00     0.005 C 
ENDBRANCH  24  25
ENDBRANCH  23  24
ENDBRANCH  22  23
ENDBRANCH   1  21
TORSDOF 5
ENDMDL
MODEL 2
REMARK VINA RESULT: -8.371977260      0.895      1.061
REMARK  5 active torsions:
REMARK  status: ('A' for Active; 'I' for Inactive)
REMARK    1  A    between atoms: C2_2  and  C3_3 
REMARK    2  A    between atoms: C3_3  and  C4_4 
REMARK    3  A    between atoms: C4_4  and  C5_5 
REMARK    4  A    between atoms: C6_6  and  C7_7 
REMARK    5  A    between atoms: N2_21  and  C17_22 
ROOT
HETATM    1  C7  UNL     1      -2.156   5.388  12.218  1.00  0.00     0.018 A 
HETATM    2  C8  UNL     1      -2.115   5.170  10.863  1.00  0.00     0.023 A 
HETATM    3  C9  UNL     1      -2.725   4.083  10.275  1.00  0.00     0.039 A 
HETATM    4  C10 UNL     1      -3.411   3.171  11.100  1.00  0.00     0.078 A 
HETATM    5  C11 UNL     1      -3.473   3.355  12.453  1.00  0.00     0.014 A 
HETATM    6  C12 UNL     1      -2.835   4.476  12.996  1.00  0.00     0.033 A 
HETATM    7  C13 UNL     1      -4.170   2.439  13.333  1.00  0.00     0.148 C 
HETATM    8  C14 UNL     1      -4.495   1.152  12.623  1.00  0.00     0.073 C 
HETATM    9  C15 UNL     1      -5.093   1.477  11.246  1.00  0.00     0.179 C 
HETATM   10  O1  UNL     1      -4.031   2.073  10.529  1.00  0.00    -0.350 OA
HETATM   11  N1  UNL     1      -3.296   2.108  14.442  1.00  0.00    -0.320 N 
ATOM     12  H1  UNL     1      -2.276   2.116  14.447  1.00  0.00     0.165 HD
HETATM   13  C16 UNL     1      -4.151   1.773  15.512  1.00  0.00     0.326 C 
HETATM   14  O2  UNL     1      -3.811   1.088  16.513  1.00  0.00    -0.247 OA
HETATM   15  N2  UNL     1      -5.443   2.331  15.271  1.00  0.00    -0.264 N 
HETATM   16  C20 UNL     1      -5.340   3.012  14.028  1.00  0.00     0.261 C 
HETATM   17  O3  UNL     1      -6.126   3.915  13.655  1.00  0.00    -0.270 OA
ENDROOT
BRANCH  15  18
HETATM   18  C17 UNL     1      -6.597   2.205  16.145  1.00  0.00     0.089 C 
HETATM   19  C18 UNL     1      -6.570   0.895  16.909  1.00  0.00     0.032 C 
HETATM   20  C19 UNL     1      -6.719   3.352  17.108  1.00  0.00     0.032 C 
ENDBRANCH  15  18
BRANCH   1  21
HETATM   21  C6  UNL     1      -1.528   6.514  12.858  1.00  0.00    -0.067 C 
HETATM   22  C5  UNL     1      -0.991   7.444  13.407  1.00  0.00    -0.101 C 
BRANCH  22  23
HETATM   23  C4  UNL     1      -0.339   8.568  14.099  1.00  0.00     0.094 C 
BRANCH  23  24
HETATM   24  C3  UNL     1      -1.324   9.346  14.936  1.00  0.00     0.012 C 
BRANCH  24  25
HETATM   25  C2  UNL     1      -1.848  10.561  14.184  1.00  0.00    -0.004 C 
HETATM   26  C1  UNL     1      -0.821  11.671  14.181  1.00  0.00     0.005 C 
ENDBRANCH  24  25
ENDBRANCH  23  24
ENDBRANCH  22  23
ENDBRANCH   1  21
TORSDOF 5
ENDMDL
MODEL 3
REMARK VINA RESULT: -7.753529200      2.387      6.563
REMARK  5 active torsions:
REMARK  status: ('A' for Active; 'I' for Inactive)
REMARK    1  A    between atoms: C2_2  and  C3_3 
REMARK    2  A    between atoms: C3_3  and  C4_4 
REMARK    3  A    between atoms: C4_4  and  C5_5 
REMARK    4  A    between atoms: C6_6  and  C7_7 
REMARK    5  A    between atoms: N2_21  and  C17_22 
ROOT
HETATM    1  C7  UNL     1      -4.041   1.206  13.559  1.00  0.00     0.018 A 
HETATM    2  C8  UNL     1      -3.751   0.165  12.710  1.00  0.00     0.023 A 
HETATM    3  C9  UNL     1      -3.162   0.364  11.480  1.00  0.00     0.039 A 
HETATM    4  C10 UNL     1      -2.853   1.681  11.089  1.00  0.00     0.078 A 
HETATM    5  C11 UNL     1      -3.128   2.741  11.907  1.00  0.00     0.014 A 
HETATM    6  C12 UNL     1      -3.726   2.480  13.145  1.00  0.00     0.033 A 
HETATM    7  C13 UNL     1      -2.823   4.109  11.539  1.00  0.00     0.148 C 
HETATM    8  C14 UNL     1      -2.502   4.214  10.072  1.00  0.00     0.073 C 
HETATM    9  C15 UNL     1      -1.521   3.094   9.693  1.00  0.00     0.179 C 
HETATM   10  O1  UNL     1      -2.262   1.902   9.857  1.00  0.00    -0.350 OA
HETATM   11  N1  UNL     1      -3.998   4.925  11.780  1.00  0.00    -0.320 N 
ATOM     12  H1  UNL     1      -4.971   4.621  11.781  1.00  0.00     0.165 HD
HETATM   13  C16 UNL     1      -3.512   6.228  12.014  1.00  0.00     0.326 C 
HETATM   14  O2  UNL     1      -4.197   7.279  11.898  1.00  0.00    -0.247 OA
HETATM   15  N2  UNL     1      -2.138   6.154  12.396  1.00  0.00    -0.264 N 
HETATM   16  C20 UNL     1      -1.813   4.771  12.387  1.00  0.00     0.261 C 
HETATM   17  O3  UNL     1      -0.838   4.276  13.003  1.00  0.00    -0.270 OA
ENDROOT
BRANCH  15  18
HETATM   18  C17 UNL     1      -1.287   7.286  12.720  1.00  0.00     0.089 C 
HETATM   19  C18 UNL     1      -1.263   7.550  14.214  1.00  0.00     0.032 C 
HETATM   20  C19 UNL     1       0.117   7.118  12.211  1.00  0.00     0.032 C 
ENDBRANCH  15  18
BRANCH   1  21
HETATM   21  C6  UNL     1      -4.655   1.027  14.849  1.00  0.00    -0.067 C 
HETATM   22  C5  UNL     1      -5.167   0.897  15.933  1.00  0.00    -0.101 C 
BRANCH  22  23
HETATM   23  C4  UNL     1      -5.774   0.754  17.267  1.00  0.00     0.094 C 
BRANCH  23  24
HETATM   24  C3  UNL     1      -6.221   2.086  17.815  1.00  0.00     0.012 C 
BRANCH  24  25
HETATM   25  C2  UNL     1      -7.185   2.779  16.864  1.00  0.00    -0.004 C 
HETATM   26  C1  UNL     1      -6.549   4.010  16.261  1.00  0.00     0.005 C 
ENDBRANCH  24  25
ENDBRANCH  23  24
ENDBRANCH  22  23
ENDBRANCH   1  21
TORSDOF 5
ENDMDL
MODEL 4
REMARK VINA RESULT: -7.575015106      2.679      3.095
REMARK  5 active torsions:
REMARK  status: ('A' for Active; 'I' for Inactive)
REMARK    1  A    between atoms: C2_2  and  C3_3 
REMARK    2  A    between atoms: C3_3  and  C4_4 
REMARK    3  A    between atoms: C4_4  and  C5_5 
REMARK    4  A    between atoms: C6_6  and  C7_7 
REMARK    5  A    between atoms: N2_21  and  C17_22 
ROOT
HETATM    1  C7  UNL     1      -0.818   3.925  11.266  1.00  0.00     0.018 A 
HETATM    2  C8  UNL     1      -0.711   3.201  10.103  1.00  0.00     0.023 A 
HETATM    3  C9  UNL     1      -1.569   2.165   9.802  1.00  0.00     0.039 A 
HETATM    4  C10 UNL     1      -2.585   1.845  10.723  1.00  0.00     0.078 A 
HETATM    5  C11 UNL     1      -2.722   2.543  11.891  1.00  0.00     0.014 A 
HETATM    6  C12 UNL     1      -1.822   3.585  12.145  1.00  0.00     0.033 A 
HETATM    7  C13 UNL     1      -3.755   2.244  12.861  1.00  0.00     0.148 C 
HETATM    8  C14 UNL     1      -4.393   0.911  12.575  1.00  0.00     0.073 C 
HETATM    9  C15 UNL     1      -4.718   0.823  11.076  1.00  0.00     0.179 C 
HETATM   10  O1  UNL     1      -3.456   0.808  10.439  1.00  0.00    -0.350 OA
HETATM   11  N1  UNL     1      -3.144   2.153  14.174  1.00  0.00    -0.320 N 
ATOM     12  H1  UNL     1      -2.178   1.904  14.389  1.00  0.00     0.165 HD
HETATM   13  C16 UNL     1      -4.164   2.482  15.090  1.00  0.00     0.326 C 
HETATM   14  O2  UNL     1      -4.158   2.172  16.311  1.00  0.00    -0.247 OA
HETATM   15  N2  UNL     1      -5.186   3.213  14.410  1.00  0.00    -0.264 N 
HETATM   16  C20 UNL     1      -4.750   3.315  13.062  1.00  0.00     0.261 C 
HETATM   17  O3  UNL     1      -5.173   4.174  12.251  1.00  0.00    -0.270 OA
ENDROOT
BRANCH  15  18
HETATM   18  C17 UNL     1      -6.402   3.729  15.014  1.00  0.00     0.089 C 
HETATM   19  C18 UNL     1      -6.861   2.854  16.165  1.00  0.00     0.032 C 
HETATM   20  C19 UNL     1      -6.257   5.149  15.482  1.00  0.00     0.032 C 
ENDBRANCH  15  18
BRANCH   1  21
HETATM   21  C6  UNL     1       0.063   5.011  11.606  1.00  0.00    -0.067 C 
HETATM   22  C5  UNL     1       0.815   5.907  11.899  1.00  0.00    -0.101 C 
BRANCH  22  23
HETATM   23  C4  UNL     1       1.737   6.991  12.278  1.00  0.00     0.094 C 
BRANCH  23  24
HETATM   24  C3  UNL     1       3.085   6.821  11.625  1.00  0.00     0.012 C 
BRANCH  24  25
HETATM   25  C2  UNL     1       3.680   5.455  11.932  1.00  0.00    -0.004 C 
HETATM   26  C1  UNL     1       4.462   5.491  13.225  1.00  0.00     0.005 C 
ENDBRANCH  24  25
ENDBRANCH  23  24
ENDBRANCH  22  23
ENDBRANCH   1  21
TORSDOF 5
ENDMDL
MODEL 5
REMARK VINA RESULT: -7.282925751      3.451      7.384
REMARK  5 active torsions:
REMARK  status: ('A' for Active; 'I' for Inactive)
REMARK    1  A    between atoms: C2_2  and  C3_3 
REMARK    2  A    between atoms: C3_3  and  C4_4 
REMARK    3  A    between atoms: C4_4  and  C5_5 
REMARK    4  A    between atoms: C6_6  and  C7_7 
REMARK    5  A    between atoms: N2_21  and  C17_22 
ROOT
HETATM    1  C7  UNL     1      -4.077   5.617  14.037  1.00  0.00     0.018 A 
HETATM    2  C8  UNL     1      -3.221   6.420  14.750  1.00  0.00     0.023 A 
HETATM    3  C9  UNL     1      -2.437   7.379  14.144  1.00  0.00     0.039 A 
HETATM    4  C10 UNL     1      -2.525   7.532  12.747  1.00  0.00     0.078 A 
HETATM    5  C11 UNL     1      -3.365   6.751  12.004  1.00  0.00     0.014 A 
HETATM    6  C12 UNL     1      -4.137   5.793  12.673  1.00  0.00     0.033 A 
HETATM    7  C13 UNL     1      -3.483   6.880  10.566  1.00  0.00     0.148 C 
HETATM    8  C14 UNL     1      -2.357   7.708  10.006  1.00  0.00     0.073 C 
HETATM    9  C15 UNL     1      -2.187   8.970  10.866  1.00  0.00     0.179 C 
HETATM   10  O1  UNL     1      -1.746   8.489  12.120  1.00  0.00    -0.350 OA
HETATM   11  N1  UNL     1      -3.381   5.560   9.973  1.00  0.00    -0.320 N 
ATOM     12  H1  UNL     1      -2.899   4.747  10.357  1.00  0.00     0.165 HD
HETATM   13  C16 UNL     1      -4.087   5.637   8.755  1.00  0.00     0.326 C 
HETATM   14  O2  UNL     1      -3.933   4.845   7.787  1.00  0.00    -0.247 OA
HETATM   15  N2  UNL     1      -4.989   6.743   8.805  1.00  0.00    -0.264 N 
HETATM   16  C20 UNL     1      -4.805   7.327  10.087  1.00  0.00     0.261 C 
HETATM   17  O3  UNL     1      -5.646   8.073  10.645  1.00  0.00    -0.270 OA
ENDROOT
BRANCH  15  18
HETATM   18  C17 UNL     1      -5.891   7.149   7.742  1.00  0.00     0.089 C 
HETATM   19  C18 UNL     1      -7.338   6.892   8.117  1.00  0.00     0.032 C 
HETATM   20  C19 UNL     1      -5.714   8.589   7.353  1.00  0.00     0.032 C 
ENDBRANCH  15  18
BRANCH   1  21
HETATM   21  C6  UNL     1      -4.906   4.609  14.643  1.00  0.00    -0.067 C 
HETATM   22  C5  UNL     1      -5.617   3.777  15.151  1.00  0.00    -0.101 C 
BRANCH  22  23
HETATM   23  C4  UNL     1      -6.494   2.779  15.785  1.00  0.00     0.094 C 
BRANCH  23  24
HETATM   24  C3  UNL     1      -6.699   3.077  17.250  1.00  0.00     0.012 C 
BRANCH  24  25
HETATM   25  C2  UNL     1      -6.202   1.933  18.120  1.00  0.00    -0.004 C 
HETATM   26  C1  UNL     1      -5.984   0.687  17.292  1.00  0.00     0.005 C 
ENDBRANCH  24  25
ENDBRANCH  23  24
ENDBRANCH  22  23
ENDBRANCH   1  21
TORSDOF 5
ENDMDL
