MODEL 1
REMARK VINA RESULT: -7.604015177      0.000      0.000
REMARK  6 active torsions:
REMARK  status: ('A' for Active; 'I' for Inactive)
REMARK    1  A    between atoms: C2_2  and  C3_3 
REMARK    2  A    between atoms: C3_3  and  O1_4 
REMARK    3  A    between atoms: C3_3  and  N1_6 
REMARK    4  A    between atoms: C10_13  and  O2_14 
REMARK    5  A    between atoms: C11_16  and  N2_17 
REMARK       I    between atoms: N2_17  and  C12_19 
REMARK    6  A    between atoms: C12_19  and  C13_21 
ROOT
HETATM    1  N1  UNL     1      -3.210   8.782  11.300  1.00  0.00    -0.360 N 
HETATM    2  C4  UNL     1      -4.472   9.282  10.667  1.00  0.00     0.125 C 
HETATM    3  C5  UNL     1      -5.303   8.099  10.241  1.00  0.00     0.020 C 
HETATM    4  C6  UNL     1      -4.505   7.003   9.627  1.00  0.00     0.008 C 
HETATM    5  C7  UNL     1      -3.375   6.585  10.447  1.00  0.00     0.009 C 
HETATM    6  C8  UNL     1      -3.578   5.260  11.188  1.00  0.00     0.014 C 
HETATM    7  C9  UNL     1      -2.415   5.353  12.144  1.00  0.00     0.023 C 
HETATM    8  C10 UNL     1      -2.385   4.325  13.190  1.00  0.00     0.145 C 
HETATM    9  C11 UNL     1      -3.053   4.612  14.481  1.00  0.00     0.113 C 
HETATM   10  C17 UNL     1      -3.694   5.979  14.514  1.00  0.00     0.028 C 
HETATM   11  C18 UNL     1      -2.720   7.013  14.013  1.00  0.00     0.009 C 
HETATM   12  C19 UNL     1      -2.315   6.791  12.578  1.00  0.00     0.015 C 
HETATM   13  C20 UNL     1      -3.321   7.464  11.722  1.00  0.00     0.094 C 
ENDROOT
BRANCH   9  14
HETATM   14  N2  UNL     1      -4.094   3.635  14.738  1.00  0.00    -0.352 N 
HETATM   15  C12 UNL     1      -3.873   2.476  15.526  1.00  0.00     0.247 C 
HETATM   16  O3  UNL     1      -2.732   2.285  16.021  1.00  0.00    -0.271 OA
ATOM     17  H2  UNL     1      -5.019   3.787  14.336  1.00  0.00     0.163 HD
BRANCH  15  18
HETATM   18  C13 UNL     1      -4.958   1.512  15.762  1.00  0.00     0.213 C 
HETATM   19  C14 UNL     1      -6.282   2.167  16.025  1.00  0.00     0.043 C 
HETATM   20  C15 UNL     1      -6.953   1.249  17.019  1.00  0.00     0.029 C 
HETATM   21  C16 UNL     1      -5.850   0.348  17.466  1.00  0.00     0.168 C 
HETATM   22  O4  UNL     1      -4.685   0.770  16.880  1.00  0.00    -0.376 OA
ENDBRANCH  15  18
ENDBRANCH   9  14
BRANCH   8  23
HETATM   23  O2  UNL     1      -1.038   3.995  13.477  1.00  0.00    -0.393 OA
ATOM     24  H2  UNL     1      -1.020   3.275  14.096  1.00  0.00     0.210 HD
ENDBRANCH   8  23
BRANCH   1  25
HETATM   25  C3  UNL     1      -2.177   9.692  11.355  1.00  0.00     0.113 C 
BRANCH  25  26
HETATM   26  C2  UNL     1      -2.009  10.903  12.181  1.00  0.00     0.079 C 
HETATM   27  C1  UNL     1      -1.612  10.528  13.608  1.00  0.00     0.013 C 
ENDBRANCH  25  26
BRANCH  25  28
HETATM   28  O1  UNL     1      -1.149   9.495  10.562  1.00  0.00    -0.349 OA
ATOM     29  H1  UNL     1      -1.417   9.183   9.705  1.00  0.00     0.219 HD
ENDBRANCH  25  28
ENDBRANCH   1  25
TORSDOF 6
ENDMDL
MODEL 2
REMARK VINA RESULT: -7.602835814      3.982      5.371
REMARK  6 active torsions:
REMARK  status: ('A' for Active; 'I' for Inactive)
REMARK    1  A    between atoms: C2_2  and  C3_3 
REMARK    2  A    between atoms: C3_3  and  O1_4 
REMARK    3  A    between atoms: C3_3  and  N1_6 
REMARK    4  A    between atoms: C10_13  and  O2_14 
REMARK    5  A    between atoms: C11_16  and  N2_17 
REMARK       I    between atoms: N2_17  and  C12_19 
REMARK    6  A    between atoms: C12_19  and  C13_21 
ROOT
HETATM    1  N1  UNL     1       1.244   4.045   8.972  1.00  0.00    -0.360 N 
HETATM    2  C4  UNL     1       2.521   4.412   9.664  1.00  0.00     0.125 C 
HETATM    3  C5  UNL     1       2.188   5.094  10.966  1.00  0.00     0.020 C 
HETATM    4  C6  UNL     1       1.055   6.054  10.862  1.00  0.00     0.008 C 
HETATM    5  C7  UNL     1      -0.135   5.475  10.253  1.00  0.00     0.009 C 
HETATM    6  C8  UNL     1      -1.255   5.131  11.238  1.00  0.00     0.014 C 
HETATM    7  C9  UNL     1      -2.105   4.278  10.328  1.00  0.00     0.023 C 
HETATM    8  C10 UNL     1      -3.211   3.574  10.988  1.00  0.00     0.145 C 
HETATM    9  C11 UNL     1      -2.967   2.208  11.508  1.00  0.00     0.113 C 
HETATM   10  C17 UNL     1      -1.551   1.738  11.272  1.00  0.00     0.028 C 
HETATM   11  C18 UNL     1      -1.160   1.996   9.840  1.00  0.00     0.009 C 
HETATM   12  C19 UNL     1      -1.164   3.460   9.484  1.00  0.00     0.015 C 
HETATM   13  C20 UNL     1       0.165   4.010   9.846  1.00  0.00     0.094 C 
ENDROOT
BRANCH   9  14
HETATM   14  N2  UNL     1      -3.209   2.164  12.938  1.00  0.00    -0.352 N 
HETATM   15  C12 UNL     1      -4.499   2.359  13.498  1.00  0.00     0.247 C 
HETATM   16  O3  UNL     1      -5.469   2.580  12.729  1.00  0.00    -0.271 OA
ATOM     17  H2  UNL     1      -2.424   1.986  13.563  1.00  0.00     0.163 HD
BRANCH  15  18
HETATM   18  C13 UNL     1      -4.699   2.304  14.954  1.00  0.00     0.213 C 
HETATM   19  C14 UNL     1      -4.602   0.914  15.511  1.00  0.00     0.043 C 
HETATM   20  C15 UNL     1      -5.603   0.902  16.642  1.00  0.00     0.029 C 
HETATM   21  C16 UNL     1      -6.390   2.152  16.427  1.00  0.00     0.168 C 
HETATM   22  O4  UNL     1      -5.959   2.739  15.266  1.00  0.00    -0.376 OA
ENDBRANCH  15  18
ENDBRANCH   9  14
BRANCH   8  23
HETATM   23  O2  UNL     1      -4.307   3.496  10.096  1.00  0.00    -0.393 OA
ATOM     24  H2  UNL     1      -5.113   3.456  10.597  1.00  0.00     0.210 HD
ENDBRANCH   8  23
BRANCH   1  25
HETATM   25  C3  UNL     1       1.351   3.810   7.618  1.00  0.00     0.113 C 
BRANCH  25  26
HETATM   26  C2  UNL     1       0.392   4.054   6.524  1.00  0.00     0.079 C 
HETATM   27  C1  UNL     1      -0.016   5.525   6.486  1.00  0.00     0.013 C 
ENDBRANCH  25  26
BRANCH  25  28
HETATM   28  O1  UNL     1       2.472   3.283   7.179  1.00  0.00    -0.349 OA
ATOM     29  H1  UNL     1       3.218   3.846   7.348  1.00  0.00     0.219 HD
ENDBRANCH  25  28
ENDBRANCH   1  25
TORSDOF 6
ENDMDL
MODEL 3
REMARK VINA RESULT: -7.415911473      4.216      5.566
REMARK  6 active torsions:
REMARK  status: ('A' for Active; 'I' for Inactive)
REMARK    1  A    between atoms: C2_2  and  C3_3 
REMARK    2  A    between atoms: C3_3  and  O1_4 
REMARK    3  A    between atoms: C3_3  and  N1_6 
REMARK    4  A    between atoms: C10_13  and  O2_14 
REMARK    5  A    between atoms: C11_16  and  N2_17 
REMARK       I    between atoms: N2_17  and  C12_19 
REMARK    6  A    between atoms: C12_19  and  C13_21 
ROOT
HETATM    1  N1  UNL     1       1.589   4.106   8.959  1.00  0.00    -0.360 N 
HETATM    2  C4  UNL     1       2.813   4.335   9.791  1.00  0.00     0.125 C 
HETATM    3  C5  UNL     1       2.398   4.942  11.107  1.00  0.00     0.020 C 
HETATM    4  C6  UNL     1       1.340   5.980  10.975  1.00  0.00     0.008 C 
HETATM    5  C7  UNL     1       0.181   5.529  10.216  1.00  0.00     0.009 C 
HETATM    6  C8  UNL     1      -1.047   5.190  11.065  1.00  0.00     0.014 C 
HETATM    7  C9  UNL     1      -1.855   4.465  10.017  1.00  0.00     0.023 C 
HETATM    8  C10 UNL     1      -3.059   3.791  10.516  1.00  0.00     0.145 C 
HETATM    9  C11 UNL     1      -2.950   2.377  10.947  1.00  0.00     0.113 C 
HETATM   10  C17 UNL     1      -1.549   1.831  10.805  1.00  0.00     0.028 C 
HETATM   11  C18 UNL     1      -1.007   2.165   9.440  1.00  0.00     0.009 C 
HETATM   12  C19 UNL     1      -0.888   3.649   9.201  1.00  0.00     0.015 C 
HETATM   13  C20 UNL     1       0.431   4.080   9.725  1.00  0.00     0.094 C 
ENDROOT
BRANCH   9  14
HETATM   14  N2  UNL     1      -3.331   2.245  12.340  1.00  0.00    -0.352 N 
HETATM   15  C12 UNL     1      -4.681   2.090  12.749  1.00  0.00     0.247 C 
HETATM   16  O3  UNL     1      -5.583   2.067  11.873  1.00  0.00    -0.271 OA
ATOM     17  H2  UNL     1      -2.601   2.266  13.052  1.00  0.00     0.163 HD
BRANCH  15  18
HETATM   18  C13 UNL     1      -5.022   1.958  14.174  1.00  0.00     0.213 C 
HETATM   19  C14 UNL     1      -4.096   2.720  15.075  1.00  0.00     0.043 C 
HETATM   20  C15 UNL     1      -4.004   1.862  16.315  1.00  0.00     0.029 C 
HETATM   21  C16 UNL     1      -4.614   0.567  15.891  1.00  0.00     0.168 C 
HETATM   22  O4  UNL     1      -4.916   0.648  14.556  1.00  0.00    -0.376 OA
ENDBRANCH  15  18
ENDBRANCH   9  14
BRANCH   8  23
HETATM   23  O2  UNL     1      -4.068   3.851   9.523  1.00  0.00    -0.393 OA
ATOM     24  H2  UNL     1      -4.134   3.005   9.096  1.00  0.00     0.210 HD
ENDBRANCH   8  23
BRANCH   1  25
HETATM   25  C3  UNL     1       1.812   3.964   7.606  1.00  0.00     0.113 C 
BRANCH  25  26
HETATM   26  C2  UNL     1       1.098   4.541   6.451  1.00  0.00     0.079 C 
HETATM   27  C1  UNL     1       0.960   6.054   6.608  1.00  0.00     0.013 C 
ENDBRANCH  25  26
BRANCH  25  28
HETATM   28  O1  UNL     1       2.811   3.198   7.232  1.00  0.00    -0.349 OA
ATOM     29  H1  UNL     1       3.301   2.865   7.975  1.00  0.00     0.219 HD
ENDBRANCH  25  28
ENDBRANCH   1  25
TORSDOF 6
ENDMDL
MODEL 4
REMARK VINA RESULT: -7.245498290      4.406      5.417
REMARK  6 active torsions:
REMARK  status: ('A' for Active; 'I' for Inactive)
REMARK    1  A    between atoms: C2_2  and  C3_3 
REMARK    2  A    between atoms: C3_3  and  O1_4 
REMARK    3  A    between atoms: C3_3  and  N1_6 
REMARK    4  A    between atoms: C10_13  and  O2_14 
REMARK    5  A    between atoms: C11_16  and  N2_17 
REMARK       I    between atoms: N2_17  and  C12_19 
REMARK    6  A    between atoms: C12_19  and  C13_21 
ROOT
HETATM    1  N1  UNL     1       1.844   5.476   8.322  1.00  0.00    -0.360 N 
HETATM    2  C4  UNL     1       1.570   6.732   7.554  1.00  0.00     0.125 C 
HETATM    3  C5  UNL     1       0.091   6.817   7.275  1.00  0.00     0.020 C 
HETATM    4  C6  UNL     1      -0.515   5.516   6.882  1.00  0.00     0.008 C 
HETATM    5  C7  UNL     1      -0.217   4.437   7.815  1.00  0.00     0.009 C 
HETATM    6  C8  UNL     1      -1.375   4.055   8.741  1.00  0.00     0.014 C 
HETATM    7  C9  UNL     1      -0.606   3.213   9.730  1.00  0.00     0.023 C 
HETATM    8  C10 UNL     1      -1.360   2.813  10.924  1.00  0.00     0.145 C 
HETATM    9  C11 UNL     1      -1.308   3.688  12.118  1.00  0.00     0.113 C 
HETATM   10  C17 UNL     1      -0.454   4.916  11.905  1.00  0.00     0.028 C 
HETATM   11  C18 UNL     1       0.868   4.519  11.300  1.00  0.00     0.009 C 
HETATM   12  C19 UNL     1       0.725   3.884   9.940  1.00  0.00     0.015 C 
HETATM   13  C20 UNL     1       0.704   4.978   8.938  1.00  0.00     0.094 C 
ENDROOT
BRANCH   9  14
HETATM   14  N2  UNL     1      -2.641   4.140  12.469  1.00  0.00    -0.352 N 
HETATM   15  C12 UNL     1      -3.561   3.322  13.176  1.00  0.00     0.247 C 
HETATM   16  O3  UNL     1      -3.210   2.161  13.510  1.00  0.00    -0.271 OA
ATOM     17  H2  UNL     1      -2.928   5.080  12.198  1.00  0.00     0.163 HD
BRANCH  15  18
HETATM   18  C13 UNL     1      -4.902   3.822  13.513  1.00  0.00     0.213 C 
HETATM   19  C14 UNL     1      -4.885   5.188  14.133  1.00  0.00     0.043 C 
HETATM   20  C15 UNL     1      -6.026   5.155  15.121  1.00  0.00     0.029 C 
HETATM   21  C16 UNL     1      -6.377   3.707  15.205  1.00  0.00     0.168 C 
HETATM   22  O4  UNL     1      -5.483   3.001  14.443  1.00  0.00    -0.376 OA
ENDBRANCH  15  18
ENDBRANCH   9  14
BRANCH   8  23
HETATM   23  O2  UNL     1      -0.935   1.523  11.329  1.00  0.00    -0.393 OA
ATOM     24  H2  UNL     1      -1.020   0.925  10.596  1.00  0.00     0.210 HD
ENDBRANCH   8  23
BRANCH   1  25
HETATM   25  C3  UNL     1       3.150   5.036   8.289  1.00  0.00     0.113 C 
BRANCH  25  26
HETATM   26  C2  UNL     1       3.731   3.801   7.727  1.00  0.00     0.079 C 
HETATM   27  C1  UNL     1       3.054   3.443   6.406  1.00  0.00     0.013 C 
ENDBRANCH  25  26
BRANCH  25  28
HETATM   28  O1  UNL     1       4.065   5.804   8.834  1.00  0.00    -0.349 OA
ATOM     29  H1  UNL     1       4.867   5.327   9.014  1.00  0.00     0.219 HD
ENDBRANCH  25  28
ENDBRANCH   1  25
TORSDOF 6
ENDMDL
MODEL 5
REMARK VINA RESULT: -7.164335649      3.148      7.662
REMARK  6 active torsions:
REMARK  status: ('A' for Active; 'I' for Inactive)
REMARK    1  A    between atoms: C2_2  and  C3_3 
REMARK    2  A    between atoms: C3_3  and  O1_4 
REMARK    3  A    between atoms: C3_3  and  N1_6 
REMARK    4  A    between atoms: C10_13  and  O2_14 
REMARK    5  A    between atoms: C11_16  and  N2_17 
REMARK       I    between atoms: N2_17  and  C12_19 
REMARK    6  A    between atoms: C12_19  and  C13_21 
ROOT
HETATM    1  N1  UNL     1      -5.113   2.844  15.289  1.00  0.00    -0.360 N 
HETATM    2  C4  UNL     1      -6.473   3.458  15.412  1.00  0.00     0.125 C 
HETATM    3  C5  UNL     1      -6.474   4.783  14.691  1.00  0.00     0.020 C 
HETATM    4  C6  UNL     1      -5.236   5.579  14.911  1.00  0.00     0.008 C 
HETATM    5  C7  UNL     1      -4.015   4.833  14.639  1.00  0.00     0.009 C 
HETATM    6  C8  UNL     1      -3.332   5.186  13.315  1.00  0.00     0.014 C 
HETATM    7  C9  UNL     1      -2.374   4.022  13.236  1.00  0.00     0.023 C 
HETATM    8  C10 UNL     1      -1.654   3.894  11.963  1.00  0.00     0.145 C 
HETATM    9  C11 UNL     1      -2.252   3.059  10.895  1.00  0.00     0.113 C 
HETATM   10  C17 UNL     1      -3.573   2.450  11.302  1.00  0.00     0.028 C 
HETATM   11  C18 UNL     1      -3.445   1.817  12.663  1.00  0.00     0.009 C 
HETATM   12  C19 UNL     1      -3.110   2.811  13.745  1.00  0.00     0.015 C 
HETATM   13  C20 UNL     1      -4.386   3.383  14.236  1.00  0.00     0.094 C 
ENDROOT
BRANCH   9  14
HETATM   14  N2  UNL     1      -2.487   3.856   9.706  1.00  0.00    -0.352 N 
HETATM   15  C12 UNL     1      -1.461   4.144   8.768  1.00  0.00     0.247 C 
HETATM   16  O3  UNL     1      -0.305   3.695   8.974  1.00  0.00    -0.271 OA
ATOM     17  H2  UNL     1      -3.423   4.223   9.538  1.00  0.00     0.163 HD
BRANCH  15  18
HETATM   18  C13 UNL     1      -1.744   4.955   7.574  1.00  0.00     0.213 C 
HETATM   19  C14 UNL     1      -1.487   6.418   7.780  1.00  0.00     0.043 C 
HETATM   20  C15 UNL     1      -2.546   7.097   6.944  1.00  0.00     0.029 C 
HETATM   21  C16 UNL     1      -3.487   5.990   6.603  1.00  0.00     0.168 C 
HETATM   22  O4  UNL     1      -3.070   4.855   7.249  1.00  0.00    -0.376 OA
ENDBRANCH  15  18
ENDBRANCH   9  14
BRANCH   8  23
HETATM   23  O2  UNL     1      -0.355   3.389  12.215  1.00  0.00    -0.393 OA
ATOM     24  H2  UNL     1       0.266   3.839  11.655  1.00  0.00     0.210 HD
ENDBRANCH   8  23
BRANCH   1  25
HETATM   25  C3  UNL     1      -4.818   1.871  16.220  1.00  0.00     0.113 C 
BRANCH  25  26
HETATM   26  C2  UNL     1      -5.702   1.114  17.127  1.00  0.00     0.079 C 
HETATM   27  C1  UNL     1      -6.083   1.965  18.337  1.00  0.00     0.013 C 
ENDBRANCH  25  26
BRANCH  25  28
HETATM   28  O1  UNL     1      -3.559   1.525  16.362  1.00  0.00    -0.349 OA
ATOM     29  H1  UNL     1      -3.268   0.954  15.661  1.00  0.00     0.219 HD
ENDBRANCH  25  28
ENDBRANCH   1  25
TORSDOF 6
ENDMDL
