MODEL 1
REMARK VINA RESULT: -6.902758441      0.000      0.000
REMARK  5 active torsions:
REMARK  status: ('A' for Active; 'I' for Inactive)
REMARK    1  A    between atoms: C3_3  and  C4_4 
REMARK    2  A    between atoms: C4_4  and  N1_5 
REMARK    3  A    between atoms: N2_8  and  C6_9 
REMARK    4  A    between atoms: C6_9  and  C7_11 
REMARK    5  A    between atoms: C10_14  and  N3_15 
ROOT
HETATM    1  C1  UNL     1      -7.252   1.343  16.932  1.00  0.00     0.112 C 
HETATM    2  C2  UNL     1      -6.015   1.870  16.352  1.00  0.00    -0.105 C 
HETATM    3  C3  UNL     1      -4.982   2.301  15.894  1.00  0.00    -0.062 C 
ENDROOT
BRANCH   3   4
HETATM    4  C4  UNL     1      -3.718   2.786  15.390  1.00  0.00     0.158 C 
BRANCH   4   5
HETATM    5  N1  UNL     1      -3.502   2.661  14.015  1.00  0.00    -0.320 N 
HETATM    6  C5  UNL     1      -3.052   3.826  13.231  1.00  0.00     0.182 C 
HETATM    7  S1  UNL     1      -2.172   5.051  13.835  1.00  0.00    -0.040 SA
HETATM    8  N2  UNL     1      -3.520   3.667  11.892  1.00  0.00    -0.309 N 
HETATM    9  C13 UNL     1      -4.327   2.437  11.936  1.00  0.00     0.116 C 
HETATM   10  C14 UNL     1      -4.387   1.672  10.687  1.00  0.00     0.028 C 
HETATM   11  C18 UNL     1      -3.573   1.666  13.014  1.00  0.00     0.115 C 
HETATM   12  C15 UNL     1      -4.911   0.264  10.933  1.00  0.00     0.002 C 
HETATM   13  C16 UNL     1      -4.226  -0.454  12.031  1.00  0.00     0.002 C 
HETATM   14  C17 UNL     1      -4.252   0.397  13.325  1.00  0.00     0.028 C 
BRANCH   8  15
HETATM   15  C6  UNL     1      -3.300   4.478  10.772  1.00  0.00     0.113 C 
HETATM   16  S2  UNL     1      -4.396   5.632  10.318  1.00  0.00    -0.063 SA
BRANCH  15  17
HETATM   17  C7  UNL     1      -2.097   4.439   9.882  1.00  0.00     0.247 C 
HETATM   18  C8  UNL     1      -1.272   3.204  10.148  1.00  0.00     0.042 C 
HETATM   19  C9  UNL     1       0.225   3.592  10.148  1.00  0.00     0.037 C 
HETATM   20  C10 UNL     1       0.390   4.443   8.904  1.00  0.00     0.211 C 
HETATM   21  C12 UNL     1      -0.199   5.795   9.239  1.00  0.00     0.266 C 
HETATM   22  N4  UNL     1      -1.244   5.592  10.220  1.00  0.00    -0.063 N 
ATOM     23  H42 UNL     1      -1.799   6.438  10.351  1.00  0.00     0.278 HD
ATOM     24  H41 UNL     1      -0.859   5.506  11.160  1.00  0.00     0.278 HD
BRANCH  20  25
HETATM   25  N3  UNL     1       1.735   4.504   8.418  1.00  0.00    -0.073 N 
HETATM   26  C11 UNL     1       2.623   3.967   9.432  1.00  0.00     0.267 C 
ATOM     27  H32 UNL     1       1.846   4.038   7.517  1.00  0.00     0.277 HD
ATOM     28  H31 UNL     1       2.002   5.444   8.123  1.00  0.00     0.277 HD
ENDBRANCH  20  25
ENDBRANCH  15  17
ENDBRANCH   8  15
ENDBRANCH   4   5
ENDBRANCH   3   4
TORSDOF 5
ENDMDL
MODEL 2
REMARK VINA RESULT: -6.853955931      2.792      4.337
REMARK  5 active torsions:
REMARK  status: ('A' for Active; 'I' for Inactive)
REMARK    1  A    between atoms: C3_3  and  C4_4 
REMARK    2  A    between atoms: C4_4  and  N1_5 
REMARK    3  A    between atoms: N2_8  and  C6_9 
REMARK    4  A    between atoms: C6_9  and  C7_11 
REMARK    5  A    between atoms: C10_14  and  N3_15 
ROOT
HETATM    1  C1  UNL     1      -7.515   1.332  16.908  1.00  0.00     0.112 C 
HETATM    2  C2  UNL     1      -6.218   1.808  16.421  1.00  0.00    -0.105 C 
HETATM    3  C3  UNL     1      -5.137   2.179  16.026  1.00  0.00    -0.062 C 
ENDROOT
BRANCH   3   4
HETATM    4  C4  UNL     1      -3.828   2.564  15.555  1.00  0.00     0.158 C 
BRANCH   4   5
HETATM    5  N1  UNL     1      -3.660   2.651  14.170  1.00  0.00    -0.320 N 
HETATM    6  C5  UNL     1      -3.378   3.954  13.542  1.00  0.00     0.182 C 
HETATM    7  S1  UNL     1      -2.613   5.182  14.283  1.00  0.00    -0.040 SA
HETATM    8  N2  UNL     1      -3.884   3.922  12.207  1.00  0.00    -0.309 N 
HETATM    9  C13 UNL     1      -4.547   2.612  12.104  1.00  0.00     0.116 C 
HETATM   10  C14 UNL     1      -4.576   2.019  10.765  1.00  0.00     0.028 C 
HETATM   11  C18 UNL     1      -3.665   1.797  13.043  1.00  0.00     0.115 C 
HETATM   12  C15 UNL     1      -4.929   0.539  10.828  1.00  0.00     0.002 C 
HETATM   13  C16 UNL     1      -4.120  -0.234  11.798  1.00  0.00     0.002 C 
HETATM   14  C17 UNL     1      -4.183   0.428  13.196  1.00  0.00     0.028 C 
BRANCH   8  15
HETATM   15  C6  UNL     1      -3.806   4.896  11.204  1.00  0.00     0.113 C 
HETATM   16  S2  UNL     1      -2.352   5.337  10.547  1.00  0.00    -0.063 SA
BRANCH  15  17
HETATM   17  C7  UNL     1      -4.963   5.627  10.597  1.00  0.00     0.247 C 
HETATM   18  C8  UNL     1      -4.596   6.188   9.246  1.00  0.00     0.042 C 
HETATM   19  C9  UNL     1      -5.172   7.618   9.125  1.00  0.00     0.037 C 
HETATM   20  C10 UNL     1      -6.606   7.485   9.602  1.00  0.00     0.211 C 
HETATM   21  C12 UNL     1      -6.538   7.390  11.110  1.00  0.00     0.266 C 
HETATM   22  N4  UNL     1      -5.273   6.780  11.459  1.00  0.00    -0.063 N 
ATOM     23  H42 UNL     1      -5.245   6.524  12.447  1.00  0.00     0.278 HD
ATOM     24  H41 UNL     1      -4.516   7.465  11.450  1.00  0.00     0.278 HD
BRANCH  20  25
HETATM   25  N3  UNL     1      -7.473   8.519   9.126  1.00  0.00    -0.073 N 
HETATM   26  C11 UNL     1      -8.574   7.909   8.403  1.00  0.00     0.267 C 
ATOM     27  H32 UNL     1      -7.791   9.136   9.873  1.00  0.00     0.277 HD
ATOM     28  H31 UNL     1      -6.980   9.217   8.568  1.00  0.00     0.277 HD
ENDBRANCH  20  25
ENDBRANCH  15  17
ENDBRANCH   8  15
ENDBRANCH   4   5
ENDBRANCH   3   4
TORSDOF 5
ENDMDL
MODEL 3
REMARK VINA RESULT: -6.477758024      2.073      2.780
REMARK  5 active torsions:
REMARK  status: ('A' for Active; 'I' for Inactive)
REMARK    1  A    between atoms: C3_3  and  C4_4 
REMARK    2  A    between atoms: C4_4  and  N1_5 
REMARK    3  A    between atoms: N2_8  and  C6_9 
REMARK    4  A    between atoms: C6_9  and  C7_11 
REMARK    5  A    between atoms: C10_14  and  N3_15 
ROOT
HETATM    1  C1  UNL     1      -5.963   1.725  17.673  1.00  0.00     0.112 C 
HETATM    2  C2  UNL     1      -5.715   2.239  16.324  1.00  0.00    -0.105 C 
HETATM    3  C3  UNL     1      -5.533   2.671  15.209  1.00  0.00    -0.062 C 
ENDROOT
BRANCH   3   4
HETATM    4  C4  UNL     1      -5.364   3.226  13.887  1.00  0.00     0.158 C 
BRANCH   4   5
HETATM    5  N1  UNL     1      -4.206   2.856  13.196  1.00  0.00    -0.320 N 
HETATM    6  C5  UNL     1      -3.196   3.874  12.853  1.00  0.00     0.182 C 
HETATM    7  S1  UNL     1      -2.938   5.232  13.706  1.00  0.00    -0.040 SA
HETATM    8  N2  UNL     1      -2.517   3.444  11.673  1.00  0.00    -0.309 N 
HETATM    9  C13 UNL     1      -3.213   2.207  11.286  1.00  0.00     0.116 C 
HETATM   10  C14 UNL     1      -2.401   1.219  10.570  1.00  0.00     0.028 C 
HETATM   11  C18 UNL     1      -3.613   1.689  12.664  1.00  0.00     0.115 C 
HETATM   12  C15 UNL     1      -3.083  -0.142  10.553  1.00  0.00     0.002 C 
HETATM   13  C16 UNL     1      -3.538  -0.607  11.883  1.00  0.00     0.002 C 
HETATM   14  C17 UNL     1      -4.429   0.470  12.550  1.00  0.00     0.028 C 
BRANCH   8  15
HETATM   15  C6  UNL     1      -1.444   4.042  10.998  1.00  0.00     0.113 C 
HETATM   16  S2  UNL     1       0.108   3.891  11.551  1.00  0.00    -0.063 SA
BRANCH  15  17
HETATM   17  C7  UNL     1      -1.537   4.842   9.737  1.00  0.00     0.247 C 
HETATM   18  C8  UNL     1      -2.943   5.343   9.520  1.00  0.00     0.042 C 
HETATM   19  C9  UNL     1      -3.309   5.178   8.027  1.00  0.00     0.037 C 
HETATM   20  C10 UNL     1      -2.111   5.736   7.285  1.00  0.00     0.211 C 
HETATM   21  C12 UNL     1      -1.032   4.680   7.377  1.00  0.00     0.266 C 
HETATM   22  N4  UNL     1      -1.234   3.946   8.608  1.00  0.00    -0.063 N 
ATOM     23  H42 UNL     1      -0.436   3.344   8.815  1.00  0.00     0.278 HD
ATOM     24  H41 UNL     1      -1.952   3.230   8.499  1.00  0.00     0.278 HD
BRANCH  20  25
HETATM   25  N3  UNL     1      -2.400   6.151   5.946  1.00  0.00    -0.073 N 
HETATM   26  C11 UNL     1      -3.533   7.057   5.973  1.00  0.00     0.267 C 
ATOM     27  H32 UNL     1      -1.588   6.555   5.479  1.00  0.00     0.277 HD
ATOM     28  H31 UNL     1      -2.546   5.362   5.316  1.00  0.00     0.277 HD
ENDBRANCH  20  25
ENDBRANCH  15  17
ENDBRANCH   8  15
ENDBRANCH   4   5
ENDBRANCH   3   4
TORSDOF 5
ENDMDL
MODEL 4
REMARK VINA RESULT: -6.451064682      2.222      7.287
REMARK  5 active torsions:
REMARK  status: ('A' for Active; 'I' for Inactive)
REMARK    1  A    between atoms: C3_3  and  C4_4 
REMARK    2  A    between atoms: C4_4  and  N1_5 
REMARK    3  A    between atoms: N2_8  and  C6_9 
REMARK    4  A    between atoms: C6_9  and  C7_11 
REMARK    5  A    between atoms: C10_14  and  N3_15 
ROOT
HETATM    1  C1  UNL     1      -0.500   4.726   6.896  1.00  0.00     0.112 C 
HETATM    2  C2  UNL     1      -0.237   4.530   8.324  1.00  0.00    -0.105 C 
HETATM    3  C3  UNL     1      -0.009   4.347   9.497  1.00  0.00    -0.062 C 
ENDROOT
BRANCH   3   4
HETATM    4  C4  UNL     1       0.307   4.088  10.882  1.00  0.00     0.158 C 
BRANCH   4   5
HETATM    5  N1  UNL     1      -0.772   3.994  11.765  1.00  0.00    -0.320 N 
HETATM    6  C5  UNL     1      -1.698   2.850  11.677  1.00  0.00     0.182 C 
HETATM    7  S1  UNL     1      -1.286   1.378  11.127  1.00  0.00    -0.040 SA
HETATM    8  N2  UNL     1      -2.975   3.275  12.156  1.00  0.00    -0.309 N 
HETATM    9  C13 UNL     1      -2.796   4.709  12.435  1.00  0.00     0.116 C 
HETATM   10  C14 UNL     1      -3.641   5.259  13.498  1.00  0.00     0.028 C 
HETATM   11  C18 UNL     1      -1.328   4.716  12.846  1.00  0.00     0.115 C 
HETATM   12  C15 UNL     1      -3.127   6.616  13.960  1.00  0.00     0.002 C 
HETATM   13  C16 UNL     1      -1.682   6.635  14.286  1.00  0.00     0.002 C 
HETATM   14  C17 UNL     1      -0.858   6.089  13.095  1.00  0.00     0.028 C 
BRANCH   8  15
HETATM   15  C6  UNL     1      -4.153   2.535  12.321  1.00  0.00     0.113 C 
HETATM   16  S2  UNL     1      -5.143   2.200  11.038  1.00  0.00    -0.063 SA
BRANCH  15  17
HETATM   17  C7  UNL     1      -4.651   1.954  13.607  1.00  0.00     0.247 C 
HETATM   18  C8  UNL     1      -5.741   2.811  14.199  1.00  0.00     0.042 C 
HETATM   19  C9  UNL     1      -5.518   2.924  15.724  1.00  0.00     0.037 C 
HETATM   20  C10 UNL     1      -5.256   1.499  16.170  1.00  0.00     0.211 C 
HETATM   21  C12 UNL     1      -3.837   1.184  15.751  1.00  0.00     0.266 C 
HETATM   22  N4  UNL     1      -3.538   1.968  14.573  1.00  0.00    -0.063 N 
ATOM     23  H42 UNL     1      -2.665   1.666  14.138  1.00  0.00     0.278 HD
ATOM     24  H41 UNL     1      -3.273   2.922  14.819  1.00  0.00     0.278 HD
BRANCH  20  25
HETATM   25  N3  UNL     1      -5.513   1.270  17.560  1.00  0.00    -0.073 N 
HETATM   26  C11 UNL     1      -6.404   2.306  18.046  1.00  0.00     0.267 C 
ATOM     27  H32 UNL     1      -5.869   0.331  17.740  1.00  0.00     0.277 HD
ATOM     28  H31 UNL     1      -4.656   1.203  18.109  1.00  0.00     0.277 HD
ENDBRANCH  20  25
ENDBRANCH  15  17
ENDBRANCH   8  15
ENDBRANCH   4   5
ENDBRANCH   3   4
TORSDOF 5
ENDMDL
MODEL 5
REMARK VINA RESULT: -6.446861979      1.728      3.046
REMARK  5 active torsions:
REMARK  status: ('A' for Active; 'I' for Inactive)
REMARK    1  A    between atoms: C3_3  and  C4_4 
REMARK    2  A    between atoms: C4_4  and  N1_5 
REMARK    3  A    between atoms: N2_8  and  C6_9 
REMARK    4  A    between atoms: C6_9  and  C7_11 
REMARK    5  A    between atoms: C10_14  and  N3_15 
ROOT
HETATM    1  C1  UNL     1      -6.886   1.465  17.210  1.00  0.00     0.112 C 
HETATM    2  C2  UNL     1      -5.846   1.370  16.183  1.00  0.00    -0.105 C 
HETATM    3  C3  UNL     1      -5.005   1.287  15.318  1.00  0.00    -0.062 C 
ENDROOT
BRANCH   3   4
HETATM    4  C4  UNL     1      -4.045   1.199  14.243  1.00  0.00     0.158 C 
BRANCH   4   5
HETATM    5  N1  UNL     1      -3.852   2.353  13.478  1.00  0.00    -0.320 N 
HETATM    6  C5  UNL     1      -3.385   2.244  12.084  1.00  0.00     0.182 C 
HETATM    7  S1  UNL     1      -3.666   0.965  11.121  1.00  0.00    -0.040 SA
HETATM    8  N2  UNL     1      -2.670   3.437  11.762  1.00  0.00    -0.309 N 
HETATM    9  C13 UNL     1      -2.651   4.198  13.021  1.00  0.00     0.116 C 
HETATM   10  C14 UNL     1      -2.599   5.655  12.881  1.00  0.00     0.028 C 
HETATM   11  C18 UNL     1      -3.983   3.753  13.616  1.00  0.00     0.115 C 
HETATM   12  C15 UNL     1      -2.961   6.345  14.189  1.00  0.00     0.002 C 
HETATM   13  C16 UNL     1      -4.217   5.857  14.802  1.00  0.00     0.002 C 
HETATM   14  C17 UNL     1      -4.171   4.317  14.963  1.00  0.00     0.028 C 
BRANCH   8  15
HETATM   15  C6  UNL     1      -2.089   3.823  10.547  1.00  0.00     0.113 C 
HETATM   16  S2  UNL     1      -2.953   4.662   9.411  1.00  0.00    -0.063 SA
BRANCH  15  17
HETATM   17  C7  UNL     1      -0.675   3.566  10.129  1.00  0.00     0.247 C 
HETATM   18  C8  UNL     1       0.272   3.766  11.285  1.00  0.00     0.042 C 
HETATM   19  C9  UNL     1       1.523   4.523  10.782  1.00  0.00     0.037 C 
HETATM   20  C10 UNL     1       1.915   3.795   9.511  1.00  0.00     0.211 C 
HETATM   21  C12 UNL     1       0.932   4.244   8.452  1.00  0.00     0.266 C 
HETATM   22  N4  UNL     1      -0.313   4.570   9.113  1.00  0.00    -0.063 N 
ATOM     23  H42 UNL     1      -1.067   4.704   8.438  1.00  0.00     0.278 HD
ATOM     24  H41 UNL     1      -0.286   5.509   9.512  1.00  0.00     0.278 HD
BRANCH  20  25
HETATM   25  N3  UNL     1       3.286   3.973   9.140  1.00  0.00    -0.073 N 
HETATM   26  C11 UNL     1       3.446   5.297   8.567  1.00  0.00     0.267 C 
ATOM     27  H32 UNL     1       3.925   3.804   9.916  1.00  0.00     0.277 HD
ATOM     28  H31 UNL     1       3.621   3.236   8.519  1.00  0.00     0.277 HD
ENDBRANCH  20  25
ENDBRANCH  15  17
ENDBRANCH   8  15
ENDBRANCH   4   5
ENDBRANCH   3   4
TORSDOF 5
ENDMDL
