MODEL 1
REMARK VINA RESULT: -7.701674945      0.000      0.000
REMARK  7 active torsions:
REMARK  status: ('A' for Active; 'I' for Inactive)
REMARK    1  A    between atoms: C12_13  and  N1_14 
REMARK    2  A    between atoms: N1_14  and  C13_15 
REMARK    3  A    between atoms: N1_14  and  C19_28 
REMARK    4  A    between atoms: C13_15  and  O2_16 
REMARK    5  A    between atoms: C13_15  and  C14_18 
REMARK    6  A    between atoms: C14_18  and  C15_19 
REMARK    7  A    between atoms: C15_19  and  O3_20 
ROOT
HETATM    1  N1  UNL     1      -4.526   2.090  14.320  1.00  0.00    -0.354 N 
ENDROOT
BRANCH   1   2
HETATM    2  C12 UNL     1      -4.933   3.425  13.710  1.00  0.00     0.099 C 
HETATM    3  C5  UNL     1      -3.857   4.427  13.670  1.00  0.00     0.007 C 
HETATM    4  C4  UNL     1      -2.463   3.977  13.934  1.00  0.00     0.014 C 
HETATM    5  C6  UNL     1      -3.779   5.099  12.278  1.00  0.00     0.014 C 
HETATM    6  C9  UNL     1      -4.096   5.653  14.527  1.00  0.00     0.136 C 
HETATM    7  C3  UNL     1      -1.497   5.092  13.497  1.00  0.00     0.005 C 
HETATM    8  C2  UNL     1      -1.782   6.370  14.247  1.00  0.00    -0.012 C 
HETATM    9  C1  UNL     1      -0.903   7.444  13.647  1.00  0.00     0.010 C 
HETATM   10  C8  UNL     1      -3.213   6.735  13.951  1.00  0.00     0.019 C 
HETATM   11  C7  UNL     1      -3.418   6.514  12.472  1.00  0.00     0.008 C 
HETATM   12  O1  UNL     1      -5.421   6.038  14.361  1.00  0.00    -0.385 OA
HETATM   13  C10 UNL     1      -6.170   5.132  15.089  1.00  0.00     0.170 C 
HETATM   14  C11 UNL     1      -6.195   3.792  14.412  1.00  0.00     0.052 C 
ENDBRANCH   1   2
BRANCH   1  15
HETATM   15  C13 UNL     1      -4.398   1.068  13.401  1.00  0.00     0.127 C 
BRANCH  15  16
HETATM   16  O2  UNL     1      -4.702  -0.124  14.001  1.00  0.00    -0.349 OA
ATOM     17  H2  UNL     1      -5.307  -0.609  13.452  1.00  0.00     0.219 HD
ENDBRANCH  15  16
BRANCH  15  18
HETATM   18  C14 UNL     1      -4.068   0.806  12.026  1.00  0.00     0.071 C 
HETATM   19  C16 UNL     1      -2.715   1.182  11.611  1.00  0.00     0.049 C 
HETATM   20  C17 UNL     1      -2.350   0.194  10.518  1.00  0.00     0.233 C 
HETATM   21  N2  UNL     1      -2.952  -1.019  10.942  1.00  0.00    -0.074 N 
HETATM   22  C18 UNL     1      -3.982  -0.770  11.874  1.00  0.00     0.252 C 
ATOM     23  H22 UNL     1      -3.285  -1.572  10.152  1.00  0.00     0.277 HD
ATOM     24  H21 UNL     1      -2.263  -1.674  11.309  1.00  0.00     0.277 HD
BRANCH  18  25
HETATM   25  C15 UNL     1      -5.137   1.144  11.006  1.00  0.00     0.183 C 
BRANCH  25  26
HETATM   26  O3  UNL     1      -5.108   2.357  10.434  1.00  0.00    -0.400 OA
ATOM     27  H3  UNL     1      -5.571   2.479   9.614  1.00  0.00     0.209 HD
ENDBRANCH  25  26
ENDBRANCH  18  25
ENDBRANCH  15  18
ENDBRANCH   1  15
BRANCH   1  28
HETATM   28  C19 UNL     1      -4.407   2.030  15.702  1.00  0.00     0.086 A 
HETATM   29  C20 UNL     1      -5.352   1.880  16.792  1.00  0.00     0.027 A 
HETATM   30  C21 UNL     1      -4.237   0.878  16.652  1.00  0.00     0.027 A 
ENDBRANCH   1  28
TORSDOF 7
ENDMDL
MODEL 2
REMARK VINA RESULT: -7.482621026      1.888      5.670
REMARK  7 active torsions:
REMARK  status: ('A' for Active; 'I' for Inactive)
REMARK    1  A    between atoms: C12_13  and  N1_14 
REMARK    2  A    between atoms: N1_14  and  C13_15 
REMARK    3  A    between atoms: N1_14  and  C19_28 
REMARK    4  A    between atoms: C13_15  and  O2_16 
REMARK    5  A    between atoms: C13_15  and  C14_18 
REMARK    6  A    between atoms: C14_18  and  C15_19 
REMARK    7  A    between atoms: C15_19  and  O3_20 
ROOT
HETATM    1  N1  UNL     1      -4.304   3.857  13.539  1.00  0.00    -0.354 N 
ENDROOT
BRANCH   1   2
HETATM    2  C12 UNL     1      -4.492   3.348  12.116  1.00  0.00     0.099 C 
HETATM    3  C5  UNL     1      -4.126   1.937  11.923  1.00  0.00     0.007 C 
HETATM    4  C4  UNL     1      -3.905   1.093  13.129  1.00  0.00     0.014 C 
HETATM    5  C6  UNL     1      -5.223   1.184  11.132  1.00  0.00     0.014 C 
HETATM    6  C9  UNL     1      -2.948   1.705  10.999  1.00  0.00     0.136 C 
HETATM    7  C3  UNL     1      -3.888  -0.384  12.697  1.00  0.00     0.005 C 
HETATM    8  C2  UNL     1      -2.798  -0.631  11.683  1.00  0.00    -0.012 C 
HETATM    9  C1  UNL     1      -2.955  -2.055  11.200  1.00  0.00     0.010 C 
HETATM   10  C8  UNL     1      -3.079   0.279  10.517  1.00  0.00     0.019 C 
HETATM   11  C7  UNL     1      -4.563   0.201  10.255  1.00  0.00     0.008 C 
HETATM   12  O1  UNL     1      -3.090   2.550   9.905  1.00  0.00    -0.385 OA
HETATM   13  C10 UNL     1      -2.749   3.811  10.356  1.00  0.00     0.170 C 
HETATM   14  C11 UNL     1      -3.815   4.362  11.260  1.00  0.00     0.052 C 
ENDBRANCH   1   2
BRANCH   1  15
HETATM   15  C13 UNL     1      -5.263   3.411  14.425  1.00  0.00     0.127 C 
BRANCH  15  16
HETATM   16  O2  UNL     1      -6.502   3.535  13.856  1.00  0.00    -0.349 OA
ATOM     17  H2  UNL     1      -7.139   3.061  14.378  1.00  0.00     0.219 HD
ENDBRANCH  15  16
BRANCH  15  18
HETATM   18  C14 UNL     1      -5.429   2.850  15.739  1.00  0.00     0.071 C 
HETATM   19  C16 UNL     1      -6.241   3.636  16.671  1.00  0.00     0.049 C 
HETATM   20  C17 UNL     1      -6.891   2.611  17.585  1.00  0.00     0.233 C 
HETATM   21  N2  UNL     1      -7.155   1.512  16.728  1.00  0.00    -0.074 N 
HETATM   22  C18 UNL     1      -6.350   1.570  15.572  1.00  0.00     0.252 C 
ATOM     23  H22 UNL     1      -7.051   0.621  17.214  1.00  0.00     0.277 HD
ATOM     24  H21 UNL     1      -8.146   1.445  16.495  1.00  0.00     0.277 HD
BRANCH  18  25
HETATM   25  C15 UNL     1      -4.191   2.244  16.368  1.00  0.00     0.183 C 
BRANCH  25  26
HETATM   26  O3  UNL     1      -4.159   0.917  16.555  1.00  0.00    -0.400 OA
ATOM     27  H3  UNL     1      -4.468   0.572  17.385  1.00  0.00     0.209 HD
ENDBRANCH  25  26
ENDBRANCH  18  25
ENDBRANCH  15  18
ENDBRANCH   1  15
BRANCH   1  28
HETATM   28  C19 UNL     1      -3.264   4.749  13.765  1.00  0.00     0.086 A 
HETATM   29  C20 UNL     1      -3.051   5.837  14.701  1.00  0.00     0.027 A 
HETATM   30  C21 UNL     1      -2.069   4.697  14.675  1.00  0.00     0.027 A 
ENDBRANCH   1  28
TORSDOF 7
ENDMDL
MODEL 3
REMARK VINA RESULT: -7.460158127      2.050      4.662
REMARK  7 active torsions:
REMARK  status: ('A' for Active; 'I' for Inactive)
REMARK    1  A    between atoms: C12_13  and  N1_14 
REMARK    2  A    between atoms: N1_14  and  C13_15 
REMARK    3  A    between atoms: N1_14  and  C19_28 
REMARK    4  A    between atoms: C13_15  and  O2_16 
REMARK    5  A    between atoms: C13_15  and  C14_18 
REMARK    6  A    between atoms: C14_18  and  C15_19 
REMARK    7  A    between atoms: C15_19  and  O3_20 
ROOT
HETATM    1  N1  UNL     1      -3.606   1.775  12.200  1.00  0.00    -0.354 N 
ENDROOT
BRANCH   1   2
HETATM    2  C12 UNL     1      -2.517   2.839  12.213  1.00  0.00     0.099 C 
HETATM    3  C5  UNL     1      -2.979   4.184  11.839  1.00  0.00     0.007 C 
HETATM    4  C4  UNL     1      -4.445   4.436  11.778  1.00  0.00     0.014 C 
HETATM    5  C6  UNL     1      -2.456   5.247  12.835  1.00  0.00     0.014 C 
HETATM    6  C9  UNL     1      -2.383   4.729  10.557  1.00  0.00     0.136 C 
HETATM    7  C3  UNL     1      -4.679   5.956  11.720  1.00  0.00     0.005 C 
HETATM    8  C2  UNL     1      -3.998   6.556  10.514  1.00  0.00    -0.012 C 
HETATM    9  C1  UNL     1      -4.143   8.057  10.623  1.00  0.00     0.010 C 
HETATM   10  C8  UNL     1      -2.533   6.230  10.639  1.00  0.00     0.019 C 
HETATM   11  C7  UNL     1      -2.157   6.476  12.080  1.00  0.00     0.008 C 
HETATM   12  O1  UNL     1      -1.027   4.426  10.554  1.00  0.00    -0.385 OA
HETATM   13  C10 UNL     1      -0.943   3.078  10.261  1.00  0.00     0.170 C 
HETATM   14  C11 UNL     1      -1.400   2.247  11.425  1.00  0.00     0.052 C 
ENDBRANCH   1   2
BRANCH   1  15
HETATM   15  C13 UNL     1      -4.139   1.501  13.443  1.00  0.00     0.127 C 
BRANCH  15  16
HETATM   16  O2  UNL     1      -4.391   0.159  13.544  1.00  0.00    -0.349 OA
ATOM     17  H2  UNL     1      -5.326   0.007  13.466  1.00  0.00     0.219 HD
ENDBRANCH  15  16
BRANCH  15  18
HETATM   18  C14 UNL     1      -4.517   2.123  14.683  1.00  0.00     0.071 C 
HETATM   19  C16 UNL     1      -5.704   2.979  14.632  1.00  0.00     0.049 C 
HETATM   20  C17 UNL     1      -6.325   2.873  16.014  1.00  0.00     0.233 C 
HETATM   21  N2  UNL     1      -6.095   1.523  16.386  1.00  0.00    -0.074 N 
HETATM   22  C18 UNL     1      -5.046   0.964  15.628  1.00  0.00     0.252 C 
ATOM     23  H22 UNL     1      -5.927   1.432  17.388  1.00  0.00     0.277 HD
ATOM     24  H21 UNL     1      -6.946   0.965  16.322  1.00  0.00     0.277 HD
BRANCH  18  25
HETATM   25  C15 UNL     1      -3.387   2.692  15.518  1.00  0.00     0.183 C 
BRANCH  25  26
HETATM   26  O3  UNL     1      -2.742   1.871  16.357  1.00  0.00    -0.400 OA
ATOM     27  H3  UNL     1      -2.529   2.192  17.226  1.00  0.00     0.209 HD
ENDBRANCH  25  26
ENDBRANCH  18  25
ENDBRANCH  15  18
ENDBRANCH   1  15
BRANCH   1  28
HETATM   28  C19 UNL     1      -3.880   1.158  10.986  1.00  0.00     0.086 A 
HETATM   29  C20 UNL     1      -3.545  -0.128  10.407  1.00  0.00     0.027 A 
HETATM   30  C21 UNL     1      -4.994   0.253  10.542  1.00  0.00     0.027 A 
ENDBRANCH   1  28
TORSDOF 7
ENDMDL
MODEL 4
REMARK VINA RESULT: -7.388715688      2.078      2.919
REMARK  7 active torsions:
REMARK  status: ('A' for Active; 'I' for Inactive)
REMARK    1  A    between atoms: C12_13  and  N1_14 
REMARK    2  A    between atoms: N1_14  and  C13_15 
REMARK    3  A    between atoms: N1_14  and  C19_28 
REMARK    4  A    between atoms: C13_15  and  O2_16 
REMARK    5  A    between atoms: C13_15  and  C14_18 
REMARK    6  A    between atoms: C14_18  and  C15_19 
REMARK    7  A    between atoms: C15_19  and  O3_20 
ROOT
HETATM    1  N1  UNL     1      -4.319   4.073  12.907  1.00  0.00    -0.354 N 
ENDROOT
BRANCH   1   2
HETATM    2  C12 UNL     1      -3.643   5.068  11.973  1.00  0.00     0.099 C 
HETATM    3  C5  UNL     1      -2.808   6.067  12.655  1.00  0.00     0.007 C 
HETATM    4  C4  UNL     1      -2.470   5.847  14.088  1.00  0.00     0.014 C 
HETATM    5  C6  UNL     1      -1.431   6.204  11.960  1.00  0.00     0.014 C 
HETATM    6  C9  UNL     1      -3.294   7.497  12.530  1.00  0.00     0.136 C 
HETATM    7  C3  UNL     1      -1.328   6.803  14.475  1.00  0.00     0.005 C 
HETATM    8  C2  UNL     1      -1.734   8.239  14.251  1.00  0.00    -0.012 C 
HETATM    9  C1  UNL     1      -0.510   9.092  14.501  1.00  0.00     0.010 C 
HETATM   10  C8  UNL     1      -2.086   8.366  12.792  1.00  0.00     0.019 C 
HETATM   11  C7  UNL     1      -1.023   7.618  12.024  1.00  0.00     0.008 C 
HETATM   12  O1  UNL     1      -3.697   7.697  11.214  1.00  0.00    -0.385 OA
HETATM   13  C10 UNL     1      -4.915   7.057  11.093  1.00  0.00     0.170 C 
HETATM   14  C11 UNL     1      -4.738   5.565  11.094  1.00  0.00     0.052 C 
ENDBRANCH   1   2
BRANCH   1  15
HETATM   15  C13 UNL     1      -3.767   2.808  12.875  1.00  0.00     0.127 C 
BRANCH  15  16
HETATM   16  O2  UNL     1      -3.177   2.539  14.081  1.00  0.00    -0.349 OA
ATOM     17  H2  UNL     1      -3.116   1.598  14.199  1.00  0.00     0.219 HD
ENDBRANCH  15  16
BRANCH  15  18
HETATM   18  C14 UNL     1      -3.595   1.660  12.027  1.00  0.00     0.071 C 
HETATM   19  C16 UNL     1      -4.033   0.380  12.588  1.00  0.00     0.049 C 
HETATM   20  C17 UNL     1      -4.478  -0.442  11.392  1.00  0.00     0.233 C 
HETATM   21  N2  UNL     1      -5.073   0.513  10.527  1.00  0.00    -0.074 N 
HETATM   22  C18 UNL     1      -4.633   1.816  10.838  1.00  0.00     0.252 C 
ATOM     23  H22 UNL     1      -4.912   0.285   9.546  1.00  0.00     0.277 HD
ATOM     24  H21 UNL     1      -6.091   0.446  10.535  1.00  0.00     0.277 HD
BRANCH  18  25
HETATM   25  C15 UNL     1      -2.286   1.579  11.267  1.00  0.00     0.183 C 
BRANCH  25  26
HETATM   26  O3  UNL     1      -1.215   2.203  11.780  1.00  0.00    -0.400 OA
ATOM     27  H3  UNL     1      -0.396   2.158  11.300  1.00  0.00     0.209 HD
ENDBRANCH  25  26
ENDBRANCH  18  25
ENDBRANCH  15  18
ENDBRANCH   1  15
BRANCH   1  28
HETATM   28  C19 UNL     1      -5.434   4.512  13.609  1.00  0.00     0.086 A 
HETATM   29  C20 UNL     1      -6.312   3.908  14.592  1.00  0.00     0.027 A 
HETATM   30  C21 UNL     1      -5.587   5.177  14.948  1.00  0.00     0.027 A 
ENDBRANCH   1  28
TORSDOF 7
ENDMDL
MODEL 5
REMARK VINA RESULT: -7.364115243      4.302      6.968
REMARK  7 active torsions:
REMARK  status: ('A' for Active; 'I' for Inactive)
REMARK    1  A    between atoms: C12_13  and  N1_14 
REMARK    2  A    between atoms: N1_14  and  C13_15 
REMARK    3  A    between atoms: N1_14  and  C19_28 
REMARK    4  A    between atoms: C13_15  and  O2_16 
REMARK    5  A    between atoms: C13_15  and  C14_18 
REMARK    6  A    between atoms: C14_18  and  C15_19 
REMARK    7  A    between atoms: C15_19  and  O3_20 
ROOT
HETATM    1  N1  UNL     1      -0.950   4.167  10.036  1.00  0.00    -0.354 N 
ENDROOT
BRANCH   1   2
HETATM    2  C12 UNL     1      -2.149   4.071  10.970  1.00  0.00     0.099 C 
HETATM    3  C5  UNL     1      -2.691   2.713  11.123  1.00  0.00     0.007 C 
HETATM    4  C4  UNL     1      -1.881   1.568  10.622  1.00  0.00     0.014 C 
HETATM    5  C6  UNL     1      -2.933   2.379  12.615  1.00  0.00     0.014 C 
HETATM    6  C9  UNL     1      -4.098   2.525  10.594  1.00  0.00     0.136 C 
HETATM    7  C3  UNL     1      -2.465   0.266  11.198  1.00  0.00     0.005 C 
HETATM    8  C2  UNL     1      -3.909   0.101  10.788  1.00  0.00    -0.012 C 
HETATM    9  C1  UNL     1      -4.443  -1.108  11.522  1.00  0.00     0.010 C 
HETATM   10  C8  UNL     1      -4.645   1.309  11.304  1.00  0.00     0.019 C 
HETATM   11  C7  UNL     1      -4.147   1.550  12.709  1.00  0.00     0.008 C 
HETATM   12  O1  UNL     1      -4.850   3.629  10.977  1.00  0.00    -0.385 OA
HETATM   13  C10 UNL     1      -4.456   4.659  10.146  1.00  0.00     0.170 C 
HETATM   14  C11 UNL     1      -3.078   5.138  10.502  1.00  0.00     0.052 C 
ENDBRANCH   1   2
BRANCH   1  15
HETATM   15  C13 UNL     1       0.242   4.438  10.678  1.00  0.00     0.127 C 
BRANCH  15  16
HETATM   16  O2  UNL     1       0.097   4.213  12.020  1.00  0.00    -0.349 OA
ATOM     17  H2  UNL     1       0.698   4.770  12.501  1.00  0.00     0.219 HD
ENDBRANCH  15  16
BRANCH  15  18
HETATM   18  C14 UNL     1       1.593   4.867  10.439  1.00  0.00     0.071 C 
HETATM   19  C16 UNL     1       2.365   4.051   9.498  1.00  0.00     0.049 C 
HETATM   20  C17 UNL     1       3.335   5.019   8.845  1.00  0.00     0.233 C 
HETATM   21  N2  UNL     1       2.591   6.221   8.730  1.00  0.00    -0.074 N 
HETATM   22  C18 UNL     1       1.501   6.225   9.625  1.00  0.00     0.252 C 
ATOM     23  H22 UNL     1       3.181   7.044   8.853  1.00  0.00     0.277 HD
ATOM     24  H21 UNL     1       2.290   6.389   7.770  1.00  0.00     0.277 HD
BRANCH  18  25
HETATM   25  C15 UNL     1       2.381   5.304  11.658  1.00  0.00     0.183 C 
BRANCH  25  26
HETATM   26  O3  UNL     1       3.084   4.378  12.326  1.00  0.00    -0.400 OA
ATOM     27  H3  UNL     1       4.032   4.432  12.306  1.00  0.00     0.209 HD
ENDBRANCH  25  26
ENDBRANCH  18  25
ENDBRANCH  15  18
ENDBRANCH   1  15
BRANCH   1  28
HETATM   28  C19 UNL     1      -1.191   4.051   8.673  1.00  0.00     0.086 A 
HETATM   29  C20 UNL     1      -1.058   4.950   7.543  1.00  0.00     0.027 A 
HETATM   30  C21 UNL     1      -0.315   3.642   7.523  1.00  0.00     0.027 A 
ENDBRANCH   1  28
TORSDOF 7
ENDMDL
