MODEL 1
REMARK VINA RESULT: -6.536182369      0.000      0.000
REMARK  8 active torsions:
REMARK  status: ('A' for Active; 'I' for Inactive)
REMARK    1  A    between atoms: C3_3  and  C4_4 
REMARK    2  A    between atoms: C5_5  and  C6_6 
REMARK    3  A    between atoms: C7_7  and  C8_8 
REMARK    4  A    between atoms: N1_11  and  C11_12 
REMARK    5  A    between atoms: C11_12  and  C12_13 
REMARK    6  A    between atoms: C14_16  and  C15_17 
REMARK    7  A    between atoms: C14_16  and  C16_19 
REMARK    8  A    between atoms: C16_19  and  O3_20 
ROOT
HETATM    1  C1  UNL     1       7.170   4.719   5.390  1.00  0.00     0.113 C 
HETATM    2  C2  UNL     1       5.961   4.556   6.189  1.00  0.00    -0.097 C 
HETATM    3  C3  UNL     1       4.959   4.411   6.863  1.00  0.00    -0.015 C 
ENDROOT
BRANCH   3   4
HETATM    4  C4  UNL     1       3.782   4.236   7.628  1.00  0.00    -0.001 C 
HETATM    5  C5  UNL     1       2.767   4.082   8.266  1.00  0.00    -0.001 C 
BRANCH   5   6
HETATM    6  C6  UNL     1       1.569   3.891   8.995  1.00  0.00    -0.009 C 
HETATM    7  C7  UNL     1       0.553   3.713   9.622  1.00  0.00    -0.053 C 
BRANCH   7   8
HETATM    8  C8  UNL     1      -0.663   3.515  10.352  1.00  0.00     0.022 A 
HETATM    9  C9  UNL     1      -1.214   4.511  11.149  1.00  0.00     0.038 A 
HETATM   10  C10 UNL     1      -2.393   4.248  11.828  1.00  0.00     0.093 A 
HETATM   11  N1  UNL     1      -3.001   3.058  11.723  1.00  0.00    -0.350 N 
HETATM   12  C17 UNL     1      -2.496   2.073  10.964  1.00  0.00     0.083 A 
HETATM   13 BR1  UNL     1      -3.379   0.368  10.824  1.00  0.00    -0.031 Br
HETATM   14  C18 UNL     1      -1.323   2.307  10.277  1.00  0.00     0.058 A 
BRANCH  11  15
HETATM   15  C11 UNL     1      -4.229   2.848  12.450  1.00  0.00     0.139 C 
BRANCH  15  16
HETATM   16  C12 UNL     1      -4.146   3.108  13.910  1.00  0.00     0.072 C 
HETATM   17  C13 UNL     1      -5.347   3.763  14.555  1.00  0.00     0.179 C 
HETATM   18  O1  UNL     1      -5.921   2.483  14.611  1.00  0.00    -0.370 OA
HETATM   19  C14 UNL     1      -4.608   1.994  14.772  1.00  0.00     0.141 C 
BRANCH  19  20
HETATM   20  C15 UNL     1      -4.148   2.093  16.208  1.00  0.00     0.271 C 
HETATM   21  O2  UNL     1      -3.235   1.340  16.516  1.00  0.00    -0.303 OA
ENDBRANCH  19  20
BRANCH  19  22
HETATM   22  C16 UNL     1      -4.506   0.593  14.287  1.00  0.00     0.210 C 
BRANCH  22  23
HETATM   23  O3  UNL     1      -4.908  -0.340  15.244  1.00  0.00    -0.397 OA
ATOM     24  H3  UNL     1      -5.812  -0.226  15.511  1.00  0.00     0.209 HD
ENDBRANCH  22  23
ENDBRANCH  19  22
ENDBRANCH  15  16
ENDBRANCH  11  15
ENDBRANCH   7   8
ENDBRANCH   5   6
ENDBRANCH   3   4
TORSDOF 8
ENDMDL
MODEL 2
REMARK VINA RESULT: -6.470759900      1.882      2.670
REMARK  8 active torsions:
REMARK  status: ('A' for Active; 'I' for Inactive)
REMARK    1  A    between atoms: C3_3  and  C4_4 
REMARK    2  A    between atoms: C5_5  and  C6_6 
REMARK    3  A    between atoms: C7_7  and  C8_8 
REMARK    4  A    between atoms: N1_11  and  C11_12 
REMARK    5  A    between atoms: C11_12  and  C12_13 
REMARK    6  A    between atoms: C14_16  and  C15_17 
REMARK    7  A    between atoms: C14_16  and  C16_19 
REMARK    8  A    between atoms: C16_19  and  O3_20 
ROOT
HETATM    1  C1  UNL     1       6.077   4.365   6.117  1.00  0.00     0.113 C 
HETATM    2  C2  UNL     1       4.885   4.211   6.944  1.00  0.00    -0.097 C 
HETATM    3  C3  UNL     1       3.897   4.091   7.642  1.00  0.00    -0.015 C 
ENDROOT
BRANCH   3   4
HETATM    4  C4  UNL     1       2.751   3.929   8.455  1.00  0.00    -0.001 C 
HETATM    5  C5  UNL     1       1.768   3.773   9.142  1.00  0.00    -0.001 C 
BRANCH   5   6
HETATM    6  C6  UNL     1       0.617   3.570   9.939  1.00  0.00    -0.009 C 
HETATM    7  C7  UNL     1      -0.369   3.383  10.609  1.00  0.00    -0.053 C 
BRANCH   7   8
HETATM    8  C8  UNL     1      -1.540   3.183  11.410  1.00  0.00     0.022 A 
HETATM    9  C9  UNL     1      -2.311   2.030  11.311  1.00  0.00     0.038 A 
HETATM   10  C10 UNL     1      -3.432   1.905  12.116  1.00  0.00     0.093 A 
HETATM   11  N1  UNL     1      -3.775   2.872  12.978  1.00  0.00    -0.350 N 
HETATM   12  C17 UNL     1      -3.055   3.998  13.099  1.00  0.00     0.083 A 
HETATM   13 BR1  UNL     1      -3.560   5.379  14.341  1.00  0.00    -0.031 Br
HETATM   14  C18 UNL     1      -1.934   4.150  12.310  1.00  0.00     0.058 A 
BRANCH  11  15
HETATM   15  C11 UNL     1      -4.950   2.680  13.793  1.00  0.00     0.139 C 
BRANCH  15  16
HETATM   16  C12 UNL     1      -4.847   1.588  14.795  1.00  0.00     0.072 C 
HETATM   17  C13 UNL     1      -3.684   1.656  15.760  1.00  0.00     0.179 C 
HETATM   18  O1  UNL     1      -4.460   2.549  16.515  1.00  0.00    -0.370 OA
HETATM   19  C14 UNL     1      -5.583   1.827  16.060  1.00  0.00     0.141 C 
BRANCH  19  20
HETATM   20  C15 UNL     1      -5.815   0.581  16.882  1.00  0.00     0.271 C 
HETATM   21  O2  UNL     1      -6.989   0.280  17.051  1.00  0.00    -0.303 OA
ENDBRANCH  19  20
BRANCH  19  22
HETATM   22  C16 UNL     1      -6.795   2.687  16.059  1.00  0.00     0.210 C 
BRANCH  22  23
HETATM   23  O3  UNL     1      -7.010   3.318  17.285  1.00  0.00    -0.397 OA
ATOM     24  H3  UNL     1      -7.874   3.707  17.351  1.00  0.00     0.209 HD
ENDBRANCH  22  23
ENDBRANCH  19  22
ENDBRANCH  15  16
ENDBRANCH  11  15
ENDBRANCH   7   8
ENDBRANCH   5   6
ENDBRANCH   3   4
TORSDOF 8
ENDMDL
MODEL 3
REMARK VINA RESULT: -6.280687638      1.276      1.579
REMARK  8 active torsions:
REMARK  status: ('A' for Active; 'I' for Inactive)
REMARK    1  A    between atoms: C3_3  and  C4_4 
REMARK    2  A    between atoms: C5_5  and  C6_6 
REMARK    3  A    between atoms: C7_7  and  C8_8 
REMARK    4  A    between atoms: N1_11  and  C11_12 
REMARK    5  A    between atoms: C11_12  and  C12_13 
REMARK    6  A    between atoms: C14_16  and  C15_17 
REMARK    7  A    between atoms: C14_16  and  C16_19 
REMARK    8  A    between atoms: C16_19  and  O3_20 
ROOT
HETATM    1  C1  UNL     1       7.181   4.666   5.402  1.00  0.00     0.113 C 
HETATM    2  C2  UNL     1       5.968   4.495   6.194  1.00  0.00    -0.097 C 
HETATM    3  C3  UNL     1       4.951   4.345   6.843  1.00  0.00    -0.015 C 
ENDROOT
BRANCH   3   4
HETATM    4  C4  UNL     1       3.767   4.196   7.602  1.00  0.00    -0.001 C 
HETATM    5  C5  UNL     1       2.744   4.071   8.236  1.00  0.00    -0.001 C 
BRANCH   5   6
HETATM    6  C6  UNL     1       1.537   3.927   8.958  1.00  0.00    -0.009 C 
HETATM    7  C7  UNL     1       0.514   3.793   9.585  1.00  0.00    -0.053 C 
BRANCH   7   8
HETATM    8  C8  UNL     1      -0.712   3.638  10.311  1.00  0.00     0.022 A 
HETATM    9  C9  UNL     1      -1.168   2.394  10.728  1.00  0.00     0.038 A 
HETATM   10  C10 UNL     1      -2.363   2.319  11.425  1.00  0.00     0.093 A 
HETATM   11  N1  UNL     1      -3.074   3.422  11.698  1.00  0.00    -0.350 N 
HETATM   12  C17 UNL     1      -2.664   4.640  11.309  1.00  0.00     0.083 A 
HETATM   13 BR1  UNL     1      -3.696   6.215  11.707  1.00  0.00    -0.031 Br
HETATM   14  C18 UNL     1      -1.478   4.743  10.614  1.00  0.00     0.058 A 
BRANCH  11  15
HETATM   15  C11 UNL     1      -4.307   3.279  12.432  1.00  0.00     0.139 C 
BRANCH  15  16
HETATM   16  C12 UNL     1      -4.178   3.403  13.907  1.00  0.00     0.072 C 
HETATM   17  C13 UNL     1      -5.362   3.982  14.649  1.00  0.00     0.179 C 
HETATM   18  O1  UNL     1      -5.923   2.696  14.604  1.00  0.00    -0.370 OA
HETATM   19  C14 UNL     1      -4.602   2.208  14.676  1.00  0.00     0.141 C 
BRANCH  19  20
HETATM   20  C15 UNL     1      -4.095   2.179  16.099  1.00  0.00     0.271 C 
HETATM   21  O2  UNL     1      -3.142   1.437  16.297  1.00  0.00    -0.303 OA
ENDBRANCH  19  20
BRANCH  19  22
HETATM   22  C16 UNL     1      -4.505   0.860  14.058  1.00  0.00     0.210 C 
BRANCH  22  23
HETATM   23  O3  UNL     1      -4.868  -0.163  14.937  1.00  0.00    -0.397 OA
ATOM     24  H3  UNL     1      -4.133  -0.492  15.440  1.00  0.00     0.209 HD
ENDBRANCH  22  23
ENDBRANCH  19  22
ENDBRANCH  15  16
ENDBRANCH  11  15
ENDBRANCH   7   8
ENDBRANCH   5   6
ENDBRANCH   3   4
TORSDOF 8
ENDMDL
MODEL 4
REMARK VINA RESULT: -6.248593322      5.500      7.351
REMARK  8 active torsions:
REMARK  status: ('A' for Active; 'I' for Inactive)
REMARK    1  A    between atoms: C3_3  and  C4_4 
REMARK    2  A    between atoms: C5_5  and  C6_6 
REMARK    3  A    between atoms: C7_7  and  C8_8 
REMARK    4  A    between atoms: N1_11  and  C11_12 
REMARK    5  A    between atoms: C11_12  and  C12_13 
REMARK    6  A    between atoms: C14_16  and  C15_17 
REMARK    7  A    between atoms: C14_16  and  C16_19 
REMARK    8  A    between atoms: C16_19  and  O3_20 
ROOT
HETATM    1  C1  UNL     1       2.308  14.026  16.747  1.00  0.00     0.113 C 
HETATM    2  C2  UNL     1       1.548  12.846  16.349  1.00  0.00    -0.097 C 
HETATM    3  C3  UNL     1       0.904  11.869  16.021  1.00  0.00    -0.015 C 
ENDROOT
BRANCH   3   4
HETATM    4  C4  UNL     1       0.168  10.718  15.653  1.00  0.00    -0.001 C 
HETATM    5  C5  UNL     1      -0.454   9.725  15.353  1.00  0.00    -0.001 C 
BRANCH   5   6
HETATM    6  C6  UNL     1      -1.174   8.553  15.021  1.00  0.00    -0.009 C 
HETATM    7  C7  UNL     1      -1.776   7.544  14.744  1.00  0.00    -0.053 C 
BRANCH   7   8
HETATM    8  C8  UNL     1      -2.500   6.357  14.399  1.00  0.00     0.022 A 
HETATM    9  C9  UNL     1      -1.936   5.351  13.624  1.00  0.00     0.038 A 
HETATM   10  C10 UNL     1      -2.696   4.231  13.328  1.00  0.00     0.093 A 
HETATM   11  N1  UNL     1      -3.954   4.110  13.777  1.00  0.00    -0.350 N 
HETATM   12  C17 UNL     1      -4.529   5.062  14.527  1.00  0.00     0.083 A 
HETATM   13 BR1  UNL     1      -6.336   4.875  15.164  1.00  0.00    -0.031 Br
HETATM   14  C18 UNL     1      -3.796   6.188  14.837  1.00  0.00     0.058 A 
BRANCH  11  15
HETATM   15  C11 UNL     1      -4.691   2.917  13.439  1.00  0.00     0.139 C 
BRANCH  15  16
HETATM   16  C12 UNL     1      -3.857   1.762  13.018  1.00  0.00     0.072 C 
HETATM   17  C13 UNL     1      -4.444   0.384  13.230  1.00  0.00     0.179 C 
HETATM   18  O1  UNL     1      -5.141   0.578  12.028  1.00  0.00    -0.370 OA
HETATM   19  C14 UNL     1      -4.034   1.343  11.606  1.00  0.00     0.141 C 
BRANCH  19  20
HETATM   20  C15 UNL     1      -2.921   0.469  11.078  1.00  0.00     0.271 C 
HETATM   21  O2  UNL     1      -2.908   0.318   9.865  1.00  0.00    -0.303 OA
ENDBRANCH  19  20
BRANCH  19  22
HETATM   22  C16 UNL     1      -4.445   2.342  10.585  1.00  0.00     0.210 C 
BRANCH  22  23
HETATM   23  O3  UNL     1      -3.359   3.016  10.024  1.00  0.00    -0.397 OA
ATOM     24  H3  UNL     1      -3.597   3.514   9.250  1.00  0.00     0.209 HD
ENDBRANCH  22  23
ENDBRANCH  19  22
ENDBRANCH  15  16
ENDBRANCH  11  15
ENDBRANCH   7   8
ENDBRANCH   5   6
ENDBRANCH   3   4
TORSDOF 8
ENDMDL
MODEL 5
REMARK VINA RESULT: -6.216117527      1.380      2.091
REMARK  8 active torsions:
REMARK  status: ('A' for Active; 'I' for Inactive)
REMARK    1  A    between atoms: C3_3  and  C4_4 
REMARK    2  A    between atoms: C5_5  and  C6_6 
REMARK    3  A    between atoms: C7_7  and  C8_8 
REMARK    4  A    between atoms: N1_11  and  C11_12 
REMARK    5  A    between atoms: C11_12  and  C12_13 
REMARK    6  A    between atoms: C14_16  and  C15_17 
REMARK    7  A    between atoms: C14_16  and  C16_19 
REMARK    8  A    between atoms: C16_19  and  O3_20 
ROOT
HETATM    1  C1  UNL     1       6.055   4.606   6.017  1.00  0.00     0.113 C 
HETATM    2  C2  UNL     1       4.902   4.380   6.883  1.00  0.00    -0.097 C 
HETATM    3  C3  UNL     1       3.943   4.178   7.601  1.00  0.00    -0.015 C 
ENDROOT
BRANCH   3   4
HETATM    4  C4  UNL     1       2.814   3.960   8.425  1.00  0.00    -0.001 C 
HETATM    5  C5  UNL     1       1.838   3.786   9.119  1.00  0.00    -0.001 C 
BRANCH   5   6
HETATM    6  C6  UNL     1       0.685   3.592   9.914  1.00  0.00    -0.009 C 
HETATM    7  C7  UNL     1      -0.299   3.410  10.590  1.00  0.00    -0.053 C 
BRANCH   7   8
HETATM    8  C8  UNL     1      -1.473   3.215  11.388  1.00  0.00     0.022 A 
HETATM    9  C9  UNL     1      -1.868   4.134  12.352  1.00  0.00     0.038 A 
HETATM   10  C10 UNL     1      -3.015   3.880  13.087  1.00  0.00     0.093 A 
HETATM   11  N1  UNL     1      -3.738   2.770  12.879  1.00  0.00    -0.350 N 
HETATM   12  C17 UNL     1      -3.384   1.861  11.957  1.00  0.00     0.083 A 
HETATM   13 BR1  UNL     1      -4.431   0.272  11.670  1.00  0.00    -0.031 Br
HETATM   14  C18 UNL     1      -2.247   2.089  11.211  1.00  0.00     0.058 A 
BRANCH  11  15
HETATM   15  C11 UNL     1      -4.924   2.565  13.673  1.00  0.00     0.139 C 
BRANCH  15  16
HETATM   16  C12 UNL     1      -4.791   1.551  14.750  1.00  0.00     0.072 C 
HETATM   17  C13 UNL     1      -3.636   1.723  15.710  1.00  0.00     0.179 C 
HETATM   18  O1  UNL     1      -4.443   2.642  16.398  1.00  0.00    -0.370 OA
HETATM   19  C14 UNL     1      -5.540   1.854  15.993  1.00  0.00     0.141 C 
BRANCH  19  20
HETATM   20  C15 UNL     1      -5.737   0.663  16.901  1.00  0.00     0.271 C 
HETATM   21  O2  UNL     1      -6.895   0.288  17.024  1.00  0.00    -0.303 OA
ENDBRANCH  19  20
BRANCH  19  22
HETATM   22  C16 UNL     1      -6.779   2.673  15.928  1.00  0.00     0.210 C 
BRANCH  22  23
HETATM   23  O3  UNL     1      -7.046   3.344  17.123  1.00  0.00    -0.397 OA
ATOM     24  H3  UNL     1      -7.368   4.227  16.984  1.00  0.00     0.209 HD
ENDBRANCH  22  23
ENDBRANCH  19  22
ENDBRANCH  15  16
ENDBRANCH  11  15
ENDBRANCH   7   8
ENDBRANCH   5   6
ENDBRANCH   3   4
TORSDOF 8
ENDMDL
