MODEL 1
REMARK VINA RESULT: -6.851903075      0.000      0.000
REMARK  6 active torsions:
REMARK  status: ('A' for Active; 'I' for Inactive)
REMARK       I    between atoms: C2_2  and  N1_4 
REMARK    1  A    between atoms: N1_4  and  C3_6 
REMARK    2  A    between atoms: C3_6  and  C4_7 
REMARK    3  A    between atoms: C4_7  and  N2_8 
REMARK    4  A    between atoms: C8_15  and  C9_16 
REMARK    5  A    between atoms: C10_17  and  C11_18 
REMARK    6  A    between atoms: C12_20  and  N4_21 
REMARK       I    between atoms: N4_21  and  C13_23 
ROOT
HETATM    1  N2  UNL     1      -3.414   3.102  11.734  1.00  0.00    -0.333 N 
HETATM    2  C5  UNL     1      -2.027   3.298  11.400  1.00  0.00     0.180 C 
HETATM    3  S1  UNL     1      -1.335   2.350  10.271  1.00  0.00    -0.040 SA
HETATM    4  N3  UNL     1      -1.232   4.294  12.020  1.00  0.00    -0.298 N 
HETATM    5  C6  UNL     1       0.165   4.503  11.694  1.00  0.00     0.161 C 
HETATM    6  C7  UNL     1      -1.863   5.103  12.998  1.00  0.00     0.245 C 
HETATM    7  O2  UNL     1      -1.182   5.930  13.690  1.00  0.00    -0.271 OA
HETATM    8  C8  UNL     1      -3.304   5.025  13.254  1.00  0.00     0.200 C 
HETATM    9  C12 UNL     1      -3.879   3.651  12.959  1.00  0.00     0.213 C 
ENDROOT
BRANCH   1  10
HETATM   10  C4  UNL     1      -4.259   2.362  10.801  1.00  0.00     0.147 C 
BRANCH  10  11
HETATM   11  C3  UNL     1      -5.080   1.317  11.444  1.00  0.00     0.142 C 
BRANCH  11  12
HETATM   12  N1  UNL     1      -4.263   0.177  11.797  1.00  0.00    -0.360 N 
HETATM   13  C2  UNL     1      -3.651  -0.697  10.873  1.00  0.00     0.213 C 
HETATM   14  C1  UNL     1      -2.831  -1.855  11.290  1.00  0.00     0.117 C 
HETATM   15  O1  UNL     1      -3.797  -0.504   9.647  1.00  0.00    -0.274 OA
ATOM     16  H1  UNL     1      -4.118  -0.010  12.789  1.00  0.00     0.162 HD
ENDBRANCH  11  12
ENDBRANCH  10  11
ENDBRANCH   1  10
BRANCH   9  17
HETATM   17  N4  UNL     1      -3.619   2.850  14.139  1.00  0.00    -0.338 N 
HETATM   18  C13 UNL     1      -4.566   2.440  15.068  1.00  0.00     0.215 C 
HETATM   19  C14 UNL     1      -4.177   1.622  16.238  1.00  0.00     0.117 C 
HETATM   20  O3  UNL     1      -5.777   2.737  14.966  1.00  0.00    -0.274 OA
ATOM     21  H4  UNL     1      -2.654   2.561  14.302  1.00  0.00     0.164 HD
ENDBRANCH   9  17
BRANCH   8  22
HETATM   22  C9  UNL     1      -3.951   6.066  12.450  1.00  0.00    -0.087 C 
HETATM   23  C10 UNL     1      -4.491   6.908  11.775  1.00  0.00    -0.095 C 
BRANCH  23  24
HETATM   24  C11 UNL     1      -5.161   7.910  10.946  1.00  0.00     0.178 C 
HETATM   25 BR1  UNL     1      -7.070   7.763  11.126  1.00  0.00    -0.083 Br
ENDBRANCH  23  24
ENDBRANCH   8  22
TORSDOF 6
ENDMDL
MODEL 2
REMARK VINA RESULT: -6.731154067      3.186      5.205
REMARK  6 active torsions:
REMARK  status: ('A' for Active; 'I' for Inactive)
REMARK       I    between atoms: C2_2  and  N1_4 
REMARK    1  A    between atoms: N1_4  and  C3_6 
REMARK    2  A    between atoms: C3_6  and  C4_7 
REMARK    3  A    between atoms: C4_7  and  N2_8 
REMARK    4  A    between atoms: C8_15  and  C9_16 
REMARK    5  A    between atoms: C10_17  and  C11_18 
REMARK    6  A    between atoms: C12_20  and  N4_21 
REMARK       I    between atoms: N4_21  and  C13_23 
ROOT
HETATM    1  N2  UNL     1      -3.325   5.333  12.707  1.00  0.00    -0.333 N 
HETATM    2  C5  UNL     1      -2.050   5.397  12.041  1.00  0.00     0.180 C 
HETATM    3  S1  UNL     1      -0.775   6.049  12.818  1.00  0.00    -0.040 SA
HETATM    4  N3  UNL     1      -1.857   4.911  10.724  1.00  0.00    -0.298 N 
HETATM    5  C6  UNL     1      -0.579   4.969  10.041  1.00  0.00     0.161 C 
HETATM    6  C7  UNL     1      -2.986   4.350  10.075  1.00  0.00     0.245 C 
HETATM    7  O2  UNL     1      -2.923   4.010   8.848  1.00  0.00    -0.271 OA
HETATM    8  C8  UNL     1      -4.255   4.138  10.776  1.00  0.00     0.200 C 
HETATM    9  C12 UNL     1      -4.478   5.134  11.900  1.00  0.00     0.213 C 
ENDROOT
BRANCH   1  10
HETATM   10  C4  UNL     1      -3.361   5.469  14.160  1.00  0.00     0.147 C 
BRANCH  10  11
HETATM   11  C3  UNL     1      -2.999   4.232  14.881  1.00  0.00     0.142 C 
BRANCH  11  12
HETATM   12  N1  UNL     1      -4.170   3.407  15.089  1.00  0.00    -0.360 N 
HETATM   13  C2  UNL     1      -4.173   2.160  15.749  1.00  0.00     0.213 C 
HETATM   14  C1  UNL     1      -5.400   1.353  15.927  1.00  0.00     0.117 C 
HETATM   15  O1  UNL     1      -3.107   1.699  16.209  1.00  0.00    -0.274 OA
ATOM     16  H1  UNL     1      -5.060   3.753  14.731  1.00  0.00     0.162 HD
ENDBRANCH  11  12
ENDBRANCH  10  11
ENDBRANCH   1  10
BRANCH   9  17
HETATM   17  N4  UNL     1      -5.014   6.327  11.274  1.00  0.00    -0.338 N 
HETATM   18  C13 UNL     1      -6.203   6.958  11.614  1.00  0.00     0.215 C 
HETATM   19  C14 UNL     1      -6.647   8.174  10.899  1.00  0.00     0.117 C 
HETATM   20  O3  UNL     1      -6.948   6.539  12.528  1.00  0.00    -0.274 OA
ATOM     21  H4  UNL     1      -4.470   6.739  10.516  1.00  0.00     0.164 HD
ENDBRANCH   9  17
BRANCH   8  22
HETATM   22  C9  UNL     1      -4.262   2.757  11.268  1.00  0.00    -0.087 C 
HETATM   23  C10 UNL     1      -4.272   1.628  11.691  1.00  0.00    -0.095 C 
BRANCH  23  24
HETATM   24  C11 UNL     1      -4.296   0.266  12.226  1.00  0.00     0.178 C 
HETATM   25 BR1  UNL     1      -3.345  -0.931  11.060  1.00  0.00    -0.083 Br
ENDBRANCH  23  24
ENDBRANCH   8  22
TORSDOF 6
ENDMDL
MODEL 3
REMARK VINA RESULT: -6.559240225      1.187      1.190
REMARK  6 active torsions:
REMARK  status: ('A' for Active; 'I' for Inactive)
REMARK       I    between atoms: C2_2  and  N1_4 
REMARK    1  A    between atoms: N1_4  and  C3_6 
REMARK    2  A    between atoms: C3_6  and  C4_7 
REMARK    3  A    between atoms: C4_7  and  N2_8 
REMARK    4  A    between atoms: C8_15  and  C9_16 
REMARK    5  A    between atoms: C10_17  and  C11_18 
REMARK    6  A    between atoms: C12_20  and  N4_21 
REMARK       I    between atoms: N4_21  and  C13_23 
ROOT
HETATM    1  N2  UNL     1      -3.463   3.318  11.699  1.00  0.00    -0.333 N 
HETATM    2  C5  UNL     1      -2.174   3.953  11.604  1.00  0.00     0.180 C 
HETATM    3  S1  UNL     1      -1.116   3.448  10.473  1.00  0.00    -0.040 SA
HETATM    4  N3  UNL     1      -1.785   5.010  12.464  1.00  0.00    -0.298 N 
HETATM    5  C6  UNL     1      -0.491   5.659  12.379  1.00  0.00     0.161 C 
HETATM    6  C7  UNL     1      -2.727   5.426  13.437  1.00  0.00     0.245 C 
HETATM    7  O2  UNL     1      -2.403   6.280  14.327  1.00  0.00    -0.271 OA
HETATM    8  C8  UNL     1      -4.095   4.901  13.464  1.00  0.00     0.200 C 
HETATM    9  C12 UNL     1      -4.194   3.493  12.905  1.00  0.00     0.213 C 
ENDROOT
BRANCH   1  10
HETATM   10  C4  UNL     1      -3.944   2.541  10.560  1.00  0.00     0.147 C 
BRANCH  10  11
HETATM   11  C3  UNL     1      -4.875   1.457  10.932  1.00  0.00     0.142 C 
BRANCH  11  12
HETATM   12  N1  UNL     1      -4.243   0.167  10.761  1.00  0.00    -0.360 N 
HETATM   13  C2  UNL     1      -4.017  -0.767  11.795  1.00  0.00     0.213 C 
HETATM   14  C1  UNL     1      -3.357  -2.071  11.564  1.00  0.00     0.117 C 
HETATM   15  O1  UNL     1      -4.380  -0.502  12.960  1.00  0.00    -0.274 OA
ATOM     16  H1  UNL     1      -3.937  -0.087   9.822  1.00  0.00     0.162 HD
ENDBRANCH  11  12
ENDBRANCH  10  11
ENDBRANCH   1  10
BRANCH   9  17
HETATM   17  N4  UNL     1      -3.826   2.607  13.992  1.00  0.00    -0.338 N 
HETATM   18  C13 UNL     1      -4.652   2.215  15.036  1.00  0.00     0.215 C 
HETATM   19  C14 UNL     1      -4.159   1.303  16.091  1.00  0.00     0.117 C 
HETATM   20  O3  UNL     1      -5.836   2.605  15.137  1.00  0.00    -0.274 OA
ATOM     21  H4  UNL     1      -2.874   2.239  13.989  1.00  0.00     0.164 HD
ENDBRANCH   9  17
BRANCH   8  22
HETATM   22  C9  UNL     1      -4.942   5.839  12.720  1.00  0.00    -0.087 C 
HETATM   23  C10 UNL     1      -5.648   6.594  12.099  1.00  0.00    -0.095 C 
BRANCH  23  24
HETATM   24  C11 UNL     1      -6.521   7.491  11.341  1.00  0.00     0.178 C 
HETATM   25 BR1  UNL     1      -5.479   8.787  10.376  1.00  0.00    -0.083 Br
ENDBRANCH  23  24
ENDBRANCH   8  22
TORSDOF 6
ENDMDL
MODEL 4
REMARK VINA RESULT: -6.498718188      3.118      5.317
REMARK  6 active torsions:
REMARK  status: ('A' for Active; 'I' for Inactive)
REMARK       I    between atoms: C2_2  and  N1_4 
REMARK    1  A    between atoms: N1_4  and  C3_6 
REMARK    2  A    between atoms: C3_6  and  C4_7 
REMARK    3  A    between atoms: C4_7  and  N2_8 
REMARK    4  A    between atoms: C8_15  and  C9_16 
REMARK    5  A    between atoms: C10_17  and  C11_18 
REMARK    6  A    between atoms: C12_20  and  N4_21 
REMARK       I    between atoms: N4_21  and  C13_23 
ROOT
HETATM    1  N2  UNL     1      -4.078   4.564  12.891  1.00  0.00    -0.333 N 
HETATM    2  C5  UNL     1      -2.638   4.574  12.876  1.00  0.00     0.180 C 
HETATM    3  S1  UNL     1      -1.828   4.949  14.240  1.00  0.00    -0.040 SA
HETATM    4  N3  UNL     1      -1.890   4.268  11.713  1.00  0.00    -0.298 N 
HETATM    5  C6  UNL     1      -0.440   4.274  11.684  1.00  0.00     0.161 C 
HETATM    6  C7  UNL     1      -2.623   3.946  10.544  1.00  0.00     0.245 C 
HETATM    7  O2  UNL     1      -2.025   3.787   9.429  1.00  0.00    -0.271 OA
HETATM    8  C8  UNL     1      -4.080   3.785  10.564  1.00  0.00     0.200 C 
HETATM    9  C12 UNL     1      -4.747   4.624  11.639  1.00  0.00     0.213 C 
ENDROOT
BRANCH   1  10
HETATM   10  C4  UNL     1      -4.763   4.488  14.178  1.00  0.00     0.147 C 
BRANCH  10  11
HETATM   11  C3  UNL     1      -5.553   3.254  14.357  1.00  0.00     0.142 C 
BRANCH  11  12
HETATM   12  N1  UNL     1      -5.861   3.048  15.756  1.00  0.00    -0.360 N 
HETATM   13  C2  UNL     1      -5.888   1.794  16.403  1.00  0.00     0.213 C 
HETATM   14  C1  UNL     1      -6.217   1.641  17.837  1.00  0.00     0.117 C 
HETATM   15  O1  UNL     1      -5.628   0.758  15.756  1.00  0.00    -0.274 OA
ATOM     16  H1  UNL     1      -6.074   3.872  16.318  1.00  0.00     0.162 HD
ENDBRANCH  11  12
ENDBRANCH  10  11
ENDBRANCH   1  10
BRANCH   9  17
HETATM   17  N4  UNL     1      -4.895   5.951  11.074  1.00  0.00    -0.338 N 
HETATM   18  C13 UNL     1      -5.903   6.856  11.379  1.00  0.00     0.215 C 
HETATM   19  C14 UNL     1      -5.947   8.186  10.733  1.00  0.00     0.117 C 
HETATM   20  O3  UNL     1      -6.809   6.600  12.202  1.00  0.00    -0.274 OA
ATOM     21  H4  UNL     1      -4.197   6.246  10.391  1.00  0.00     0.164 HD
ENDBRANCH   9  17
BRANCH   8  22
HETATM   22  C9  UNL     1      -4.363   2.358  10.738  1.00  0.00    -0.087 C 
HETATM   23  C10 UNL     1      -4.583   1.179  10.866  1.00  0.00    -0.095 C 
BRANCH  23  24
HETATM   24  C11 UNL     1      -4.829  -0.257  11.007  1.00  0.00     0.178 C 
HETATM   25 BR1  UNL     1      -3.173  -1.201  11.261  1.00  0.00    -0.083 Br
ENDBRANCH  23  24
ENDBRANCH   8  22
TORSDOF 6
ENDMDL
MODEL 5
REMARK VINA RESULT: -6.428136120      3.169      5.201
REMARK  6 active torsions:
REMARK  status: ('A' for Active; 'I' for Inactive)
REMARK       I    between atoms: C2_2  and  N1_4 
REMARK    1  A    between atoms: N1_4  and  C3_6 
REMARK    2  A    between atoms: C3_6  and  C4_7 
REMARK    3  A    between atoms: C4_7  and  N2_8 
REMARK    4  A    between atoms: C8_15  and  C9_16 
REMARK    5  A    between atoms: C10_17  and  C11_18 
REMARK    6  A    between atoms: C12_20  and  N4_21 
REMARK       I    between atoms: N4_21  and  C13_23 
ROOT
HETATM    1  N2  UNL     1      -3.808   3.732  13.662  1.00  0.00    -0.333 N 
HETATM    2  C5  UNL     1      -4.681   4.836  13.359  1.00  0.00     0.180 C 
HETATM    3  S1  UNL     1      -5.679   5.406  14.513  1.00  0.00    -0.040 SA
HETATM    4  N3  UNL     1      -4.707   5.453  12.084  1.00  0.00    -0.298 N 
HETATM    5  C6  UNL     1      -5.580   6.565  11.764  1.00  0.00     0.161 C 
HETATM    6  C7  UNL     1      -3.827   4.935  11.101  1.00  0.00     0.245 C 
HETATM    7  O2  UNL     1      -3.884   5.351   9.897  1.00  0.00    -0.271 OA
HETATM    8  C8  UNL     1      -2.826   3.912  11.420  1.00  0.00     0.200 C 
HETATM    9  C12 UNL     1      -3.252   3.015  12.569  1.00  0.00     0.213 C 
ENDROOT
BRANCH   1  10
HETATM   10  C4  UNL     1      -3.541   3.418  15.063  1.00  0.00     0.147 C 
BRANCH  10  11
HETATM   11  C3  UNL     1      -3.943   2.051  15.452  1.00  0.00     0.142 C 
BRANCH  11  12
HETATM   12  N1  UNL     1      -5.348   2.014  15.792  1.00  0.00    -0.360 N 
HETATM   13  C2  UNL     1      -5.927   1.155  16.751  1.00  0.00     0.213 C 
HETATM   14  C1  UNL     1      -7.374   1.154  17.054  1.00  0.00     0.117 C 
HETATM   15  O1  UNL     1      -5.204   0.354  17.381  1.00  0.00    -0.274 OA
ATOM     16  H1  UNL     1      -5.969   2.658  15.301  1.00  0.00     0.162 HD
ENDBRANCH  11  12
ENDBRANCH  10  11
ENDBRANCH   1  10
BRANCH   9  17
HETATM   17  N4  UNL     1      -4.110   2.002  11.986  1.00  0.00    -0.338 N 
HETATM   18  C13 UNL     1      -3.687   0.815  11.404  1.00  0.00     0.215 C 
HETATM   19  C14 UNL     1      -4.662  -0.143  10.840  1.00  0.00     0.117 C 
HETATM   20  O3  UNL     1      -2.479   0.499  11.328  1.00  0.00    -0.274 OA
ATOM     21  H4  UNL     1      -5.115   2.178  12.005  1.00  0.00     0.164 HD
ENDBRANCH   9  17
BRANCH   8  22
HETATM   22  C9  UNL     1      -1.567   4.604  11.712  1.00  0.00    -0.087 C 
HETATM   23  C10 UNL     1      -0.530   5.178  11.932  1.00  0.00    -0.095 C 
BRANCH  23  24
HETATM   24  C11 UNL     1       0.727   5.887  12.177  1.00  0.00     0.178 C 
HETATM   25 BR1  UNL     1       2.205   4.914  11.423  1.00  0.00    -0.083 Br
ENDBRANCH  23  24
ENDBRANCH   8  22
TORSDOF 6
ENDMDL
