MODEL 1
REMARK VINA RESULT: -6.915898998      0.000      0.000
REMARK  9 active torsions:
REMARK  status: ('A' for Active; 'I' for Inactive)
REMARK    1  A    between atoms: N2_6  and  N3_8 
REMARK    2  A    between atoms: N3_8  and  O1_9 
REMARK    3  A    between atoms: N4_11  and  C4_13 
REMARK    4  A    between atoms: C4_13  and  C5_14 
REMARK    5  A    between atoms: C5_14  and  C6_15 
REMARK    6  A    between atoms: C7_16  and  C8_17 
REMARK    7  A    between atoms: C11_20  and  C12_21 
REMARK    8  A    between atoms: C12_21  and  C13_22 
REMARK    9  A    between atoms: C14_24  and  O2_25 
ROOT
HETATM    1  C8  UNL     1      -5.728   5.971  13.026  1.00  0.00    -0.015 C 
HETATM    2  C9  UNL     1      -5.470   6.594  12.021  1.00  0.00    -0.097 C 
HETATM    3  C10 UNL     1      -5.138   7.365  10.809  1.00  0.00     0.113 C 
ENDROOT
BRANCH   1   4
HETATM    4  C7  UNL     1      -6.047   5.258  14.218  1.00  0.00    -0.015 C 
HETATM    5  C6  UNL     1      -6.325   4.638  15.217  1.00  0.00    -0.091 C 
BRANCH   5   6
HETATM    6  C5  UNL     1      -6.680   3.875  16.415  1.00  0.00     0.116 C 
BRANCH   6   7
HETATM    7  C4  UNL     1      -6.581   2.381  16.109  1.00  0.00     0.155 C 
BRANCH   7   8
HETATM    8  N4  UNL     1      -5.329   1.857  16.552  1.00  0.00    -0.294 N 
HETATM    9  N3  UNL     1      -4.495   1.427  15.705  1.00  0.00    -0.098 N 
ATOM     10  H4  UNL     1      -5.109   1.830  17.548  1.00  0.00     0.184 HD
BRANCH   9  11
HETATM   11  N2  UNL     1      -4.710   1.425  14.326  1.00  0.00    -0.243 N 
HETATM   12  C3  UNL     1      -4.089   2.286  13.613  1.00  0.00     0.136 A 
HETATM   13  N1  UNL     1      -3.252   3.172  14.160  1.00  0.00    -0.341 N 
HETATM   14  C11 UNL     1      -4.319   2.267  12.224  1.00  0.00     0.040 A 
HETATM   15  C2  UNL     1      -2.596   4.086  13.379  1.00  0.00     0.033 A 
ATOM     16  H1  UNL     1      -3.100   3.168  15.168  1.00  0.00     0.167 HD
HETATM   17  C1  UNL     1      -1.782   4.934  13.990  1.00  0.00     0.043 C 
HETATM   18  C15 UNL     1      -2.801   4.090  12.033  1.00  0.00    -0.002 A 
HETATM   19  C14 UNL     1      -3.677   3.169  11.423  1.00  0.00     0.087 A 
HETATM   20  C16 UNL     1      -2.117   5.055  11.141  1.00  0.00     0.053 C 
ATOM     21  H2  UNL     1      -5.347   0.754  13.898  1.00  0.00     0.193 HD
BRANCH  19  22
HETATM   22  O2  UNL     1      -3.855   3.208  10.053  1.00  0.00    -0.359 OA
ATOM     23  H2  UNL     1      -4.020   2.428   9.535  1.00  0.00     0.217 HD
ENDBRANCH  19  22
BRANCH  14  24
HETATM   24  C12 UNL     1      -5.152   1.366  11.777  1.00  0.00     0.002 C 
BRANCH  24  25
HETATM   25  C13 UNL     1      -4.843   0.283  10.836  1.00  0.00     0.113 C 
HETATM   26 BR1  UNL     1      -3.189  -0.646  11.261  1.00  0.00    -0.092 Br
ENDBRANCH  24  25
ENDBRANCH  14  24
ENDBRANCH   9  11
BRANCH   9  27
HETATM   27  O1  UNL     1      -3.304   0.930  16.165  1.00  0.00    -0.254 OA
ATOM     28  H1  UNL     1      -2.505   1.339  15.853  1.00  0.00     0.248 HD
ENDBRANCH   9  27
ENDBRANCH   7   8
ENDBRANCH   6   7
ENDBRANCH   5   6
ENDBRANCH   1   4
TORSDOF 9
ENDMDL
MODEL 2
REMARK VINA RESULT: -6.244682309      3.237      5.244
REMARK  9 active torsions:
REMARK  status: ('A' for Active; 'I' for Inactive)
REMARK    1  A    between atoms: N2_6  and  N3_8 
REMARK    2  A    between atoms: N3_8  and  O1_9 
REMARK    3  A    between atoms: N4_11  and  C4_13 
REMARK    4  A    between atoms: C4_13  and  C5_14 
REMARK    5  A    between atoms: C5_14  and  C6_15 
REMARK    6  A    between atoms: C7_16  and  C8_17 
REMARK    7  A    between atoms: C11_20  and  C12_21 
REMARK    8  A    between atoms: C12_21  and  C13_22 
REMARK    9  A    between atoms: C14_24  and  O2_25 
ROOT
HETATM    1  C8  UNL     1      -1.294  10.293  14.374  1.00  0.00    -0.015 C 
HETATM    2  C9  UNL     1      -1.040  11.476  14.372  1.00  0.00    -0.097 C 
HETATM    3  C10 UNL     1      -0.727  12.917  14.394  1.00  0.00     0.113 C 
ENDROOT
BRANCH   1   4
HETATM    4  C7  UNL     1      -1.616   8.904  14.387  1.00  0.00    -0.015 C 
HETATM    5  C6  UNL     1      -1.881   7.726  14.378  1.00  0.00    -0.091 C 
BRANCH   5   6
HETATM    6  C5  UNL     1      -2.203   6.298  14.342  1.00  0.00     0.116 C 
BRANCH   6   7
HETATM    7  C4  UNL     1      -2.958   5.983  13.052  1.00  0.00     0.155 C 
BRANCH   7   8
HETATM    8  N4  UNL     1      -4.357   6.222  13.215  1.00  0.00    -0.294 N 
HETATM    9  N3  UNL     1      -5.151   5.244  13.318  1.00  0.00    -0.098 N 
ATOM     10  H4  UNL     1      -4.713   7.177  13.248  1.00  0.00     0.184 HD
BRANCH   9  11
HETATM   11  N2  UNL     1      -4.755   3.907  13.285  1.00  0.00    -0.243 N 
HETATM   12  C3  UNL     1      -5.102   3.145  14.252  1.00  0.00     0.136 A 
HETATM   13  N1  UNL     1      -5.825   3.605  15.277  1.00  0.00    -0.341 N 
HETATM   14  C11 UNL     1      -4.693   1.799  14.200  1.00  0.00     0.040 A 
HETATM   15  C2  UNL     1      -6.186   2.774  16.304  1.00  0.00     0.033 A 
ATOM     16  H1  UNL     1      -6.110   4.584  15.295  1.00  0.00     0.167 HD
HETATM   17  C1  UNL     1      -6.903   3.299  17.287  1.00  0.00     0.043 C 
HETATM   18  C15 UNL     1      -5.803   1.468  16.278  1.00  0.00    -0.002 A 
HETATM   19  C14 UNL     1      -5.040   0.949  15.212  1.00  0.00     0.087 A 
HETATM   20  C16 UNL     1      -6.167   0.524  17.360  1.00  0.00     0.053 C 
ATOM     21  H2  UNL     1      -4.202   3.545  12.508  1.00  0.00     0.193 HD
BRANCH  19  22
HETATM   22  O2  UNL     1      -4.673  -0.383  15.225  1.00  0.00    -0.359 OA
ATOM     23  H2  UNL     1      -5.239  -1.067  15.563  1.00  0.00     0.217 HD
ENDBRANCH  19  22
BRANCH  14  24
HETATM   24  C12 UNL     1      -3.989   1.438  13.159  1.00  0.00     0.002 C 
BRANCH  24  25
HETATM   25  C13 UNL     1      -4.509   0.872  11.908  1.00  0.00     0.113 C 
HETATM   26 BR1  UNL     1      -3.993  -0.982  11.641  1.00  0.00    -0.092 Br
ENDBRANCH  24  25
ENDBRANCH  14  24
ENDBRANCH   9  11
BRANCH   9  27
HETATM   27  O1  UNL     1      -6.487   5.509  13.473  1.00  0.00    -0.254 OA
ATOM     28  H1  UNL     1      -6.930   5.968  12.770  1.00  0.00     0.248 HD
ENDBRANCH   9  27
ENDBRANCH   7   8
ENDBRANCH   6   7
ENDBRANCH   5   6
ENDBRANCH   1   4
TORSDOF 9
ENDMDL
MODEL 3
REMARK VINA RESULT: -6.074432255      2.431      4.559
REMARK  9 active torsions:
REMARK  status: ('A' for Active; 'I' for Inactive)
REMARK    1  A    between atoms: N2_6  and  N3_8 
REMARK    2  A    between atoms: N3_8  and  O1_9 
REMARK    3  A    between atoms: N4_11  and  C4_13 
REMARK    4  A    between atoms: C4_13  and  C5_14 
REMARK    5  A    between atoms: C5_14  and  C6_15 
REMARK    6  A    between atoms: C7_16  and  C8_17 
REMARK    7  A    between atoms: C11_20  and  C12_21 
REMARK    8  A    between atoms: C12_21  and  C13_22 
REMARK    9  A    between atoms: C14_24  and  O2_25 
ROOT
HETATM    1  C8  UNL     1      -6.282   3.255  15.662  1.00  0.00    -0.015 C 
HETATM    2  C9  UNL     1      -6.655   2.401  16.433  1.00  0.00    -0.097 C 
HETATM    3  C10 UNL     1      -7.112   1.344  17.355  1.00  0.00     0.113 C 
ENDROOT
BRANCH   1   4
HETATM    4  C7  UNL     1      -5.867   4.265  14.746  1.00  0.00    -0.015 C 
HETATM    5  C6  UNL     1      -5.532   5.132  13.974  1.00  0.00    -0.091 C 
BRANCH   5   6
HETATM    6  C5  UNL     1      -5.150   6.190  13.037  1.00  0.00     0.116 C 
BRANCH   6   7
HETATM    7  C4  UNL     1      -3.658   6.077  12.728  1.00  0.00     0.155 C 
BRANCH   7   8
HETATM    8  N4  UNL     1      -2.939   5.620  13.875  1.00  0.00    -0.294 N 
HETATM    9  N3  UNL     1      -2.103   4.679  13.756  1.00  0.00    -0.098 N 
ATOM     10  H4  UNL     1      -3.099   6.051  14.785  1.00  0.00     0.184 HD
BRANCH   9  11
HETATM   11  N2  UNL     1      -1.819   4.032  12.553  1.00  0.00    -0.243 N 
HETATM   12  C3  UNL     1      -2.380   2.906  12.321  1.00  0.00     0.136 A 
HETATM   13  N1  UNL     1      -3.219   2.350  13.199  1.00  0.00    -0.341 N 
HETATM   14  C11 UNL     1      -2.080   2.270  11.102  1.00  0.00     0.040 A 
HETATM   15  C2  UNL     1      -3.809   1.144  12.932  1.00  0.00     0.033 A 
ATOM     16  H1  UNL     1      -3.422   2.829  14.076  1.00  0.00     0.167 HD
HETATM   17  C1  UNL     1      -4.630   0.653  13.849  1.00  0.00     0.043 C 
HETATM   18  C15 UNL     1      -3.536   0.507  11.761  1.00  0.00    -0.002 A 
HETATM   19  C14 UNL     1      -2.655   1.065  10.811  1.00  0.00     0.087 A 
HETATM   20  C16 UNL     1      -4.147  -0.799  11.419  1.00  0.00     0.053 C 
ATOM     21  H2  UNL     1      -1.179   4.446  11.876  1.00  0.00     0.193 HD
BRANCH  19  22
HETATM   22  O2  UNL     1      -2.407   0.384   9.634  1.00  0.00    -0.359 OA
ATOM     23  H2  UNL     1      -3.019  -0.241   9.264  1.00  0.00     0.217 HD
ENDBRANCH  19  22
BRANCH  14  24
HETATM   24  C12 UNL     1      -1.250   2.887  10.303  1.00  0.00     0.002 C 
BRANCH  24  25
HETATM   25  C13 UNL     1      -1.605   3.812   9.221  1.00  0.00     0.113 C 
HETATM   26 BR1  UNL     1      -0.275   3.871   7.805  1.00  0.00    -0.092 Br
ENDBRANCH  24  25
ENDBRANCH  14  24
ENDBRANCH   9  11
BRANCH   9  27
HETATM   27  O1  UNL     1      -1.431   4.265  14.877  1.00  0.00    -0.254 OA
ATOM     28  H1  UNL     1      -1.854   4.394  15.717  1.00  0.00     0.248 HD
ENDBRANCH   9  27
ENDBRANCH   7   8
ENDBRANCH   6   7
ENDBRANCH   5   6
ENDBRANCH   1   4
TORSDOF 9
ENDMDL
MODEL 4
REMARK VINA RESULT: -6.051126676      2.438      4.947
REMARK  9 active torsions:
REMARK  status: ('A' for Active; 'I' for Inactive)
REMARK    1  A    between atoms: N2_6  and  N3_8 
REMARK    2  A    between atoms: N3_8  and  O1_9 
REMARK    3  A    between atoms: N4_11  and  C4_13 
REMARK    4  A    between atoms: C4_13  and  C5_14 
REMARK    5  A    between atoms: C5_14  and  C6_15 
REMARK    6  A    between atoms: C7_16  and  C8_17 
REMARK    7  A    between atoms: C11_20  and  C12_21 
REMARK    8  A    between atoms: C12_21  and  C13_22 
REMARK    9  A    between atoms: C14_24  and  O2_25 
ROOT
HETATM    1  C8  UNL     1      -1.541   6.854  13.437  1.00  0.00    -0.015 C 
HETATM    2  C9  UNL     1      -1.813   7.585  14.361  1.00  0.00    -0.097 C 
HETATM    3  C10 UNL     1      -2.166   8.464  15.491  1.00  0.00     0.113 C 
ENDROOT
BRANCH   1   4
HETATM    4  C7  UNL     1      -1.238   6.004  12.333  1.00  0.00    -0.015 C 
HETATM    5  C6  UNL     1      -0.960   5.288  11.401  1.00  0.00    -0.091 C 
BRANCH   5   6
HETATM    6  C5  UNL     1      -0.601   4.429  10.270  1.00  0.00     0.116 C 
BRANCH   6   7
HETATM    7  C4  UNL     1      -1.813   3.591   9.868  1.00  0.00     0.155 C 
BRANCH   7   8
HETATM    8  N4  UNL     1      -2.993   4.396   9.829  1.00  0.00    -0.294 N 
HETATM    9  N3  UNL     1      -4.084   3.929  10.263  1.00  0.00    -0.098 N 
ATOM     10  H4  UNL     1      -2.954   5.343   9.452  1.00  0.00     0.184 HD
BRANCH   9  11
HETATM   11  N2  UNL     1      -4.231   2.647  10.794  1.00  0.00    -0.243 N 
HETATM   12  C3  UNL     1      -4.285   2.519  12.066  1.00  0.00     0.136 A 
HETATM   13  N1  UNL     1      -4.203   3.576  12.878  1.00  0.00    -0.341 N 
HETATM   14  C11 UNL     1      -4.434   1.218  12.582  1.00  0.00     0.040 A 
HETATM   15  C2  UNL     1      -4.263   3.419  14.237  1.00  0.00     0.033 A 
ATOM     16  H1  UNL     1      -4.096   4.510  12.482  1.00  0.00     0.167 HD
HETATM   17  C1  UNL     1      -4.175   4.511  14.980  1.00  0.00     0.043 C 
HETATM   18  C15 UNL     1      -4.406   2.171  14.763  1.00  0.00    -0.002 A 
HETATM   19  C14 UNL     1      -4.496   1.033  13.935  1.00  0.00     0.087 A 
HETATM   20  C16 UNL     1      -4.478   1.942  16.224  1.00  0.00     0.053 C 
ATOM     21  H2  UNL     1      -4.293   1.833  10.184  1.00  0.00     0.193 HD
BRANCH  19  22
HETATM   22  O2  UNL     1      -4.641  -0.215  14.510  1.00  0.00    -0.359 OA
ATOM     23  H2  UNL     1      -3.929  -0.662  14.953  1.00  0.00     0.217 HD
ENDBRANCH  19  22
BRANCH  14  24
HETATM   24  C12 UNL     1      -4.506   0.244  11.714  1.00  0.00     0.002 C 
BRANCH  24  25
HETATM   25  C13 UNL     1      -3.385  -0.359  10.984  1.00  0.00     0.113 C 
HETATM   26 BR1  UNL     1      -3.150  -2.247  11.376  1.00  0.00    -0.092 Br
ENDBRANCH  24  25
ENDBRANCH  14  24
ENDBRANCH   9  11
BRANCH   9  27
HETATM   27  O1  UNL     1      -5.196   4.728  10.210  1.00  0.00    -0.254 OA
ATOM     28  H1  UNL     1      -5.271   5.332   9.481  1.00  0.00     0.248 HD
ENDBRANCH   9  27
ENDBRANCH   7   8
ENDBRANCH   6   7
ENDBRANCH   5   6
ENDBRANCH   1   4
TORSDOF 9
ENDMDL
MODEL 5
REMARK VINA RESULT: -5.956010483      2.776      5.031
REMARK  9 active torsions:
REMARK  status: ('A' for Active; 'I' for Inactive)
REMARK    1  A    between atoms: N2_6  and  N3_8 
REMARK    2  A    between atoms: N3_8  and  O1_9 
REMARK    3  A    between atoms: N4_11  and  C4_13 
REMARK    4  A    between atoms: C4_13  and  C5_14 
REMARK    5  A    between atoms: C5_14  and  C6_15 
REMARK    6  A    between atoms: C7_16  and  C8_17 
REMARK    7  A    between atoms: C11_20  and  C12_21 
REMARK    8  A    between atoms: C12_21  and  C13_22 
REMARK    9  A    between atoms: C14_24  and  O2_25 
ROOT
HETATM    1  C8  UNL     1      -0.691   2.971  11.281  1.00  0.00    -0.015 C 
HETATM    2  C9  UNL     1      -0.191   4.063  11.422  1.00  0.00    -0.097 C 
HETATM    3  C10 UNL     1       0.425   5.389  11.616  1.00  0.00     0.113 C 
ENDROOT
BRANCH   1   4
HETATM    4  C7  UNL     1      -1.300   1.691  11.130  1.00  0.00    -0.015 C 
HETATM    5  C6  UNL     1      -1.827   0.610  11.017  1.00  0.00    -0.091 C 
BRANCH   5   6
HETATM    6  C5  UNL     1      -2.474  -0.699  10.905  1.00  0.00     0.116 C 
BRANCH   6   7
HETATM    7  C4  UNL     1      -3.765  -0.696  11.723  1.00  0.00     0.155 C 
BRANCH   7   8
HETATM    8  N4  UNL     1      -4.790   0.033  11.045  1.00  0.00    -0.294 N 
HETATM    9  N3  UNL     1      -5.190   1.135  11.516  1.00  0.00    -0.098 N 
ATOM     10  H4  UNL     1      -5.197  -0.336  10.185  1.00  0.00     0.184 HD
BRANCH   9  11
HETATM   11  N2  UNL     1      -4.691   1.715  12.683  1.00  0.00    -0.243 N 
HETATM   12  C3  UNL     1      -4.275   2.924  12.631  1.00  0.00     0.136 A 
HETATM   13  N1  UNL     1      -4.308   3.626  11.495  1.00  0.00    -0.341 N 
HETATM   14  C11 UNL     1      -3.776   3.491  13.819  1.00  0.00     0.040 A 
HETATM   15  C2  UNL     1      -3.856   4.918  11.460  1.00  0.00     0.033 A 
ATOM     16  H1  UNL     1      -4.673   3.195  10.646  1.00  0.00     0.167 HD
HETATM   17  C1  UNL     1      -3.920   5.553  10.299  1.00  0.00     0.043 C 
HETATM   18  C15 UNL     1      -3.369   5.490  12.595  1.00  0.00    -0.002 A 
HETATM   19  C14 UNL     1      -3.319   4.779  13.812  1.00  0.00     0.087 A 
HETATM   20  C16 UNL     1      -2.869   6.885  12.616  1.00  0.00     0.053 C 
ATOM     21  H2  UNL     1      -4.660   1.189  13.555  1.00  0.00     0.193 HD
BRANCH  19  22
HETATM   22  O2  UNL     1      -2.817   5.398  14.940  1.00  0.00    -0.359 OA
ATOM     23  H2  UNL     1      -3.030   6.295  15.170  1.00  0.00     0.217 HD
ENDBRANCH  19  22
BRANCH  14  24
HETATM   24  C12 UNL     1      -3.783   2.731  14.882  1.00  0.00     0.002 C 
BRANCH  24  25
HETATM   25  C13 UNL     1      -4.831   2.674  15.908  1.00  0.00     0.113 C 
HETATM   26 BR1  UNL     1      -6.377   3.770  15.476  1.00  0.00    -0.092 Br
ENDBRANCH  24  25
ENDBRANCH  14  24
ENDBRANCH   9  11
BRANCH   9  27
HETATM   27  O1  UNL     1      -6.175   1.808  10.840  1.00  0.00    -0.254 OA
ATOM     28  H1  UNL     1      -6.439   1.469   9.993  1.00  0.00     0.248 HD
ENDBRANCH   9  27
ENDBRANCH   7   8
ENDBRANCH   6   7
ENDBRANCH   5   6
ENDBRANCH   1   4
TORSDOF 9
ENDMDL
