MODEL 1
REMARK VINA RESULT: -7.134124418      0.000      0.000
REMARK  5 active torsions:
REMARK  status: ('A' for Active; 'I' for Inactive)
REMARK    1  A    between atoms: O1_2  and  C2_3 
REMARK    2  A    between atoms: C5_6  and  C6_7 
REMARK    3  A    between atoms: C6_7  and  C7_8 
REMARK    4  A    between atoms: C8_9  and  C9_10 
REMARK       I    between atoms: C9_10  and  N1_12 
REMARK    5  A    between atoms: C12_15  and  C13_16 
ROOT
HETATM    1  C2  UNL     1      21.242  22.379   2.796  1.00  0.00     0.061 C 
HETATM    2  C3  UNL     1      20.475  22.683   4.027  1.00  0.00     0.039 C 
HETATM    3  C4  UNL     1      20.197  24.158   4.217  1.00  0.00     0.013 C 
HETATM    4  C5  UNL     1      19.513  24.792   3.052  1.00  0.00    -0.029 C 
HETATM    5  C14 UNL     1      18.697  23.865   2.218  1.00  0.00     0.015 C 
HETATM    6  C15 UNL     1      19.443  23.077   1.208  1.00  0.00    -0.011 C 
HETATM    7  C16 UNL     1      20.407  23.960   0.442  1.00  0.00     0.009 C 
HETATM    8  C17 UNL     1      21.344  24.538   1.472  1.00  0.00    -0.011 C 
HETATM    9  C18 UNL     1      20.554  25.553   2.266  1.00  0.00     0.015 C 
HETATM   10  C19 UNL     1      22.066  23.542   2.295  1.00  0.00     0.042 C 
HETATM   11  C20 UNL     1      20.227  21.924   1.735  1.00  0.00     0.042 C 
ENDROOT
BRANCH   4  12
HETATM   12  C6  UNL     1      18.552  25.846   3.616  1.00  0.00     0.104 C 
BRANCH  12  13
HETATM   13  C7  UNL     1      17.745  25.177   4.634  1.00  0.00    -0.096 C 
HETATM   14  C8  UNL     1      17.076  24.598   5.477  1.00  0.00    -0.005 C 
BRANCH  14  15
HETATM   15  C9  UNL     1      16.301  23.897   6.463  1.00  0.00     0.299 C 
HETATM   16  O2  UNL     1      15.803  24.572   7.396  1.00  0.00    -0.258 OA
HETATM   17  N1  UNL     1      16.105  22.489   6.384  1.00  0.00    -0.327 N 
HETATM   18  C10 UNL     1      16.544  21.473   5.449  1.00  0.00     0.130 C 
HETATM   19  C12 UNL     1      15.433  21.471   7.128  1.00  0.00     0.190 C 
HETATM   20  C11 UNL     1      16.430  20.462   6.566  1.00  0.00     0.056 C 
BRANCH  19  21
HETATM   21  C13 UNL     1      14.086  21.192   6.576  1.00  0.00     0.197 C 
HETATM   22  O3  UNL     1      13.609  20.016   6.515  1.00  0.00    -0.646 OA
HETATM   23  O4  UNL     1      13.279  22.230   6.095  1.00  0.00    -0.646 OA
ENDBRANCH  19  21
ENDBRANCH  14  15
ENDBRANCH  12  13
ENDBRANCH   4  12
BRANCH   1  24
HETATM   24  O1  UNL     1      22.120  21.314   2.917  1.00  0.00    -0.385 OA
HETATM   25  C1  UNL     1      21.749  20.303   3.748  1.00  0.00     0.202 C 
ENDBRANCH   1  24
TORSDOF 5
ENDMDL
MODEL 2
REMARK VINA RESULT: -7.048852446      1.987      4.100
REMARK  5 active torsions:
REMARK  status: ('A' for Active; 'I' for Inactive)
REMARK    1  A    between atoms: O1_2  and  C2_3 
REMARK    2  A    between atoms: C5_6  and  C6_7 
REMARK    3  A    between atoms: C6_7  and  C7_8 
REMARK    4  A    between atoms: C8_9  and  C9_10 
REMARK       I    between atoms: C9_10  and  N1_12 
REMARK    5  A    between atoms: C12_15  and  C13_16 
ROOT
HETATM    1  C2  UNL     1      21.150  23.581   1.208  1.00  0.00     0.061 C 
HETATM    2  C3  UNL     1      19.970  23.056   0.482  1.00  0.00     0.039 C 
HETATM    3  C4  UNL     1      19.152  22.071   1.289  1.00  0.00     0.013 C 
HETATM    4  C5  UNL     1      18.709  22.607   2.610  1.00  0.00    -0.029 C 
HETATM    5  C14 UNL     1      18.582  24.090   2.680  1.00  0.00     0.015 C 
HETATM    6  C15 UNL     1      19.840  24.835   2.927  1.00  0.00    -0.011 C 
HETATM    7  C16 UNL     1      20.631  24.197   4.052  1.00  0.00     0.009 C 
HETATM    8  C17 UNL     1      20.921  22.787   3.604  1.00  0.00    -0.011 C 
HETATM    9  C18 UNL     1      19.616  22.026   3.669  1.00  0.00     0.015 C 
HETATM   10  C19 UNL     1      21.634  22.672   2.312  1.00  0.00     0.042 C 
HETATM   11  C20 UNL     1      20.759  24.961   1.761  1.00  0.00     0.042 C 
ENDROOT
BRANCH   4  12
HETATM   12  C6  UNL     1      17.314  22.028   2.883  1.00  0.00     0.104 C 
BRANCH  12  13
HETATM   13  C7  UNL     1      16.794  22.722   4.059  1.00  0.00    -0.096 C 
HETATM   14  C8  UNL     1      16.372  23.321   5.038  1.00  0.00    -0.005 C 
BRANCH  14  15
HETATM   15  C9  UNL     1      15.882  24.045   6.178  1.00  0.00     0.299 C 
HETATM   16  O2  UNL     1      15.147  23.425   6.985  1.00  0.00    -0.258 OA
HETATM   17  N1  UNL     1      16.219  25.412   6.385  1.00  0.00    -0.327 N 
HETATM   18  C10 UNL     1      17.025  26.363   5.646  1.00  0.00     0.130 C 
HETATM   19  C12 UNL     1      15.948  26.434   7.346  1.00  0.00     0.190 C 
HETATM   20  C11 UNL     1      16.192  27.468   6.251  1.00  0.00     0.056 C 
BRANCH  19  21
HETATM   21  C13 UNL     1      17.026  26.528   8.360  1.00  0.00     0.197 C 
HETATM   22  O3  UNL     1      17.001  27.384   9.298  1.00  0.00    -0.646 OA
HETATM   23  O4  UNL     1      18.126  25.664   8.317  1.00  0.00    -0.646 OA
ENDBRANCH  19  21
ENDBRANCH  14  15
ENDBRANCH  12  13
ENDBRANCH   4  12
BRANCH   1  24
HETATM   24  O1  UNL     1      22.253  23.827   0.405  1.00  0.00    -0.385 OA
HETATM   25  C1  UNL     1      23.245  24.587   0.942  1.00  0.00     0.202 C 
ENDBRANCH   1  24
TORSDOF 5
ENDMDL
MODEL 3
REMARK VINA RESULT: -6.966798282      2.673      3.735
REMARK  5 active torsions:
REMARK  status: ('A' for Active; 'I' for Inactive)
REMARK    1  A    between atoms: O1_2  and  C2_3 
REMARK    2  A    between atoms: C5_6  and  C6_7 
REMARK    3  A    between atoms: C6_7  and  C7_8 
REMARK    4  A    between atoms: C8_9  and  C9_10 
REMARK       I    between atoms: C9_10  and  N1_12 
REMARK    5  A    between atoms: C12_15  and  C13_16 
ROOT
HETATM    1  C2  UNL     1      20.911  21.732   3.086  1.00  0.00     0.061 C 
HETATM    2  C3  UNL     1      20.373  22.619   4.144  1.00  0.00     0.039 C 
HETATM    3  C4  UNL     1      20.653  24.087   3.902  1.00  0.00     0.013 C 
HETATM    4  C5  UNL     1      20.178  24.573   2.574  1.00  0.00    -0.029 C 
HETATM    5  C14 UNL     1      19.038  23.809   1.992  1.00  0.00     0.015 C 
HETATM    6  C15 UNL     1      19.395  22.559   1.279  1.00  0.00    -0.011 C 
HETATM    7  C16 UNL     1      20.567  22.787   0.346  1.00  0.00     0.009 C 
HETATM    8  C17 UNL     1      21.706  23.252   1.220  1.00  0.00    -0.011 C 
HETATM    9  C18 UNL     1      21.377  24.661   1.660  1.00  0.00     0.015 C 
HETATM   10  C19 UNL     1      22.067  22.333   2.322  1.00  0.00     0.042 C 
HETATM   11  C20 UNL     1      19.743  21.396   2.144  1.00  0.00     0.042 C 
ENDROOT
BRANCH   4  12
HETATM   12  C6  UNL     1      19.691  26.015   2.773  1.00  0.00     0.104 C 
BRANCH  12  13
HETATM   13  C7  UNL     1      18.589  25.957   3.732  1.00  0.00    -0.096 C 
HETATM   14  C8  UNL     1      17.681  25.919   4.549  1.00  0.00    -0.005 C 
BRANCH  14  15
HETATM   15  C9  UNL     1      16.624  25.891   5.522  1.00  0.00     0.299 C 
HETATM   16  O2  UNL     1      15.862  24.893   5.521  1.00  0.00    -0.258 OA
HETATM   17  N1  UNL     1      16.448  26.954   6.452  1.00  0.00    -0.327 N 
HETATM   18  C10 UNL     1      17.152  28.199   6.687  1.00  0.00     0.130 C 
HETATM   19  C12 UNL     1      15.564  27.286   7.523  1.00  0.00     0.190 C 
HETATM   20  C11 UNL     1      15.873  28.758   7.265  1.00  0.00     0.056 C 
BRANCH  19  21
HETATM   21  C13 UNL     1      16.125  26.889   8.837  1.00  0.00     0.197 C 
HETATM   22  O3  UNL     1      15.792  27.465   9.918  1.00  0.00    -0.646 OA
HETATM   23  O4  UNL     1      17.056  25.848   8.932  1.00  0.00    -0.646 OA
ENDBRANCH  19  21
ENDBRANCH  14  15
ENDBRANCH  12  13
ENDBRANCH   4  12
BRANCH   1  24
HETATM   24  O1  UNL     1      21.355  20.501   3.542  1.00  0.00    -0.385 OA
HETATM   25  C1  UNL     1      20.481  19.770   4.287  1.00  0.00     0.202 C 
ENDBRANCH   1  24
TORSDOF 5
ENDMDL
MODEL 4
REMARK VINA RESULT: -6.904067045      1.990      4.236
REMARK  5 active torsions:
REMARK  status: ('A' for Active; 'I' for Inactive)
REMARK    1  A    between atoms: O1_2  and  C2_3 
REMARK    2  A    between atoms: C5_6  and  C6_7 
REMARK    3  A    between atoms: C6_7  and  C7_8 
REMARK    4  A    between atoms: C8_9  and  C9_10 
REMARK       I    between atoms: C9_10  and  N1_12 
REMARK    5  A    between atoms: C12_15  and  C13_16 
ROOT
HETATM    1  C2  UNL     1      20.195  23.884   1.883  1.00  0.00     0.061 C 
HETATM    2  C3  UNL     1      18.860  24.194   2.445  1.00  0.00     0.039 C 
HETATM    3  C4  UNL     1      17.898  23.027   2.398  1.00  0.00     0.013 C 
HETATM    4  C5  UNL     1      18.424  21.795   3.054  1.00  0.00    -0.029 C 
HETATM    5  C14 UNL     1      19.437  22.030   4.122  1.00  0.00     0.015 C 
HETATM    6  C15 UNL     1      20.829  22.241   3.656  1.00  0.00    -0.011 C 
HETATM    7  C16 UNL     1      21.211  21.206   2.617  1.00  0.00     0.009 C 
HETATM    8  C17 UNL     1      20.233  21.381   1.482  1.00  0.00    -0.011 C 
HETATM    9  C18 UNL     1      18.898  20.861   1.966  1.00  0.00     0.015 C 
HETATM   10  C19 UNL     1      20.186  22.740   0.897  1.00  0.00     0.042 C 
HETATM   11  C20 UNL     1      21.122  23.580   3.071  1.00  0.00     0.042 C 
ENDROOT
BRANCH   4  12
HETATM   12  C6  UNL     1      17.231  21.098   3.721  1.00  0.00     0.104 C 
BRANCH  12  13
HETATM   13  C7  UNL     1      16.717  22.020   4.732  1.00  0.00    -0.096 C 
HETATM   14  C8  UNL     1      16.308  22.801   5.578  1.00  0.00    -0.005 C 
BRANCH  14  15
HETATM   15  C9  UNL     1      15.844  23.735   6.567  1.00  0.00     0.299 C 
HETATM   16  O2  UNL     1      15.054  23.305   7.443  1.00  0.00    -0.258 OA
HETATM   17  N1  UNL     1      16.265  25.094   6.554  1.00  0.00    -0.327 N 
HETATM   18  C10 UNL     1      17.146  25.857   5.692  1.00  0.00     0.130 C 
HETATM   19  C12 UNL     1      16.043  26.277   7.323  1.00  0.00     0.190 C 
HETATM   20  C11 UNL     1      16.375  27.097   6.080  1.00  0.00     0.056 C 
BRANCH  19  21
HETATM   21  C13 UNL     1      17.105  26.474   8.339  1.00  0.00     0.197 C 
HETATM   22  O3  UNL     1      17.078  27.433   9.171  1.00  0.00    -0.646 OA
HETATM   23  O4  UNL     1      18.192  25.595   8.418  1.00  0.00    -0.646 OA
ENDBRANCH  19  21
ENDBRANCH  14  15
ENDBRANCH  12  13
ENDBRANCH   4  12
BRANCH   1  24
HETATM   24  O1  UNL     1      20.803  24.945   1.231  1.00  0.00    -0.385 OA
HETATM   25  C1  UNL     1      21.597  24.639   0.169  1.00  0.00     0.202 C 
ENDBRANCH   1  24
TORSDOF 5
ENDMDL
MODEL 5
REMARK VINA RESULT: -6.823939879      0.833      1.982
REMARK  5 active torsions:
REMARK  status: ('A' for Active; 'I' for Inactive)
REMARK    1  A    between atoms: O1_2  and  C2_3 
REMARK    2  A    between atoms: C5_6  and  C6_7 
REMARK    3  A    between atoms: C6_7  and  C7_8 
REMARK    4  A    between atoms: C8_9  and  C9_10 
REMARK       I    between atoms: C9_10  and  N1_12 
REMARK    5  A    between atoms: C12_15  and  C13_16 
ROOT
HETATM    1  C2  UNL     1      21.820  23.112   1.764  1.00  0.00     0.061 C 
HETATM    2  C3  UNL     1      21.957  24.532   2.164  1.00  0.00     0.039 C 
HETATM    3  C4  UNL     1      20.647  25.289   2.163  1.00  0.00     0.013 C 
HETATM    4  C5  UNL     1      19.589  24.651   2.999  1.00  0.00    -0.029 C 
HETATM    5  C14 UNL     1      20.092  23.808   4.120  1.00  0.00     0.015 C 
HETATM    6  C15 UNL     1      20.485  22.424   3.762  1.00  0.00    -0.011 C 
HETATM    7  C16 UNL     1      19.433  21.776   2.885  1.00  0.00     0.009 C 
HETATM    8  C17 UNL     1      19.332  22.642   1.654  1.00  0.00    -0.011 C 
HETATM    9  C18 UNL     1      18.646  23.923   2.071  1.00  0.00     0.015 C 
HETATM   10  C19 UNL     1      20.600  22.836   0.917  1.00  0.00     0.042 C 
HETATM   11  C20 UNL     1      21.791  22.282   3.059  1.00  0.00     0.042 C 
ENDROOT
BRANCH   4  12
HETATM   12  C6  UNL     1      18.771  25.787   3.629  1.00  0.00     0.104 C 
BRANCH  12  13
HETATM   13  C7  UNL     1      17.903  25.172   4.631  1.00  0.00    -0.096 C 
HETATM   14  C8  UNL     1      17.185  24.639   5.465  1.00  0.00    -0.005 C 
BRANCH  14  15
HETATM   15  C9  UNL     1      16.355  23.992   6.442  1.00  0.00     0.299 C 
HETATM   16  O2  UNL     1      15.841  24.712   7.333  1.00  0.00    -0.258 OA
HETATM   17  N1  UNL     1      16.125  22.588   6.403  1.00  0.00    -0.327 N 
HETATM   18  C10 UNL     1      16.571  21.529   5.520  1.00  0.00     0.130 C 
HETATM   19  C12 UNL     1      15.399  21.613   7.155  1.00  0.00     0.190 C 
HETATM   20  C11 UNL     1      16.389  20.561   6.665  1.00  0.00     0.056 C 
BRANCH  19  21
HETATM   21  C13 UNL     1      14.066  21.349   6.561  1.00  0.00     0.197 C 
HETATM   22  O3  UNL     1      13.342  22.276   6.083  1.00  0.00    -0.646 OA
HETATM   23  O4  UNL     1      13.552  20.048   6.505  1.00  0.00    -0.646 OA
ENDBRANCH  19  21
ENDBRANCH  14  15
ENDBRANCH  12  13
ENDBRANCH   4  12
BRANCH   1  24
HETATM   24  O1  UNL     1      22.899  22.610   1.054  1.00  0.00    -0.385 OA
HETATM   25  C1  UNL     1      24.137  22.851   1.565  1.00  0.00     0.202 C 
ENDBRANCH   1  24
TORSDOF 5
ENDMDL
