MODEL 1
REMARK VINA RESULT: -6.267179155      0.000      0.000
REMARK  4 active torsions:
REMARK  status: ('A' for Active; 'I' for Inactive)
REMARK    1  A    between atoms: C2_2  and  N1_3 
REMARK    2  A    between atoms: N2_6  and  C5_7 
REMARK    3  A    between atoms: C9_11  and  C10_12 
REMARK       I    between atoms: C10_12  and  N3_14 
REMARK    4  A    between atoms: N3_14  and  C11_16 
ROOT
HETATM    1  C10 UNL     1      17.592  23.794   4.261  1.00  0.00     0.242 C 
HETATM    2  O1  UNL     1      18.303  24.168   5.228  1.00  0.00    -0.271 OA
HETATM    3  N3  UNL     1      16.523  22.886   4.486  1.00  0.00    -0.354 N 
ATOM      4  H3  UNL     1      15.958  22.596   3.688  1.00  0.00     0.162 HD
ENDROOT
BRANCH   1   5
HETATM    5  C9  UNL     1      17.919  24.334   2.926  1.00  0.00     0.194 C 
HETATM    6  N2  UNL     1      19.111  23.845   2.365  1.00  0.00    -0.369 N 
HETATM    7  C4  UNL     1      19.168  22.498   1.987  1.00  0.00     0.079 C 
HETATM    8  C3  UNL     1      17.921  22.067   1.241  1.00  0.00     0.161 C 
HETATM    9  N1  UNL     1      17.179  23.241   0.924  1.00  0.00    -0.406 N 
HETATM   10  C21 UNL     1      16.718  24.013   2.028  1.00  0.00     0.152 C 
BRANCH   6  11
HETATM   11  C5  UNL     1      20.298  24.569   2.459  1.00  0.00     0.022 C 
HETATM   12  C6  UNL     1      20.936  24.623   1.061  1.00  0.00     0.037 C 
HETATM   13  C7  UNL     1      21.347  24.047   3.383  1.00  0.00     0.037 C 
HETATM   14  C8  UNL     1      20.058  26.033   2.823  1.00  0.00     0.037 C 
ENDBRANCH   6  11
BRANCH   9  15
HETATM   15  C2  UNL     1      16.250  23.106  -0.154  1.00  0.00     0.113 C 
HETATM   16  C1  UNL     1      15.352  24.279  -0.354  1.00  0.00     0.026 C 
ENDBRANCH   9  15
ENDBRANCH   1   5
BRANCH   3  17
HETATM   17  C11 UNL     1      16.201  22.360   5.769  1.00  0.00     0.092 C 
HETATM   18  C12 UNL     1      14.892  22.875   6.320  1.00  0.00     0.009 C 
HETATM   19  C13 UNL     1      14.929  22.570   7.824  1.00  0.00     0.011 C 
HETATM   20  C17 UNL     1      13.692  22.191   5.763  1.00  0.00     0.011 C 
HETATM   21  C14 UNL     1      15.120  21.107   8.052  1.00  0.00    -0.013 C 
HETATM   22  C15 UNL     1      13.885  20.399   7.515  1.00  0.00     0.009 C 
HETATM   23  C20 UNL     1      16.313  20.524   7.350  1.00  0.00     0.011 C 
HETATM   24  C16 UNL     1      13.776  20.698   6.032  1.00  0.00    -0.013 C 
HETATM   25  C18 UNL     1      15.011  20.196   5.323  1.00  0.00     0.011 C 
HETATM   26  C19 UNL     1      16.242  20.874   5.869  1.00  0.00     0.009 C 
ENDBRANCH   3  17
TORSDOF 4
ENDMDL
MODEL 2
REMARK VINA RESULT: -6.189476942      2.124      6.642
REMARK  4 active torsions:
REMARK  status: ('A' for Active; 'I' for Inactive)
REMARK    1  A    between atoms: C2_2  and  N1_3 
REMARK    2  A    between atoms: N2_6  and  C5_7 
REMARK    3  A    between atoms: C9_11  and  C10_12 
REMARK       I    between atoms: C10_12  and  N3_14 
REMARK    4  A    between atoms: N3_14  and  C11_16 
ROOT
HETATM    1  C10 UNL     1      16.486  22.105   3.239  1.00  0.00     0.242 C 
HETATM    2  O1  UNL     1      15.832  23.042   2.714  1.00  0.00    -0.271 OA
HETATM    3  N3  UNL     1      17.903  22.178   3.285  1.00  0.00    -0.354 N 
ATOM      4  H3  UNL     1      18.414  21.407   3.716  1.00  0.00     0.162 HD
ENDROOT
BRANCH   1   5
HETATM    5  C9  UNL     1      15.722  20.965   3.787  1.00  0.00     0.194 C 
HETATM    6  N2  UNL     1      16.476  19.801   4.010  1.00  0.00    -0.369 N 
HETATM    7  C4  UNL     1      17.445  19.815   5.021  1.00  0.00     0.079 C 
HETATM    8  C3  UNL     1      16.927  20.461   6.291  1.00  0.00     0.161 C 
HETATM    9  N1  UNL     1      15.518  20.622   6.151  1.00  0.00    -0.406 N 
HETATM   10  C21 UNL     1      15.083  21.464   5.089  1.00  0.00     0.152 C 
BRANCH   6  11
HETATM   11  C5  UNL     1      16.494  18.767   3.076  1.00  0.00     0.022 C 
HETATM   12  C6  UNL     1      17.886  18.736   2.424  1.00  0.00     0.037 C 
HETATM   13  C7  UNL     1      15.504  18.834   1.961  1.00  0.00     0.037 C 
HETATM   14  C8  UNL     1      16.351  17.393   3.729  1.00  0.00     0.037 C 
ENDBRANCH   6  11
BRANCH   9  15
HETATM   15  C2  UNL     1      14.794  20.763   7.375  1.00  0.00     0.113 C 
HETATM   16  C1  UNL     1      14.301  22.142   7.652  1.00  0.00     0.026 C 
ENDBRANCH   9  15
ENDBRANCH   1   5
BRANCH   3  17
HETATM   17  C11 UNL     1      18.647  23.272   2.759  1.00  0.00     0.092 C 
HETATM   18  C12 UNL     1      19.137  24.232   3.819  1.00  0.00     0.009 C 
HETATM   19  C13 UNL     1      19.508  25.518   3.068  1.00  0.00     0.011 C 
HETATM   20  C17 UNL     1      20.362  23.771   4.531  1.00  0.00     0.011 C 
HETATM   21  C14 UNL     1      20.535  25.233   2.023  1.00  0.00    -0.013 C 
HETATM   22  C15 UNL     1      21.802  24.790   2.741  1.00  0.00     0.009 C 
HETATM   23  C20 UNL     1      20.155  24.138   1.068  1.00  0.00     0.011 C 
HETATM   24  C16 UNL     1      21.484  23.536   3.532  1.00  0.00    -0.013 C 
HETATM   25  C18 UNL     1      21.013  22.452   2.594  1.00  0.00     0.011 C 
HETATM   26  C19 UNL     1      19.773  22.894   1.859  1.00  0.00     0.009 C 
ENDBRANCH   3  17
TORSDOF 4
ENDMDL
MODEL 3
REMARK VINA RESULT: -6.178503521      2.678      6.843
REMARK  4 active torsions:
REMARK  status: ('A' for Active; 'I' for Inactive)
REMARK    1  A    between atoms: C2_2  and  N1_3 
REMARK    2  A    between atoms: N2_6  and  C5_7 
REMARK    3  A    between atoms: C9_11  and  C10_12 
REMARK       I    between atoms: C10_12  and  N3_14 
REMARK    4  A    between atoms: N3_14  and  C11_16 
ROOT
HETATM    1  C10 UNL     1      17.259  25.406   4.159  1.00  0.00     0.242 C 
HETATM    2  O1  UNL     1      17.695  26.528   3.799  1.00  0.00    -0.271 OA
HETATM    3  N3  UNL     1      17.805  24.225   3.587  1.00  0.00    -0.354 N 
ATOM      4  H3  UNL     1      17.437  23.324   3.894  1.00  0.00     0.162 HD
ENDROOT
BRANCH   1   5
HETATM    5  C9  UNL     1      16.187  25.385   5.174  1.00  0.00     0.194 C 
HETATM    6  N2  UNL     1      16.406  24.506   6.248  1.00  0.00    -0.369 N 
HETATM    7  C4  UNL     1      17.441  24.794   7.147  1.00  0.00     0.079 C 
HETATM    8  C3  UNL     1      17.455  26.257   7.543  1.00  0.00     0.161 C 
HETATM    9  N1  UNL     1      16.243  26.843   7.077  1.00  0.00    -0.406 N 
HETATM   10  C21 UNL     1      16.037  26.829   5.668  1.00  0.00     0.152 C 
BRANCH   6  11
HETATM   11  C5  UNL     1      15.835  23.235   6.264  1.00  0.00     0.022 C 
HETATM   12  C6  UNL     1      15.166  23.028   7.632  1.00  0.00     0.037 C 
HETATM   13  C7  UNL     1      16.748  22.072   6.059  1.00  0.00     0.037 C 
HETATM   14  C8  UNL     1      14.692  23.100   5.259  1.00  0.00     0.037 C 
ENDBRANCH   6  11
BRANCH   9  15
HETATM   15  C2  UNL     1      15.854  28.050   7.737  1.00  0.00     0.113 C 
HETATM   16  C1  UNL     1      16.987  28.894   8.212  1.00  0.00     0.026 C 
ENDBRANCH   9  15
ENDBRANCH   1   5
BRANCH   3  17
HETATM   17  C11 UNL     1      18.837  24.236   2.608  1.00  0.00     0.092 C 
HETATM   18  C12 UNL     1      20.207  24.523   3.179  1.00  0.00     0.009 C 
HETATM   19  C13 UNL     1      21.077  24.923   1.980  1.00  0.00     0.011 C 
HETATM   20  C17 UNL     1      20.854  23.342   3.816  1.00  0.00     0.011 C 
HETATM   21  C14 UNL     1      21.090  23.834   0.960  1.00  0.00    -0.013 C 
HETATM   22  C15 UNL     1      21.778  22.631   1.589  1.00  0.00     0.009 C 
HETATM   23  C20 UNL     1      19.726  23.389   0.516  1.00  0.00     0.011 C 
HETATM   24  C16 UNL     1      20.977  22.212   2.807  1.00  0.00    -0.013 C 
HETATM   25  C18 UNL     1      19.574  21.847   2.389  1.00  0.00     0.011 C 
HETATM   26  C19 UNL     1      18.895  23.027   1.740  1.00  0.00     0.009 C 
ENDBRANCH   3  17
TORSDOF 4
ENDMDL
MODEL 4
REMARK VINA RESULT: -6.146615330      1.543      2.563
REMARK  4 active torsions:
REMARK  status: ('A' for Active; 'I' for Inactive)
REMARK    1  A    between atoms: C2_2  and  N1_3 
REMARK    2  A    between atoms: N2_6  and  C5_7 
REMARK    3  A    between atoms: C9_11  and  C10_12 
REMARK       I    between atoms: C10_12  and  N3_14 
REMARK    4  A    between atoms: N3_14  and  C11_16 
ROOT
HETATM    1  C10 UNL     1      16.329  22.895   2.646  1.00  0.00     0.242 C 
HETATM    2  O1  UNL     1      15.591  22.146   1.957  1.00  0.00    -0.271 OA
HETATM    3  N3  UNL     1      16.264  22.830   4.064  1.00  0.00    -0.354 N 
ATOM      4  H3  UNL     1      16.873  23.446   4.604  1.00  0.00     0.162 HD
ENDROOT
BRANCH   1   5
HETATM    5  C9  UNL     1      17.233  23.812   1.924  1.00  0.00     0.194 C 
HETATM    6  N2  UNL     1      18.525  23.919   2.467  1.00  0.00    -0.369 N 
HETATM    7  C4  UNL     1      19.373  22.806   2.399  1.00  0.00     0.079 C 
HETATM    8  C3  UNL     1      19.338  22.152   1.031  1.00  0.00     0.161 C 
HETATM    9  N1  UNL     1      18.644  23.030   0.149  1.00  0.00    -0.406 N 
HETATM   10  C21 UNL     1      17.287  23.308   0.476  1.00  0.00     0.152 C 
BRANCH   6  11
HETATM   11  C5  UNL     1      18.861  24.970   3.318  1.00  0.00     0.022 C 
HETATM   12  C6  UNL     1      19.334  24.372   4.653  1.00  0.00     0.037 C 
HETATM   13  C7  UNL     1      17.788  25.952   3.650  1.00  0.00     0.037 C 
HETATM   14  C8  UNL     1      20.064  25.764   2.811  1.00  0.00     0.037 C 
ENDBRANCH   6  11
BRANCH   9  15
HETATM   15  C2  UNL     1      18.908  22.833  -1.242  1.00  0.00     0.113 C 
HETATM   16  C1  UNL     1      17.753  23.118  -2.140  1.00  0.00     0.026 C 
ENDBRANCH   9  15
ENDBRANCH   1   5
BRANCH   3  17
HETATM   17  C11 UNL     1      15.395  21.951   4.768  1.00  0.00     0.092 C 
HETATM   18  C12 UNL     1      16.110  20.784   5.410  1.00  0.00     0.009 C 
HETATM   19  C13 UNL     1      15.016  19.753   5.723  1.00  0.00     0.011 C 
HETATM   20  C17 UNL     1      16.777  21.120   6.699  1.00  0.00     0.011 C 
HETATM   21  C14 UNL     1      13.973  20.353   6.606  1.00  0.00    -0.013 C 
HETATM   22  C15 UNL     1      14.636  20.673   7.938  1.00  0.00     0.009 C 
HETATM   23  C20 UNL     1      13.382  21.630   6.081  1.00  0.00     0.011 C 
HETATM   24  C16 UNL     1      15.755  21.665   7.684  1.00  0.00    -0.013 C 
HETATM   25  C18 UNL     1      15.187  22.922   7.072  1.00  0.00     0.011 C 
HETATM   26  C19 UNL     1      14.505  22.609   5.764  1.00  0.00     0.009 C 
ENDBRANCH   3  17
TORSDOF 4
ENDMDL
MODEL 5
REMARK VINA RESULT: -6.136870478      2.327      6.510
REMARK  4 active torsions:
REMARK  status: ('A' for Active; 'I' for Inactive)
REMARK    1  A    between atoms: C2_2  and  N1_3 
REMARK    2  A    between atoms: N2_6  and  C5_7 
REMARK    3  A    between atoms: C9_11  and  C10_12 
REMARK       I    between atoms: C10_12  and  N3_14 
REMARK    4  A    between atoms: N3_14  and  C11_16 
ROOT
HETATM    1  C10 UNL     1      18.389  20.795   4.814  1.00  0.00     0.242 C 
HETATM    2  O1  UNL     1      19.568  20.593   5.201  1.00  0.00    -0.271 OA
HETATM    3  N3  UNL     1      18.116  21.869   3.925  1.00  0.00    -0.354 N 
ATOM      4  H3  UNL     1      17.153  22.014   3.623  1.00  0.00     0.162 HD
ENDROOT
BRANCH   1   5
HETATM    5  C9  UNL     1      17.341  19.885   5.319  1.00  0.00     0.194 C 
HETATM    6  N2  UNL     1      16.024  20.326   5.111  1.00  0.00    -0.369 N 
HETATM    7  C4  UNL     1      15.536  20.381   3.799  1.00  0.00     0.079 C 
HETATM    8  C3  UNL     1      15.896  19.138   3.010  1.00  0.00     0.161 C 
HETATM    9  N1  UNL     1      16.400  18.173   3.928  1.00  0.00    -0.406 N 
HETATM   10  C21 UNL     1      17.582  18.533   4.635  1.00  0.00     0.152 C 
BRANCH   6  11
HETATM   11  C5  UNL     1      15.318  20.979   6.119  1.00  0.00     0.022 C 
HETATM   12  C6  UNL     1      15.851  20.485   7.474  1.00  0.00     0.037 C 
HETATM   13  C7  UNL     1      13.838  20.789   6.152  1.00  0.00     0.037 C 
HETATM   14  C8  UNL     1      15.584  22.483   6.133  1.00  0.00     0.037 C 
ENDBRANCH   6  11
BRANCH   9  15
HETATM   15  C2  UNL     1      16.349  16.817   3.480  1.00  0.00     0.113 C 
HETATM   16  C1  UNL     1      17.641  16.080   3.574  1.00  0.00     0.026 C 
ENDBRANCH   9  15
ENDBRANCH   1   5
BRANCH   3  17
HETATM   17  C11 UNL     1      19.119  22.751   3.434  1.00  0.00     0.092 C 
HETATM   18  C12 UNL     1      18.678  23.556   2.233  1.00  0.00     0.009 C 
HETATM   19  C13 UNL     1      19.970  24.088   1.597  1.00  0.00     0.011 C 
HETATM   20  C17 UNL     1      17.837  24.737   2.574  1.00  0.00     0.011 C 
HETATM   21  C14 UNL     1      20.741  24.897   2.587  1.00  0.00    -0.013 C 
HETATM   22  C15 UNL     1      19.904  26.124   2.920  1.00  0.00     0.009 C 
HETATM   23  C20 UNL     1      21.025  24.184   3.878  1.00  0.00     0.011 C 
HETATM   24  C16 UNL     1      18.593  25.655   3.521  1.00  0.00    -0.013 C 
HETATM   25  C18 UNL     1      18.867  24.858   4.773  1.00  0.00     0.011 C 
HETATM   26  C19 UNL     1      19.719  23.655   4.455  1.00  0.00     0.009 C 
ENDBRANCH   3  17
TORSDOF 4
ENDMDL
