MODEL 1
REMARK VINA RESULT: -6.971886305      0.000      0.000
REMARK  4 active torsions:
REMARK  status: ('A' for Active; 'I' for Inactive)
REMARK    1  A    between atoms: C2_2  and  C3_3 
REMARK    2  A    between atoms: C11_11  and  C12_12 
REMARK    3  A    between atoms: C12_12  and  O1_13 
REMARK    4  A    between atoms: C13_15  and  C14_16 
REMARK       I    between atoms: C14_16  and  N1_18 
ROOT
HETATM    1  C3  UNL     1      18.434  25.104   3.056  1.00  0.00     0.002 C 
HETATM    2  C4  UNL     1      18.429  23.739   2.542  1.00  0.00     0.001 C 
HETATM    3  C5  UNL     1      17.195  23.492   1.719  1.00  0.00     0.033 C 
HETATM    4  C6  UNL     1      16.392  22.308   2.098  1.00  0.00    -0.023 C 
HETATM    5  C7  UNL     1      16.526  21.616   3.228  1.00  0.00    -0.078 C 
HETATM    6  C8  UNL     1      15.626  20.458   3.419  1.00  0.00     0.044 C 
HETATM    7  C9  UNL     1      17.588  22.034   4.228  1.00  0.00    -0.002 C 
HETATM    8  C10 UNL     1      18.125  20.658   4.689  1.00  0.00     0.021 C 
HETATM    9  C11 UNL     1      18.711  22.592   3.397  1.00  0.00     0.027 C 
HETATM   10  C13 UNL     1      17.139  22.744   5.403  1.00  0.00     0.102 C 
HETATM   11  C17 UNL     1      17.433  24.142   5.715  1.00  0.00     0.074 C 
HETATM   12  C18 UNL     1      18.757  24.697   5.552  1.00  0.00     0.137 C 
HETATM   13  O3  UNL     1      19.864  24.583   6.109  1.00  0.00    -0.297 OA
HETATM   14  C19 UNL     1      18.274  25.473   4.444  1.00  0.00     0.064 C 
HETATM   15  C20 UNL     1      16.832  25.234   4.917  1.00  0.00     0.005 C 
HETATM   16  C21 UNL     1      16.264  26.416   5.721  1.00  0.00     0.011 C 
ENDROOT
BRANCH  10  17
HETATM   17  C14 UNL     1      15.636  22.630   5.572  1.00  0.00     0.225 C 
HETATM   18  O2  UNL     1      14.870  23.430   4.931  1.00  0.00    -0.273 OA
HETATM   19  N1  UNL     1      14.990  21.698   6.395  1.00  0.00    -0.360 N 
HETATM   20  C15 UNL     1      15.757  20.770   7.182  1.00  0.00     0.152 C 
HETATM   21  C16 UNL     1      13.553  21.633   6.486  1.00  0.00     0.152 C 
ENDBRANCH  10  17
BRANCH   9  22
HETATM   22  C12 UNL     1      19.260  21.489   2.500  1.00  0.00     0.170 C 
BRANCH  22  23
HETATM   23  O1  UNL     1      20.685  21.527   2.572  1.00  0.00    -0.400 OA
ATOM     24  H1  UNL     1      20.975  20.784   3.087  1.00  0.00     0.209 HD
ENDBRANCH  22  23
ENDBRANCH   9  22
BRANCH   1  25
HETATM   25  C2  UNL     1      19.713  25.817   2.560  1.00  0.00     0.001 C 
HETATM   26  C1  UNL     1      20.913  24.931   2.682  1.00  0.00     0.005 C 
ENDBRANCH   1  25
TORSDOF 4
ENDMDL
MODEL 2
REMARK VINA RESULT: -6.960076516      2.186      5.362
REMARK  4 active torsions:
REMARK  status: ('A' for Active; 'I' for Inactive)
REMARK    1  A    between atoms: C2_2  and  C3_3 
REMARK    2  A    between atoms: C11_11  and  C12_12 
REMARK    3  A    between atoms: C12_12  and  O1_13 
REMARK    4  A    between atoms: C13_15  and  C14_16 
REMARK       I    between atoms: C14_16  and  N1_18 
ROOT
HETATM    1  C3  UNL     1      15.688  23.391   5.516  1.00  0.00     0.002 C 
HETATM    2  C4  UNL     1      16.593  24.520   5.710  1.00  0.00     0.001 C 
HETATM    3  C5  UNL     1      16.287  25.613   4.724  1.00  0.00     0.033 C 
HETATM    4  C6  UNL     1      17.432  26.097   3.921  1.00  0.00    -0.023 C 
HETATM    5  C7  UNL     1      18.614  25.489   3.820  1.00  0.00    -0.078 C 
HETATM    6  C8  UNL     1      19.632  26.137   2.967  1.00  0.00     0.044 C 
HETATM    7  C9  UNL     1      18.850  24.202   4.588  1.00  0.00    -0.002 C 
HETATM    8  C10 UNL     1      20.304  24.405   5.075  1.00  0.00     0.021 C 
HETATM    9  C11 UNL     1      18.033  24.339   5.844  1.00  0.00     0.027 C 
HETATM   10  C13 UNL     1      18.809  22.972   3.832  1.00  0.00     0.102 C 
HETATM   11  C17 UNL     1      17.795  21.927   3.965  1.00  0.00     0.074 C 
HETATM   12  C18 UNL     1      17.338  21.467   5.256  1.00  0.00     0.137 C 
HETATM   13  O3  UNL     1      17.806  20.808   6.202  1.00  0.00    -0.297 OA
HETATM   14  C19 UNL     1      16.071  22.094   5.009  1.00  0.00     0.064 C 
HETATM   15  C20 UNL     1      16.406  22.162   3.511  1.00  0.00     0.005 C 
HETATM   16  C21 UNL     1      15.763  21.023   2.703  1.00  0.00     0.011 C 
ENDROOT
BRANCH  10  17
HETATM   17  C14 UNL     1      18.878  23.241   2.341  1.00  0.00     0.225 C 
HETATM   18  O2  UNL     1      17.834  23.658   1.730  1.00  0.00    -0.273 OA
HETATM   19  N1  UNL     1      20.018  23.066   1.546  1.00  0.00    -0.360 N 
HETATM   20  C15 UNL     1      21.238  22.573   2.127  1.00  0.00     0.152 C 
HETATM   21  C16 UNL     1      20.015  23.366   0.137  1.00  0.00     0.152 C 
ENDBRANCH  10  17
BRANCH   9  22
HETATM   22  C12 UNL     1      18.559  25.519   6.652  1.00  0.00     0.170 C 
BRANCH  22  23
HETATM   23  O1  UNL     1      18.126  25.360   8.002  1.00  0.00    -0.400 OA
ATOM     24  H1  UNL     1      18.526  24.573   8.350  1.00  0.00     0.209 HD
ENDBRANCH  22  23
ENDBRANCH   9  22
BRANCH   1  25
HETATM   25  C2  UNL     1      14.922  23.137   6.835  1.00  0.00     0.001 C 
HETATM   26  C1  UNL     1      14.000  21.964   6.712  1.00  0.00     0.005 C 
ENDBRANCH   1  25
TORSDOF 4
ENDMDL
MODEL 3
REMARK VINA RESULT: -6.599546735      1.053      1.144
REMARK  4 active torsions:
REMARK  status: ('A' for Active; 'I' for Inactive)
REMARK    1  A    between atoms: C2_2  and  C3_3 
REMARK    2  A    between atoms: C11_11  and  C12_12 
REMARK    3  A    between atoms: C12_12  and  O1_13 
REMARK    4  A    between atoms: C13_15  and  C14_16 
REMARK       I    between atoms: C14_16  and  N1_18 
ROOT
HETATM    1  C3  UNL     1      19.346  24.433   2.303  1.00  0.00     0.002 C 
HETATM    2  C4  UNL     1      19.270  23.016   1.963  1.00  0.00     0.001 C 
HETATM    3  C5  UNL     1      18.078  22.751   1.086  1.00  0.00     0.033 C 
HETATM    4  C6  UNL     1      17.163  21.682   1.547  1.00  0.00    -0.023 C 
HETATM    5  C7  UNL     1      17.169  21.133   2.761  1.00  0.00    -0.078 C 
HETATM    6  C8  UNL     1      16.172  20.074   3.025  1.00  0.00     0.044 C 
HETATM    7  C9  UNL     1      18.192  21.603   3.778  1.00  0.00    -0.002 C 
HETATM    8  C10 UNL     1      18.591  20.264   4.443  1.00  0.00     0.021 C 
HETATM    9  C11 UNL     1      19.407  21.972   2.971  1.00  0.00     0.027 C 
HETATM   10  C13 UNL     1      17.723  22.487   4.819  1.00  0.00     0.102 C 
HETATM   11  C17 UNL     1      18.102  23.890   4.978  1.00  0.00     0.074 C 
HETATM   12  C18 UNL     1      19.473  24.329   4.847  1.00  0.00     0.137 C 
HETATM   13  O3  UNL     1      20.529  24.212   5.495  1.00  0.00    -0.297 OA
HETATM   14  C19 UNL     1      19.124  24.986   3.619  1.00  0.00     0.064 C 
HETATM   15  C20 UNL     1      17.640  24.909   4.009  1.00  0.00     0.005 C 
HETATM   16  C21 UNL     1      17.114  26.220   4.616  1.00  0.00     0.011 C 
ENDROOT
BRANCH  10  17
HETATM   17  C14 UNL     1      16.208  22.498   4.888  1.00  0.00     0.225 C 
HETATM   18  O2  UNL     1      15.547  23.194   4.043  1.00  0.00    -0.273 OA
HETATM   19  N1  UNL     1      15.442  21.793   5.827  1.00  0.00    -0.360 N 
HETATM   20  C15 UNL     1      16.087  21.002   6.841  1.00  0.00     0.152 C 
HETATM   21  C16 UNL     1      14.002  21.833   5.815  1.00  0.00     0.152 C 
ENDBRANCH  10  17
BRANCH   9  22
HETATM   22  C12 UNL     1      19.927  20.729   2.260  1.00  0.00     0.170 C 
BRANCH  22  23
HETATM   23  O1  UNL     1      21.177  21.055   1.654  1.00  0.00    -0.400 OA
ATOM     24  H1  UNL     1      21.852  20.998   2.319  1.00  0.00     0.209 HD
ENDBRANCH  22  23
ENDBRANCH   9  22
BRANCH   1  25
HETATM   25  C2  UNL     1      20.707  24.988   1.820  1.00  0.00     0.001 C 
HETATM   26  C1  UNL     1      21.031  24.507   0.440  1.00  0.00     0.005 C 
ENDBRANCH   1  25
TORSDOF 4
ENDMDL
MODEL 4
REMARK VINA RESULT: -6.196024429      2.120      4.741
REMARK  4 active torsions:
REMARK  status: ('A' for Active; 'I' for Inactive)
REMARK    1  A    between atoms: C2_2  and  C3_3 
REMARK    2  A    between atoms: C11_11  and  C12_12 
REMARK    3  A    between atoms: C12_12  and  O1_13 
REMARK    4  A    between atoms: C13_15  and  C14_16 
REMARK       I    between atoms: C14_16  and  N1_18 
ROOT
HETATM    1  C3  UNL     1      17.176  23.619   5.952  1.00  0.00     0.002 C 
HETATM    2  C4  UNL     1      16.243  22.499   5.884  1.00  0.00     0.001 C 
HETATM    3  C5  UNL     1      16.774  21.325   6.660  1.00  0.00     0.033 C 
HETATM    4  C6  UNL     1      16.840  20.042   5.926  1.00  0.00    -0.023 C 
HETATM    5  C7  UNL     1      16.713  19.902   4.606  1.00  0.00    -0.078 C 
HETATM    6  C8  UNL     1      16.807  18.530   4.064  1.00  0.00     0.044 C 
HETATM    7  C9  UNL     1      16.467  21.133   3.754  1.00  0.00    -0.002 C 
HETATM    8  C10 UNL     1      15.432  20.592   2.739  1.00  0.00     0.021 C 
HETATM    9  C11 UNL     1      15.659  22.057   4.624  1.00  0.00     0.027 C 
HETATM   10  C13 UNL     1      17.589  21.646   3.004  1.00  0.00     0.102 C 
HETATM   11  C17 UNL     1      18.255  22.926   3.242  1.00  0.00     0.074 C 
HETATM   12  C18 UNL     1      17.509  24.141   3.480  1.00  0.00     0.137 C 
HETATM   13  O3  UNL     1      16.785  24.906   2.818  1.00  0.00    -0.297 OA
HETATM   14  C19 UNL     1      17.955  24.122   4.845  1.00  0.00     0.064 C 
HETATM   15  C20 UNL     1      19.069  23.138   4.460  1.00  0.00     0.005 C 
HETATM   16  C21 UNL     1      20.427  23.827   4.247  1.00  0.00     0.011 C 
ENDROOT
BRANCH  10  17
HETATM   17  C14 UNL     1      18.721  20.639   2.952  1.00  0.00     0.225 C 
HETATM   18  O2  UNL     1      19.469  20.480   3.978  1.00  0.00    -0.273 OA
HETATM   19  N1  UNL     1      19.035  19.841   1.843  1.00  0.00    -0.360 N 
HETATM   20  C15 UNL     1      18.276  19.960   0.627  1.00  0.00     0.152 C 
HETATM   21  C16 UNL     1      20.113  18.886   1.875  1.00  0.00     0.152 C 
ENDBRANCH  10  17
BRANCH   9  22
HETATM   22  C12 UNL     1      14.329  21.390   4.956  1.00  0.00     0.170 C 
BRANCH  22  23
HETATM   23  O1  UNL     1      13.525  22.333   5.664  1.00  0.00    -0.400 OA
ATOM     24  H1  UNL     1      12.700  22.423   5.202  1.00  0.00     0.209 HD
ENDBRANCH  22  23
ENDBRANCH   9  22
BRANCH   1  25
HETATM   25  C2  UNL     1      16.445  24.838   6.562  1.00  0.00     0.001 C 
HETATM   26  C1  UNL     1      17.369  25.665   7.399  1.00  0.00     0.005 C 
ENDBRANCH   1  25
TORSDOF 4
ENDMDL
MODEL 5
REMARK VINA RESULT: -6.062085834      2.332      5.024
REMARK  4 active torsions:
REMARK  status: ('A' for Active; 'I' for Inactive)
REMARK    1  A    between atoms: C2_2  and  C3_3 
REMARK    2  A    between atoms: C11_11  and  C12_12 
REMARK    3  A    between atoms: C12_12  and  O1_13 
REMARK    4  A    between atoms: C13_15  and  C14_16 
REMARK       I    between atoms: C14_16  and  N1_18 
ROOT
HETATM    1  C3  UNL     1      17.283  23.546   4.965  1.00  0.00     0.002 C 
HETATM    2  C4  UNL     1      16.960  22.128   4.844  1.00  0.00     0.001 C 
HETATM    3  C5  UNL     1      17.989  21.293   5.556  1.00  0.00     0.033 C 
HETATM    4  C6  UNL     1      18.611  20.215   4.756  1.00  0.00    -0.023 C 
HETATM    5  C7  UNL     1      18.526  20.090   3.432  1.00  0.00    -0.078 C 
HETATM    6  C8  UNL     1      19.218  18.936   2.820  1.00  0.00     0.044 C 
HETATM    7  C9  UNL     1      17.722  21.109   2.645  1.00  0.00    -0.002 C 
HETATM    8  C10 UNL     1      17.020  20.200   1.608  1.00  0.00     0.021 C 
HETATM    9  C11 UNL     1      16.607  21.524   3.565  1.00  0.00     0.027 C 
HETATM   10  C13 UNL     1      18.467  22.110   1.917  1.00  0.00     0.102 C 
HETATM   11  C17 UNL     1      18.484  23.541   2.217  1.00  0.00     0.074 C 
HETATM   12  C18 UNL     1      17.274  24.270   2.521  1.00  0.00     0.137 C 
HETATM   13  O3  UNL     1      16.263  24.648   1.902  1.00  0.00    -0.297 OA
HETATM   14  C19 UNL     1      17.716  24.397   3.881  1.00  0.00     0.064 C 
HETATM   15  C20 UNL     1      19.145  24.047   3.441  1.00  0.00     0.005 C 
HETATM   16  C21 UNL     1      20.034  25.288   3.256  1.00  0.00     0.011 C 
ENDROOT
BRANCH  10  17
HETATM   17  C14 UNL     1      19.932  21.732   1.808  1.00  0.00     0.225 C 
HETATM   18  O2  UNL     1      20.697  21.888   2.821  1.00  0.00    -0.273 OA
HETATM   19  N1  UNL     1      20.543  21.213   0.658  1.00  0.00    -0.360 N 
HETATM   20  C15 UNL     1      19.779  21.026  -0.546  1.00  0.00     0.152 C 
HETATM   21  C16 UNL     1      21.938  20.854   0.636  1.00  0.00     0.152 C 
ENDBRANCH  10  17
BRANCH   9  22
HETATM   22  C12 UNL     1      15.736  20.310   3.868  1.00  0.00     0.170 C 
BRANCH  22  23
HETATM   23  O1  UNL     1      14.628  20.745   4.655  1.00  0.00    -0.400 OA
ATOM     24  H1  UNL     1      14.217  21.476   4.209  1.00  0.00     0.209 HD
ENDBRANCH  22  23
ENDBRANCH   9  22
BRANCH   1  25
HETATM   25  C2  UNL     1      16.094  24.269   5.640  1.00  0.00     0.001 C 
HETATM   26  C1  UNL     1      16.337  25.743   5.737  1.00  0.00     0.005 C 
ENDBRANCH   1  25
TORSDOF 4
ENDMDL
