MODEL 1
REMARK VINA RESULT: -6.035012222      0.000      0.000
REMARK  8 active torsions:
REMARK  status: ('A' for Active; 'I' for Inactive)
REMARK    1  A    between atoms: C2_2  and  N1_3 
REMARK    2  A    between atoms: N1_3  and  C3_4 
REMARK    3  A    between atoms: N1_3  and  C5_6 
REMARK    4  A    between atoms: C5_6  and  C7_8 
REMARK    5  A    between atoms: C8_9  and  C9_10 
REMARK    6  A    between atoms: C12_13  and  C13_14 
REMARK    7  A    between atoms: C14_15  and  C15_16 
REMARK    8  A    between atoms: C17_18  and  N2_19 
ROOT
HETATM    1  C9  UNL     1      23.067  24.536   0.543  1.00  0.00     0.017 A 
HETATM    2  C10 UNL     1      23.279  24.520   1.905  1.00  0.00     0.022 A 
HETATM    3  C11 UNL     1      22.232  24.517   2.798  1.00  0.00     0.022 A 
HETATM    4  C12 UNL     1      20.912  24.528   2.357  1.00  0.00     0.018 A 
HETATM    5  C21 UNL     1      20.684  24.543   1.012  1.00  0.00     0.022 A 
HETATM    6  C22 UNL     1      21.752  24.546   0.132  1.00  0.00     0.022 A 
ENDROOT
BRANCH   4   7
HETATM    7  C13 UNL     1      19.838  24.528   3.314  1.00  0.00    -0.060 C 
HETATM    8  C14 UNL     1      18.929  24.507   4.134  1.00  0.00    -0.043 C 
BRANCH   8   9
HETATM    9  C15 UNL     1      17.876  24.454   5.104  1.00  0.00     0.091 A 
HETATM   10  C16 UNL     1      16.777  23.627   4.898  1.00  0.00     0.087 A 
HETATM   11  C17 UNL     1      15.780  23.596   5.843  1.00  0.00     0.104 A 
HETATM   12  N3  UNL     1      15.879  24.367   6.953  1.00  0.00    -0.333 N 
HETATM   13  C19 UNL     1      16.922  25.151   7.145  1.00  0.00     0.079 A 
ATOM     14  H3  UNL     1      15.135  24.342   7.650  1.00  0.00     0.168 HD
HETATM   15  C20 UNL     1      17.054  26.006   8.359  1.00  0.00     0.089 C 
HETATM   16  N4  UNL     1      17.898  25.179   6.219  1.00  0.00    -0.339 N 
ATOM     17  H4  UNL     1      18.699  25.790   6.382  1.00  0.00     0.168 HD
BRANCH  11  18
HETATM   18  N2  UNL     1      14.756  22.869   5.729  1.00  0.00    -0.381 N 
HETATM   19  C18 UNL     1      14.118  22.076   6.705  1.00  0.00     0.147 C 
ATOM     20  H2  UNL     1      14.330  22.853   4.803  1.00  0.00     0.160 HD
ENDBRANCH  11  18
ENDBRANCH   8   9
ENDBRANCH   4   7
BRANCH   1  21
HETATM   21  C8  UNL     1      24.175  24.545  -0.391  1.00  0.00    -0.065 C 
HETATM   22  C7  UNL     1      25.101  24.557  -1.166  1.00  0.00    -0.065 C 
BRANCH  22  23
HETATM   23  C5  UNL     1      26.239  24.542  -2.123  1.00  0.00     0.297 C 
HETATM   24  C6  UNL     1      25.666  24.587  -3.481  1.00  0.00     0.056 C 
BRANCH  23  25
HETATM   25  N1  UNL     1      27.160  25.554  -1.726  1.00  0.00     0.103 N 
BRANCH  25  26
HETATM   26  C2  UNL     1      27.901  26.190  -2.768  1.00  0.00     0.269 C 
HETATM   27  C1  UNL     1      27.979  27.673  -2.750  1.00  0.00     0.037 C 
ENDBRANCH  25  26
BRANCH  25  28
HETATM   28  C3  UNL     1      28.103  24.836  -0.819  1.00  0.00     0.269 C 
HETATM   29  C4  UNL     1      28.359  25.552   0.454  1.00  0.00     0.037 C 
ENDBRANCH  25  28
ENDBRANCH  23  25
ENDBRANCH  22  23
ENDBRANCH   1  21
TORSDOF 8
ENDMDL
MODEL 2
REMARK VINA RESULT: -6.024312256      0.417      1.013
REMARK  8 active torsions:
REMARK  status: ('A' for Active; 'I' for Inactive)
REMARK    1  A    between atoms: C2_2  and  N1_3 
REMARK    2  A    between atoms: N1_3  and  C3_4 
REMARK    3  A    between atoms: N1_3  and  C5_6 
REMARK    4  A    between atoms: C5_6  and  C7_8 
REMARK    5  A    between atoms: C8_9  and  C9_10 
REMARK    6  A    between atoms: C12_13  and  C13_14 
REMARK    7  A    between atoms: C14_15  and  C15_16 
REMARK    8  A    between atoms: C17_18  and  N2_19 
ROOT
HETATM    1  C9  UNL     1      22.839  24.366   0.416  1.00  0.00     0.017 A 
HETATM    2  C10 UNL     1      21.509  24.224   0.086  1.00  0.00     0.022 A 
HETATM    3  C11 UNL     1      20.521  24.253   1.042  1.00  0.00     0.022 A 
HETATM    4  C12 UNL     1      20.829  24.431   2.388  1.00  0.00     0.018 A 
HETATM    5  C21 UNL     1      22.141  24.575   2.733  1.00  0.00     0.022 A 
HETATM    6  C22 UNL     1      23.119  24.541   1.754  1.00  0.00     0.022 A 
ENDROOT
BRANCH   4   7
HETATM    7  C13 UNL     1      19.774  24.454   3.366  1.00  0.00    -0.060 C 
HETATM    8  C14 UNL     1      18.879  24.450   4.201  1.00  0.00    -0.043 C 
BRANCH   8   9
HETATM    9  C15 UNL     1      17.838  24.417   5.185  1.00  0.00     0.091 A 
HETATM   10  C16 UNL     1      16.732  23.593   5.004  1.00  0.00     0.087 A 
HETATM   11  C17 UNL     1      15.747  23.581   5.962  1.00  0.00     0.104 A 
HETATM   12  N3  UNL     1      15.865  24.366   7.060  1.00  0.00    -0.333 N 
HETATM   13  C19 UNL     1      16.915  25.145   7.229  1.00  0.00     0.079 A 
ATOM     14  H3  UNL     1      15.129  24.354   7.767  1.00  0.00     0.168 HD
HETATM   15  C20 UNL     1      17.067  26.015   8.430  1.00  0.00     0.089 C 
HETATM   16  N4  UNL     1      17.879  25.156   6.291  1.00  0.00    -0.339 N 
ATOM     17  H4  UNL     1      18.686  25.764   6.435  1.00  0.00     0.168 HD
BRANCH  11  18
HETATM   18  N2  UNL     1      14.717  22.859   5.871  1.00  0.00    -0.381 N 
HETATM   19  C18 UNL     1      14.112  22.047   6.853  1.00  0.00     0.147 C 
ATOM     20  H2  UNL     1      14.258  22.862   4.961  1.00  0.00     0.160 HD
ENDBRANCH  11  18
ENDBRANCH   8   9
ENDBRANCH   4   7
BRANCH   1  21
HETATM   21  C8  UNL     1      23.875  24.328  -0.597  1.00  0.00    -0.065 C 
HETATM   22  C7  UNL     1      24.734  24.294  -1.445  1.00  0.00    -0.065 C 
BRANCH  22  23
HETATM   23  C5  UNL     1      25.805  24.277  -2.476  1.00  0.00     0.297 C 
HETATM   24  C6  UNL     1      25.142  24.320  -3.793  1.00  0.00     0.056 C 
BRANCH  23  25
HETATM   25  N1  UNL     1      26.751  25.289  -2.144  1.00  0.00     0.103 N 
BRANCH  25  26
HETATM   26  C2  UNL     1      27.202  26.121  -3.213  1.00  0.00     0.269 C 
HETATM   27  C1  UNL     1      27.911  27.377  -2.856  1.00  0.00     0.037 C 
ENDBRANCH  25  26
BRANCH  25  28
HETATM   28  C3  UNL     1      27.908  24.523  -1.595  1.00  0.00     0.269 C 
HETATM   29  C4  UNL     1      28.164  24.787  -0.159  1.00  0.00     0.037 C 
ENDBRANCH  25  28
ENDBRANCH  23  25
ENDBRANCH  22  23
ENDBRANCH   1  21
TORSDOF 8
ENDMDL
MODEL 3
REMARK VINA RESULT: -5.998202564      1.047      2.094
REMARK  8 active torsions:
REMARK  status: ('A' for Active; 'I' for Inactive)
REMARK    1  A    between atoms: C2_2  and  N1_3 
REMARK    2  A    between atoms: N1_3  and  C3_4 
REMARK    3  A    between atoms: N1_3  and  C5_6 
REMARK    4  A    between atoms: C5_6  and  C7_8 
REMARK    5  A    between atoms: C8_9  and  C9_10 
REMARK    6  A    between atoms: C12_13  and  C13_14 
REMARK    7  A    between atoms: C14_15  and  C15_16 
REMARK    8  A    between atoms: C17_18  and  N2_19 
ROOT
HETATM    1  C9  UNL     1      23.190  24.543   0.452  1.00  0.00     0.017 A 
HETATM    2  C10 UNL     1      21.879  24.425   0.046  1.00  0.00     0.022 A 
HETATM    3  C11 UNL     1      20.842  24.418   0.950  1.00  0.00     0.022 A 
HETATM    4  C12 UNL     1      21.080  24.531   2.317  1.00  0.00     0.018 A 
HETATM    5  C21 UNL     1      22.372  24.649   2.736  1.00  0.00     0.022 A 
HETATM    6  C22 UNL     1      23.400  24.654   1.809  1.00  0.00     0.022 A 
ENDROOT
BRANCH   4   7
HETATM    7  C13 UNL     1      19.975  24.515   3.239  1.00  0.00    -0.060 C 
HETATM    8  C14 UNL     1      19.040  24.479   4.027  1.00  0.00    -0.043 C 
BRANCH   8   9
HETATM    9  C15 UNL     1      17.953  24.409   4.959  1.00  0.00     0.091 A 
HETATM   10  C16 UNL     1      16.854  23.600   4.691  1.00  0.00     0.087 A 
HETATM   11  C17 UNL     1      15.825  23.552   5.600  1.00  0.00     0.104 A 
HETATM   12  N3  UNL     1      15.894  24.289   6.735  1.00  0.00    -0.333 N 
HETATM   13  C19 UNL     1      16.937  25.054   6.986  1.00  0.00     0.079 A 
ATOM     14  H3  UNL     1      15.125  24.251   7.406  1.00  0.00     0.168 HD
HETATM   15  C20 UNL     1      17.036  25.871   8.230  1.00  0.00     0.089 C 
HETATM   16  N4  UNL     1      17.945  25.100   6.096  1.00  0.00    -0.339 N 
ATOM     17  H4  UNL     1      18.745  25.697   6.304  1.00  0.00     0.168 HD
BRANCH  11  18
HETATM   18  N2  UNL     1      14.798  22.840   5.430  1.00  0.00    -0.381 N 
HETATM   19  C18 UNL     1      14.035  22.140   6.386  1.00  0.00     0.147 C 
ATOM     20  H2  UNL     1      14.475  22.760   4.466  1.00  0.00     0.160 HD
ENDBRANCH  11  18
ENDBRANCH   8   9
ENDBRANCH   4   7
BRANCH   1  21
HETATM   21  C8  UNL     1      24.278  24.545  -0.507  1.00  0.00    -0.065 C 
HETATM   22  C7  UNL     1      25.186  24.551  -1.302  1.00  0.00    -0.065 C 
BRANCH  22  23
HETATM   23  C5  UNL     1      26.303  24.528  -2.283  1.00  0.00     0.297 C 
HETATM   24  C6  UNL     1      26.967  23.216  -2.157  1.00  0.00     0.056 C 
BRANCH  23  25
HETATM   25  N1  UNL     1      25.782  24.921  -3.550  1.00  0.00     0.103 N 
BRANCH  25  26
HETATM   26  C2  UNL     1      25.347  23.874  -4.418  1.00  0.00     0.269 C 
HETATM   27  C1  UNL     1      23.893  23.775  -4.702  1.00  0.00     0.037 C 
ENDBRANCH  25  26
BRANCH  25  28
HETATM   28  C3  UNL     1      26.919  25.649  -4.187  1.00  0.00     0.269 C 
HETATM   29  C4  UNL     1      27.481  26.726  -3.339  1.00  0.00     0.037 C 
ENDBRANCH  25  28
ENDBRANCH  23  25
ENDBRANCH  22  23
ENDBRANCH   1  21
TORSDOF 8
ENDMDL
MODEL 4
REMARK VINA RESULT: -5.942390120      2.057     11.421
REMARK  8 active torsions:
REMARK  status: ('A' for Active; 'I' for Inactive)
REMARK    1  A    between atoms: C2_2  and  N1_3 
REMARK    2  A    between atoms: N1_3  and  C3_4 
REMARK    3  A    between atoms: N1_3  and  C5_6 
REMARK    4  A    between atoms: C5_6  and  C7_8 
REMARK    5  A    between atoms: C8_9  and  C9_10 
REMARK    6  A    between atoms: C12_13  and  C13_14 
REMARK    7  A    between atoms: C14_15  and  C15_16 
REMARK    8  A    between atoms: C17_18  and  N2_19 
ROOT
HETATM    1  C9  UNL     1      18.614  23.695   4.486  1.00  0.00     0.017 A 
HETATM    2  C10 UNL     1      19.621  22.760   4.388  1.00  0.00     0.022 A 
HETATM    3  C11 UNL     1      20.808  23.043   3.753  1.00  0.00     0.022 A 
HETATM    4  C12 UNL     1      21.038  24.292   3.182  1.00  0.00     0.018 A 
HETATM    5  C21 UNL     1      20.052  25.230   3.270  1.00  0.00     0.022 A 
HETATM    6  C22 UNL     1      18.865  24.923   3.914  1.00  0.00     0.022 A 
ENDROOT
BRANCH   4   7
HETATM    7  C13 UNL     1      22.288  24.557   2.520  1.00  0.00    -0.060 C 
HETATM    8  C14 UNL     1      23.354  24.760   1.954  1.00  0.00    -0.043 C 
BRANCH   8   9
HETATM    9  C15 UNL     1      24.602  24.969   1.281  1.00  0.00     0.091 A 
HETATM   10  C16 UNL     1      24.676  24.858  -0.103  1.00  0.00     0.087 A 
HETATM   11  C17 UNL     1      25.886  25.061  -0.723  1.00  0.00     0.104 A 
HETATM   12  N3  UNL     1      26.980  25.362   0.017  1.00  0.00    -0.333 N 
HETATM   13  C19 UNL     1      26.906  25.467   1.329  1.00  0.00     0.079 A 
ATOM     14  H3  UNL     1      27.876  25.510  -0.449  1.00  0.00     0.168 HD
HETATM   15  C20 UNL     1      28.096  25.800   2.163  1.00  0.00     0.089 C 
HETATM   16  N4  UNL     1      25.721  25.269   1.935  1.00  0.00    -0.339 N 
ATOM     17  H4  UNL     1      25.679  25.353   2.951  1.00  0.00     0.168 HD
BRANCH  11  18
HETATM   18  N2  UNL     1      26.032  24.982  -1.973  1.00  0.00    -0.381 N 
HETATM   19  C18 UNL     1      25.323  24.193  -2.901  1.00  0.00     0.147 C 
ATOM     20  H2  UNL     1      26.765  25.571  -2.367  1.00  0.00     0.160 HD
ENDBRANCH  11  18
ENDBRANCH   8   9
ENDBRANCH   4   7
BRANCH   1  21
HETATM   21  C8  UNL     1      17.363  23.388   5.152  1.00  0.00    -0.065 C 
HETATM   22  C7  UNL     1      16.323  23.125   5.705  1.00  0.00    -0.065 C 
BRANCH  22  23
HETATM   23  C5  UNL     1      15.049  22.820   6.409  1.00  0.00     0.297 C 
HETATM   24  C6  UNL     1      14.010  22.654   5.376  1.00  0.00     0.056 C 
BRANCH  23  25
HETATM   25  N1  UNL     1      15.296  21.754   7.321  1.00  0.00     0.103 N 
BRANCH  25  26
HETATM   26  C2  UNL     1      15.200  20.428   6.799  1.00  0.00     0.269 C 
HETATM   27  C1  UNL     1      16.428  19.824   6.223  1.00  0.00     0.037 C 
ENDBRANCH  25  26
BRANCH  25  28
HETATM   28  C3  UNL     1      14.257  21.944   8.375  1.00  0.00     0.269 C 
HETATM   29  C4  UNL     1      14.073  20.759   9.246  1.00  0.00     0.037 C 
ENDBRANCH  25  28
ENDBRANCH  23  25
ENDBRANCH  22  23
ENDBRANCH   1  21
TORSDOF 8
ENDMDL
MODEL 5
REMARK VINA RESULT: -5.935271454      0.982      2.083
REMARK  8 active torsions:
REMARK  status: ('A' for Active; 'I' for Inactive)
REMARK    1  A    between atoms: C2_2  and  N1_3 
REMARK    2  A    between atoms: N1_3  and  C3_4 
REMARK    3  A    between atoms: N1_3  and  C5_6 
REMARK    4  A    between atoms: C5_6  and  C7_8 
REMARK    5  A    between atoms: C8_9  and  C9_10 
REMARK    6  A    between atoms: C12_13  and  C13_14 
REMARK    7  A    between atoms: C14_15  and  C15_16 
REMARK    8  A    between atoms: C17_18  and  N2_19 
ROOT
HETATM    1  C9  UNL     1      22.639  24.377   0.758  1.00  0.00     0.017 A 
HETATM    2  C10 UNL     1      22.954  24.573   2.085  1.00  0.00     0.022 A 
HETATM    3  C11 UNL     1      21.982  24.637   3.056  1.00  0.00     0.022 A 
HETATM    4  C12 UNL     1      20.634  24.504   2.732  1.00  0.00     0.018 A 
HETATM    5  C21 UNL     1      20.304  24.308   1.423  1.00  0.00     0.022 A 
HETATM    6  C22 UNL     1      21.300  24.247   0.463  1.00  0.00     0.022 A 
ENDROOT
BRANCH   4   7
HETATM    7  C13 UNL     1      19.639  24.579   3.768  1.00  0.00    -0.060 C 
HETATM    8  C14 UNL     1      18.790  24.620   4.649  1.00  0.00    -0.043 C 
BRANCH   8   9
HETATM    9  C15 UNL     1      17.799  24.638   5.684  1.00  0.00     0.091 A 
HETATM   10  C16 UNL     1      17.836  25.619   6.670  1.00  0.00     0.087 A 
HETATM   11  C17 UNL     1      16.875  25.612   7.651  1.00  0.00     0.104 A 
HETATM   12  N3  UNL     1      15.914  24.657   7.648  1.00  0.00    -0.333 N 
HETATM   13  C19 UNL     1      15.882  23.729   6.712  1.00  0.00     0.079 A 
ATOM     14  H3  UNL     1      15.204  24.656   8.381  1.00  0.00     0.168 HD
HETATM   15  C20 UNL     1      14.832  22.670   6.686  1.00  0.00     0.089 C 
HETATM   16  N4  UNL     1      16.822  23.737   5.750  1.00  0.00    -0.339 N 
ATOM     17  H4  UNL     1      16.785  23.012   5.033  1.00  0.00     0.168 HD
BRANCH  11  18
HETATM   18  N2  UNL     1      16.839  26.469   8.575  1.00  0.00    -0.381 N 
HETATM   19  C18 UNL     1      15.985  27.582   8.722  1.00  0.00     0.147 C 
ATOM     20  H2  UNL     1      17.523  26.340   9.321  1.00  0.00     0.160 HD
ENDBRANCH  11  18
ENDBRANCH   8   9
ENDBRANCH   4   7
BRANCH   1  21
HETATM   21  C8  UNL     1      23.670  24.316  -0.260  1.00  0.00    -0.065 C 
HETATM   22  C7  UNL     1      24.524  24.268  -1.111  1.00  0.00    -0.065 C 
BRANCH  22  23
HETATM   23  C5  UNL     1      25.597  24.217  -2.139  1.00  0.00     0.297 C 
HETATM   24  C6  UNL     1      24.937  24.230  -3.458  1.00  0.00     0.056 C 
BRANCH  23  25
HETATM   25  N1  UNL     1      26.549  25.232  -1.831  1.00  0.00     0.103 N 
BRANCH  25  26
HETATM   26  C2  UNL     1      27.276  25.784  -2.929  1.00  0.00     0.269 C 
HETATM   27  C1  UNL     1      27.730  27.194  -2.815  1.00  0.00     0.037 C 
ENDBRANCH  25  26
BRANCH  25  28
HETATM   28  C3  UNL     1      27.501  24.552  -0.904  1.00  0.00     0.269 C 
HETATM   29  C4  UNL     1      27.744  25.306   0.350  1.00  0.00     0.037 C 
ENDBRANCH  25  28
ENDBRANCH  23  25
ENDBRANCH  22  23
ENDBRANCH   1  21
TORSDOF 8
ENDMDL
