MODEL 1
REMARK VINA RESULT: -7.889111783      0.000      0.000
REMARK  5 active torsions:
REMARK  status: ('A' for Active; 'I' for Inactive)
REMARK    1  A    between atoms: C2_2  and  C5_5 
REMARK    2  A    between atoms: C7_7  and  C8_8 
REMARK    3  A    between atoms: C8_8  and  C9_9 
REMARK    4  A    between atoms: C11_12  and  N1_13 
REMARK    5  A    between atoms: N3_20  and  C13_21 
ROOT
HETATM    1  C9  UNL     1      17.010  23.231   4.182  1.00  0.00     0.082 A 
HETATM    2  S1  UNL     1      16.967  23.052   2.470  1.00  0.00    -0.065 SA
HETATM    3  C10 UNL     1      15.740  21.875   2.385  1.00  0.00     0.092 A 
HETATM    4  C11 UNL     1      15.206  21.278   1.302  1.00  0.00     0.131 C 
HETATM    5  C12 UNL     1      15.427  21.680   3.698  1.00  0.00     0.267 A 
HETATM    6  O1  UNL     1      14.497  20.816   3.977  1.00  0.00    -0.266 OA
HETATM    7  N3  UNL     1      16.076  22.372   4.595  1.00  0.00    -0.302 N 
ENDROOT
BRANCH   1   8
HETATM    8  C8  UNL     1      17.804  24.057   4.896  1.00  0.00     0.068 C 
BRANCH   8   9
HETATM    9  C7  UNL     1      17.150  25.250   5.455  1.00  0.00     0.052 A 
HETATM   10  C6  UNL     1      17.047  25.685   6.740  1.00  0.00     0.058 A 
HETATM   11  C5  UNL     1      16.322  26.869   6.719  1.00  0.00     0.035 A 
HETATM   12  N5  UNL     1      16.007  27.119   5.431  1.00  0.00    -0.304 N 
HETATM   13  N4  UNL     1      16.501  26.155   4.693  1.00  0.00    -0.301 N 
ATOM     14  H5  UNL     1      15.475  27.920   5.089  1.00  0.00     0.186 HD
ATOM     15  H4  UNL     1      16.408  26.097   3.679  1.00  0.00     0.187 HD
BRANCH  11  16
HETATM   16  C2  UNL     1      15.953  27.709   7.870  1.00  0.00    -0.007 C 
HETATM   17  C1  UNL     1      16.937  28.836   8.107  1.00  0.00     0.021 C 
HETATM   18  C3  UNL     1      15.841  26.803   9.089  1.00  0.00     0.021 C 
HETATM   19  C4  UNL     1      14.594  28.348   7.663  1.00  0.00     0.021 C 
ENDBRANCH  11  16
ENDBRANCH   8   9
ENDBRANCH   1   8
BRANCH   7  20
HETATM   20  C13 UNL     1      15.799  22.227   6.049  1.00  0.00     0.094 C 
HETATM   21  C14 UNL     1      16.013  20.829   6.535  1.00  0.00     0.026 C 
HETATM   22  C15 UNL     1      14.849  20.254   7.304  1.00  0.00     0.002 C 
HETATM   23  C16 UNL     1      14.202  21.194   8.261  1.00  0.00     0.000 C 
HETATM   24  C17 UNL     1      14.266  22.641   7.878  1.00  0.00     0.002 C 
HETATM   25  C18 UNL     1      14.379  22.711   6.348  1.00  0.00     0.026 C 
ENDBRANCH   7  20
BRANCH   4  26
HETATM   26  N1  UNL     1      14.182  20.312   1.434  1.00  0.00    -0.317 N 
HETATM   27  N2  UNL     1      14.500  19.085   1.384  1.00  0.00    -0.345 N 
ATOM     28  H22 UNL     1      15.476  18.819   1.253  1.00  0.00     0.176 HD
ATOM     29  H21 UNL     1      13.761  18.389   1.480  1.00  0.00     0.176 HD
ATOM     30  H1  UNL     1      13.211  20.595   1.565  1.00  0.00     0.185 HD
ENDBRANCH   4  26
TORSDOF 5
ENDMDL
MODEL 2
REMARK VINA RESULT: -7.776643759      2.707      6.262
REMARK  5 active torsions:
REMARK  status: ('A' for Active; 'I' for Inactive)
REMARK    1  A    between atoms: C2_2  and  C5_5 
REMARK    2  A    between atoms: C7_7  and  C8_8 
REMARK    3  A    between atoms: C8_8  and  C9_9 
REMARK    4  A    between atoms: C11_12  and  N1_13 
REMARK    5  A    between atoms: N3_20  and  C13_21 
ROOT
HETATM    1  C9  UNL     1      16.814  23.640   4.931  1.00  0.00     0.082 A 
HETATM    2  S1  UNL     1      16.075  22.084   4.910  1.00  0.00    -0.065 SA
HETATM    3  C10 UNL     1      15.118  22.257   6.308  1.00  0.00     0.092 A 
HETATM    4  C11 UNL     1      14.270  21.377   6.874  1.00  0.00     0.131 C 
HETATM    5  C12 UNL     1      15.425  23.521   6.721  1.00  0.00     0.267 A 
HETATM    6  O1  UNL     1      14.842  23.965   7.794  1.00  0.00    -0.266 OA
HETATM    7  N3  UNL     1      16.283  24.208   6.015  1.00  0.00    -0.302 N 
ENDROOT
BRANCH   1   8
HETATM    8  C8  UNL     1      17.703  24.132   4.043  1.00  0.00     0.068 C 
BRANCH   8   9
HETATM    9  C7  UNL     1      17.481  23.756   2.638  1.00  0.00     0.052 A 
HETATM   10  C6  UNL     1      16.385  23.898   1.844  1.00  0.00     0.058 A 
HETATM   11  C5  UNL     1      16.706  23.373   0.599  1.00  0.00     0.035 A 
HETATM   12  N5  UNL     1      17.978  22.930   0.671  1.00  0.00    -0.304 N 
HETATM   13  N4  UNL     1      18.426  23.161   1.880  1.00  0.00    -0.301 N 
ATOM     14  H5  UNL     1      18.501  22.490  -0.086  1.00  0.00     0.186 HD
ATOM     15  H4  UNL     1      19.363  22.924   2.205  1.00  0.00     0.187 HD
BRANCH  11  16
HETATM   16  C2  UNL     1      15.837  23.300  -0.587  1.00  0.00    -0.007 C 
HETATM   17  C1  UNL     1      14.847  24.446  -0.654  1.00  0.00     0.021 C 
HETATM   18  C3  UNL     1      15.128  21.953  -0.563  1.00  0.00     0.021 C 
HETATM   19  C4  UNL     1      16.655  23.351  -1.863  1.00  0.00     0.021 C 
ENDBRANCH  11  16
ENDBRANCH   8   9
ENDBRANCH   1   8
BRANCH   7  20
HETATM   20  C13 UNL     1      16.675  25.593   6.389  1.00  0.00     0.094 C 
HETATM   21  C14 UNL     1      16.957  25.732   7.851  1.00  0.00     0.026 C 
HETATM   22  C15 UNL     1      16.215  26.862   8.522  1.00  0.00     0.002 C 
HETATM   23  C16 UNL     1      16.152  28.126   7.737  1.00  0.00     0.000 C 
HETATM   24  C17 UNL     1      16.167  27.957   6.248  1.00  0.00     0.002 C 
HETATM   25  C18 UNL     1      15.588  26.570   5.934  1.00  0.00     0.026 C 
ENDBRANCH   7  20
BRANCH   4  26
HETATM   26  N1  UNL     1      13.556  21.707   8.048  1.00  0.00    -0.317 N 
HETATM   27  N2  UNL     1      13.886  21.142   9.134  1.00  0.00    -0.345 N 
ATOM     28  H22 UNL     1      14.652  20.468   9.143  1.00  0.00     0.176 HD
ATOM     29  H21 UNL     1      13.370  21.380   9.981  1.00  0.00     0.176 HD
ATOM     30  H1  UNL     1      12.792  22.382   8.022  1.00  0.00     0.185 HD
ENDBRANCH   4  26
TORSDOF 5
ENDMDL
MODEL 3
REMARK VINA RESULT: -7.760738519      3.215      6.197
REMARK  5 active torsions:
REMARK  status: ('A' for Active; 'I' for Inactive)
REMARK    1  A    between atoms: C2_2  and  C5_5 
REMARK    2  A    between atoms: C7_7  and  C8_8 
REMARK    3  A    between atoms: C8_8  and  C9_9 
REMARK    4  A    between atoms: C11_12  and  N1_13 
REMARK    5  A    between atoms: N3_20  and  C13_21 
ROOT
HETATM    1  C9  UNL     1      16.224  24.108   5.035  1.00  0.00     0.082 A 
HETATM    2  S1  UNL     1      15.441  22.575   4.960  1.00  0.00    -0.065 SA
HETATM    3  C10 UNL     1      14.803  22.557   6.539  1.00  0.00     0.092 A 
HETATM    4  C11 UNL     1      14.060  21.612   7.146  1.00  0.00     0.131 C 
HETATM    5  C12 UNL     1      15.234  23.748   7.045  1.00  0.00     0.267 A 
HETATM    6  O1  UNL     1      14.904  24.041   8.267  1.00  0.00    -0.266 OA
HETATM    7  N3  UNL     1      15.951  24.521   6.274  1.00  0.00    -0.302 N 
ENDROOT
BRANCH   1   8
HETATM    8  C8  UNL     1      16.925  24.713   4.055  1.00  0.00     0.068 C 
BRANCH   8   9
HETATM    9  C7  UNL     1      18.268  24.171   3.798  1.00  0.00     0.052 A 
HETATM   10  C6  UNL     1      19.003  24.124   2.654  1.00  0.00     0.058 A 
HETATM   11  C5  UNL     1      20.206  23.502   2.960  1.00  0.00     0.035 A 
HETATM   12  N5  UNL     1      20.169  23.190   4.272  1.00  0.00    -0.304 N 
HETATM   13  N4  UNL     1      19.020  23.590   4.757  1.00  0.00    -0.301 N 
ATOM     14  H5  UNL     1      20.909  22.723   4.796  1.00  0.00     0.186 HD
ATOM     15  H4  UNL     1      18.731  23.478   5.729  1.00  0.00     0.187 HD
BRANCH  11  16
HETATM   16  C2  UNL     1      21.322  23.222   2.042  1.00  0.00    -0.007 C 
HETATM   17  C1  UNL     1      21.943  21.860   2.278  1.00  0.00     0.021 C 
HETATM   18  C3  UNL     1      22.347  24.336   2.203  1.00  0.00     0.021 C 
HETATM   19  C4  UNL     1      20.858  23.249   0.599  1.00  0.00     0.021 C 
ENDBRANCH  11  16
ENDBRANCH   8   9
ENDBRANCH   1   8
BRANCH   7  20
HETATM   20  C13 UNL     1      16.462  25.837   6.741  1.00  0.00     0.094 C 
HETATM   21  C14 UNL     1      16.622  25.894   8.226  1.00  0.00     0.026 C 
HETATM   22  C15 UNL     1      15.955  27.080   8.879  1.00  0.00     0.002 C 
HETATM   23  C16 UNL     1      16.109  28.368   8.148  1.00  0.00     0.000 C 
HETATM   24  C17 UNL     1      16.242  28.248   6.660  1.00  0.00     0.002 C 
HETATM   25  C18 UNL     1      15.540  26.950   6.236  1.00  0.00     0.026 C 
ENDBRANCH   7  20
BRANCH   4  26
HETATM   26  N1  UNL     1      13.618  21.778   8.479  1.00  0.00    -0.317 N 
HETATM   27  N2  UNL     1      14.055  20.982   9.363  1.00  0.00    -0.345 N 
ATOM     28  H22 UNL     1      14.710  20.244   9.103  1.00  0.00     0.176 HD
ATOM     29  H21 UNL     1      13.736  21.102  10.324  1.00  0.00     0.176 HD
ATOM     30  H1  UNL     1      12.963  22.521   8.722  1.00  0.00     0.185 HD
ENDBRANCH   4  26
TORSDOF 5
ENDMDL
MODEL 4
REMARK VINA RESULT: -7.537071426      3.454      6.026
REMARK  5 active torsions:
REMARK  status: ('A' for Active; 'I' for Inactive)
REMARK    1  A    between atoms: C2_2  and  C5_5 
REMARK    2  A    between atoms: C7_7  and  C8_8 
REMARK    3  A    between atoms: C8_8  and  C9_9 
REMARK    4  A    between atoms: C11_12  and  N1_13 
REMARK    5  A    between atoms: N3_20  and  C13_21 
ROOT
HETATM    1  C9  UNL     1      17.153  24.724   4.296  1.00  0.00     0.082 A 
HETATM    2  S1  UNL     1      16.559  23.237   3.663  1.00  0.00    -0.065 SA
HETATM    3  C10 UNL     1      15.499  22.844   4.936  1.00  0.00     0.092 A 
HETATM    4  C11 UNL     1      14.697  21.771   5.076  1.00  0.00     0.131 C 
HETATM    5  C12 UNL     1      15.664  23.893   5.792  1.00  0.00     0.267 A 
HETATM    6  O1  UNL     1      14.973  23.891   6.892  1.00  0.00    -0.266 OA
HETATM    7  N3  UNL     1      16.502  24.836   5.455  1.00  0.00    -0.302 N 
ENDROOT
BRANCH   1   8
HETATM    8  C8  UNL     1      18.052  25.552   3.723  1.00  0.00     0.068 C 
BRANCH   8   9
HETATM    9  C7  UNL     1      19.329  24.937   3.327  1.00  0.00     0.052 A 
HETATM   10  C6  UNL     1      20.089  25.112   2.213  1.00  0.00     0.058 A 
HETATM   11  C5  UNL     1      21.199  24.286   2.336  1.00  0.00     0.035 A 
HETATM   12  N5  UNL     1      21.081  23.637   3.513  1.00  0.00    -0.304 N 
HETATM   13  N4  UNL     1      19.973  24.029   4.090  1.00  0.00    -0.301 N 
ATOM     14  H5  UNL     1      21.743  22.956   3.889  1.00  0.00     0.186 HD
ATOM     15  H4  UNL     1      19.641  23.694   4.994  1.00  0.00     0.187 HD
BRANCH  11  16
HETATM   16  C2  UNL     1      22.304  24.130   1.375  1.00  0.00    -0.007 C 
HETATM   17  C1  UNL     1      21.927  24.578  -0.022  1.00  0.00     0.021 C 
HETATM   18  C3  UNL     1      22.734  22.670   1.395  1.00  0.00     0.021 C 
HETATM   19  C4  UNL     1      23.506  24.954   1.792  1.00  0.00     0.021 C 
ENDBRANCH  11  16
ENDBRANCH   8   9
ENDBRANCH   1   8
BRANCH   7  20
HETATM   20  C13 UNL     1      16.744  26.018   6.325  1.00  0.00     0.094 C 
HETATM   21  C14 UNL     1      16.910  25.645   7.763  1.00  0.00     0.026 C 
HETATM   22  C15 UNL     1      16.027  26.418   8.711  1.00  0.00     0.002 C 
HETATM   23  C16 UNL     1      15.907  27.872   8.416  1.00  0.00     0.000 C 
HETATM   24  C17 UNL     1      16.041  28.244   6.970  1.00  0.00     0.002 C 
HETATM   25  C18 UNL     1      15.610  27.028   6.137  1.00  0.00     0.026 C 
ENDBRANCH   7  20
BRANCH   4  26
HETATM   26  N1  UNL     1      13.879  21.618   6.219  1.00  0.00    -0.317 N 
HETATM   27  N2  UNL     1      12.621  21.688   6.075  1.00  0.00    -0.345 N 
ATOM     28  H22 UNL     1      12.224  21.851   5.149  1.00  0.00     0.176 HD
ATOM     29  H21 UNL     1      12.031  21.577   6.900  1.00  0.00     0.176 HD
ATOM     30  H1  UNL     1      14.291  21.455   7.138  1.00  0.00     0.185 HD
ENDBRANCH   4  26
TORSDOF 5
ENDMDL
MODEL 5
REMARK VINA RESULT: -7.379291999      3.178      6.338
REMARK  5 active torsions:
REMARK  status: ('A' for Active; 'I' for Inactive)
REMARK    1  A    between atoms: C2_2  and  C5_5 
REMARK    2  A    between atoms: C7_7  and  C8_8 
REMARK    3  A    between atoms: C8_8  and  C9_9 
REMARK    4  A    between atoms: C11_12  and  N1_13 
REMARK    5  A    between atoms: N3_20  and  C13_21 
ROOT
HETATM    1  C9  UNL     1      17.451  24.216   5.132  1.00  0.00     0.082 A 
HETATM    2  S1  UNL     1      16.875  22.632   4.775  1.00  0.00    -0.065 SA
HETATM    3  C10 UNL     1      15.618  22.572   5.921  1.00  0.00     0.092 A 
HETATM    4  C11 UNL     1      14.745  21.578   6.177  1.00  0.00     0.131 C 
HETATM    5  C12 UNL     1      15.711  23.791   6.526  1.00  0.00     0.267 A 
HETATM    6  O1  UNL     1      14.865  24.063   7.474  1.00  0.00    -0.266 OA
HETATM    7  N3  UNL     1      16.641  24.611   6.117  1.00  0.00    -0.302 N 
ENDROOT
BRANCH   1   8
HETATM    8  C8  UNL     1      18.469  24.867   4.534  1.00  0.00     0.068 C 
BRANCH   8   9
HETATM    9  C7  UNL     1      19.099  24.170   3.402  1.00  0.00     0.052 A 
HETATM   10  C6  UNL     1      18.791  24.170   2.077  1.00  0.00     0.058 A 
HETATM   11  C5  UNL     1      19.703  23.339   1.440  1.00  0.00     0.035 A 
HETATM   12  N5  UNL     1      20.534  22.860   2.389  1.00  0.00    -0.304 N 
HETATM   13  N4  UNL     1      20.168  23.358   3.544  1.00  0.00    -0.301 N 
ATOM     14  H5  UNL     1      21.313  22.221   2.233  1.00  0.00     0.186 HD
ATOM     15  H4  UNL     1      20.628  23.159   4.432  1.00  0.00     0.187 HD
BRANCH  11  16
HETATM   16  C2  UNL     1      19.767  23.023   0.003  1.00  0.00    -0.007 C 
HETATM   17  C1  UNL     1      20.419  21.682  -0.269  1.00  0.00     0.021 C 
HETATM   18  C3  UNL     1      20.514  24.155  -0.689  1.00  0.00     0.021 C 
HETATM   19  C4  UNL     1      18.379  22.968  -0.603  1.00  0.00     0.021 C 
ENDBRANCH  11  16
ENDBRANCH   8   9
ENDBRANCH   1   8
BRANCH   7  20
HETATM   20  C13 UNL     1      16.816  25.961   6.717  1.00  0.00     0.094 C 
HETATM   21  C14 UNL     1      16.782  25.931   8.211  1.00  0.00     0.026 C 
HETATM   22  C15 UNL     1      15.816  26.910   8.831  1.00  0.00     0.002 C 
HETATM   23  C16 UNL     1      15.792  28.257   8.196  1.00  0.00     0.000 C 
HETATM   24  C17 UNL     1      16.123  28.282   6.735  1.00  0.00     0.002 C 
HETATM   25  C18 UNL     1      15.755  26.909   6.153  1.00  0.00     0.026 C 
ENDBRANCH   7  20
BRANCH   4  26
HETATM   26  N1  UNL     1      13.759  21.715   7.181  1.00  0.00    -0.317 N 
HETATM   27  N2  UNL     1      13.970  21.181   8.311  1.00  0.00    -0.345 N 
ATOM     28  H22 UNL     1      14.836  20.668   8.476  1.00  0.00     0.176 HD
ATOM     29  H21 UNL     1      13.258  21.281   9.035  1.00  0.00     0.176 HD
ATOM     30  H1  UNL     1      12.898  22.232   6.999  1.00  0.00     0.185 HD
ENDBRANCH   4  26
TORSDOF 5
ENDMDL
