MODEL 1
REMARK VINA RESULT: -6.684514421      0.000      0.000
REMARK  3 active torsions:
REMARK  status: ('A' for Active; 'I' for Inactive)
REMARK    1  A    between atoms: C7_10  and  C8_11 
REMARK       I    between atoms: C8_11  and  N2_13 
REMARK    2  A    between atoms: N2_13  and  C9_15 
REMARK    3  A    between atoms: N3_22  and  C16_23 
ROOT
HETATM    1  C9  UNL     1      16.187  19.321   2.613  1.00  0.00     0.088 C 
HETATM    2  C10 UNL     1      15.786  20.758   2.839  1.00  0.00     0.061 C 
HETATM    3  C11 UNL     1      16.597  21.292   4.015  1.00  0.00     0.226 C 
HETATM    4  C12 UNL     1      18.059  20.983   3.780  1.00  0.00     0.038 C 
HETATM    5  C13 UNL     1      18.300  19.691   4.480  1.00  0.00     0.038 C 
HETATM    6  C14 UNL     1      16.925  19.327   5.019  1.00  0.00     0.226 C 
HETATM    7  C15 UNL     1      16.255  18.511   3.898  1.00  0.00     0.061 C 
HETATM    8  N3  UNL     1      16.183  20.507   5.149  1.00  0.00     0.102 N 
ENDROOT
BRANCH   1   9
HETATM    9  N2  UNL     1      15.222  18.737   1.705  1.00  0.00    -0.356 N 
HETATM   10  C8  UNL     1      15.480  18.608   0.311  1.00  0.00     0.223 C 
HETATM   11  O2  UNL     1      16.590  19.025  -0.107  1.00  0.00    -0.273 OA
ATOM     12  H2  UNL     1      14.331  18.409   2.075  1.00  0.00     0.162 HD
BRANCH  10  13
HETATM   13  C7  UNL     1      14.474  18.000  -0.631  1.00  0.00     0.090 C 
HETATM   14  C2  UNL     1      13.129  17.855  -0.021  1.00  0.00     0.087 C 
HETATM   15  C1  UNL     1      12.441  16.540  -0.404  1.00  0.00     0.020 C 
HETATM   16  C3  UNL     1      12.216  18.995  -0.160  1.00  0.00     0.222 C 
HETATM   17  O1  UNL     1      11.280  18.972   0.720  1.00  0.00    -0.273 OA
HETATM   18  N1  UNL     1      12.209  20.062  -1.067  1.00  0.00    -0.361 N 
HETATM   19  C4  UNL     1      12.643  20.078  -2.444  1.00  0.00     0.122 C 
ATOM     20  H1  UNL     1      11.850  20.945  -0.708  1.00  0.00     0.162 HD
HETATM   21  C5  UNL     1      13.337  18.784  -2.755  1.00  0.00     0.020 C 
HETATM   22  C6  UNL     1      14.573  18.724  -1.913  1.00  0.00     0.016 C 
ENDBRANCH  10  13
ENDBRANCH   1   9
BRANCH   8  23
HETATM   23  C16 UNL     1      16.080  21.205   6.350  1.00  0.00     0.228 C 
HETATM   24  C17 UNL     1      15.210  20.709   7.434  1.00  0.00     0.062 C 
HETATM   25  C18 UNL     1      13.816  21.308   7.420  1.00  0.00     0.169 C 
HETATM   26  O3  UNL     1      14.002  22.702   7.601  1.00  0.00    -0.391 OA
HETATM   27  C19 UNL     1      14.460  23.154   6.373  1.00  0.00     0.169 C 
HETATM   28  C20 UNL     1      15.832  22.677   6.067  1.00  0.00     0.062 C 
ENDBRANCH   8  23
TORSDOF 3
ENDMDL
MODEL 2
REMARK VINA RESULT: -6.540404250      2.350      3.020
REMARK  3 active torsions:
REMARK  status: ('A' for Active; 'I' for Inactive)
REMARK    1  A    between atoms: C7_10  and  C8_11 
REMARK       I    between atoms: C8_11  and  N2_13 
REMARK    2  A    between atoms: N2_13  and  C9_15 
REMARK    3  A    between atoms: N3_22  and  C16_23 
ROOT
HETATM    1  C9  UNL     1      15.692  20.534   3.548  1.00  0.00     0.088 C 
HETATM    2  C10 UNL     1      16.849  21.302   2.959  1.00  0.00     0.061 C 
HETATM    3  C11 UNL     1      17.627  21.935   4.108  1.00  0.00     0.226 C 
HETATM    4  C12 UNL     1      17.923  20.871   5.142  1.00  0.00     0.038 C 
HETATM    5  C13 UNL     1      16.810  20.968   6.127  1.00  0.00     0.038 C 
HETATM    6  C14 UNL     1      15.922  22.054   5.541  1.00  0.00     0.226 C 
HETATM    7  C15 UNL     1      14.939  21.315   4.614  1.00  0.00     0.061 C 
HETATM    8  N3  UNL     1      16.711  22.865   4.718  1.00  0.00     0.102 N 
ENDROOT
BRANCH   1   9
HETATM    9  N2  UNL     1      14.801  20.186   2.462  1.00  0.00    -0.356 N 
HETATM   10  C8  UNL     1      14.837  18.907   1.838  1.00  0.00     0.223 C 
HETATM   11  O2  UNL     1      15.681  18.082   2.272  1.00  0.00    -0.273 OA
ATOM     12  H2  UNL     1      14.128  20.877   2.133  1.00  0.00     0.162 HD
BRANCH  10  13
HETATM   13  C7  UNL     1      13.908  18.547   0.707  1.00  0.00     0.090 C 
HETATM   14  C2  UNL     1      13.231  19.730   0.121  1.00  0.00     0.087 C 
HETATM   15  C1  UNL     1      11.763  19.462  -0.228  1.00  0.00     0.020 C 
HETATM   16  C3  UNL     1      13.926  20.407  -0.980  1.00  0.00     0.222 C 
HETATM   17  O1  UNL     1      13.514  21.614  -1.138  1.00  0.00    -0.273 OA
HETATM   18  N1  UNL     1      14.928  19.959  -1.849  1.00  0.00    -0.361 N 
HETATM   19  C4  UNL     1      15.150  18.628  -2.359  1.00  0.00     0.122 C 
ATOM     20  H1  UNL     1      15.590  20.668  -2.163  1.00  0.00     0.162 HD
HETATM   21  C5  UNL     1      14.241  17.670  -1.646  1.00  0.00     0.020 C 
HETATM   22  C6  UNL     1      14.647  17.654  -0.206  1.00  0.00     0.016 C 
ENDBRANCH  10  13
ENDBRANCH   1   9
BRANCH   8  23
HETATM   23  C16 UNL     1      17.279  24.059   5.156  1.00  0.00     0.228 C 
HETATM   24  C17 UNL     1      16.610  24.875   6.188  1.00  0.00     0.062 C 
HETATM   25  C18 UNL     1      15.718  25.963   5.622  1.00  0.00     0.169 C 
HETATM   26  O3  UNL     1      16.579  26.808   4.876  1.00  0.00    -0.391 OA
HETATM   27  C19 UNL     1      16.842  26.098   3.715  1.00  0.00     0.169 C 
HETATM   28  C20 UNL     1      17.687  24.902   3.959  1.00  0.00     0.062 C 
ENDBRANCH   8  23
TORSDOF 3
ENDMDL
MODEL 3
REMARK VINA RESULT: -6.490042033      5.480      7.125
REMARK  3 active torsions:
REMARK  status: ('A' for Active; 'I' for Inactive)
REMARK    1  A    between atoms: C7_10  and  C8_11 
REMARK       I    between atoms: C8_11  and  N2_13 
REMARK    2  A    between atoms: N2_13  and  C9_15 
REMARK    3  A    between atoms: N3_22  and  C16_23 
ROOT
HETATM    1  C9  UNL     1      19.739  22.796   3.512  1.00  0.00     0.088 C 
HETATM    2  C10 UNL     1      18.402  22.165   3.208  1.00  0.00     0.061 C 
HETATM    3  C11 UNL     1      17.353  23.273   3.186  1.00  0.00     0.226 C 
HETATM    4  C12 UNL     1      17.842  24.388   2.289  1.00  0.00     0.038 C 
HETATM    5  C13 UNL     1      18.525  25.348   3.199  1.00  0.00     0.038 C 
HETATM    6  C14 UNL     1      18.424  24.670   4.557  1.00  0.00     0.226 C 
HETATM    7  C15 UNL     1      19.683  23.789   4.662  1.00  0.00     0.061 C 
HETATM    8  N3  UNL     1      17.330  23.798   4.527  1.00  0.00     0.102 N 
ENDROOT
BRANCH   1   9
HETATM    9  N2  UNL     1      20.665  21.727   3.819  1.00  0.00    -0.356 N 
HETATM   10  C8  UNL     1      21.609  21.251   2.868  1.00  0.00     0.223 C 
HETATM   11  O2  UNL     1      21.609  21.799   1.736  1.00  0.00    -0.273 OA
ATOM     12  H2  UNL     1      20.640  21.302   4.746  1.00  0.00     0.162 HD
BRANCH  10  13
HETATM   13  C7  UNL     1      22.573  20.138   3.191  1.00  0.00     0.090 C 
HETATM   14  C2  UNL     1      22.088  19.257   4.283  1.00  0.00     0.087 C 
HETATM   15  C1  UNL     1      23.204  18.837   5.247  1.00  0.00     0.020 C 
HETATM   16  C3  UNL     1      21.265  18.109   3.886  1.00  0.00     0.222 C 
HETATM   17  O1  UNL     1      20.557  17.666   4.863  1.00  0.00    -0.273 OA
HETATM   18  N1  UNL     1      21.138  17.450   2.658  1.00  0.00    -0.361 N 
HETATM   19  C4  UNL     1      22.134  17.251   1.633  1.00  0.00     0.122 C 
ATOM     20  H1  UNL     1      20.217  17.058   2.460  1.00  0.00     0.162 HD
HETATM   21  C5  UNL     1      23.353  18.060   1.969  1.00  0.00     0.020 C 
HETATM   22  C6  UNL     1      22.961  19.503   1.917  1.00  0.00     0.016 C 
ENDBRANCH  10  13
ENDBRANCH   1   9
BRANCH   8  23
HETATM   23  C16 UNL     1      16.070  24.152   5.005  1.00  0.00     0.228 C 
HETATM   24  C17 UNL     1      15.924  25.202   6.032  1.00  0.00     0.062 C 
HETATM   25  C18 UNL     1      15.879  24.667   7.450  1.00  0.00     0.169 C 
HETATM   26  O3  UNL     1      14.735  23.831   7.503  1.00  0.00    -0.391 OA
HETATM   27  C19 UNL     1      15.115  22.679   6.834  1.00  0.00     0.169 C 
HETATM   28  C20 UNL     1      15.293  22.900   5.377  1.00  0.00     0.062 C 
ENDBRANCH   8  23
TORSDOF 3
ENDMDL
MODEL 4
REMARK VINA RESULT: -6.407400994      4.962      8.460
REMARK  3 active torsions:
REMARK  status: ('A' for Active; 'I' for Inactive)
REMARK    1  A    between atoms: C7_10  and  C8_11 
REMARK       I    between atoms: C8_11  and  N2_13 
REMARK    2  A    between atoms: N2_13  and  C9_15 
REMARK    3  A    between atoms: N3_22  and  C16_23 
ROOT
HETATM    1  C9  UNL     1      19.537  23.249   2.917  1.00  0.00     0.088 C 
HETATM    2  C10 UNL     1      20.143  24.629   2.834  1.00  0.00     0.061 C 
HETATM    3  C11 UNL     1      21.079  24.659   1.630  1.00  0.00     0.226 C 
HETATM    4  C12 UNL     1      20.338  24.126   0.424  1.00  0.00     0.038 C 
HETATM    5  C13 UNL     1      20.672  22.675   0.373  1.00  0.00     0.038 C 
HETATM    6  C14 UNL     1      21.541  22.477   1.606  1.00  0.00     0.226 C 
HETATM    7  C15 UNL     1      20.558  22.137   2.742  1.00  0.00     0.061 C 
HETATM    8  N3  UNL     1      22.117  23.708   1.934  1.00  0.00     0.102 N 
ENDROOT
BRANCH   1   9
HETATM    9  N2  UNL     1      18.890  23.134   4.207  1.00  0.00    -0.356 N 
HETATM   10  C8  UNL     1      17.602  22.547   4.355  1.00  0.00     0.223 C 
HETATM   11  O2  UNL     1      17.041  22.127   3.311  1.00  0.00    -0.273 OA
ATOM     12  H2  UNL     1      19.371  23.485   5.034  1.00  0.00     0.162 HD
BRANCH  10  13
HETATM   13  C7  UNL     1      16.932  22.429   5.699  1.00  0.00     0.090 C 
HETATM   14  C2  UNL     1      15.716  23.272   5.812  1.00  0.00     0.087 C 
HETATM   15  C1  UNL     1      15.583  23.943   7.184  1.00  0.00     0.020 C 
HETATM   16  C3  UNL     1      14.450  22.661   5.392  1.00  0.00     0.222 C 
HETATM   17  O1  UNL     1      13.558  23.545   5.119  1.00  0.00    -0.273 OA
HETATM   18  N1  UNL     1      14.080  21.319   5.247  1.00  0.00    -0.361 N 
HETATM   19  C4  UNL     1      14.528  20.174   6.002  1.00  0.00     0.122 C 
ATOM     20  H1  UNL     1      13.403  21.124   4.510  1.00  0.00     0.162 HD
HETATM   21  C5  UNL     1      15.666  20.585   6.891  1.00  0.00     0.020 C 
HETATM   22  C6  UNL     1      16.802  20.991   6.004  1.00  0.00     0.016 C 
ENDBRANCH  10  13
ENDBRANCH   1   9
BRANCH   8  23
HETATM   23  C16 UNL     1      23.398  24.075   1.525  1.00  0.00     0.228 C 
HETATM   24  C17 UNL     1      23.589  24.944   0.347  1.00  0.00     0.062 C 
HETATM   25  C18 UNL     1      23.821  24.182  -0.943  1.00  0.00     0.169 C 
HETATM   26  O3  UNL     1      25.013  23.443  -0.737  1.00  0.00    -0.391 OA
HETATM   27  C19 UNL     1      24.634  22.394   0.086  1.00  0.00     0.169 C 
HETATM   28  C20 UNL     1      24.286  22.845   1.457  1.00  0.00     0.062 C 
ENDBRANCH   8  23
TORSDOF 3
ENDMDL
MODEL 5
REMARK VINA RESULT: -6.376598653      2.490      3.492
REMARK  3 active torsions:
REMARK  status: ('A' for Active; 'I' for Inactive)
REMARK    1  A    between atoms: C7_10  and  C8_11 
REMARK       I    between atoms: C8_11  and  N2_13 
REMARK    2  A    between atoms: N2_13  and  C9_15 
REMARK    3  A    between atoms: N3_22  and  C16_23 
ROOT
HETATM    1  C9  UNL     1      15.697  21.344   2.942  1.00  0.00     0.088 C 
HETATM    2  C10 UNL     1      16.855  22.213   2.518  1.00  0.00     0.061 C 
HETATM    3  C11 UNL     1      17.613  22.631   3.775  1.00  0.00     0.226 C 
HETATM    4  C12 UNL     1      17.905  21.398   4.601  1.00  0.00     0.038 C 
HETATM    5  C13 UNL     1      16.780  21.306   5.572  1.00  0.00     0.038 C 
HETATM    6  C14 UNL     1      15.889  22.476   5.182  1.00  0.00     0.226 C 
HETATM    7  C15 UNL     1      14.924  21.913   4.122  1.00  0.00     0.061 C 
HETATM    8  N3  UNL     1      16.682  23.428   4.531  1.00  0.00     0.102 N 
ENDROOT
BRANCH   1   9
HETATM    9  N2  UNL     1      14.823  21.195   1.798  1.00  0.00    -0.356 N 
HETATM   10  C8  UNL     1      14.296  19.931   1.412  1.00  0.00     0.223 C 
HETATM   11  O2  UNL     1      14.621  18.937   2.110  1.00  0.00    -0.273 OA
ATOM     12  H2  UNL     1      14.578  22.020   1.252  1.00  0.00     0.162 HD
BRANCH  10  13
HETATM   13  C7  UNL     1      13.386  19.779   0.221  1.00  0.00     0.090 C 
HETATM   14  C2  UNL     1      14.081  20.016  -1.068  1.00  0.00     0.087 C 
HETATM   15  C1  UNL     1      13.225  20.799  -2.070  1.00  0.00     0.020 C 
HETATM   16  C3  UNL     1      14.711  18.851  -1.700  1.00  0.00     0.222 C 
HETATM   17  O1  UNL     1      15.618  19.194  -2.543  1.00  0.00    -0.273 OA
HETATM   18  N1  UNL     1      14.485  17.479  -1.532  1.00  0.00    -0.361 N 
HETATM   19  C4  UNL     1      13.252  16.801  -1.216  1.00  0.00     0.122 C 
ATOM     20  H1  UNL     1      15.302  16.880  -1.647  1.00  0.00     0.162 HD
HETATM   21  C5  UNL     1      12.205  17.819  -0.868  1.00  0.00     0.020 C 
HETATM   22  C6  UNL     1      12.651  18.509   0.383  1.00  0.00     0.016 C 
ENDBRANCH  10  13
ENDBRANCH   1   9
BRANCH   8  23
HETATM   23  C16 UNL     1      17.235  24.525   5.188  1.00  0.00     0.228 C 
HETATM   24  C17 UNL     1      16.571  25.104   6.372  1.00  0.00     0.062 C 
HETATM   25  C18 UNL     1      15.646  26.261   6.048  1.00  0.00     0.169 C 
HETATM   26  O3  UNL     1      16.473  27.258   5.470  1.00  0.00    -0.391 OA
HETATM   27  C19 UNL     1      16.725  26.798   4.187  1.00  0.00     0.169 C 
HETATM   28  C20 UNL     1      17.599  25.598   4.175  1.00  0.00     0.062 C 
ENDBRANCH   8  23
TORSDOF 3
ENDMDL
