MODEL 1
REMARK VINA RESULT: -7.744560896      0.000      0.000
REMARK  4 active torsions:
REMARK  status: ('A' for Active; 'I' for Inactive)
REMARK    1  A    between atoms: C2_2  and  C3_3 
REMARK    2  A    between atoms: C5_5  and  C6_6 
REMARK       I    between atoms: C6_6  and  N1_8 
REMARK    3  A    between atoms: C15_20  and  O2_21 
REMARK    4  A    between atoms: O2_21  and  C16_22 
REMARK       I    between atoms: C16_22  and  N3_24 
ROOT
HETATM    1  C3  UNL     1      13.847  22.201   7.156  1.00  0.00     0.016 C 
HETATM    2  C4  UNL     1      13.890  20.974   6.299  1.00  0.00     0.021 C 
HETATM    3  C5  UNL     1      15.027  21.209   5.339  1.00  0.00     0.081 C 
HETATM    4  C14 UNL     1      15.990  22.146   6.026  1.00  0.00     0.047 C 
HETATM    5  C15 UNL     1      15.214  22.844   7.122  1.00  0.00     0.138 C 
ENDROOT
BRANCH   3   6
HETATM    6  C6  UNL     1      15.657  19.979   4.861  1.00  0.00     0.224 C 
HETATM    7  O1  UNL     1      16.236  19.256   5.752  1.00  0.00    -0.273 OA
HETATM    8  N1  UNL     1      15.666  19.550   3.516  1.00  0.00    -0.343 N 
HETATM    9  C7  UNL     1      15.163  20.038   2.261  1.00  0.00     0.161 C 
HETATM   10  C13 UNL     1      16.189  18.420   2.794  1.00  0.00     0.119 C 
HETATM   11  C8  UNL     1      14.988  18.593   1.850  1.00  0.00     0.226 C 
HETATM   12  N2  UNL     1      15.430  18.238   0.545  1.00  0.00    -0.067 N 
HETATM   13  C9  UNL     1      15.533  16.769   0.514  1.00  0.00     0.233 C 
ATOM     14  H22 UNL     1      14.839  18.615  -0.196  1.00  0.00     0.277 HD
ATOM     15  H21 UNL     1      16.294  18.707   0.272  1.00  0.00     0.277 HD
HETATM   16  C10 UNL     1      16.826  16.386   1.147  1.00  0.00     0.027 C 
HETATM   17  C11 UNL     1      16.717  16.041   2.606  1.00  0.00     0.004 C 
HETATM   18  C12 UNL     1      16.049  17.081   3.435  1.00  0.00     0.027 C 
ENDBRANCH   3   6
BRANCH   1  19
HETATM   19  C2  UNL     1      13.336  21.968   8.538  1.00  0.00     0.002 C 
HETATM   20  C1  UNL     1      13.968  20.842   9.275  1.00  0.00     0.005 C 
ENDBRANCH   1  19
BRANCH   5  21
HETATM   21  O2  UNL     1      15.157  24.228   6.943  1.00  0.00    -0.298 OA
BRANCH  21  22
HETATM   22  C16 UNL     1      15.349  25.103   7.999  1.00  0.00     0.364 C 
HETATM   23  O3  UNL     1      15.204  24.635   9.159  1.00  0.00    -0.238 OA
HETATM   24  N3  UNL     1      15.691  26.462   7.830  1.00  0.00    -0.302 N 
HETATM   25  C17 UNL     1      15.914  27.457   8.858  1.00  0.00     0.157 C 
HETATM   26  C19 UNL     1      15.882  27.108   6.552  1.00  0.00     0.361 C 
HETATM   27  C18 UNL     1      16.837  28.439   8.160  1.00  0.00     0.254 C 
HETATM   28  N4  UNL     1      16.229  28.479   6.826  1.00  0.00    -0.058 N 
ATOM     29  H42 UNL     1      15.449  29.132   6.742  1.00  0.00     0.279 HD
ATOM     30  H41 UNL     1      16.815  28.912   6.112  1.00  0.00     0.279 HD
ENDBRANCH  21  22
ENDBRANCH   5  21
TORSDOF 4
ENDMDL
MODEL 2
REMARK VINA RESULT: -7.403012479      2.291      3.574
REMARK  4 active torsions:
REMARK  status: ('A' for Active; 'I' for Inactive)
REMARK    1  A    between atoms: C2_2  and  C3_3 
REMARK    2  A    between atoms: C5_5  and  C6_6 
REMARK       I    between atoms: C6_6  and  N1_8 
REMARK    3  A    between atoms: C15_20  and  O2_21 
REMARK    4  A    between atoms: O2_21  and  C16_22 
REMARK       I    between atoms: C16_22  and  N3_24 
ROOT
HETATM    1  C3  UNL     1      17.714  23.369   4.155  1.00  0.00     0.016 C 
HETATM    2  C4  UNL     1      17.771  21.912   3.816  1.00  0.00     0.021 C 
HETATM    3  C5  UNL     1      16.685  21.276   4.645  1.00  0.00     0.081 C 
HETATM    4  C14 UNL     1      15.647  22.343   4.894  1.00  0.00     0.047 C 
HETATM    5  C15 UNL     1      16.327  23.675   4.673  1.00  0.00     0.138 C 
ENDROOT
BRANCH   3   6
HETATM    6  C6  UNL     1      16.134  20.056   4.056  1.00  0.00     0.224 C 
HETATM    7  O1  UNL     1      14.955  20.155   3.550  1.00  0.00    -0.273 OA
HETATM    8  N1  UNL     1      16.799  18.812   4.010  1.00  0.00    -0.343 N 
HETATM    9  C7  UNL     1      18.067  18.291   4.443  1.00  0.00     0.161 C 
HETATM   10  C13 UNL     1      16.502  17.498   3.505  1.00  0.00     0.119 C 
HETATM   11  C8  UNL     1      18.012  17.363   3.250  1.00  0.00     0.226 C 
HETATM   12  N2  UNL     1      18.353  16.000   3.478  1.00  0.00    -0.067 N 
HETATM   13  C9  UNL     1      17.858  15.237   2.319  1.00  0.00     0.233 C 
ATOM     14  H22 UNL     1      19.347  15.860   3.656  1.00  0.00     0.277 HD
ATOM     15  H21 UNL     1      18.010  15.645   4.370  1.00  0.00     0.277 HD
HETATM   16  C10 UNL     1      16.402  14.993   2.520  1.00  0.00     0.027 C 
HETATM   17  C11 UNL     1      15.513  16.001   1.846  1.00  0.00     0.004 C 
HETATM   18  C12 UNL     1      15.828  17.417   2.178  1.00  0.00     0.027 C 
ENDBRANCH   3   6
BRANCH   1  19
HETATM   19  C2  UNL     1      18.150  24.274   3.054  1.00  0.00     0.002 C 
HETATM   20  C1  UNL     1      19.119  25.334   3.439  1.00  0.00     0.005 C 
ENDBRANCH   1  19
BRANCH   5  21
HETATM   21  O2  UNL     1      16.341  24.470   5.821  1.00  0.00    -0.298 OA
BRANCH  21  22
HETATM   22  C16 UNL     1      16.055  25.824   5.769  1.00  0.00     0.364 C 
HETATM   23  O3  UNL     1      15.871  26.322   4.627  1.00  0.00    -0.238 OA
HETATM   24  N3  UNL     1      15.964  26.644   6.915  1.00  0.00    -0.302 N 
HETATM   25  C17 UNL     1      15.672  28.060   6.972  1.00  0.00     0.157 C 
HETATM   26  C19 UNL     1      16.156  26.185   8.271  1.00  0.00     0.361 C 
HETATM   27  C18 UNL     1      15.081  28.210   8.363  1.00  0.00     0.254 C 
HETATM   28  N4  UNL     1      15.966  27.326   9.128  1.00  0.00    -0.058 N 
ATOM     29  H42 UNL     1      16.833  27.767   9.435  1.00  0.00     0.279 HD
ATOM     30  H41 UNL     1      15.621  27.095  10.061  1.00  0.00     0.279 HD
ENDBRANCH  21  22
ENDBRANCH   5  21
TORSDOF 4
ENDMDL
MODEL 3
REMARK VINA RESULT: -7.401492524      2.835      3.437
REMARK  4 active torsions:
REMARK  status: ('A' for Active; 'I' for Inactive)
REMARK    1  A    between atoms: C2_2  and  C3_3 
REMARK    2  A    between atoms: C5_5  and  C6_6 
REMARK       I    between atoms: C6_6  and  N1_8 
REMARK    3  A    between atoms: C15_20  and  O2_21 
REMARK    4  A    between atoms: O2_21  and  C16_22 
REMARK       I    between atoms: C16_22  and  N3_24 
ROOT
HETATM    1  C3  UNL     1      14.114  22.047   6.870  1.00  0.00     0.016 C 
HETATM    2  C4  UNL     1      14.715  20.765   6.386  1.00  0.00     0.021 C 
HETATM    3  C5  UNL     1      15.829  21.181   5.461  1.00  0.00     0.081 C 
HETATM    4  C14 UNL     1      16.284  22.547   5.916  1.00  0.00     0.047 C 
HETATM    5  C15 UNL     1      15.156  23.134   6.734  1.00  0.00     0.138 C 
ENDROOT
BRANCH   3   6
HETATM    6  C6  UNL     1      16.917  20.207   5.374  1.00  0.00     0.224 C 
HETATM    7  O1  UNL     1      16.619  18.997   5.691  1.00  0.00    -0.273 OA
HETATM    8  N1  UNL     1      18.237  20.508   4.974  1.00  0.00    -0.343 N 
HETATM    9  C7  UNL     1      18.960  21.679   4.561  1.00  0.00     0.161 C 
HETATM   10  C13 UNL     1      19.460  19.769   4.802  1.00  0.00     0.119 C 
HETATM   11  C8  UNL     1      19.790  20.769   3.682  1.00  0.00     0.226 C 
HETATM   12  N2  UNL     1      21.198  20.966   3.701  1.00  0.00    -0.067 N 
HETATM   13  C9  UNL     1      21.805  19.759   3.114  1.00  0.00     0.233 C 
ATOM     14  H22 UNL     1      21.490  21.827   3.240  1.00  0.00     0.277 HD
ATOM     15  H21 UNL     1      21.560  21.187   4.629  1.00  0.00     0.277 HD
HETATM   16  C10 UNL     1      21.854  18.710   4.170  1.00  0.00     0.027 C 
HETATM   17  C11 UNL     1      20.688  17.761   4.146  1.00  0.00     0.004 C 
HETATM   18  C12 UNL     1      19.356  18.424   4.168  1.00  0.00     0.027 C 
ENDBRANCH   3   6
BRANCH   1  19
HETATM   19  C2  UNL     1      13.513  21.969   8.233  1.00  0.00     0.002 C 
HETATM   20  C1  UNL     1      13.975  20.833   9.074  1.00  0.00     0.005 C 
ENDBRANCH   1  19
BRANCH   5  21
HETATM   21  O2  UNL     1      14.643  24.309   6.179  1.00  0.00    -0.298 OA
BRANCH  21  22
HETATM   22  C16 UNL     1      15.439  25.424   5.982  1.00  0.00     0.364 C 
HETATM   23  O3  UNL     1      15.745  25.702   4.792  1.00  0.00    -0.238 OA
HETATM   24  N3  UNL     1      15.909  26.239   7.035  1.00  0.00    -0.302 N 
HETATM   25  C17 UNL     1      16.741  27.420   6.941  1.00  0.00     0.157 C 
HETATM   26  C19 UNL     1      15.626  26.018   8.434  1.00  0.00     0.361 C 
HETATM   27  C18 UNL     1      16.367  28.178   8.202  1.00  0.00     0.254 C 
HETATM   28  N4  UNL     1      16.280  27.074   9.164  1.00  0.00    -0.058 N 
ATOM     29  H42 UNL     1      17.174  26.806   9.574  1.00  0.00     0.279 HD
ATOM     30  H41 UNL     1      15.822  27.320  10.042  1.00  0.00     0.279 HD
ENDBRANCH  21  22
ENDBRANCH   5  21
TORSDOF 4
ENDMDL
MODEL 4
REMARK VINA RESULT: -7.289706972      1.970      2.387
REMARK  4 active torsions:
REMARK  status: ('A' for Active; 'I' for Inactive)
REMARK    1  A    between atoms: C2_2  and  C3_3 
REMARK    2  A    between atoms: C5_5  and  C6_6 
REMARK       I    between atoms: C6_6  and  N1_8 
REMARK    3  A    between atoms: C15_20  and  O2_21 
REMARK    4  A    between atoms: O2_21  and  C16_22 
REMARK       I    between atoms: C16_22  and  N3_24 
ROOT
HETATM    1  C3  UNL     1      14.032  22.067   6.965  1.00  0.00     0.016 C 
HETATM    2  C4  UNL     1      14.192  20.780   6.216  1.00  0.00     0.021 C 
HETATM    3  C5  UNL     1      15.448  20.956   5.403  1.00  0.00     0.081 C 
HETATM    4  C14 UNL     1      16.308  21.953   6.142  1.00  0.00     0.047 C 
HETATM    5  C15 UNL     1      15.391  22.721   7.067  1.00  0.00     0.138 C 
ENDROOT
BRANCH   3   6
HETATM    6  C6  UNL     1      16.139  19.701   5.108  1.00  0.00     0.224 C 
HETATM    7  O1  UNL     1      15.431  18.631   5.199  1.00  0.00    -0.273 OA
HETATM    8  N1  UNL     1      17.497  19.598   4.741  1.00  0.00    -0.343 N 
HETATM    9  C7  UNL     1      18.595  20.503   4.537  1.00  0.00     0.161 C 
HETATM   10  C13 UNL     1      18.399  18.528   4.403  1.00  0.00     0.119 C 
HETATM   11  C8  UNL     1      19.099  19.541   3.483  1.00  0.00     0.226 C 
HETATM   12  N2  UNL     1      20.488  19.233   3.505  1.00  0.00    -0.067 N 
HETATM   13  C9  UNL     1      20.669  18.022   2.687  1.00  0.00     0.233 C 
ATOM     14  H22 UNL     1      21.076  20.011   3.207  1.00  0.00     0.277 HD
ATOM     15  H21 UNL     1      20.864  19.141   4.449  1.00  0.00     0.277 HD
HETATM   16  C10 UNL     1      20.310  16.844   3.526  1.00  0.00     0.027 C 
HETATM   17  C11 UNL     1      18.891  16.377   3.352  1.00  0.00     0.004 C 
HETATM   18  C12 UNL     1      17.868  17.442   3.530  1.00  0.00     0.027 C 
ENDBRANCH   3   6
BRANCH   1  19
HETATM   19  C2  UNL     1      13.339  21.931   8.279  1.00  0.00     0.002 C 
HETATM   20  C1  UNL     1      13.878  20.883   9.184  1.00  0.00     0.005 C 
ENDBRANCH   1  19
BRANCH   5  21
HETATM   21  O2  UNL     1      15.356  24.088   6.779  1.00  0.00    -0.298 OA
BRANCH  21  22
HETATM   22  C16 UNL     1      15.375  25.041   7.783  1.00  0.00     0.364 C 
HETATM   23  O3  UNL     1      15.107  24.644   8.948  1.00  0.00    -0.238 OA
HETATM   24  N3  UNL     1      15.674  26.402   7.557  1.00  0.00    -0.302 N 
HETATM   25  C17 UNL     1      15.721  27.474   8.529  1.00  0.00     0.157 C 
HETATM   26  C19 UNL     1      15.994  26.970   6.269  1.00  0.00     0.361 C 
HETATM   27  C18 UNL     1      16.680  28.455   7.879  1.00  0.00     0.254 C 
HETATM   28  N4  UNL     1      16.241  28.373   6.481  1.00  0.00    -0.058 N 
ATOM     29  H42 UNL     1      15.450  28.975   6.255  1.00  0.00     0.279 HD
ATOM     30  H41 UNL     1      16.892  28.788   5.814  1.00  0.00     0.279 HD
ENDBRANCH  21  22
ENDBRANCH   5  21
TORSDOF 4
ENDMDL
MODEL 5
REMARK VINA RESULT: -7.240446376      5.230      5.904
REMARK  4 active torsions:
REMARK  status: ('A' for Active; 'I' for Inactive)
REMARK    1  A    between atoms: C2_2  and  C3_3 
REMARK    2  A    between atoms: C5_5  and  C6_6 
REMARK       I    between atoms: C6_6  and  N1_8 
REMARK    3  A    between atoms: C15_20  and  O2_21 
REMARK    4  A    between atoms: O2_21  and  C16_22 
REMARK       I    between atoms: C16_22  and  N3_24 
ROOT
HETATM    1  C3  UNL     1      16.469  22.354   4.944  1.00  0.00     0.016 C 
HETATM    2  C4  UNL     1      17.605  21.780   4.157  1.00  0.00     0.021 C 
HETATM    3  C5  UNL     1      18.320  22.973   3.578  1.00  0.00     0.081 C 
HETATM    4  C14 UNL     1      18.056  24.132   4.509  1.00  0.00     0.047 C 
HETATM    5  C15 UNL     1      16.824  23.776   5.311  1.00  0.00     0.138 C 
ENDROOT
BRANCH   3   6
HETATM    6  C6  UNL     1      19.743  22.743   3.328  1.00  0.00     0.224 C 
HETATM    7  O1  UNL     1      20.286  21.784   3.991  1.00  0.00    -0.273 OA
HETATM    8  N1  UNL     1      20.533  23.490   2.428  1.00  0.00    -0.343 N 
HETATM    9  C7  UNL     1      20.331  24.597   1.533  1.00  0.00     0.161 C 
HETATM   10  C13 UNL     1      21.907  23.476   2.000  1.00  0.00     0.119 C 
HETATM   11  C8  UNL     1      21.386  23.977   0.643  1.00  0.00     0.226 C 
HETATM   12  N2  UNL     1      22.376  24.851   0.114  1.00  0.00    -0.067 N 
HETATM   13  C9  UNL     1      23.481  24.003  -0.366  1.00  0.00     0.233 C 
ATOM     14  H22 UNL     1      22.014  25.482  -0.600  1.00  0.00     0.277 HD
ATOM     15  H21 UNL     1      22.677  25.565   0.778  1.00  0.00     0.277 HD
HETATM   16  C10 UNL     1      24.318  23.632   0.809  1.00  0.00     0.027 C 
HETATM   17  C11 UNL     1      23.968  22.300   1.415  1.00  0.00     0.004 C 
HETATM   18  C12 UNL     1      22.530  22.142   1.761  1.00  0.00     0.027 C 
ENDBRANCH   3   6
BRANCH   1  19
HETATM   19  C2  UNL     1      16.051  21.526   6.113  1.00  0.00     0.002 C 
HETATM   20  C1  UNL     1      16.388  20.081   6.029  1.00  0.00     0.005 C 
ENDBRANCH   1  19
BRANCH   5  21
HETATM   21  O2  UNL     1      15.770  24.669   5.104  1.00  0.00    -0.298 OA
BRANCH  21  22
HETATM   22  C16 UNL     1      15.901  26.020   5.375  1.00  0.00     0.364 C 
HETATM   23  O3  UNL     1      15.972  26.794   4.384  1.00  0.00    -0.238 OA
HETATM   24  N3  UNL     1      15.957  26.548   6.683  1.00  0.00    -0.302 N 
HETATM   25  C17 UNL     1      16.092  27.935   7.076  1.00  0.00     0.157 C 
HETATM   26  C19 UNL     1      15.887  25.760   7.891  1.00  0.00     0.361 C 
HETATM   27  C18 UNL     1      15.453  27.943   8.453  1.00  0.00     0.254 C 
HETATM   28  N4  UNL     1      15.968  26.680   8.996  1.00  0.00    -0.058 N 
ATOM     29  H42 UNL     1      16.897  26.753   9.411  1.00  0.00     0.279 HD
ATOM     30  H41 UNL     1      15.492  26.363   9.840  1.00  0.00     0.279 HD
ENDBRANCH  21  22
ENDBRANCH   5  21
TORSDOF 4
ENDMDL
