MODEL 1
REMARK VINA RESULT: -5.594321249      0.000      0.000
REMARK  9 active torsions:
REMARK  status: ('A' for Active; 'I' for Inactive)
REMARK    1  A    between atoms: C2_2  and  C3_4 
REMARK    2  A    between atoms: C4_5  and  C5_6 
REMARK    3  A    between atoms: C6_7  and  C7_8 
REMARK    4  A    between atoms: C7_8  and  O1_9 
REMARK    5  A    between atoms: O1_9  and  C8_10 
REMARK    6  A    between atoms: C8_10  and  C9_11 
REMARK    7  A    between atoms: C9_11  and  N1_12 
REMARK    8  A    between atoms: C12_15  and  O2_16 
REMARK    9  A    between atoms: C16_22  and  O3_23 
ROOT
HETATM    1  N1  UNL     1      16.912  22.292   3.284  1.00  0.00     0.092 N 
HETATM    2  C10 UNL     1      17.691  22.464   4.512  1.00  0.00     0.275 C 
HETATM    3  C11 UNL     1      18.039  23.906   4.764  1.00  0.00     0.072 C 
HETATM    4  C12 UNL     1      18.116  24.513   3.356  1.00  0.00     0.113 C 
HETATM    5  C13 UNL     1      18.748  23.414   2.528  1.00  0.00     0.311 C 
HETATM    6  N2  UNL     1      17.764  22.355   2.231  1.00  0.00     0.083 N 
HETATM    7  C14 UNL     1      18.537  21.150   2.064  1.00  0.00     0.309 C 
HETATM    8  C15 UNL     1      17.207  22.709   0.962  1.00  0.00     0.309 C 
HETATM    9  C16 UNL     1      16.641  24.708   2.982  1.00  0.00     0.182 C 
HETATM   10  C17 UNL     1      15.958  23.399   3.276  1.00  0.00     0.307 C 
ENDROOT
BRANCH   1  11
HETATM   11  C9  UNL     1      16.205  21.066   3.505  1.00  0.00     0.298 C 
BRANCH  11  12
HETATM   12  C8  UNL     1      15.762  20.740   4.850  1.00  0.00     0.199 C 
BRANCH  12  13
HETATM   13  O1  UNL     1      14.396  20.815   5.051  1.00  0.00    -0.378 OA
BRANCH  13  14
HETATM   14  C7  UNL     1      14.116  20.958   6.391  1.00  0.00     0.262 C 
BRANCH  14  15
HETATM   15  C6  UNL     1      14.627  22.315   6.747  1.00  0.00    -0.066 C 
HETATM   16  C5  UNL     1      15.019  23.419   7.036  1.00  0.00    -0.013 C 
BRANCH  16  17
HETATM   17  C4  UNL     1      15.492  24.714   7.353  1.00  0.00    -0.014 C 
HETATM   18  C3  UNL     1      15.886  25.827   7.606  1.00  0.00    -0.077 C 
BRANCH  18  19
HETATM   19  C2  UNL     1      16.351  27.197   7.899  1.00  0.00     0.133 C 
HETATM   20  C1  UNL     1      15.644  27.703   9.165  1.00  0.00     0.035 C 
HETATM   21 BR1  UNL     1      15.923  28.277   6.379  1.00  0.00    -0.078 Br
ENDBRANCH  18  19
ENDBRANCH  16  17
ENDBRANCH  14  15
ENDBRANCH  13  14
ENDBRANCH  12  13
ENDBRANCH  11  12
ENDBRANCH   1  11
BRANCH   9  22
HETATM   22  O3  UNL     1      16.173  25.709   3.857  1.00  0.00    -0.391 OA
ATOM     23  H3  UNL     1      15.302  25.425   4.111  1.00  0.00     0.210 HD
ENDBRANCH   9  22
BRANCH   4  24
HETATM   24  O2  UNL     1      18.818  25.678   3.318  1.00  0.00    -0.385 OA
ATOM     25  H2  UNL     1      18.730  26.189   4.114  1.00  0.00     0.210 HD
ENDBRANCH   4  24
TORSDOF 9
ENDMDL
MODEL 2
REMARK VINA RESULT: -5.575071054      3.083      6.393
REMARK  9 active torsions:
REMARK  status: ('A' for Active; 'I' for Inactive)
REMARK    1  A    between atoms: C2_2  and  C3_4 
REMARK    2  A    between atoms: C4_5  and  C5_6 
REMARK    3  A    between atoms: C6_7  and  C7_8 
REMARK    4  A    between atoms: C7_8  and  O1_9 
REMARK    5  A    between atoms: O1_9  and  C8_10 
REMARK    6  A    between atoms: C8_10  and  C9_11 
REMARK    7  A    between atoms: C9_11  and  N1_12 
REMARK    8  A    between atoms: C12_15  and  O2_16 
REMARK    9  A    between atoms: C16_22  and  O3_23 
ROOT
HETATM    1  N1  UNL     1      15.288  22.713   6.183  1.00  0.00     0.092 N 
HETATM    2  C10 UNL     1      14.004  23.068   5.574  1.00  0.00     0.275 C 
HETATM    3  C11 UNL     1      12.867  22.260   6.139  1.00  0.00     0.072 C 
HETATM    4  C12 UNL     1      13.529  20.935   6.542  1.00  0.00     0.113 C 
HETATM    5  C13 UNL     1      14.539  20.690   5.441  1.00  0.00     0.311 C 
HETATM    6  N2  UNL     1      15.719  21.559   5.617  1.00  0.00     0.083 N 
HETATM    7  C14 UNL     1      16.253  21.751   4.291  1.00  0.00     0.309 C 
HETATM    8  C15 UNL     1      16.652  20.774   6.365  1.00  0.00     0.309 C 
HETATM    9  C16 UNL     1      14.226  21.283   7.864  1.00  0.00     0.182 C 
HETATM   10  C17 UNL     1      15.005  22.544   7.607  1.00  0.00     0.307 C 
ENDROOT
BRANCH   1  11
HETATM   11  C9  UNL     1      16.083  23.891   5.999  1.00  0.00     0.298 C 
BRANCH  11  12
HETATM   12  C8  UNL     1      15.429  25.188   5.991  1.00  0.00     0.199 C 
BRANCH  12  13
HETATM   13  O1  UNL     1      16.273  26.268   5.811  1.00  0.00    -0.378 OA
BRANCH  13  14
HETATM   14  C7  UNL     1      16.213  26.712   4.510  1.00  0.00     0.262 C 
BRANCH  14  15
HETATM   15  C6  UNL     1      17.411  26.119   3.846  1.00  0.00    -0.066 C 
HETATM   16  C5  UNL     1      18.392  25.650   3.322  1.00  0.00    -0.013 C 
BRANCH  16  17
HETATM   17  C4  UNL     1      19.536  25.112   2.687  1.00  0.00    -0.014 C 
HETATM   18  C3  UNL     1      20.500  24.641   2.133  1.00  0.00    -0.077 C 
BRANCH  18  19
HETATM   19  C2  UNL     1      21.664  24.059   1.436  1.00  0.00     0.133 C 
HETATM   20  C1  UNL     1      22.917  24.870   1.796  1.00  0.00     0.035 C 
HETATM   21 BR1  UNL     1      21.296  24.136  -0.440  1.00  0.00    -0.078 Br
ENDBRANCH  18  19
ENDBRANCH  16  17
ENDBRANCH  14  15
ENDBRANCH  13  14
ENDBRANCH  12  13
ENDBRANCH  11  12
ENDBRANCH   1  11
BRANCH   9  22
HETATM   22  O3  UNL     1      13.177  21.535   8.772  1.00  0.00    -0.391 OA
ATOM     23  H3  UNL     1      13.606  21.841   9.563  1.00  0.00     0.210 HD
ENDBRANCH   9  22
BRANCH   4  24
HETATM   24  O2  UNL     1      12.636  19.917   6.681  1.00  0.00    -0.385 OA
ATOM     25  H2  UNL     1      12.124  19.980   7.478  1.00  0.00     0.210 HD
ENDBRANCH   4  24
TORSDOF 9
ENDMDL
MODEL 3
REMARK VINA RESULT: -5.519306000      1.551      1.906
REMARK  9 active torsions:
REMARK  status: ('A' for Active; 'I' for Inactive)
REMARK    1  A    between atoms: C2_2  and  C3_4 
REMARK    2  A    between atoms: C4_5  and  C5_6 
REMARK    3  A    between atoms: C6_7  and  C7_8 
REMARK    4  A    between atoms: C7_8  and  O1_9 
REMARK    5  A    between atoms: O1_9  and  C8_10 
REMARK    6  A    between atoms: C8_10  and  C9_11 
REMARK    7  A    between atoms: C9_11  and  N1_12 
REMARK    8  A    between atoms: C12_15  and  O2_16 
REMARK    9  A    between atoms: C16_22  and  O3_23 
ROOT
HETATM    1  N1  UNL     1      16.163  20.678   3.775  1.00  0.00     0.092 N 
HETATM    2  C10 UNL     1      16.465  21.800   4.665  1.00  0.00     0.275 C 
HETATM    3  C11 UNL     1      16.427  23.121   3.945  1.00  0.00     0.072 C 
HETATM    4  C12 UNL     1      16.825  22.761   2.507  1.00  0.00     0.113 C 
HETATM    5  C13 UNL     1      17.888  21.698   2.685  1.00  0.00     0.311 C 
HETATM    6  N2  UNL     1      17.274  20.406   3.047  1.00  0.00     0.083 N 
HETATM    7  C14 UNL     1      18.280  19.703   3.804  1.00  0.00     0.309 C 
HETATM    8  C15 UNL     1      17.089  19.720   1.805  1.00  0.00     0.309 C 
HETATM    9  C16 UNL     1      15.535  22.162   1.930  1.00  0.00     0.182 C 
HETATM   10  C17 UNL     1      15.064  21.142   2.930  1.00  0.00     0.307 C 
ENDROOT
BRANCH   1  11
HETATM   11  C9  UNL     1      15.676  19.666   4.664  1.00  0.00     0.298 C 
BRANCH  11  12
HETATM   12  C8  UNL     1      15.199  20.054   5.980  1.00  0.00     0.199 C 
BRANCH  12  13
HETATM   13  O1  UNL     1      13.850  20.346   6.052  1.00  0.00    -0.378 OA
BRANCH  13  14
HETATM   14  C7  UNL     1      13.518  20.775   7.316  1.00  0.00     0.262 C 
BRANCH  14  15
HETATM   15  C6  UNL     1      14.157  22.120   7.445  1.00  0.00    -0.066 C 
HETATM   16  C5  UNL     1      14.654  23.214   7.542  1.00  0.00    -0.013 C 
BRANCH  16  17
HETATM   17  C4  UNL     1      15.256  24.491   7.638  1.00  0.00    -0.014 C 
HETATM   18  C3  UNL     1      15.751  25.590   7.717  1.00  0.00    -0.077 C 
BRANCH  18  19
HETATM   19  C2  UNL     1      16.332  26.943   7.816  1.00  0.00     0.133 C 
HETATM   20  C1  UNL     1      15.739  27.651   9.043  1.00  0.00     0.035 C 
HETATM   21 BR1  UNL     1      15.898  27.866   6.198  1.00  0.00    -0.078 Br
ENDBRANCH  18  19
ENDBRANCH  16  17
ENDBRANCH  14  15
ENDBRANCH  13  14
ENDBRANCH  12  13
ENDBRANCH  11  12
ENDBRANCH   1  11
BRANCH   9  22
HETATM   22  O3  UNL     1      14.629  23.240   1.870  1.00  0.00    -0.391 OA
ATOM     23  H3  UNL     1      14.357  23.282   0.960  1.00  0.00     0.210 HD
ENDBRANCH   9  22
BRANCH   4  24
HETATM   24  O2  UNL     1      17.260  23.835   1.793  1.00  0.00    -0.385 OA
ATOM     25  H2  UNL     1      17.475  23.619   0.893  1.00  0.00     0.210 HD
ENDBRANCH   4  24
TORSDOF 9
ENDMDL
MODEL 4
REMARK VINA RESULT: -5.501914947      1.540      2.129
REMARK  9 active torsions:
REMARK  status: ('A' for Active; 'I' for Inactive)
REMARK    1  A    between atoms: C2_2  and  C3_4 
REMARK    2  A    between atoms: C4_5  and  C5_6 
REMARK    3  A    between atoms: C6_7  and  C7_8 
REMARK    4  A    between atoms: C7_8  and  O1_9 
REMARK    5  A    between atoms: O1_9  and  C8_10 
REMARK    6  A    between atoms: C8_10  and  C9_11 
REMARK    7  A    between atoms: C9_11  and  N1_12 
REMARK    8  A    between atoms: C12_15  and  O2_16 
REMARK    9  A    between atoms: C16_22  and  O3_23 
ROOT
HETATM    1  N1  UNL     1      16.614  20.746   3.873  1.00  0.00     0.092 N 
HETATM    2  C10 UNL     1      17.767  20.044   3.303  1.00  0.00     0.275 C 
HETATM    3  C11 UNL     1      18.992  20.915   3.252  1.00  0.00     0.072 C 
HETATM    4  C12 UNL     1      18.423  22.333   3.103  1.00  0.00     0.113 C 
HETATM    5  C13 UNL     1      17.235  22.147   2.183  1.00  0.00     0.311 C 
HETATM    6  N2  UNL     1      16.098  21.556   2.917  1.00  0.00     0.083 N 
HETATM    7  C14 UNL     1      15.335  20.839   1.926  1.00  0.00     0.309 C 
HETATM    8  C15 UNL     1      15.320  22.672   3.359  1.00  0.00     0.309 C 
HETATM    9  C16 UNL     1      17.971  22.677   4.528  1.00  0.00     0.182 C 
HETATM   10  C17 UNL     1      17.148  21.509   4.999  1.00  0.00     0.307 C 
ENDROOT
BRANCH   1  11
HETATM   11  C9  UNL     1      15.791  19.686   4.373  1.00  0.00     0.298 C 
BRANCH  11  12
HETATM   12  C8  UNL     1      15.158  19.837   5.672  1.00  0.00     0.199 C 
BRANCH  12  13
HETATM   13  O1  UNL     1      13.915  20.441   5.651  1.00  0.00    -0.378 OA
BRANCH  13  14
HETATM   14  C7  UNL     1      13.556  20.845   6.917  1.00  0.00     0.262 C 
BRANCH  14  15
HETATM   15  C6  UNL     1      14.191  22.186   7.087  1.00  0.00    -0.066 C 
HETATM   16  C5  UNL     1      14.718  23.261   7.235  1.00  0.00    -0.013 C 
BRANCH  16  17
HETATM   17  C4  UNL     1      15.317  24.529   7.420  1.00  0.00    -0.014 C 
HETATM   18  C3  UNL     1      15.810  25.621   7.577  1.00  0.00    -0.077 C 
BRANCH  18  19
HETATM   19  C2  UNL     1      16.389  26.964   7.773  1.00  0.00     0.133 C 
HETATM   20  C1  UNL     1      15.776  27.591   9.034  1.00  0.00     0.035 C 
HETATM   21 BR1  UNL     1      15.979  27.991   6.212  1.00  0.00    -0.078 Br
ENDBRANCH  18  19
ENDBRANCH  16  17
ENDBRANCH  14  15
ENDBRANCH  13  14
ENDBRANCH  12  13
ENDBRANCH  11  12
ENDBRANCH   1  11
BRANCH   9  22
HETATM   22  O3  UNL     1      19.162  22.768   5.276  1.00  0.00    -0.391 OA
ATOM     23  H3  UNL     1      18.922  22.496   6.154  1.00  0.00     0.210 HD
ENDBRANCH   9  22
BRANCH   4  24
HETATM   24  O2  UNL     1      19.334  23.222   2.621  1.00  0.00    -0.385 OA
ATOM     25  H2  UNL     1      19.006  24.114   2.600  1.00  0.00     0.210 HD
ENDBRANCH   4  24
TORSDOF 9
ENDMDL
MODEL 5
REMARK VINA RESULT: -5.446931143      1.682      2.209
REMARK  9 active torsions:
REMARK  status: ('A' for Active; 'I' for Inactive)
REMARK    1  A    between atoms: C2_2  and  C3_4 
REMARK    2  A    between atoms: C4_5  and  C5_6 
REMARK    3  A    between atoms: C6_7  and  C7_8 
REMARK    4  A    between atoms: C7_8  and  O1_9 
REMARK    5  A    between atoms: O1_9  and  C8_10 
REMARK    6  A    between atoms: C8_10  and  C9_11 
REMARK    7  A    between atoms: C9_11  and  N1_12 
REMARK    8  A    between atoms: C12_15  and  O2_16 
REMARK    9  A    between atoms: C16_22  and  O3_23 
ROOT
HETATM    1  N1  UNL     1      16.671  21.106   4.050  1.00  0.00     0.092 N 
HETATM    2  C10 UNL     1      17.287  20.110   4.929  1.00  0.00     0.275 C 
HETATM    3  C11 UNL     1      18.704  20.468   5.286  1.00  0.00     0.072 C 
HETATM    4  C12 UNL     1      19.192  21.269   4.071  1.00  0.00     0.113 C 
HETATM    5  C13 UNL     1      18.559  20.556   2.895  1.00  0.00     0.311 C 
HETATM    6  N2  UNL     1      17.127  20.897   2.791  1.00  0.00     0.083 N 
HETATM    7  C14 UNL     1      16.508  19.762   2.153  1.00  0.00     0.309 C 
HETATM    8  C15 UNL     1      17.072  22.004   1.885  1.00  0.00     0.309 C 
HETATM    9  C16 UNL     1      18.558  22.649   4.287  1.00  0.00     0.182 C 
HETATM   10  C17 UNL     1      17.103  22.400   4.574  1.00  0.00     0.307 C 
ENDROOT
BRANCH   1  11
HETATM   11  C9  UNL     1      15.268  20.946   4.294  1.00  0.00     0.298 C 
BRANCH  11  12
HETATM   12  C8  UNL     1      14.836  20.244   5.489  1.00  0.00     0.199 C 
BRANCH  12  13
HETATM   13  O1  UNL     1      13.578  20.589   5.949  1.00  0.00    -0.378 OA
BRANCH  13  14
HETATM   14  C7  UNL     1      13.616  20.852   7.299  1.00  0.00     0.262 C 
BRANCH  14  15
HETATM   15  C6  UNL     1      14.223  22.212   7.409  1.00  0.00    -0.066 C 
HETATM   16  C5  UNL     1      14.707  23.311   7.518  1.00  0.00    -0.013 C 
BRANCH  16  17
HETATM   17  C4  UNL     1      15.259  24.609   7.630  1.00  0.00    -0.014 C 
HETATM   18  C3  UNL     1      15.748  25.709   7.730  1.00  0.00    -0.077 C 
BRANCH  18  19
HETATM   19  C2  UNL     1      16.369  27.042   7.851  1.00  0.00     0.133 C 
HETATM   20  C1  UNL     1      15.830  27.731   9.112  1.00  0.00     0.035 C 
HETATM   21 BR1  UNL     1      15.916  28.022   6.271  1.00  0.00    -0.078 Br
ENDBRANCH  18  19
ENDBRANCH  16  17
ENDBRANCH  14  15
ENDBRANCH  13  14
ENDBRANCH  12  13
ENDBRANCH  11  12
ENDBRANCH   1  11
BRANCH   9  22
HETATM   22  O3  UNL     1      19.199  23.168   5.430  1.00  0.00    -0.391 OA
ATOM     23  H3  UNL     1      18.514  23.614   5.914  1.00  0.00     0.210 HD
ENDBRANCH   9  22
BRANCH   4  24
HETATM   24  O2  UNL     1      20.549  21.331   3.987  1.00  0.00    -0.385 OA
ATOM     25  H2  UNL     1      20.862  21.410   3.093  1.00  0.00     0.210 HD
ENDBRANCH   4  24
TORSDOF 9
ENDMDL
