MODEL 1
REMARK VINA RESULT: -6.892969251      0.000      0.000
REMARK  5 active torsions:
REMARK  status: ('A' for Active; 'I' for Inactive)
REMARK       I    between atoms: C2_2  and  N1_4 
REMARK    1  A    between atoms: N1_4  and  C3_6 
REMARK    2  A    between atoms: C7_15  and  C8_16 
REMARK    3  A    between atoms: C8_16  and  C9_18 
REMARK    4  A    between atoms: C9_18  and  C12_21 
REMARK    5  A    between atoms: C12_21  and  C13_23 
ROOT
HETATM    1  C3  UNL     1      16.612  26.309   5.741  1.00  0.00     0.219 C 
HETATM    2  C4  UNL     1      16.255  25.392   4.596  1.00  0.00     0.249 C 
HETATM    3  O2  UNL     1      16.153  25.654   3.370  1.00  0.00    -0.271 OA
HETATM    4  N2  UNL     1      16.112  24.271   5.429  1.00  0.00    -0.308 N 
HETATM    5  C5  UNL     1      16.866  25.012   6.464  1.00  0.00     0.222 C 
HETATM    6  N3  UNL     1      16.050  24.734   7.620  1.00  0.00    -0.335 N 
ATOM      7  H3  UNL     1      16.063  25.257   8.495  1.00  0.00     0.164 HD
HETATM    8  C6  UNL     1      15.208  23.593   7.336  1.00  0.00     0.247 C 
HETATM    9  O3  UNL     1      14.229  23.310   8.033  1.00  0.00    -0.271 OA
HETATM   10  C7  UNL     1      15.845  23.003   6.123  1.00  0.00     0.219 C 
ENDROOT
BRANCH  10  11
HETATM   11  C8  UNL     1      14.977  22.125   5.306  1.00  0.00     0.014 C 
HETATM   12 BR1  UNL     1      13.248  21.907   6.117  1.00  0.00    -0.056 Br
BRANCH  11  13
HETATM   13  C9  UNL     1      15.566  20.894   4.730  1.00  0.00     0.046 C 
HETATM   14  C10 UNL     1      17.068  20.849   5.005  1.00  0.00     0.029 C 
HETATM   15  C11 UNL     1      15.039  19.624   5.361  1.00  0.00     0.029 C 
BRANCH  13  16
HETATM   16  C12 UNL     1      15.288  20.794   3.266  1.00  0.00     0.143 C 
HETATM   17  O4  UNL     1      14.382  20.059   2.918  1.00  0.00    -0.296 OA
BRANCH  16  18
HETATM   18  C13 UNL     1      16.042  21.528   2.231  1.00  0.00     0.048 C 
HETATM   19  C14 UNL     1      15.191  22.675   1.692  1.00  0.00     0.017 C 
HETATM   20  C15 UNL     1      16.415  20.701   1.029  1.00  0.00     0.017 C 
ENDBRANCH  16  18
ENDBRANCH  13  16
ENDBRANCH  11  13
ENDBRANCH  10  11
BRANCH   1  21
HETATM   21  N1  UNL     1      15.541  27.117   6.221  1.00  0.00    -0.345 N 
HETATM   22  C2  UNL     1      15.583  27.854   7.443  1.00  0.00     0.214 C 
HETATM   23  C1  UNL     1      14.468  28.681   7.920  1.00  0.00     0.117 C 
HETATM   24  O1  UNL     1      16.627  27.784   8.136  1.00  0.00    -0.274 OA
ATOM     25  H1  UNL     1      14.693  27.173   5.658  1.00  0.00     0.163 HD
ENDBRANCH   1  21
TORSDOF 5
ENDMDL
MODEL 2
REMARK VINA RESULT: -6.772505492      2.405      3.784
REMARK  5 active torsions:
REMARK  status: ('A' for Active; 'I' for Inactive)
REMARK       I    between atoms: C2_2  and  N1_4 
REMARK    1  A    between atoms: N1_4  and  C3_6 
REMARK    2  A    between atoms: C7_15  and  C8_16 
REMARK    3  A    between atoms: C8_16  and  C9_18 
REMARK    4  A    between atoms: C9_18  and  C12_21 
REMARK    5  A    between atoms: C12_21  and  C13_23 
ROOT
HETATM    1  C3  UNL     1      15.333  26.256   6.259  1.00  0.00     0.219 C 
HETATM    2  C4  UNL     1      15.837  24.861   6.542  1.00  0.00     0.249 C 
HETATM    3  O2  UNL     1      15.744  24.181   7.597  1.00  0.00    -0.271 OA
HETATM    4  N2  UNL     1      16.379  24.705   5.257  1.00  0.00    -0.308 N 
HETATM    5  C5  UNL     1      15.539  25.844   4.825  1.00  0.00     0.222 C 
HETATM    6  N3  UNL     1      16.505  26.594   4.059  1.00  0.00    -0.335 N 
ATOM      7  H3  UNL     1      16.419  27.576   3.795  1.00  0.00     0.164 HD
HETATM    8  C6  UNL     1      17.615  25.728   3.727  1.00  0.00     0.247 C 
HETATM    9  O3  UNL     1      18.694  26.171   3.322  1.00  0.00    -0.271 OA
HETATM   10  C7  UNL     1      17.070  24.368   4.004  1.00  0.00     0.219 C 
ENDROOT
BRANCH  10  11
HETATM   11  C8  UNL     1      18.078  23.307   4.225  1.00  0.00     0.014 C 
HETATM   12 BR1  UNL     1      19.821  23.873   3.646  1.00  0.00    -0.056 Br
BRANCH  11  13
HETATM   13  C9  UNL     1      17.717  21.912   3.879  1.00  0.00     0.046 C 
HETATM   14  C10 UNL     1      16.614  21.899   2.824  1.00  0.00     0.029 C 
HETATM   15  C11 UNL     1      18.849  21.141   3.237  1.00  0.00     0.029 C 
BRANCH  13  16
HETATM   16  C12 UNL     1      17.307  21.143   5.091  1.00  0.00     0.143 C 
HETATM   17  O4  UNL     1      18.175  20.862   5.897  1.00  0.00    -0.296 OA
BRANCH  16  18
HETATM   18  C13 UNL     1      15.922  20.708   5.363  1.00  0.00     0.048 C 
HETATM   19  C14 UNL     1      15.657  20.745   6.865  1.00  0.00     0.017 C 
HETATM   20  C15 UNL     1      15.618  19.297   4.932  1.00  0.00     0.017 C 
ENDBRANCH  16  18
ENDBRANCH  13  16
ENDBRANCH  11  13
ENDBRANCH  10  11
BRANCH   1  21
HETATM   21  N1  UNL     1      16.159  27.306   6.756  1.00  0.00    -0.345 N 
HETATM   22  C2  UNL     1      15.900  28.022   7.963  1.00  0.00     0.214 C 
HETATM   23  C1  UNL     1      16.763  29.100   8.457  1.00  0.00     0.117 C 
HETATM   24  O1  UNL     1      14.883  27.705   8.627  1.00  0.00    -0.274 OA
ATOM     25  H1  UNL     1      16.985  27.562   6.215  1.00  0.00     0.163 HD
ENDBRANCH   1  21
TORSDOF 5
ENDMDL
MODEL 3
REMARK VINA RESULT: -6.686972701      3.391      7.137
REMARK  5 active torsions:
REMARK  status: ('A' for Active; 'I' for Inactive)
REMARK       I    between atoms: C2_2  and  N1_4 
REMARK    1  A    between atoms: N1_4  and  C3_6 
REMARK    2  A    between atoms: C7_15  and  C8_16 
REMARK    3  A    between atoms: C8_16  and  C9_18 
REMARK    4  A    between atoms: C9_18  and  C12_21 
REMARK    5  A    between atoms: C12_21  and  C13_23 
ROOT
HETATM    1  C3  UNL     1      16.863  19.029   4.496  1.00  0.00     0.219 C 
HETATM    2  C4  UNL     1      15.958  20.121   3.980  1.00  0.00     0.249 C 
HETATM    3  O2  UNL     1      14.842  20.025   3.406  1.00  0.00    -0.271 OA
HETATM    4  N2  UNL     1      16.825  21.148   4.385  1.00  0.00    -0.308 N 
HETATM    5  C5  UNL     1      17.492  20.162   5.264  1.00  0.00     0.222 C 
HETATM    6  N3  UNL     1      18.873  20.462   4.979  1.00  0.00    -0.335 N 
ATOM      7  H3  UNL     1      19.666  19.850   5.176  1.00  0.00     0.164 HD
HETATM    8  C6  UNL     1      18.953  21.770   4.367  1.00  0.00     0.247 C 
HETATM    9  O3  UNL     1      19.965  22.157   3.777  1.00  0.00    -0.271 OA
HETATM   10  C7  UNL     1      17.614  22.357   4.662  1.00  0.00     0.219 C 
ENDROOT
BRANCH  10  11
HETATM   11  C8  UNL     1      17.197  23.473   3.785  1.00  0.00     0.014 C 
HETATM   12 BR1  UNL     1      17.550  23.076   1.938  1.00  0.00    -0.056 Br
BRANCH  11  13
HETATM   13  C9  UNL     1      17.517  24.856   4.208  1.00  0.00     0.046 C 
HETATM   14  C10 UNL     1      18.824  25.315   3.564  1.00  0.00     0.029 C 
HETATM   15  C11 UNL     1      16.501  25.877   3.744  1.00  0.00     0.029 C 
BRANCH  13  16
HETATM   16  C12 UNL     1      17.587  24.966   5.695  1.00  0.00     0.143 C 
HETATM   17  O4  UNL     1      18.654  24.715   6.226  1.00  0.00    -0.296 OA
BRANCH  16  18
HETATM   18  C13 UNL     1      16.447  25.355   6.549  1.00  0.00     0.048 C 
HETATM   19  C14 UNL     1      16.963  25.958   7.852  1.00  0.00     0.017 C 
HETATM   20  C15 UNL     1      15.555  24.212   6.955  1.00  0.00     0.017 C 
ENDBRANCH  16  18
ENDBRANCH  13  16
ENDBRANCH  11  13
ENDBRANCH  10  11
BRANCH   1  21
HETATM   21  N1  UNL     1      17.667  18.396   3.504  1.00  0.00    -0.345 N 
HETATM   22  C2  UNL     1      18.493  17.259   3.753  1.00  0.00     0.214 C 
HETATM   23  C1  UNL     1      19.315  16.622   2.718  1.00  0.00     0.117 C 
HETATM   24  O1  UNL     1      18.511  16.789   4.917  1.00  0.00    -0.274 OA
ATOM     25  H1  UNL     1      17.652  18.779   2.559  1.00  0.00     0.163 HD
ENDBRANCH   1  21
TORSDOF 5
ENDMDL
MODEL 4
REMARK VINA RESULT: -6.665506482      1.275      1.867
REMARK  5 active torsions:
REMARK  status: ('A' for Active; 'I' for Inactive)
REMARK       I    between atoms: C2_2  and  N1_4 
REMARK    1  A    between atoms: N1_4  and  C3_6 
REMARK    2  A    between atoms: C7_15  and  C8_16 
REMARK    3  A    between atoms: C8_16  and  C9_18 
REMARK    4  A    between atoms: C9_18  and  C12_21 
REMARK    5  A    between atoms: C12_21  and  C13_23 
ROOT
HETATM    1  C3  UNL     1      16.610  26.381   5.749  1.00  0.00     0.219 C 
HETATM    2  C4  UNL     1      16.244  25.472   4.601  1.00  0.00     0.249 C 
HETATM    3  O2  UNL     1      16.129  25.743   3.377  1.00  0.00    -0.271 OA
HETATM    4  N2  UNL     1      16.113  24.344   5.426  1.00  0.00    -0.308 N 
HETATM    5  C5  UNL     1      16.875  25.079   6.459  1.00  0.00     0.222 C 
HETATM    6  N3  UNL     1      16.071  24.789   7.621  1.00  0.00    -0.335 N 
ATOM      7  H3  UNL     1      16.091  25.306   8.500  1.00  0.00     0.164 HD
HETATM    8  C6  UNL     1      15.231  23.647   7.336  1.00  0.00     0.247 C 
HETATM    9  O3  UNL     1      14.259  23.356   8.040  1.00  0.00    -0.271 OA
HETATM   10  C7  UNL     1      15.858  23.069   6.113  1.00  0.00     0.219 C 
ENDROOT
BRANCH  10  11
HETATM   11  C8  UNL     1      14.986  22.195   5.298  1.00  0.00     0.014 C 
HETATM   12 BR1  UNL     1      13.213  22.099   6.034  1.00  0.00    -0.056 Br
BRANCH  11  13
HETATM   13  C9  UNL     1      15.538  20.910   4.809  1.00  0.00     0.046 C 
HETATM   14  C10 UNL     1      14.991  19.751   5.638  1.00  0.00     0.029 C 
HETATM   15  C11 UNL     1      15.123  20.579   3.392  1.00  0.00     0.029 C 
BRANCH  13  16
HETATM   16  C12 UNL     1      17.032  20.922   4.827  1.00  0.00     0.143 C 
HETATM   17  O4  UNL     1      17.581  20.661   5.881  1.00  0.00    -0.296 OA
BRANCH  16  18
HETATM   18  C13 UNL     1      17.869  21.228   3.650  1.00  0.00     0.048 C 
HETATM   19  C14 UNL     1      18.826  20.070   3.384  1.00  0.00     0.017 C 
HETATM   20  C15 UNL     1      18.741  22.447   3.808  1.00  0.00     0.017 C 
ENDBRANCH  16  18
ENDBRANCH  13  16
ENDBRANCH  11  13
ENDBRANCH  10  11
BRANCH   1  21
HETATM   21  N1  UNL     1      15.540  27.182   6.246  1.00  0.00    -0.345 N 
HETATM   22  C2  UNL     1      15.590  27.908   7.474  1.00  0.00     0.214 C 
HETATM   23  C1  UNL     1      14.478  28.727   7.968  1.00  0.00     0.117 C 
HETATM   24  O1  UNL     1      16.641  27.835   8.157  1.00  0.00    -0.274 OA
ATOM     25  H1  UNL     1      14.687  27.240   5.690  1.00  0.00     0.163 HD
ENDBRANCH   1  21
TORSDOF 5
ENDMDL
MODEL 5
REMARK VINA RESULT: -6.641080953      3.319      5.075
REMARK  5 active torsions:
REMARK  status: ('A' for Active; 'I' for Inactive)
REMARK       I    between atoms: C2_2  and  N1_4 
REMARK    1  A    between atoms: N1_4  and  C3_6 
REMARK    2  A    between atoms: C7_15  and  C8_16 
REMARK    3  A    between atoms: C8_16  and  C9_18 
REMARK    4  A    between atoms: C9_18  and  C12_21 
REMARK    5  A    between atoms: C12_21  and  C13_23 
ROOT
HETATM    1  C3  UNL     1      13.830  22.628   5.943  1.00  0.00     0.219 C 
HETATM    2  C4  UNL     1      14.598  21.917   4.854  1.00  0.00     0.249 C 
HETATM    3  O2  UNL     1      14.413  20.771   4.370  1.00  0.00    -0.271 OA
HETATM    4  N2  UNL     1      15.486  22.988   4.666  1.00  0.00    -0.308 N 
HETATM    5  C5  UNL     1      14.517  23.846   5.382  1.00  0.00     0.222 C 
HETATM    6  N3  UNL     1      15.412  24.558   6.262  1.00  0.00    -0.335 N 
ATOM      7  H3  UNL     1      15.137  25.065   7.103  1.00  0.00     0.164 HD
HETATM    8  C6  UNL     1      16.762  24.436   5.757  1.00  0.00     0.247 C 
HETATM    9  O3  UNL     1      17.748  24.708   6.448  1.00  0.00    -0.271 OA
HETATM   10  C7  UNL     1      16.553  23.953   4.361  1.00  0.00     0.219 C 
ENDROOT
BRANCH  10  11
HETATM   11  C8  UNL     1      17.712  23.280   3.735  1.00  0.00     0.014 C 
HETATM   12 BR1  UNL     1      18.285  21.769   4.776  1.00  0.00    -0.056 Br
BRANCH  11  13
HETATM   13  C9  UNL     1      18.801  24.122   3.188  1.00  0.00     0.046 C 
HETATM   14  C10 UNL     1      18.403  25.595   3.233  1.00  0.00     0.029 C 
HETATM   15  C11 UNL     1      20.075  24.059   4.001  1.00  0.00     0.029 C 
BRANCH  13  16
HETATM   16  C12 UNL     1      19.159  23.708   1.798  1.00  0.00     0.143 C 
HETATM   17  O4  UNL     1      18.255  23.327   1.077  1.00  0.00    -0.296 OA
BRANCH  16  18
HETATM   18  C13 UNL     1      20.533  23.734   1.257  1.00  0.00     0.048 C 
HETATM   19  C14 UNL     1      20.600  24.693   0.073  1.00  0.00     0.017 C 
HETATM   20  C15 UNL     1      21.020  22.408   0.733  1.00  0.00     0.017 C 
ENDBRANCH  16  18
ENDBRANCH  13  16
ENDBRANCH  11  13
ENDBRANCH  10  11
BRANCH   1  21
HETATM   21  N1  UNL     1      14.176  22.245   7.271  1.00  0.00    -0.345 N 
HETATM   22  C2  UNL     1      13.630  21.109   7.942  1.00  0.00     0.214 C 
HETATM   23  C1  UNL     1      14.000  20.732   9.311  1.00  0.00     0.117 C 
HETATM   24  O1  UNL     1      12.795  20.407   7.322  1.00  0.00    -0.274 OA
ATOM     25  H1  UNL     1      14.855  22.817   7.773  1.00  0.00     0.163 HD
ENDBRANCH   1  21
TORSDOF 5
ENDMDL
