MODEL 1
REMARK VINA RESULT: -5.783244720      0.000      0.000
REMARK  4 active torsions:
REMARK  status: ('A' for Active; 'I' for Inactive)
REMARK    1  A    between atoms: C3_3  and  N1_4 
REMARK       I    between atoms: N1_4  and  C4_6 
REMARK    2  A    between atoms: C4_6  and  C5_8 
REMARK    3  A    between atoms: C5_8  and  C6_9 
REMARK    4  A    between atoms: C9_12  and  C10_13 
ROOT
HETATM    1  C1  UNL     1      15.889  25.314   7.912  1.00  0.00     0.098 C 
HETATM    2  C2  UNL     1      15.409  24.325   7.368  1.00  0.00    -0.168 C 
HETATM    3  C3  UNL     1      14.825  23.143   6.749  1.00  0.00     0.202 C 
ENDROOT
BRANCH   3   4
HETATM    4  N1  UNL     1      15.360  23.005   5.416  1.00  0.00    -0.349 N 
HETATM    5  C4  UNL     1      16.441  22.177   5.055  1.00  0.00     0.250 C 
HETATM    6  O1  UNL     1      16.940  21.559   6.031  1.00  0.00    -0.271 OA
ATOM      7  H1  UNL     1      14.920  23.551   4.676  1.00  0.00     0.163 HD
BRANCH   5   8
HETATM    8  C5  UNL     1      17.032  21.955   3.720  1.00  0.00     0.153 C 
HETATM    9  C9  UNL     1      17.694  23.116   3.141  1.00  0.00     0.152 C 
HETATM   10  N2  UNL     1      17.295  23.307   1.716  1.00  0.00    -0.293 N 
HETATM   11  S1  UNL     1      15.791  22.505   1.571  1.00  0.00     0.321 S 
ATOM     12  H2  UNL     1      17.807  23.806   0.989  1.00  0.00     0.174 HD
HETATM   13  O2  UNL     1      14.660  23.438   1.900  1.00  0.00    -0.182 OA
HETATM   14  O3  UNL     1      15.514  21.941   0.238  1.00  0.00    -0.182 OA
HETATM   15  N3  UNL     1      16.139  21.358   2.785  1.00  0.00    -0.258 N 
HETATM   16  C13 UNL     1      15.035  20.607   3.036  1.00  0.00     0.137 C 
BRANCH   8  17
HETATM   17  C6  UNL     1      18.029  20.786   4.000  1.00  0.00     0.018 C 
HETATM   18  C7  UNL     1      19.443  21.152   3.781  1.00  0.00     0.012 C 
HETATM   19  C8  UNL     1      17.699  19.539   3.287  1.00  0.00     0.012 C 
ENDBRANCH   8  17
BRANCH   9  20
HETATM   20  C10 UNL     1      17.972  24.417   3.741  1.00  0.00     0.035 C 
HETATM   21  C11 UNL     1      18.668  24.434   5.083  1.00  0.00     0.029 C 
HETATM   22  C12 UNL     1      19.031  25.070   2.797  1.00  0.00     0.029 C 
HETATM   23 BR1  UNL     1      16.582  25.727   3.780  1.00  0.00    -0.084 Br
ENDBRANCH   9  20
ENDBRANCH   5   8
ENDBRANCH   3   4
TORSDOF 4
ENDMDL
MODEL 2
REMARK VINA RESULT: -5.675973444      0.763      1.327
REMARK  4 active torsions:
REMARK  status: ('A' for Active; 'I' for Inactive)
REMARK    1  A    between atoms: C3_3  and  N1_4 
REMARK       I    between atoms: N1_4  and  C4_6 
REMARK    2  A    between atoms: C4_6  and  C5_8 
REMARK    3  A    between atoms: C5_8  and  C6_9 
REMARK    4  A    between atoms: C9_12  and  C10_13 
ROOT
HETATM    1  C1  UNL     1      12.517  21.613   6.563  1.00  0.00     0.098 C 
HETATM    2  C2  UNL     1      13.506  22.337   6.526  1.00  0.00    -0.168 C 
HETATM    3  C3  UNL     1      14.673  23.207   6.509  1.00  0.00     0.202 C 
ENDROOT
BRANCH   3   4
HETATM    4  N1  UNL     1      15.298  23.121   5.212  1.00  0.00    -0.349 N 
HETATM    5  C4  UNL     1      16.419  22.327   4.900  1.00  0.00     0.250 C 
HETATM    6  O1  UNL     1      16.866  21.690   5.888  1.00  0.00    -0.271 OA
ATOM      7  H1  UNL     1      14.896  23.681   4.460  1.00  0.00     0.163 HD
BRANCH   5   8
HETATM    8  C5  UNL     1      17.101  22.158   3.602  1.00  0.00     0.153 C 
HETATM    9  C9  UNL     1      17.803  23.339   3.119  1.00  0.00     0.152 C 
HETATM   10  N2  UNL     1      17.505  23.590   1.679  1.00  0.00    -0.293 N 
HETATM   11  S1  UNL     1      16.014  22.800   1.395  1.00  0.00     0.321 S 
ATOM     12  H2  UNL     1      18.067  24.117   1.010  1.00  0.00     0.174 HD
HETATM   13  O2  UNL     1      14.863  23.722   1.682  1.00  0.00    -0.182 OA
HETATM   14  O3  UNL     1      15.831  22.292   0.024  1.00  0.00    -0.182 OA
HETATM   15  N3  UNL     1      16.276  21.603   2.583  1.00  0.00    -0.258 N 
HETATM   16  C13 UNL     1      15.156  20.846   2.724  1.00  0.00     0.137 C 
BRANCH   8  17
HETATM   17  C6  UNL     1      18.076  20.975   3.902  1.00  0.00     0.018 C 
HETATM   18  C7  UNL     1      19.501  21.358   3.852  1.00  0.00     0.012 C 
HETATM   19  C8  UNL     1      17.831  19.778   3.077  1.00  0.00     0.012 C 
ENDBRANCH   8  17
BRANCH   9  20
HETATM   20  C10 UNL     1      18.040  24.614   3.790  1.00  0.00     0.035 C 
HETATM   21  C11 UNL     1      18.643  24.574   5.175  1.00  0.00     0.029 C 
HETATM   22  C12 UNL     1      19.159  25.303   2.947  1.00  0.00     0.029 C 
HETATM   23 BR1  UNL     1      16.649  25.924   3.790  1.00  0.00    -0.084 Br
ENDBRANCH   9  20
ENDBRANCH   5   8
ENDBRANCH   3   4
TORSDOF 4
ENDMDL
MODEL 3
REMARK VINA RESULT: -5.600099617      2.205      4.718
REMARK  4 active torsions:
REMARK  status: ('A' for Active; 'I' for Inactive)
REMARK    1  A    between atoms: C3_3  and  N1_4 
REMARK       I    between atoms: N1_4  and  C4_6 
REMARK    2  A    between atoms: C4_6  and  C5_8 
REMARK    3  A    between atoms: C5_8  and  C6_9 
REMARK    4  A    between atoms: C9_12  and  C10_13 
ROOT
HETATM    1  C1  UNL     1      19.775  18.168   4.529  1.00  0.00     0.098 C 
HETATM    2  C2  UNL     1      19.858  19.357   4.241  1.00  0.00    -0.168 C 
HETATM    3  C3  UNL     1      19.987  20.768   3.904  1.00  0.00     0.202 C 
ENDROOT
BRANCH   3   4
HETATM    4  N1  UNL     1      18.670  21.316   3.687  1.00  0.00    -0.349 N 
HETATM    5  C4  UNL     1      18.116  22.405   4.389  1.00  0.00     0.250 C 
HETATM    6  O1  UNL     1      18.883  22.867   5.273  1.00  0.00    -0.271 OA
ATOM      7  H1  UNL     1      18.093  20.879   2.968  1.00  0.00     0.163 HD
BRANCH   5   8
HETATM    8  C5  UNL     1      16.797  23.044   4.214  1.00  0.00     0.153 C 
HETATM    9  C9  UNL     1      15.659  22.215   4.586  1.00  0.00     0.152 C 
HETATM   10  N2  UNL     1      14.592  22.269   3.545  1.00  0.00    -0.293 N 
HETATM   11  S1  UNL     1      15.400  22.738   2.112  1.00  0.00     0.321 S 
ATOM     12  H2  UNL     1      13.598  22.069   3.662  1.00  0.00     0.174 HD
HETATM   13  O2  UNL     1      15.910  21.534   1.373  1.00  0.00    -0.182 OA
HETATM   14  O3  UNL     1      14.583  23.515   1.164  1.00  0.00    -0.182 OA
HETATM   15  N3  UNL     1      16.603  23.630   2.930  1.00  0.00    -0.258 N 
HETATM   16  C13 UNL     1      17.545  24.048   2.045  1.00  0.00     0.137 C 
BRANCH   8  17
HETATM   17  C6  UNL     1      16.928  24.307   5.124  1.00  0.00     0.018 C 
HETATM   18  C7  UNL     1      15.994  24.310   6.267  1.00  0.00     0.012 C 
HETATM   19  C8  UNL     1      16.851  25.582   4.387  1.00  0.00     0.012 C 
ENDBRANCH   8  17
BRANCH   9  20
HETATM   20  C10 UNL     1      15.640  20.904   5.227  1.00  0.00     0.035 C 
HETATM   21  C11 UNL     1      16.529  20.701   6.433  1.00  0.00     0.029 C 
HETATM   22  C12 UNL     1      14.206  20.780   5.833  1.00  0.00     0.029 C 
HETATM   23 BR1  UNL     1      15.767  19.344   4.132  1.00  0.00    -0.084 Br
ENDBRANCH   9  20
ENDBRANCH   5   8
ENDBRANCH   3   4
TORSDOF 4
ENDMDL
MODEL 4
REMARK VINA RESULT: -5.454388441      2.693      5.028
REMARK  4 active torsions:
REMARK  status: ('A' for Active; 'I' for Inactive)
REMARK    1  A    between atoms: C3_3  and  N1_4 
REMARK       I    between atoms: N1_4  and  C4_6 
REMARK    2  A    between atoms: C4_6  and  C5_8 
REMARK    3  A    between atoms: C5_8  and  C6_9 
REMARK    4  A    between atoms: C9_12  and  C10_13 
ROOT
HETATM    1  C1  UNL     1      17.564  23.029  -0.582  1.00  0.00     0.098 C 
HETATM    2  C2  UNL     1      16.640  23.297   0.179  1.00  0.00    -0.168 C 
HETATM    3  C3  UNL     1      15.525  23.621   1.059  1.00  0.00     0.202 C 
ENDROOT
BRANCH   3   4
HETATM    4  N1  UNL     1      16.000  23.644   2.421  1.00  0.00    -0.349 N 
HETATM    5  C4  UNL     1      15.773  22.637   3.379  1.00  0.00     0.250 C 
HETATM    6  O1  UNL     1      15.074  21.686   2.943  1.00  0.00    -0.271 OA
ATOM      7  H1  UNL     1      16.545  24.455   2.714  1.00  0.00     0.163 HD
BRANCH   5   8
HETATM    8  C5  UNL     1      16.243  22.565   4.777  1.00  0.00     0.153 C 
HETATM    9  C9  UNL     1      17.240  21.537   5.038  1.00  0.00     0.152 C 
HETATM   10  N2  UNL     1      16.909  20.767   6.272  1.00  0.00    -0.293 N 
HETATM   11  S1  UNL     1      15.223  20.977   6.480  1.00  0.00     0.321 S 
ATOM     12  H2  UNL     1      17.547  20.233   6.862  1.00  0.00     0.174 HD
HETATM   13  O2  UNL     1      14.462  19.912   5.741  1.00  0.00    -0.182 OA
HETATM   14  O3  UNL     1      14.762  20.948   7.879  1.00  0.00    -0.182 OA
HETATM   15  N3  UNL     1      15.193  22.513   5.738  1.00  0.00    -0.258 N 
HETATM   16  C13 UNL     1      13.907  22.932   5.605  1.00  0.00     0.137 C 
BRANCH   8  17
HETATM   17  C6  UNL     1      16.808  24.004   5.001  1.00  0.00     0.018 C 
HETATM   18  C7  UNL     1      18.280  24.080   4.915  1.00  0.00     0.012 C 
HETATM   19  C8  UNL     1      16.325  24.648   6.237  1.00  0.00     0.012 C 
ENDBRANCH   8  17
BRANCH   9  20
HETATM   20  C10 UNL     1      17.935  20.662   4.098  1.00  0.00     0.035 C 
HETATM   21  C11 UNL     1      18.599  21.307   2.903  1.00  0.00     0.029 C 
HETATM   22  C12 UNL     1      19.148  20.100   4.903  1.00  0.00     0.029 C 
HETATM   23 BR1  UNL     1      17.057  19.075   3.500  1.00  0.00    -0.084 Br
ENDBRANCH   9  20
ENDBRANCH   5   8
ENDBRANCH   3   4
TORSDOF 4
ENDMDL
MODEL 5
REMARK VINA RESULT: -5.435793754      2.546      4.825
REMARK  4 active torsions:
REMARK  status: ('A' for Active; 'I' for Inactive)
REMARK    1  A    between atoms: C3_3  and  N1_4 
REMARK       I    between atoms: N1_4  and  C4_6 
REMARK    2  A    between atoms: C4_6  and  C5_8 
REMARK    3  A    between atoms: C5_8  and  C6_9 
REMARK    4  A    between atoms: C9_12  and  C10_13 
ROOT
HETATM    1  C1  UNL     1      17.006  23.050  -0.772  1.00  0.00     0.098 C 
HETATM    2  C2  UNL     1      16.114  23.140   0.064  1.00  0.00    -0.168 C 
HETATM    3  C3  UNL     1      15.036  23.261   1.037  1.00  0.00     0.202 C 
ENDROOT
BRANCH   3   4
HETATM    4  N1  UNL     1      15.505  22.777   2.312  1.00  0.00    -0.349 N 
HETATM    5  C4  UNL     1      16.121  23.564   3.305  1.00  0.00     0.250 C 
HETATM    6  O1  UNL     1      16.256  24.769   2.970  1.00  0.00    -0.271 OA
ATOM      7  H1  UNL     1      15.382  21.784   2.511  1.00  0.00     0.163 HD
BRANCH   5   8
HETATM    8  C5  UNL     1      16.602  23.160   4.641  1.00  0.00     0.153 C 
HETATM    9  C9  UNL     1      17.632  22.130   4.636  1.00  0.00     0.152 C 
HETATM   10  N2  UNL     1      17.334  21.066   5.637  1.00  0.00    -0.293 N 
HETATM   11  S1  UNL     1      15.644  21.164   5.890  1.00  0.00     0.321 S 
ATOM     12  H2  UNL     1      17.992  20.421   6.075  1.00  0.00     0.174 HD
HETATM   13  O2  UNL     1      14.911  20.295   4.908  1.00  0.00    -0.182 OA
HETATM   14  O3  UNL     1      15.194  20.771   7.237  1.00  0.00    -0.182 OA
HETATM   15  N3  UNL     1      15.562  22.835   5.557  1.00  0.00    -0.258 N 
HETATM   16  C13 UNL     1      14.263  23.234   5.533  1.00  0.00     0.137 C 
BRANCH   8  17
HETATM   17  C6  UNL     1      17.125  24.513   5.218  1.00  0.00     0.018 C 
HETATM   18  C7  UNL     1      18.597  24.585   5.315  1.00  0.00     0.012 C 
HETATM   19  C8  UNL     1      16.501  24.894   6.499  1.00  0.00     0.012 C 
ENDBRANCH   8  17
BRANCH   9  20
HETATM   20  C10 UNL     1      18.347  21.541   3.507  1.00  0.00     0.035 C 
HETATM   21  C11 UNL     1      19.008  22.485   2.529  1.00  0.00     0.029 C 
HETATM   22  C12 UNL     1      19.564  20.805   4.150  1.00  0.00     0.029 C 
HETATM   23 BR1  UNL     1      17.498  20.153   2.506  1.00  0.00    -0.084 Br
ENDBRANCH   9  20
ENDBRANCH   5   8
ENDBRANCH   3   4
TORSDOF 4
ENDMDL
