MODEL 1
REMARK VINA RESULT: -6.492605804      0.000      0.000
REMARK  6 active torsions:
REMARK  status: ('A' for Active; 'I' for Inactive)
REMARK    1  A    between atoms: N1_3  and  C3_4 
REMARK    2  A    between atoms: C3_4  and  C4_5 
REMARK    3  A    between atoms: C4_5  and  C5_6 
REMARK    4  A    between atoms: C5_6  and  N2_7 
REMARK    5  A    between atoms: N2_7  and  C6_8 
REMARK    6  A    between atoms: C18_25  and  O2_27 
ROOT
HETATM    1  C1  UNL     1      15.566  27.727   8.264  1.00  0.00     0.140 C 
HETATM    2  C2  UNL     1      15.766  27.418   6.849  1.00  0.00     0.005 C 
HETATM    3  N1  UNL     1      15.927  27.190   5.713  1.00  0.00    -0.410 NA
ENDROOT
BRANCH   3   4
HETATM    4  C3  UNL     1      16.122  26.940   4.345  1.00  0.00     0.231 C 
BRANCH   4   5
HETATM    5  C4  UNL     1      17.201  25.830   4.247  1.00  0.00     0.062 C 
BRANCH   5   6
HETATM    6  C5  UNL     1      16.932  24.981   3.036  1.00  0.00     0.243 C 
BRANCH   6   7
HETATM    7  N2  UNL     1      17.546  23.702   2.985  1.00  0.00    -0.037 N 
HETATM    8  C8  UNL     1      18.222  23.441   1.689  1.00  0.00     0.270 C 
HETATM    9  C9  UNL     1      17.451  23.402   0.475  1.00  0.00     0.300 C 
HETATM   10  N3  UNL     1      16.065  23.188   0.881  1.00  0.00     0.090 N 
HETATM   11  C10 UNL     1      15.376  22.677  -0.280  1.00  0.00     0.310 C 
HETATM   12  C11 UNL     1      16.263  22.048   1.811  1.00  0.00     0.334 C 
HETATM   13  C12 UNL     1      16.673  22.596   3.200  1.00  0.00     0.240 C 
HETATM   14  N4  UNL     1      17.383  21.500   3.903  1.00  0.00    -0.325 N 
HETATM   15  C16 UNL     1      15.404  22.629   3.906  1.00  0.00     0.106 C 
HETATM   16  C13 UNL     1      17.109  21.321   5.294  1.00  0.00     0.233 C 
ATOM     17  H4  UNL     1      18.043  20.896   3.411  1.00  0.00     0.165 HD
HETATM   18  O1  UNL     1      18.018  20.868   6.045  1.00  0.00    -0.273 OA
HETATM   19  C14 UNL     1      15.803  21.640   5.913  1.00  0.00     0.170 C 
HETATM   20  C15 UNL     1      15.144  22.877   5.287  1.00  0.00     0.096 C 
HETATM   21  C18 UNL     1      14.834  20.639   5.277  1.00  0.00     0.073 C 
HETATM   22  F1  UNL     1      15.264  23.995   5.964  1.00  0.00    -0.214 F 
HETATM   23  C17 UNL     1      14.879  21.163   3.844  1.00  0.00     0.054 C 
HETATM   24  C19 UNL     1      15.366  19.266   5.444  1.00  0.00     0.047 C 
BRANCH   7  25
HETATM   25  C6  UNL     1      18.761  23.691   3.826  1.00  0.00     0.236 C 
HETATM   26  C7  UNL     1      20.061  23.888   3.154  1.00  0.00     0.035 C 
ENDBRANCH   7  25
BRANCH  21  27
HETATM   27  O2  UNL     1      13.556  20.753   5.825  1.00  0.00    -0.389 OA
ATOM     28  H2  UNL     1      12.930  20.211   5.358  1.00  0.00     0.210 HD
ENDBRANCH  21  27
ENDBRANCH   6   7
ENDBRANCH   5   6
ENDBRANCH   4   5
ENDBRANCH   3   4
TORSDOF 6
ENDMDL
MODEL 2
REMARK VINA RESULT: -6.234942471      1.841      4.487
REMARK  6 active torsions:
REMARK  status: ('A' for Active; 'I' for Inactive)
REMARK    1  A    between atoms: N1_3  and  C3_4 
REMARK    2  A    between atoms: C3_4  and  C4_5 
REMARK    3  A    between atoms: C4_5  and  C5_6 
REMARK    4  A    between atoms: C5_6  and  N2_7 
REMARK    5  A    between atoms: N2_7  and  C6_8 
REMARK    6  A    between atoms: C18_25  and  O2_27 
ROOT
HETATM    1  C1  UNL     1      20.325  24.194  -0.662  1.00  0.00     0.140 C 
HETATM    2  C2  UNL     1      20.341  24.249   0.799  1.00  0.00     0.005 C 
HETATM    3  N1  UNL     1      20.350  24.273   1.969  1.00  0.00    -0.410 NA
ENDROOT
BRANCH   3   4
HETATM    4  C3  UNL     1      20.354  24.279   3.373  1.00  0.00     0.231 C 
BRANCH   4   5
HETATM    5  C4  UNL     1      19.447  23.104   3.823  1.00  0.00     0.062 C 
BRANCH   5   6
HETATM    6  C5  UNL     1      18.301  23.644   4.634  1.00  0.00     0.243 C 
BRANCH   6   7
HETATM    7  N2  UNL     1      17.020  23.660   4.023  1.00  0.00    -0.037 N 
HETATM    8  C8  UNL     1      16.725  24.947   3.343  1.00  0.00     0.270 C 
HETATM    9  C9  UNL     1      16.657  26.162   4.112  1.00  0.00     0.300 C 
HETATM   10  N3  UNL     1      16.456  25.754   5.500  1.00  0.00     0.090 N 
HETATM   11  C10 UNL     1      15.918  26.904   6.186  1.00  0.00     0.310 C 
HETATM   12  C11 UNL     1      15.339  24.796   5.307  1.00  0.00     0.334 C 
HETATM   13  C12 UNL     1      15.922  23.420   4.898  1.00  0.00     0.240 C 
HETATM   14  N4  UNL     1      14.842  22.688   4.192  1.00  0.00    -0.325 N 
HETATM   15  C16 UNL     1      15.975  22.718   6.170  1.00  0.00     0.106 C 
HETATM   16  C13 UNL     1      14.699  21.293   4.471  1.00  0.00     0.233 C 
ATOM     17  H4  UNL     1      14.225  23.162   3.533  1.00  0.00     0.165 HD
HETATM   18  O1  UNL     1      14.263  20.529   3.565  1.00  0.00    -0.273 OA
HETATM   19  C14 UNL     1      15.036  20.686   5.778  1.00  0.00     0.170 C 
HETATM   20  C15 UNL     1      16.259  21.345   6.433  1.00  0.00     0.096 C 
HETATM   21  C18 UNL     1      14.022  21.299   6.747  1.00  0.00     0.073 C 
HETATM   22  F1  UNL     1      17.393  20.696   6.312  1.00  0.00    -0.214 F 
HETATM   23  C17 UNL     1      14.509  22.745   6.698  1.00  0.00     0.054 C 
HETATM   24  C19 UNL     1      12.652  21.096   6.220  1.00  0.00     0.047 C 
BRANCH   7  25
HETATM   25  C6  UNL     1      17.027  22.816   2.810  1.00  0.00     0.236 C 
HETATM   26  C7  UNL     1      16.768  23.476   1.514  1.00  0.00     0.035 C 
ENDBRANCH   7  25
BRANCH  21  27
HETATM   27  O2  UNL     1      14.153  20.758   8.027  1.00  0.00    -0.389 OA
ATOM     28  H2  UNL     1      14.298  21.436   8.676  1.00  0.00     0.210 HD
ENDBRANCH  21  27
ENDBRANCH   6   7
ENDBRANCH   5   6
ENDBRANCH   4   5
ENDBRANCH   3   4
TORSDOF 6
ENDMDL
MODEL 3
REMARK VINA RESULT: -6.205277405      2.866      5.793
REMARK  6 active torsions:
REMARK  status: ('A' for Active; 'I' for Inactive)
REMARK    1  A    between atoms: N1_3  and  C3_4 
REMARK    2  A    between atoms: C3_4  and  C4_5 
REMARK    3  A    between atoms: C4_5  and  C5_6 
REMARK    4  A    between atoms: C5_6  and  N2_7 
REMARK    5  A    between atoms: N2_7  and  C6_8 
REMARK    6  A    between atoms: C18_25  and  O2_27 
ROOT
HETATM    1  C1  UNL     1      23.597  19.658   4.905  1.00  0.00     0.140 C 
HETATM    2  C2  UNL     1      22.183  19.313   4.773  1.00  0.00     0.005 C 
HETATM    3  N1  UNL     1      21.047  19.056   4.664  1.00  0.00    -0.410 NA
ENDROOT
BRANCH   3   4
HETATM    4  C3  UNL     1      19.678  18.770   4.530  1.00  0.00     0.231 C 
BRANCH   4   5
HETATM    5  C4  UNL     1      18.917  20.063   4.924  1.00  0.00     0.062 C 
BRANCH   5   6
HETATM    6  C5  UNL     1      17.820  20.316   3.926  1.00  0.00     0.243 C 
BRANCH   6   7
HETATM    7  N2  UNL     1      16.691  21.053   4.370  1.00  0.00    -0.037 N 
HETATM    8  C8  UNL     1      15.406  20.377   4.058  1.00  0.00     0.270 C 
HETATM    9  C9  UNL     1      15.035  20.144   2.688  1.00  0.00     0.300 C 
HETATM   10  N3  UNL     1      15.845  21.057   1.886  1.00  0.00     0.090 N 
HETATM   11  C10 UNL     1      15.174  21.185   0.615  1.00  0.00     0.310 C 
HETATM   12  C11 UNL     1      15.604  22.313   2.640  1.00  0.00     0.334 C 
HETATM   13  C12 UNL     1      16.577  22.372   3.844  1.00  0.00     0.240 C 
HETATM   14  N4  UNL     1      15.968  23.282   4.844  1.00  0.00    -0.325 N 
HETATM   15  C16 UNL     1      17.662  23.186   3.323  1.00  0.00     0.106 C 
HETATM   16  C13 UNL     1      16.837  24.189   5.528  1.00  0.00     0.233 C 
ATOM     17  H4  UNL     1      14.966  23.262   5.037  1.00  0.00     0.165 HD
HETATM   18  O1  UNL     1      16.554  24.536   6.709  1.00  0.00    -0.273 OA
HETATM   19  C14 UNL     1      18.064  24.751   4.922  1.00  0.00     0.170 C 
HETATM   20  C15 UNL     1      18.781  23.745   4.009  1.00  0.00     0.096 C 
HETATM   21  C18 UNL     1      17.549  25.625   3.776  1.00  0.00     0.073 C 
HETATM   22  F1  UNL     1      19.821  23.138   4.531  1.00  0.00    -0.214 F 
HETATM   23  C17 UNL     1      16.983  24.519   2.887  1.00  0.00     0.054 C 
HETATM   24  C19 UNL     1      16.534  26.571   4.296  1.00  0.00     0.047 C 
BRANCH   7  25
HETATM   25  C6  UNL     1      16.582  20.974   5.842  1.00  0.00     0.236 C 
HETATM   26  C7  UNL     1      15.564  20.063   6.405  1.00  0.00     0.035 C 
ENDBRANCH   7  25
BRANCH  21  27
HETATM   27  O2  UNL     1      18.593  26.303   3.146  1.00  0.00    -0.389 OA
ATOM     28  H2  UNL     1      18.985  26.948   3.723  1.00  0.00     0.210 HD
ENDBRANCH  21  27
ENDBRANCH   6   7
ENDBRANCH   5   6
ENDBRANCH   4   5
ENDBRANCH   3   4
TORSDOF 6
ENDMDL
MODEL 4
REMARK VINA RESULT: -6.078118978      2.525      4.255
REMARK  6 active torsions:
REMARK  status: ('A' for Active; 'I' for Inactive)
REMARK    1  A    between atoms: N1_3  and  C3_4 
REMARK    2  A    between atoms: C3_4  and  C4_5 
REMARK    3  A    between atoms: C4_5  and  C5_6 
REMARK    4  A    between atoms: C5_6  and  N2_7 
REMARK    5  A    between atoms: N2_7  and  C6_8 
REMARK    6  A    between atoms: C18_25  and  O2_27 
ROOT
HETATM    1  C1  UNL     1      16.560  29.055   8.281  1.00  0.00     0.140 C 
HETATM    2  C2  UNL     1      16.291  27.631   8.088  1.00  0.00     0.005 C 
HETATM    3  N1  UNL     1      16.089  26.491   7.920  1.00  0.00    -0.410 NA
ENDROOT
BRANCH   3   4
HETATM    4  C3  UNL     1      15.862  25.122   7.701  1.00  0.00     0.231 C 
BRANCH   4   5
HETATM    5  C4  UNL     1      15.816  24.923   6.163  1.00  0.00     0.062 C 
BRANCH   5   6
HETATM    6  C5  UNL     1      16.311  23.544   5.826  1.00  0.00     0.243 C 
BRANCH   6   7
HETATM    7  N2  UNL     1      15.471  22.726   5.026  1.00  0.00    -0.037 N 
HETATM    8  C8  UNL     1      14.033  22.876   5.363  1.00  0.00     0.270 C 
HETATM    9  C9  UNL     1      13.565  22.514   6.675  1.00  0.00     0.300 C 
HETATM   10  N3  UNL     1      14.586  21.640   7.244  1.00  0.00     0.090 N 
HETATM   11  C10 UNL     1      13.944  20.905   8.307  1.00  0.00     0.310 C 
HETATM   12  C11 UNL     1      14.759  20.704   6.105  1.00  0.00     0.334 C 
HETATM   13  C12 UNL     1      15.743  21.328   5.085  1.00  0.00     0.240 C 
HETATM   14  N4  UNL     1      15.469  20.688   3.775  1.00  0.00    -0.325 N 
HETATM   15  C16 UNL     1      17.006  20.714   5.458  1.00  0.00     0.106 C 
HETATM   16  C13 UNL     1      16.593  20.345   2.961  1.00  0.00     0.233 C 
ATOM     17  H4  UNL     1      14.515  20.499   3.468  1.00  0.00     0.165 HD
HETATM   18  O1  UNL     1      16.467  20.361   1.704  1.00  0.00    -0.273 OA
HETATM   19  C14 UNL     1      17.912  19.966   3.513  1.00  0.00     0.170 C 
HETATM   20  C15 UNL     1      18.263  20.751   4.785  1.00  0.00     0.096 C 
HETATM   21  C18 UNL     1      17.647  18.647   4.243  1.00  0.00     0.073 C 
HETATM   22  F1  UNL     1      19.087  21.760   4.626  1.00  0.00    -0.214 F 
HETATM   23  C17 UNL     1      16.746  19.181   5.354  1.00  0.00     0.054 C 
HETATM   24  C19 UNL     1      16.982  17.697   3.319  1.00  0.00     0.047 C 
BRANCH   7  25
HETATM   25  C6  UNL     1      15.392  23.272   3.655  1.00  0.00     0.236 C 
HETATM   26  C7  UNL     1      16.607  23.900   3.096  1.00  0.00     0.035 C 
ENDBRANCH   7  25
BRANCH  21  27
HETATM   27  O2  UNL     1      18.826  18.105   4.757  1.00  0.00    -0.389 OA
ATOM     28  H2  UNL     1      19.257  18.712   5.347  1.00  0.00     0.210 HD
ENDBRANCH  21  27
ENDBRANCH   6   7
ENDBRANCH   5   6
ENDBRANCH   4   5
ENDBRANCH   3   4
TORSDOF 6
ENDMDL
MODEL 5
REMARK VINA RESULT: -6.025217832      2.431      5.414
REMARK  6 active torsions:
REMARK  status: ('A' for Active; 'I' for Inactive)
REMARK    1  A    between atoms: N1_3  and  C3_4 
REMARK    2  A    between atoms: C3_4  and  C4_5 
REMARK    3  A    between atoms: C4_5  and  C5_6 
REMARK    4  A    between atoms: C5_6  and  N2_7 
REMARK    5  A    between atoms: N2_7  and  C6_8 
REMARK    6  A    between atoms: C18_25  and  O2_27 
ROOT
HETATM    1  C1  UNL     1      21.610  22.604   1.874  1.00  0.00     0.140 C 
HETATM    2  C2  UNL     1      21.084  21.520   2.701  1.00  0.00     0.005 C 
HETATM    3  N1  UNL     1      20.645  20.661   3.364  1.00  0.00    -0.410 NA
ENDROOT
BRANCH   3   4
HETATM    4  C3  UNL     1      20.097  19.643   4.161  1.00  0.00     0.231 C 
BRANCH   4   5
HETATM    5  C4  UNL     1      18.880  20.263   4.896  1.00  0.00     0.062 C 
BRANCH   5   6
HETATM    6  C5  UNL     1      17.797  20.562   3.897  1.00  0.00     0.243 C 
BRANCH   6   7
HETATM    7  N2  UNL     1      16.634  21.221   4.373  1.00  0.00    -0.037 N 
HETATM    8  C8  UNL     1      15.383  20.499   4.028  1.00  0.00     0.270 C 
HETATM    9  C9  UNL     1      15.023  20.313   2.647  1.00  0.00     0.300 C 
HETATM   10  N3  UNL     1      15.787  21.302   1.891  1.00  0.00     0.090 N 
HETATM   11  C10 UNL     1      15.110  21.458   0.626  1.00  0.00     0.310 C 
HETATM   12  C11 UNL     1      15.485  22.507   2.703  1.00  0.00     0.334 C 
HETATM   13  C12 UNL     1      16.455  22.557   3.910  1.00  0.00     0.240 C 
HETATM   14  N4  UNL     1      15.802  23.387   4.951  1.00  0.00    -0.325 N 
HETATM   15  C16 UNL     1      17.499  23.447   3.431  1.00  0.00     0.106 C 
HETATM   16  C13 UNL     1      16.627  24.302   5.679  1.00  0.00     0.233 C 
ATOM     17  H4  UNL     1      14.803  23.309   5.142  1.00  0.00     0.165 HD
HETATM   18  O1  UNL     1      16.328  24.578   6.874  1.00  0.00    -0.273 OA
HETATM   19  C14 UNL     1      17.825  24.951   5.103  1.00  0.00     0.170 C 
HETATM   20  C15 UNL     1      18.589  24.027   4.144  1.00  0.00     0.096 C 
HETATM   21  C18 UNL     1      17.267  25.852   3.998  1.00  0.00     0.073 C 
HETATM   22  F1  UNL     1      19.658  23.446   4.638  1.00  0.00    -0.214 F 
HETATM   23  C17 UNL     1      16.755  24.764   3.057  1.00  0.00     0.054 C 
HETATM   24  C19 UNL     1      16.207  26.723   4.561  1.00  0.00     0.047 C 
BRANCH   7  25
HETATM   25  C6  UNL     1      16.530  21.067   5.839  1.00  0.00     0.236 C 
HETATM   26  C7  UNL     1      15.542  20.098   6.357  1.00  0.00     0.035 C 
ENDBRANCH   7  25
BRANCH  21  27
HETATM   27  O2  UNL     1      18.276  26.610   3.403  1.00  0.00    -0.389 OA
ATOM     28  H2  UNL     1      18.033  27.527   3.347  1.00  0.00     0.210 HD
ENDBRANCH  21  27
ENDBRANCH   6   7
ENDBRANCH   5   6
ENDBRANCH   4   5
ENDBRANCH   3   4
TORSDOF 6
ENDMDL
