MODEL 1
REMARK VINA RESULT: -9.349957351      0.000      0.000
REMARK  5 active torsions:
REMARK  status: ('A' for Active; 'I' for Inactive)
REMARK    1  A    between atoms: O1_2  and  C2_3 
REMARK    2  A    between atoms: C7_8  and  O2_9 
REMARK    3  A    between atoms: C11_13  and  C12_14 
REMARK    4  A    between atoms: C16_20  and  N2_21 
REMARK    5  A    between atoms: N2_21  and  S1_23 
ROOT
HETATM    1  C2  UNL     1     -47.699 100.906  20.887  1.00  0.00     0.102 A 
HETATM    2  C3  UNL     1     -48.603 101.599  20.117  1.00  0.00     0.048 A 
HETATM    3  C4  UNL     1     -49.939 101.222  19.963  1.00  0.00    -0.040 A 
HETATM    4  C5  UNL     1     -50.352 100.086  20.631  1.00  0.00    -0.016 A 
HETATM    5  C6  UNL     1     -49.460  99.377  21.410  1.00  0.00     0.052 A 
HETATM    6  C7  UNL     1     -48.149  99.772  21.543  1.00  0.00     0.102 A 
HETATM    7  C9  UNL     1     -51.777  99.911  20.307  1.00  0.00    -0.013 A 
HETATM    8  C10 UNL     1     -52.659  98.938  20.714  1.00  0.00     0.043 A 
HETATM    9  C11 UNL     1     -54.016  98.909  20.307  1.00  0.00     0.048 A 
HETATM   10  N3  UNL     1     -54.383  99.902  19.492  1.00  0.00    -0.342 N 
ATOM     11  H3  UNL     1     -55.351  99.923  19.171  1.00  0.00     0.167 HD
HETATM   12  C18 UNL     1     -53.542 100.892  19.063  1.00  0.00     0.106 A 
HETATM   13  N4  UNL     1     -53.962 101.818  18.280  1.00  0.00    -0.385 N 
ATOM     14  H41 UNL     1     -53.334 102.556  17.959  1.00  0.00     0.157 HD
ATOM     15  H42 UNL     1     -54.936 101.810  17.978  1.00  0.00     0.157 HD
HETATM   16  C19 UNL     1     -52.208 100.903  19.474  1.00  0.00     0.001 A 
HETATM   17  C20 UNL     1     -51.071 101.804  19.200  1.00  0.00     0.083 A 
ENDROOT
BRANCH   9  18
HETATM   18  C12 UNL     1     -54.880  97.878  20.825  1.00  0.00     0.035 A 
HETATM   19  C13 UNL     1     -54.700  96.535  20.449  1.00  0.00     0.019 A 
HETATM   20  C14 UNL     1     -55.461  95.516  20.946  1.00  0.00     0.018 A 
HETATM   21  C15 UNL     1     -56.446  95.790  21.850  1.00  0.00     0.090 A 
HETATM   22  N1  UNL     1     -56.645  97.063  22.232  1.00  0.00    -0.351 N 
HETATM   23  C16 UNL     1     -55.877  98.088  21.729  1.00  0.00     0.127 A 
ATOM     24  H1  UNL     1     -57.380  97.274  22.907  1.00  0.00     0.166 HD
BRANCH  23  25
HETATM   25  N2  UNL     1     -56.147  99.229  22.189  1.00  0.00    -0.269 N 
ATOM     26  H2  UNL     1     -55.650  99.526  23.029  1.00  0.00     0.180 HD
BRANCH  25  27
HETATM   27  S1  UNL     1     -57.273 100.318  21.521  1.00  0.00     0.228 S 
HETATM   28  C17 UNL     1     -58.407 100.830  22.834  1.00  0.00     0.186 C 
HETATM   29  O3  UNL     1     -56.654 101.553  20.930  1.00  0.00    -0.206 OA
HETATM   30  O4  UNL     1     -58.176  99.638  20.507  1.00  0.00    -0.206 OA
ENDBRANCH  25  27
ENDBRANCH  23  25
ENDBRANCH   9  18
BRANCH   6  31
HETATM   31  O2  UNL     1     -47.227  99.075  22.322  1.00  0.00    -0.353 OA
HETATM   32  C8  UNL     1     -47.232  99.334  23.714  1.00  0.00     0.210 C 
ENDBRANCH   6  31
BRANCH   1  33
HETATM   33  O1  UNL     1     -46.376 101.295  21.029  1.00  0.00    -0.353 OA
HETATM   34  C1  UNL     1     -45.927 102.383  21.770  1.00  0.00     0.210 C 
ENDBRANCH   1  33
TORSDOF 5
ENDMDL
MODEL 2
REMARK VINA RESULT: -9.213700589      2.355      3.634
REMARK  5 active torsions:
REMARK  status: ('A' for Active; 'I' for Inactive)
REMARK    1  A    between atoms: O1_2  and  C2_3 
REMARK    2  A    between atoms: C7_8  and  O2_9 
REMARK    3  A    between atoms: C11_13  and  C12_14 
REMARK    4  A    between atoms: C16_20  and  N2_21 
REMARK    5  A    between atoms: N2_21  and  S1_23 
ROOT
HETATM    1  C2  UNL     1     -48.320 101.793  21.688  1.00  0.00     0.102 A 
HETATM    2  C3  UNL     1     -48.201 100.884  22.713  1.00  0.00     0.048 A 
HETATM    3  C4  UNL     1     -49.206  99.979  23.067  1.00  0.00    -0.040 A 
HETATM    4  C5  UNL     1     -50.374 100.020  22.333  1.00  0.00    -0.016 A 
HETATM    5  C6  UNL     1     -50.513 100.924  21.300  1.00  0.00     0.052 A 
HETATM    6  C7  UNL     1     -49.507 101.804  20.974  1.00  0.00     0.102 A 
HETATM    7  C9  UNL     1     -51.254  98.984  22.899  1.00  0.00    -0.013 A 
HETATM    8  C10 UNL     1     -52.527  98.614  22.534  1.00  0.00     0.043 A 
HETATM    9  C11 UNL     1     -53.247  97.585  23.189  1.00  0.00     0.048 A 
HETATM   10  N3  UNL     1     -52.600  96.993  24.196  1.00  0.00    -0.342 N 
ATOM     11  H3  UNL     1     -53.079  96.248  24.700  1.00  0.00     0.167 HD
HETATM   12  C18 UNL     1     -51.333  97.327  24.594  1.00  0.00     0.106 A 
HETATM   13  N4  UNL     1     -50.769  96.715  25.571  1.00  0.00    -0.385 N 
ATOM     14  H41 UNL     1     -49.825  96.963  25.868  1.00  0.00     0.157 HD
ATOM     15  H42 UNL     1     -51.276  95.972  26.052  1.00  0.00     0.157 HD
HETATM   16  C19 UNL     1     -50.639  98.343  23.937  1.00  0.00     0.001 A 
HETATM   17  C20 UNL     1     -49.296  98.931  24.113  1.00  0.00     0.083 A 
ENDROOT
BRANCH   9  18
HETATM   18  C12 UNL     1     -54.558  97.232  22.704  1.00  0.00     0.035 A 
HETATM   19  C13 UNL     1     -54.837  95.919  22.282  1.00  0.00     0.019 A 
HETATM   20  C14 UNL     1     -56.072  95.522  21.859  1.00  0.00     0.018 A 
HETATM   21  C15 UNL     1     -57.098  96.422  21.833  1.00  0.00     0.090 A 
HETATM   22  N1  UNL     1     -56.866  97.685  22.229  1.00  0.00    -0.351 N 
HETATM   23  C16 UNL     1     -55.620  98.083  22.656  1.00  0.00     0.127 A 
ATOM     24  H1  UNL     1     -57.628  98.363  22.212  1.00  0.00     0.166 HD
BRANCH  23  25
HETATM   25  N2  UNL     1     -55.543  99.284  23.025  1.00  0.00    -0.269 N 
ATOM     26  H2  UNL     1     -54.980  99.486  23.851  1.00  0.00     0.180 HD
BRANCH  25  27
HETATM   27  S1  UNL     1     -56.304 100.601  22.258  1.00  0.00     0.228 S 
HETATM   28  C17 UNL     1     -57.973 100.759  22.934  1.00  0.00     0.186 C 
HETATM   29  O3  UNL     1     -55.595 101.913  22.449  1.00  0.00    -0.206 OA
HETATM   30  O4  UNL     1     -56.534 100.332  20.781  1.00  0.00    -0.206 OA
ENDBRANCH  25  27
ENDBRANCH  23  25
ENDBRANCH   9  18
BRANCH   6  31
HETATM   31  O2  UNL     1     -49.621 102.727  19.936  1.00  0.00    -0.353 OA
HETATM   32  C8  UNL     1     -50.344 102.323  18.788  1.00  0.00     0.210 C 
ENDBRANCH   6  31
BRANCH   1  33
HETATM   33  O1  UNL     1     -47.314 102.683  21.350  1.00  0.00    -0.353 OA
HETATM   34  C1  UNL     1     -45.992 102.612  21.778  1.00  0.00     0.210 C 
ENDBRANCH   1  33
TORSDOF 5
ENDMDL
MODEL 3
REMARK VINA RESULT: -9.201155365      4.081      7.992
REMARK  5 active torsions:
REMARK  status: ('A' for Active; 'I' for Inactive)
REMARK    1  A    between atoms: O1_2  and  C2_3 
REMARK    2  A    between atoms: C7_8  and  O2_9 
REMARK    3  A    between atoms: C11_13  and  C12_14 
REMARK    4  A    between atoms: C16_20  and  N2_21 
REMARK    5  A    between atoms: N2_21  and  S1_23 
ROOT
HETATM    1  C2  UNL     1     -54.343  97.929  22.586  1.00  0.00     0.102 A 
HETATM    2  C3  UNL     1     -54.275  98.984  21.707  1.00  0.00     0.048 A 
HETATM    3  C4  UNL     1     -53.085  99.632  21.365  1.00  0.00    -0.040 A 
HETATM    4  C5  UNL     1     -51.927  99.170  21.956  1.00  0.00    -0.016 A 
HETATM    5  C6  UNL     1     -51.974  98.112  22.841  1.00  0.00     0.052 A 
HETATM    6  C7  UNL     1     -53.161  97.493  23.159  1.00  0.00     0.102 A 
HETATM    7  C9  UNL     1     -50.834 100.009  21.436  1.00  0.00    -0.013 A 
HETATM    8  C10 UNL     1     -49.487  99.967  21.706  1.00  0.00     0.043 A 
HETATM    9  C11 UNL     1     -48.555 100.856  21.117  1.00  0.00     0.048 A 
HETATM   10  N3  UNL     1     -49.080 101.749  20.273  1.00  0.00    -0.342 N 
ATOM     11  H3  UNL     1     -48.449 102.412  19.825  1.00  0.00     0.167 HD
HETATM   12  C18 UNL     1     -50.413 101.828  19.973  1.00  0.00     0.106 A 
HETATM   13  N4  UNL     1     -50.851 102.711  19.152  1.00  0.00    -0.385 N 
ATOM     14  H41 UNL     1     -51.845 102.771  18.929  1.00  0.00     0.157 HD
ATOM     15  H42 UNL     1     -50.191 103.359  18.720  1.00  0.00     0.157 HD
HETATM   16  C19 UNL     1     -51.316 100.943  20.564  1.00  0.00     0.001 A 
HETATM   17  C20 UNL     1     -52.778 100.766  20.459  1.00  0.00     0.083 A 
ENDROOT
BRANCH   9  18
HETATM   18  C12 UNL     1     -47.154 100.703  21.420  1.00  0.00     0.035 A 
HETATM   19  C13 UNL     1     -46.315  99.951  20.578  1.00  0.00     0.019 A 
HETATM   20  C14 UNL     1     -44.975  99.815  20.795  1.00  0.00     0.018 A 
HETATM   21  C15 UNL     1     -44.401 100.426  21.872  1.00  0.00     0.090 A 
HETATM   22  N1  UNL     1     -45.173 101.152  22.698  1.00  0.00    -0.351 N 
HETATM   23  C16 UNL     1     -46.524 101.289  22.476  1.00  0.00     0.127 A 
ATOM     24  H1  UNL     1     -44.750 101.611  23.504  1.00  0.00     0.166 HD
BRANCH  23  25
HETATM   25  N2  UNL     1     -47.128 102.017  23.307  1.00  0.00    -0.269 N 
ATOM     26  H2  UNL     1     -47.281 102.993  23.051  1.00  0.00     0.180 HD
BRANCH  25  27
HETATM   27  S1  UNL     1     -47.709 101.507  24.825  1.00  0.00     0.228 S 
HETATM   28  C17 UNL     1     -47.052 102.625  26.084  1.00  0.00     0.186 C 
HETATM   29  O3  UNL     1     -49.208 101.505  24.936  1.00  0.00    -0.206 OA
HETATM   30  O4  UNL     1     -47.146 100.151  25.213  1.00  0.00    -0.206 OA
ENDBRANCH  25  27
ENDBRANCH  23  25
ENDBRANCH   9  18
BRANCH   6  31
HETATM   31  O2  UNL     1     -53.237  96.423  24.050  1.00  0.00    -0.353 OA
HETATM   32  C8  UNL     1     -52.570  95.229  23.683  1.00  0.00     0.210 C 
ENDBRANCH   6  31
BRANCH   1  33
HETATM   33  O1  UNL     1     -55.532  97.298  22.914  1.00  0.00    -0.353 OA
HETATM   34  C1  UNL     1     -56.405  96.695  22.013  1.00  0.00     0.210 C 
ENDBRANCH   1  33
TORSDOF 5
ENDMDL
MODEL 4
REMARK VINA RESULT: -9.184233689      4.418      8.124
REMARK  5 active torsions:
REMARK  status: ('A' for Active; 'I' for Inactive)
REMARK    1  A    between atoms: O1_2  and  C2_3 
REMARK    2  A    between atoms: C7_8  and  O2_9 
REMARK    3  A    between atoms: C11_13  and  C12_14 
REMARK    4  A    between atoms: C16_20  and  N2_21 
REMARK    5  A    between atoms: N2_21  and  S1_23 
ROOT
HETATM    1  C2  UNL     1     -54.088  97.166  22.789  1.00  0.00     0.102 A 
HETATM    2  C3  UNL     1     -53.985  98.368  22.129  1.00  0.00     0.048 A 
HETATM    3  C4  UNL     1     -52.776  99.038  21.923  1.00  0.00    -0.040 A 
HETATM    4  C5  UNL     1     -51.635  98.440  22.420  1.00  0.00    -0.016 A 
HETATM    5  C6  UNL     1     -51.717  97.234  23.085  1.00  0.00     0.052 A 
HETATM    6  C7  UNL     1     -52.922  96.597  23.273  1.00  0.00     0.102 A 
HETATM    7  C9  UNL     1     -50.517  99.334  22.077  1.00  0.00    -0.013 A 
HETATM    8  C10 UNL     1     -49.173  99.205  22.339  1.00  0.00     0.043 A 
HETATM    9  C11 UNL     1     -48.214 100.166  21.936  1.00  0.00     0.048 A 
HETATM   10  N3  UNL     1     -48.708 101.218  21.277  1.00  0.00    -0.342 N 
ATOM     11  H3  UNL     1     -48.056 101.938  20.968  1.00  0.00     0.167 HD
HETATM   12  C18 UNL     1     -50.036 101.388  20.992  1.00  0.00     0.106 A 
HETATM   13  N4  UNL     1     -50.444 102.424  20.354  1.00  0.00    -0.385 N 
ATOM     14  H41 UNL     1     -51.433 102.551  20.141  1.00  0.00     0.157 HD
ATOM     15  H42 UNL     1     -49.764 103.124  20.058  1.00  0.00     0.157 HD
HETATM   16  C19 UNL     1     -50.967 100.430  21.397  1.00  0.00     0.001 A 
HETATM   17  C20 UNL     1     -52.432 100.316  21.254  1.00  0.00     0.083 A 
ENDROOT
BRANCH   9  18
HETATM   18  C12 UNL     1     -46.821  99.921  22.211  1.00  0.00     0.035 A 
HETATM   19  C13 UNL     1     -45.922  99.633  21.167  1.00  0.00     0.019 A 
HETATM   20  C14 UNL     1     -44.587  99.440  21.369  1.00  0.00     0.018 A 
HETATM   21  C15 UNL     1     -44.077  99.523  22.632  1.00  0.00     0.090 A 
HETATM   22  N1  UNL     1     -44.906  99.796  23.653  1.00  0.00    -0.351 N 
HETATM   23  C16 UNL     1     -46.252  99.991  23.447  1.00  0.00     0.127 A 
ATOM     24  H1  UNL     1     -44.532  99.859  24.600  1.00  0.00     0.166 HD
BRANCH  23  25
HETATM   25  N2  UNL     1     -46.914 100.267  24.483  1.00  0.00    -0.269 N 
ATOM     26  H2  UNL     1     -47.043  99.522  25.169  1.00  0.00     0.180 HD
BRANCH  25  27
HETATM   27  S1  UNL     1     -47.613 101.780  24.832  1.00  0.00     0.228 S 
HETATM   28  C17 UNL     1     -46.956 102.351  26.416  1.00  0.00     0.186 C 
HETATM   29  O3  UNL     1     -47.332 102.836  23.800  1.00  0.00    -0.206 OA
HETATM   30  O4  UNL     1     -49.107 101.663  25.079  1.00  0.00    -0.206 OA
ENDBRANCH  25  27
ENDBRANCH  23  25
ENDBRANCH   9  18
BRANCH   6  31
HETATM   31  O2  UNL     1     -53.034  95.378  23.941  1.00  0.00    -0.353 OA
HETATM   32  C8  UNL     1     -51.938  94.979  24.744  1.00  0.00     0.210 C 
ENDBRANCH   6  31
BRANCH   1  33
HETATM   33  O1  UNL     1     -55.295  96.515  22.984  1.00  0.00    -0.353 OA
HETATM   34  C1  UNL     1     -56.086  95.957  21.984  1.00  0.00     0.210 C 
ENDBRANCH   1  33
TORSDOF 5
ENDMDL
MODEL 5
REMARK VINA RESULT: -9.161465897      3.154      4.629
REMARK  5 active torsions:
REMARK  status: ('A' for Active; 'I' for Inactive)
REMARK    1  A    between atoms: O1_2  and  C2_3 
REMARK    2  A    between atoms: C7_8  and  O2_9 
REMARK    3  A    between atoms: C11_13  and  C12_14 
REMARK    4  A    between atoms: C16_20  and  N2_21 
REMARK    5  A    between atoms: N2_21  and  S1_23 
ROOT
HETATM    1  C2  UNL     1     -47.576 101.842  22.372  1.00  0.00     0.102 A 
HETATM    2  C3  UNL     1     -47.625 100.796  23.264  1.00  0.00     0.048 A 
HETATM    3  C4  UNL     1     -48.763 100.013  23.477  1.00  0.00    -0.040 A 
HETATM    4  C5  UNL     1     -49.887 100.325  22.740  1.00  0.00    -0.016 A 
HETATM    5  C6  UNL     1     -49.858 101.371  21.839  1.00  0.00     0.052 A 
HETATM    6  C7  UNL     1     -48.724 102.126  21.650  1.00  0.00     0.102 A 
HETATM    7  C9  UNL     1     -50.928  99.366  23.146  1.00  0.00    -0.013 A 
HETATM    8  C10 UNL     1     -52.228  99.243  22.717  1.00  0.00     0.043 A 
HETATM    9  C11 UNL     1     -53.113  98.255  23.214  1.00  0.00     0.048 A 
HETATM   10  N3  UNL     1     -52.593  97.443  24.139  1.00  0.00    -0.342 N 
ATOM     11  H3  UNL     1     -53.193  96.717  24.528  1.00  0.00     0.167 HD
HETATM   12  C18 UNL     1     -51.305  97.527  24.595  1.00  0.00     0.106 A 
HETATM   13  N4  UNL     1     -50.870  96.713  25.486  1.00  0.00    -0.385 N 
ATOM     14  H41 UNL     1     -49.910  96.775  25.827  1.00  0.00     0.157 HD
ATOM     15  H42 UNL     1     -51.496  95.996  25.854  1.00  0.00     0.157 HD
HETATM   16  C19 UNL     1     -50.448  98.507  24.093  1.00  0.00     0.001 A 
HETATM   17  C20 UNL     1     -49.041  98.859  24.367  1.00  0.00     0.083 A 
ENDROOT
BRANCH   9  18
HETATM   18  C12 UNL     1     -54.443  98.169  22.667  1.00  0.00     0.035 A 
HETATM   19  C13 UNL     1     -55.336  99.251  22.777  1.00  0.00     0.019 A 
HETATM   20  C14 UNL     1     -56.589  99.237  22.237  1.00  0.00     0.018 A 
HETATM   21  C15 UNL     1     -57.018  98.135  21.555  1.00  0.00     0.090 A 
HETATM   22  N1  UNL     1     -56.191  97.084  21.430  1.00  0.00    -0.351 N 
HETATM   23  C16 UNL     1     -54.928  97.100  21.975  1.00  0.00     0.127 A 
ATOM     24  H1  UNL     1     -56.505  96.257  20.922  1.00  0.00     0.166 HD
BRANCH  23  25
HETATM   25  N2  UNL     1     -54.244  96.064  21.763  1.00  0.00    -0.269 N 
ATOM     26  H2  UNL     1     -54.219  95.360  22.502  1.00  0.00     0.180 HD
BRANCH  25  27
HETATM   27  S1  UNL     1     -53.357  95.741  20.346  1.00  0.00     0.228 S 
HETATM   28  C17 UNL     1     -51.623  96.139  20.664  1.00  0.00     0.186 C 
HETATM   29  O3  UNL     1     -53.433  94.311  19.889  1.00  0.00    -0.206 OA
HETATM   30  O4  UNL     1     -53.745  96.680  19.217  1.00  0.00    -0.206 OA
ENDBRANCH  25  27
ENDBRANCH  23  25
ENDBRANCH   9  18
BRANCH   6  31
HETATM   31  O2  UNL     1     -48.666 103.187  20.748  1.00  0.00    -0.353 OA
HETATM   32  C8  UNL     1     -48.627 102.862  19.370  1.00  0.00     0.210 C 
ENDBRANCH   6  31
BRANCH   1  33
HETATM   33  O1  UNL     1     -46.440 102.609  22.173  1.00  0.00    -0.353 OA
HETATM   34  C1  UNL     1     -45.306 102.211  21.472  1.00  0.00     0.210 C 
ENDBRANCH   1  33
TORSDOF 5
ENDMDL
