MODEL 1
REMARK VINA RESULT: -8.769211944      0.000      0.000
REMARK  11 active torsions:
REMARK  status: ('A' for Active; 'I' for Inactive)
REMARK    1  A    between atoms: C2_2  and  N1_3 
REMARK    2  A    between atoms: N1_3  and  C3_5 
REMARK    3  A    between atoms: C4_8  and  N3_9 
REMARK    4  A    between atoms: N3_9  and  C5_10 
REMARK    5  A    between atoms: C5_10  and  C6_11 
REMARK    6  A    between atoms: C6_11  and  O1_12 
REMARK    7  A    between atoms: C6_11  and  C7_14 
REMARK    8  A    between atoms: C9_16  and  C10_17 
REMARK    9  A    between atoms: C15_22  and  C16_23 
REMARK   10  A    between atoms: C21_30  and  C22_31 
REMARK   11  A    between atoms: N5_33  and  O3_34 
ROOT
HETATM    1  C5  UNL     1     -50.142  99.385  20.787  1.00  0.00     0.258 C 
ENDROOT
BRANCH   1   2
HETATM    2  N3  UNL     1     -49.070  99.608  21.552  1.00  0.00    -0.412 NA
BRANCH   2   3
HETATM    3  C4  UNL     1     -48.019  99.682  22.129  1.00  0.00     0.270 A 
HETATM    4  N2  UNL     1     -47.828 100.257  23.365  1.00  0.00    -0.147 N 
HETATM    5  C3  UNL     1     -46.654 100.332  23.986  1.00  0.00     0.713 A 
ATOM      6  H2  UNL     1     -48.641 100.651  23.836  1.00  0.00     0.188 HD
HETATM    7  N5  UNL     1     -45.565  99.804  23.355  1.00  0.00    -0.032 N 
HETATM    8  C21 UNL     1     -45.689  99.237  22.163  1.00  0.00     0.193 A 
HETATM    9  N4  UNL     1     -46.874  99.170  21.556  1.00  0.00    -0.297 N 
ATOM     10  H4  UNL     1     -46.935  98.727  20.640  1.00  0.00     0.171 HD
BRANCH   5  11
HETATM   11  N1  UNL     1     -46.429 100.843  25.120  1.00  0.00    -0.203 N 
ATOM     12  H1  UNL     1     -45.437 100.847  25.354  1.00  0.00     0.183 HD
BRANCH  11  13
HETATM   13  C2  UNL     1     -47.216 101.404  26.132  1.00  0.00     0.074 C 
HETATM   14  C1  UNL     1     -47.101 102.894  26.163  1.00  0.00     0.055 C 
ENDBRANCH  11  13
ENDBRANCH   5  11
BRANCH   7  15
HETATM   15  O3  UNL     1     -44.339  99.856  23.953  1.00  0.00    -0.268 OA
ATOM     16  H3  UNL     1     -43.788  99.082  23.974  1.00  0.00     0.246 HD
ENDBRANCH   7  15
BRANCH   8  17
HETATM   17  C22 UNL     1     -44.469  98.683  21.537  1.00  0.00     0.310 C 
HETATM   18  O2  UNL     1     -44.100  97.551  21.873  1.00  0.00    -0.298 OA
ENDBRANCH   8  17
ENDBRANCH   2   3
ENDBRANCH   1   2
BRANCH   1  19
HETATM   19  C6  UNL     1     -51.454 100.033  21.310  1.00  0.00     0.181 C 
BRANCH  19  20
HETATM   20  O1  UNL     1     -51.424  99.896  22.701  1.00  0.00    -0.388 OA
ATOM     21  H1  UNL     1     -51.681  98.999  22.882  1.00  0.00     0.210 HD
ENDBRANCH  19  20
BRANCH  19  22
HETATM   22  C7  UNL     1     -52.651  99.342  20.805  1.00  0.00    -0.026 A 
HETATM   23  C8  UNL     1     -53.657  99.919  20.061  1.00  0.00     0.017 A 
HETATM   24  C9  UNL     1     -54.763  99.204  19.598  1.00  0.00    -0.049 A 
HETATM   25  C14 UNL     1     -54.824  97.866  19.912  1.00  0.00     0.015 A 
HETATM   26  C15 UNL     1     -53.862  97.238  20.644  1.00  0.00    -0.049 A 
HETATM   27  C20 UNL     1     -52.789  97.972  21.085  1.00  0.00     0.017 A 
BRANCH  24  28
HETATM   28  C10 UNL     1     -55.827  99.851  18.819  1.00  0.00    -0.024 C 
HETATM   29  C11 UNL     1     -55.317 101.291  18.589  1.00  0.00     0.019 C 
HETATM   30  C12 UNL     1     -57.117 100.005  19.557  1.00  0.00     0.019 C 
HETATM   31  C13 UNL     1     -56.030  99.287  17.437  1.00  0.00     0.019 C 
ENDBRANCH  24  28
BRANCH  26  32
HETATM   32  C16 UNL     1     -54.011  95.783  20.929  1.00  0.00    -0.024 C 
HETATM   33  C17 UNL     1     -55.249  95.203  20.316  1.00  0.00     0.019 C 
HETATM   34  C18 UNL     1     -52.768  95.014  20.542  1.00  0.00     0.019 C 
HETATM   35  C19 UNL     1     -54.146  95.663  22.446  1.00  0.00     0.019 C 
ENDBRANCH  26  32
ENDBRANCH  19  22
ENDBRANCH   1  19
TORSDOF 11
ENDMDL
MODEL 2
REMARK VINA RESULT: -8.762300360      1.280      2.771
REMARK  11 active torsions:
REMARK  status: ('A' for Active; 'I' for Inactive)
REMARK    1  A    between atoms: C2_2  and  N1_3 
REMARK    2  A    between atoms: N1_3  and  C3_5 
REMARK    3  A    between atoms: C4_8  and  N3_9 
REMARK    4  A    between atoms: N3_9  and  C5_10 
REMARK    5  A    between atoms: C5_10  and  C6_11 
REMARK    6  A    between atoms: C6_11  and  O1_12 
REMARK    7  A    between atoms: C6_11  and  C7_14 
REMARK    8  A    between atoms: C9_16  and  C10_17 
REMARK    9  A    between atoms: C15_22  and  C16_23 
REMARK   10  A    between atoms: C21_30  and  C22_31 
REMARK   11  A    between atoms: N5_33  and  O3_34 
ROOT
HETATM    1  C5  UNL     1     -50.106  98.858  20.976  1.00  0.00     0.258 C 
ENDROOT
BRANCH   1   2
HETATM    2  N3  UNL     1     -49.084  99.210  21.761  1.00  0.00    -0.412 NA
BRANCH   2   3
HETATM    3  C4  UNL     1     -48.296  99.616  22.572  1.00  0.00     0.270 A 
HETATM    4  N2  UNL     1     -46.931  99.460  22.503  1.00  0.00    -0.147 N 
HETATM    5  C3  UNL     1     -46.074  99.914  23.414  1.00  0.00     0.713 A 
ATOM      6  H2  UNL     1     -46.549  98.962  21.698  1.00  0.00     0.188 HD
HETATM    7  N5  UNL     1     -46.584 100.580  24.490  1.00  0.00    -0.032 N 
HETATM    8  C21 UNL     1     -47.892 100.762  24.610  1.00  0.00     0.193 A 
HETATM    9  N4  UNL     1     -48.735 100.299  23.686  1.00  0.00    -0.297 N 
ATOM     10  H4  UNL     1     -49.735 100.456  23.808  1.00  0.00     0.171 HD
BRANCH   5  11
HETATM   11  N1  UNL     1     -44.815  99.801  23.392  1.00  0.00    -0.203 N 
ATOM     12  H1  UNL     1     -44.349 100.563  23.884  1.00  0.00     0.183 HD
BRANCH  11  13
HETATM   13  C2  UNL     1     -43.908  98.882  22.854  1.00  0.00     0.074 C 
HETATM   14  C1  UNL     1     -42.548  99.025  23.460  1.00  0.00     0.055 C 
ENDBRANCH  11  13
ENDBRANCH   5  11
BRANCH   7  15
HETATM   15  O3  UNL     1     -45.745 101.066  25.451  1.00  0.00    -0.268 OA
ATOM     16  H3  UNL     1     -45.005 100.546  25.741  1.00  0.00     0.246 HD
ENDBRANCH   7  15
BRANCH   8  17
HETATM   17  C22 UNL     1     -48.377 101.493  25.800  1.00  0.00     0.310 C 
HETATM   18  O2  UNL     1     -47.889 102.604  26.043  1.00  0.00    -0.298 OA
ENDBRANCH   8  17
ENDBRANCH   2   3
ENDBRANCH   1   2
BRANCH   1  19
HETATM   19  C6  UNL     1     -51.277  99.879  20.945  1.00  0.00     0.181 C 
BRANCH  19  20
HETATM   20  O1  UNL     1     -51.430 100.331  22.259  1.00  0.00    -0.388 OA
ATOM     21  H1  UNL     1     -50.591 100.192  22.684  1.00  0.00     0.210 HD
ENDBRANCH  19  20
BRANCH  19  22
HETATM   22  C7  UNL     1     -52.542  99.256  20.524  1.00  0.00    -0.026 A 
HETATM   23  C8  UNL     1     -53.560  99.887  19.845  1.00  0.00     0.017 A 
HETATM   24  C9  UNL     1     -54.734  99.235  19.459  1.00  0.00    -0.049 A 
HETATM   25  C14 UNL     1     -54.849  97.903  19.784  1.00  0.00     0.015 A 
HETATM   26  C15 UNL     1     -53.878  97.223  20.455  1.00  0.00    -0.049 A 
HETATM   27  C20 UNL     1     -52.738  97.896  20.820  1.00  0.00     0.017 A 
BRANCH  24  28
HETATM   28  C10 UNL     1     -55.808  99.940  18.749  1.00  0.00    -0.024 C 
HETATM   29  C11 UNL     1     -55.994  99.143  17.438  1.00  0.00     0.019 C 
HETATM   30  C12 UNL     1     -55.451 101.325  18.317  1.00  0.00     0.019 C 
HETATM   31  C13 UNL     1     -57.152  99.888  19.426  1.00  0.00     0.019 C 
ENDBRANCH  24  28
BRANCH  26  32
HETATM   32  C16 UNL     1     -54.089  95.780  20.757  1.00  0.00    -0.024 C 
HETATM   33  C17 UNL     1     -55.369  95.255  20.180  1.00  0.00     0.019 C 
HETATM   34  C18 UNL     1     -52.895  94.948  20.347  1.00  0.00     0.019 C 
HETATM   35  C19 UNL     1     -54.191  95.679  22.278  1.00  0.00     0.019 C 
ENDBRANCH  26  32
ENDBRANCH  19  22
ENDBRANCH   1  19
TORSDOF 11
ENDMDL
MODEL 3
REMARK VINA RESULT: -8.745848503      1.940      4.238
REMARK  11 active torsions:
REMARK  status: ('A' for Active; 'I' for Inactive)
REMARK    1  A    between atoms: C2_2  and  N1_3 
REMARK    2  A    between atoms: N1_3  and  C3_5 
REMARK    3  A    between atoms: C4_8  and  N3_9 
REMARK    4  A    between atoms: N3_9  and  C5_10 
REMARK    5  A    between atoms: C5_10  and  C6_11 
REMARK    6  A    between atoms: C6_11  and  O1_12 
REMARK    7  A    between atoms: C6_11  and  C7_14 
REMARK    8  A    between atoms: C9_16  and  C10_17 
REMARK    9  A    between atoms: C15_22  and  C16_23 
REMARK   10  A    between atoms: C21_30  and  C22_31 
REMARK   11  A    between atoms: N5_33  and  O3_34 
ROOT
HETATM    1  C5  UNL     1     -50.539  99.653  22.061  1.00  0.00     0.258 C 
ENDROOT
BRANCH   1   2
HETATM    2  N3  UNL     1     -49.222  99.787  21.879  1.00  0.00    -0.412 NA
BRANCH   2   3
HETATM    3  C4  UNL     1     -48.085 100.044  21.590  1.00  0.00     0.270 A 
HETATM    4  N2  UNL     1     -47.685 100.748  20.477  1.00  0.00    -0.147 N 
HETATM    5  C3  UNL     1     -46.419 101.019  20.172  1.00  0.00     0.713 A 
ATOM      6  H2  UNL     1     -48.409 101.085  19.843  1.00  0.00     0.188 HD
HETATM    7  N5  UNL     1     -45.450 100.568  21.021  1.00  0.00    -0.032 N 
HETATM    8  C21 UNL     1     -45.776  99.885  22.110  1.00  0.00     0.193 A 
HETATM    9  N4  UNL     1     -47.050  99.623  22.399  1.00  0.00    -0.297 N 
ATOM     10  H4  UNL     1     -47.267  99.095  23.244  1.00  0.00     0.171 HD
BRANCH   5  11
HETATM   11  N1  UNL     1     -46.004 101.665  19.169  1.00  0.00    -0.203 N 
ATOM     12  H1  UNL     1     -45.009 101.883  19.232  1.00  0.00     0.183 HD
BRANCH  11  13
HETATM   13  C2  UNL     1     -46.581 102.154  17.991  1.00  0.00     0.074 C 
HETATM   14  C1  UNL     1     -45.582 102.254  16.884  1.00  0.00     0.055 C 
ENDBRANCH  11  13
ENDBRANCH   5  11
BRANCH   7  15
HETATM   15  O3  UNL     1     -44.136 100.822  20.752  1.00  0.00    -0.268 OA
ATOM     16  H3  UNL     1     -43.789 100.655  19.884  1.00  0.00     0.246 HD
ENDBRANCH   7  15
BRANCH   8  17
HETATM   17  C22 UNL     1     -44.676  99.427  22.986  1.00  0.00     0.310 C 
HETATM   18  O2  UNL     1     -44.133  98.345  22.729  1.00  0.00    -0.298 OA
ENDBRANCH   8  17
ENDBRANCH   2   3
ENDBRANCH   1   2
BRANCH   1  19
HETATM   19  C6  UNL     1     -51.412 100.298  20.948  1.00  0.00     0.181 C 
BRANCH  19  20
HETATM   20  O1  UNL     1     -51.922 101.479  21.494  1.00  0.00    -0.388 OA
ATOM     21  H1  UNL     1     -52.204 101.262  22.375  1.00  0.00     0.210 HD
ENDBRANCH  19  20
BRANCH  19  22
HETATM   22  C7  UNL     1     -52.546  99.439  20.571  1.00  0.00    -0.026 A 
HETATM   23  C8  UNL     1     -52.701  98.115  20.917  1.00  0.00     0.017 A 
HETATM   24  C9  UNL     1     -53.811  97.356  20.539  1.00  0.00    -0.049 A 
HETATM   25  C14 UNL     1     -54.777  97.985  19.789  1.00  0.00     0.015 A 
HETATM   26  C15 UNL     1     -54.682  99.292  19.414  1.00  0.00    -0.049 A 
HETATM   27  C20 UNL     1     -53.577 100.008  19.802  1.00  0.00     0.017 A 
BRANCH  24  28
HETATM   28  C10 UNL     1     -53.939  95.942  20.911  1.00  0.00    -0.024 C 
HETATM   29  C11 UNL     1     -55.226  95.468  20.198  1.00  0.00     0.019 C 
HETATM   30  C12 UNL     1     -54.191  95.712  22.366  1.00  0.00     0.019 C 
HETATM   31  C13 UNL     1     -52.850  95.047  20.378  1.00  0.00     0.019 C 
ENDBRANCH  24  28
BRANCH  26  32
HETATM   32  C16 UNL     1     -55.782  99.889  18.607  1.00  0.00    -0.024 C 
HETATM   33  C17 UNL     1     -55.549 101.338  18.302  1.00  0.00     0.019 C 
HETATM   34  C18 UNL     1     -56.054  99.080  17.358  1.00  0.00     0.019 C 
HETATM   35  C19 UNL     1     -57.038  99.794  19.471  1.00  0.00     0.019 C 
ENDBRANCH  26  32
ENDBRANCH  19  22
ENDBRANCH   1  19
TORSDOF 11
ENDMDL
MODEL 4
REMARK VINA RESULT: -8.727738178      1.882      2.936
REMARK  11 active torsions:
REMARK  status: ('A' for Active; 'I' for Inactive)
REMARK    1  A    between atoms: C2_2  and  N1_3 
REMARK    2  A    between atoms: N1_3  and  C3_5 
REMARK    3  A    between atoms: C4_8  and  N3_9 
REMARK    4  A    between atoms: N3_9  and  C5_10 
REMARK    5  A    between atoms: C5_10  and  C6_11 
REMARK    6  A    between atoms: C6_11  and  O1_12 
REMARK    7  A    between atoms: C6_11  and  C7_14 
REMARK    8  A    between atoms: C9_16  and  C10_17 
REMARK    9  A    between atoms: C15_22  and  C16_23 
REMARK   10  A    between atoms: C21_30  and  C22_31 
REMARK   11  A    between atoms: N5_33  and  O3_34 
ROOT
HETATM    1  C5  UNL     1     -50.159  98.663  21.767  1.00  0.00     0.258 C 
ENDROOT
BRANCH   1   2
HETATM    2  N3  UNL     1     -48.896  99.093  21.713  1.00  0.00    -0.412 NA
BRANCH   2   3
HETATM    3  C4  UNL     1     -47.818  99.588  21.520  1.00  0.00     0.270 A 
HETATM    4  N2  UNL     1     -47.469 100.329  20.414  1.00  0.00    -0.147 N 
HETATM    5  C3  UNL     1     -46.268 100.866  20.216  1.00  0.00     0.713 A 
ATOM      6  H2  UNL     1     -48.179 100.476  19.697  1.00  0.00     0.188 HD
HETATM    7  N5  UNL     1     -45.318 100.670  21.176  1.00  0.00    -0.032 N 
HETATM    8  C21 UNL     1     -45.597  99.965  22.264  1.00  0.00     0.193 A 
HETATM    9  N4  UNL     1     -46.806  99.435  22.444  1.00  0.00    -0.297 N 
ATOM     10  H4  UNL     1     -46.989  98.899  23.292  1.00  0.00     0.171 HD
BRANCH   5  11
HETATM   11  N1  UNL     1     -45.902 101.557  19.223  1.00  0.00    -0.203 N 
ATOM     12  H1  UNL     1     -44.912 101.797  19.261  1.00  0.00     0.183 HD
BRANCH  11  13
HETATM   13  C2  UNL     1     -46.530 102.071  18.083  1.00  0.00     0.074 C 
HETATM   14  C1  UNL     1     -45.570 102.241  16.949  1.00  0.00     0.055 C 
ENDBRANCH  11  13
ENDBRANCH   5  11
BRANCH   7  15
HETATM   15  O3  UNL     1     -44.071 101.202  21.019  1.00  0.00    -0.268 OA
ATOM     16  H3  UNL     1     -43.394 101.021  21.660  1.00  0.00     0.246 HD
ENDBRANCH   7  15
BRANCH   8  17
HETATM   17  C22 UNL     1     -44.521  99.793  23.264  1.00  0.00     0.310 C 
HETATM   18  O2  UNL     1     -43.668  98.919  23.061  1.00  0.00    -0.298 OA
ENDBRANCH   8  17
ENDBRANCH   2   3
ENDBRANCH   1   2
BRANCH   1  19
HETATM   19  C6  UNL     1     -51.221  99.732  21.383  1.00  0.00     0.181 C 
BRANCH  19  20
HETATM   20  O1  UNL     1     -51.555 100.388  22.571  1.00  0.00    -0.388 OA
ATOM     21  H1  UNL     1     -52.425 100.084  22.803  1.00  0.00     0.210 HD
ENDBRANCH  19  20
BRANCH  19  22
HETATM   22  C7  UNL     1     -52.443  99.124  20.834  1.00  0.00    -0.026 A 
HETATM   23  C8  UNL     1     -53.377  99.765  20.051  1.00  0.00     0.017 A 
HETATM   24  C9  UNL     1     -54.512  99.127  19.547  1.00  0.00    -0.049 A 
HETATM   25  C14 UNL     1     -54.678  97.798  19.860  1.00  0.00     0.015 A 
HETATM   26  C15 UNL     1     -53.790  97.107  20.629  1.00  0.00    -0.049 A 
HETATM   27  C20 UNL     1     -52.686  97.767  21.109  1.00  0.00     0.017 A 
BRANCH  24  28
HETATM   28  C10 UNL     1     -55.498  99.843  18.728  1.00  0.00    -0.024 C 
HETATM   29  C11 UNL     1     -56.783  99.851  19.587  1.00  0.00     0.019 C 
HETATM   30  C12 UNL     1     -55.875  99.136  17.466  1.00  0.00     0.019 C 
HETATM   31  C13 UNL     1     -55.184 101.297  18.489  1.00  0.00     0.019 C 
ENDBRANCH  24  28
BRANCH  26  32
HETATM   32  C16 UNL     1     -54.050  95.668  20.910  1.00  0.00    -0.024 C 
HETATM   33  C17 UNL     1     -55.315  95.179  20.272  1.00  0.00     0.019 C 
HETATM   34  C18 UNL     1     -52.859  94.810  20.547  1.00  0.00     0.019 C 
HETATM   35  C19 UNL     1     -54.223  95.559  22.424  1.00  0.00     0.019 C 
ENDBRANCH  26  32
ENDBRANCH  19  22
ENDBRANCH   1  19
TORSDOF 11
ENDMDL
MODEL 5
REMARK VINA RESULT: -8.705388975      1.294      4.160
REMARK  11 active torsions:
REMARK  status: ('A' for Active; 'I' for Inactive)
REMARK    1  A    between atoms: C2_2  and  N1_3 
REMARK    2  A    between atoms: N1_3  and  C3_5 
REMARK    3  A    between atoms: C4_8  and  N3_9 
REMARK    4  A    between atoms: N3_9  and  C5_10 
REMARK    5  A    between atoms: C5_10  and  C6_11 
REMARK    6  A    between atoms: C6_11  and  O1_12 
REMARK    7  A    between atoms: C6_11  and  C7_14 
REMARK    8  A    between atoms: C9_16  and  C10_17 
REMARK    9  A    between atoms: C15_22  and  C16_23 
REMARK   10  A    between atoms: C21_30  and  C22_31 
REMARK   11  A    between atoms: N5_33  and  O3_34 
ROOT
HETATM    1  C5  UNL     1     -50.069  98.907  20.871  1.00  0.00     0.258 C 
ENDROOT
BRANCH   1   2
HETATM    2  N3  UNL     1     -49.076  99.345  21.649  1.00  0.00    -0.412 NA
BRANCH   2   3
HETATM    3  C4  UNL     1     -48.304  99.716  22.492  1.00  0.00     0.270 A 
HETATM    4  N2  UNL     1     -46.939  99.545  22.452  1.00  0.00    -0.147 N 
HETATM    5  C3  UNL     1     -46.100  99.960  23.398  1.00  0.00     0.713 A 
ATOM      6  H2  UNL     1     -46.543  99.069  21.642  1.00  0.00     0.188 HD
HETATM    7  N5  UNL     1     -46.630 100.598  24.481  1.00  0.00    -0.032 N 
HETATM    8  C21 UNL     1     -47.938 100.792  24.574  1.00  0.00     0.193 A 
HETATM    9  N4  UNL     1     -48.763 100.369  23.616  1.00  0.00    -0.297 N 
ATOM     10  H4  UNL     1     -49.764 100.534  23.718  1.00  0.00     0.171 HD
BRANCH   5  11
HETATM   11  N1  UNL     1     -44.843  99.832  23.403  1.00  0.00    -0.203 N 
ATOM     12  H1  UNL     1     -44.380 100.579  23.921  1.00  0.00     0.183 HD
BRANCH  11  13
HETATM   13  C2  UNL     1     -43.933  98.912  22.870  1.00  0.00     0.074 C 
HETATM   14  C1  UNL     1     -42.584  99.037  23.501  1.00  0.00     0.055 C 
ENDBRANCH  11  13
ENDBRANCH   5  11
BRANCH   7  15
HETATM   15  O3  UNL     1     -45.810 101.043  25.478  1.00  0.00    -0.268 OA
ATOM     16  H3  UNL     1     -45.588 100.469  26.202  1.00  0.00     0.246 HD
ENDBRANCH   7  15
BRANCH   8  17
HETATM   17  C22 UNL     1     -48.444 101.492  25.775  1.00  0.00     0.310 C 
HETATM   18  O2  UNL     1     -47.946 102.586  26.068  1.00  0.00    -0.298 OA
ENDBRANCH   8  17
ENDBRANCH   2   3
ENDBRANCH   1   2
BRANCH   1  19
HETATM   19  C6  UNL     1     -51.337  99.808  20.877  1.00  0.00     0.181 C 
BRANCH  19  20
HETATM   20  O1  UNL     1     -51.485 100.257  22.192  1.00  0.00    -0.388 OA
ATOM     21  H1  UNL     1     -51.942 101.088  22.136  1.00  0.00     0.210 HD
ENDBRANCH  19  20
BRANCH  19  22
HETATM   22  C7  UNL     1     -52.548  99.058  20.508  1.00  0.00    -0.026 A 
HETATM   23  C8  UNL     1     -52.786  97.731  20.786  1.00  0.00     0.017 A 
HETATM   24  C9  UNL     1     -53.966  97.078  20.422  1.00  0.00    -0.049 A 
HETATM   25  C14 UNL     1     -54.915  97.820  19.757  1.00  0.00     0.015 A 
HETATM   26  C15 UNL     1     -54.739  99.136  19.452  1.00  0.00    -0.049 A 
HETATM   27  C20 UNL     1     -53.567  99.745  19.825  1.00  0.00     0.017 A 
BRANCH  24  28
HETATM   28  C10 UNL     1     -54.183  95.657  20.719  1.00  0.00    -0.024 C 
HETATM   29  C11 UNL     1     -54.184  95.580  22.263  1.00  0.00     0.019 C 
HETATM   30  C12 UNL     1     -53.068  94.763  20.283  1.00  0.00     0.019 C 
HETATM   31  C13 UNL     1     -55.530  95.124  20.305  1.00  0.00     0.019 C 
ENDBRANCH  24  28
BRANCH  26  32
HETATM   32  C16 UNL     1     -55.827  99.859  18.736  1.00  0.00    -0.024 C 
HETATM   33  C17 UNL     1     -56.111  99.274  17.386  1.00  0.00     0.019 C 
HETATM   34  C18 UNL     1     -57.073  99.964  19.585  1.00  0.00     0.019 C 
HETATM   35  C19 UNL     1     -55.318 101.284  18.526  1.00  0.00     0.019 C 
ENDBRANCH  26  32
ENDBRANCH  19  22
ENDBRANCH   1  19
TORSDOF 11
ENDMDL
