MODEL 1
REMARK VINA RESULT: -8.899225959      0.000      0.000
REMARK  8 active torsions:
REMARK  status: ('A' for Active; 'I' for Inactive)
REMARK    1  A    between atoms: N1_2  and  C2_4 
REMARK    2  A    between atoms: C3_7  and  N3_8 
REMARK    3  A    between atoms: N3_8  and  C4_10 
REMARK    4  A    between atoms: C4_10  and  C5_11 
REMARK    5  A    between atoms: C5_11  and  C6_12 
REMARK    6  A    between atoms: C6_12  and  N4_13 
REMARK    7  A    between atoms: N4_13  and  C7_15 
REMARK    8  A    between atoms: C20_31  and  O1_32 
ROOT
HETATM    1  C2  UNL     1     -53.790 100.745  20.401  1.00  0.00     0.679 A 
HETATM    2  N2  UNL     1     -53.865  99.483  19.942  1.00  0.00    -0.176 N 
ATOM      3  H2  UNL     1     -54.686  99.175  19.420  1.00  0.00     0.186 HD
HETATM    4  C3  UNL     1     -52.839  98.619  20.177  1.00  0.00     0.131 A 
HETATM    5  C16 UNL     1     -51.735  99.042  20.882  1.00  0.00     0.056 A 
HETATM    6  C17 UNL     1     -50.701  98.212  21.133  1.00  0.00     0.063 A 
HETATM    7  C18 UNL     1     -50.695  96.853  20.681  1.00  0.00     0.100 C 
HETATM    8  N6  UNL     1     -50.656  95.725  20.324  1.00  0.00    -0.191 NA
HETATM    9  C19 UNL     1     -49.599  98.693  21.857  1.00  0.00     0.060 A 
HETATM   10  C20 UNL     1     -49.515  99.979  22.330  1.00  0.00     0.071 A 
HETATM   11  C22 UNL     1     -50.576 100.817  22.067  1.00  0.00     0.067 A 
HETATM   12  C23 UNL     1     -51.661 100.350  21.357  1.00  0.00     0.067 A 
HETATM   13  N7  UNL     1     -52.706 101.151  21.090  1.00  0.00    -0.191 N 
ATOM     14  H7  UNL     1     -52.678 102.114  21.427  1.00  0.00     0.184 HD
ENDROOT
BRANCH   4  15
HETATM   15  N3  UNL     1     -52.996  97.462  19.710  1.00  0.00    -0.375 N 
ATOM     16  H3  UNL     1     -52.139  96.932  19.551  1.00  0.00     0.161 HD
BRANCH  15  17
HETATM   17  C4  UNL     1     -54.201  96.795  19.373  1.00  0.00     0.123 C 
BRANCH  17  18
HETATM   18  C5  UNL     1     -54.382  95.434  19.924  1.00  0.00     0.039 C 
BRANCH  18  19
HETATM   19  C6  UNL     1     -55.674  95.431  20.756  1.00  0.00     0.121 C 
BRANCH  19  20
HETATM   20  N4  UNL     1     -55.471  95.756  22.120  1.00  0.00    -0.389 N 
ATOM     21  H4  UNL     1     -55.671  95.007  22.782  1.00  0.00     0.159 HD
BRANCH  20  22
HETATM   22  C7  UNL     1     -55.072  96.855  22.640  1.00  0.00     0.041 A 
HETATM   23  C8  UNL     1     -55.772  98.044  22.603  1.00  0.00     0.047 A 
HETATM   24  C9  UNL     1     -55.275  99.181  23.189  1.00  0.00     0.090 A 
HETATM   25  N5  UNL     1     -54.108  99.192  23.814  1.00  0.00    -0.365 N 
HETATM   26  C10 UNL     1     -53.401  98.066  23.872  1.00  0.00     0.044 A 
ATOM     27  H5  UNL     1     -53.756 100.048  24.242  1.00  0.00     0.165 HD
HETATM   28  C11 UNL     1     -52.168  98.086  24.534  1.00  0.00     0.030 A 
HETATM   29  C15 UNL     1     -53.841  96.908  23.310  1.00  0.00     0.017 A 
HETATM   30  C12 UNL     1     -51.432  96.944  24.604  1.00  0.00     0.002 A 
HETATM   31  C13 UNL     1     -51.889  95.779  24.031  1.00  0.00     0.001 A 
HETATM   32  C14 UNL     1     -53.098  95.765  23.383  1.00  0.00     0.016 A 
ENDBRANCH  20  22
ENDBRANCH  19  20
ENDBRANCH  18  19
ENDBRANCH  17  18
ENDBRANCH  15  17
ENDBRANCH   4  15
BRANCH  10  33
HETATM   33  O1  UNL     1     -48.413 100.435  23.045  1.00  0.00    -0.356 OA
HETATM   34  C21 UNL     1     -47.614  99.479  23.710  1.00  0.00     0.210 C 
ENDBRANCH  10  33
BRANCH   1  35
HETATM   35  N1  UNL     1     -54.776 101.577  20.176  1.00  0.00    -0.230 N 
HETATM   36  C1  UNL     1     -56.040 101.119  19.649  1.00  0.00     0.165 C 
ATOM     37  H1  UNL     1     -54.648 102.569  20.378  1.00  0.00     0.177 HD
ENDBRANCH   1  35
TORSDOF 8
ENDMDL
MODEL 2
REMARK VINA RESULT: -8.656029868      2.333      4.802
REMARK  8 active torsions:
REMARK  status: ('A' for Active; 'I' for Inactive)
REMARK    1  A    between atoms: N1_2  and  C2_4 
REMARK    2  A    between atoms: C3_7  and  N3_8 
REMARK    3  A    between atoms: N3_8  and  C4_10 
REMARK    4  A    between atoms: C4_10  and  C5_11 
REMARK    5  A    between atoms: C5_11  and  C6_12 
REMARK    6  A    between atoms: C6_12  and  N4_13 
REMARK    7  A    between atoms: N4_13  and  C7_15 
REMARK    8  A    between atoms: C20_31  and  O1_32 
ROOT
HETATM    1  C2  UNL     1     -50.119  99.392  23.775  1.00  0.00     0.679 A 
HETATM    2  N2  UNL     1     -49.980  99.184  22.453  1.00  0.00    -0.176 N 
ATOM      3  H2  UNL     1     -49.559  99.901  21.863  1.00  0.00     0.186 HD
HETATM    4  C3  UNL     1     -50.406  98.011  21.909  1.00  0.00     0.131 A 
HETATM    5  C16 UNL     1     -50.974  97.049  22.712  1.00  0.00     0.056 A 
HETATM    6  C17 UNL     1     -51.407  95.875  22.205  1.00  0.00     0.063 A 
HETATM    7  C18 UNL     1     -51.298  95.568  20.810  1.00  0.00     0.100 C 
HETATM    8  N6  UNL     1     -51.224  95.280  19.664  1.00  0.00    -0.191 NA
HETATM    9  C19 UNL     1     -51.980  94.928  23.067  1.00  0.00     0.060 A 
HETATM   10  C20 UNL     1     -52.126  95.133  24.417  1.00  0.00     0.071 A 
HETATM   11  C22 UNL     1     -51.680  96.334  24.923  1.00  0.00     0.067 A 
HETATM   12  C23 UNL     1     -51.117  97.268  24.081  1.00  0.00     0.067 A 
HETATM   13  N7  UNL     1     -50.676  98.446  24.555  1.00  0.00    -0.191 N 
ATOM     14  H7  UNL     1     -50.769  98.632  25.554  1.00  0.00     0.184 HD
ENDROOT
BRANCH   4  15
HETATM   15  N3  UNL     1     -50.235  97.905  20.668  1.00  0.00    -0.375 N 
ATOM     16  H3  UNL     1     -50.297  96.957  20.295  1.00  0.00     0.161 HD
BRANCH  15  17
HETATM   17  C4  UNL     1     -49.966  98.921  19.716  1.00  0.00     0.123 C 
BRANCH  17  18
HETATM   18  C5  UNL     1     -51.129  99.467  18.983  1.00  0.00     0.039 C 
BRANCH  18  19
HETATM   19  C6  UNL     1     -51.934 100.338  19.960  1.00  0.00     0.121 C 
BRANCH  19  20
HETATM   20  N4  UNL     1     -53.255  99.874  20.177  1.00  0.00    -0.389 N 
ATOM     21  H4  UNL     1     -53.933 100.134  19.461  1.00  0.00     0.159 HD
BRANCH  20  22
HETATM   22  C7  UNL     1     -53.719  99.176  21.144  1.00  0.00     0.041 A 
HETATM   23  C8  UNL     1     -53.749  99.579  22.464  1.00  0.00     0.047 A 
HETATM   24  C9  UNL     1     -54.268  98.770  23.443  1.00  0.00     0.090 A 
HETATM   25  N5  UNL     1     -54.760  97.572  23.171  1.00  0.00    -0.365 N 
HETATM   26  C10 UNL     1     -54.750  97.145  21.911  1.00  0.00     0.044 A 
ATOM     27  H5  UNL     1     -55.140  96.986  23.914  1.00  0.00     0.165 HD
HETATM   28  C11 UNL     1     -55.273  95.877  21.632  1.00  0.00     0.030 A 
HETATM   29  C15 UNL     1     -54.249  97.901  20.897  1.00  0.00     0.017 A 
HETATM   30  C12 UNL     1     -55.270  95.424  20.349  1.00  0.00     0.002 A 
HETATM   31  C13 UNL     1     -54.761  96.199  19.333  1.00  0.00     0.001 A 
HETATM   32  C14 UNL     1     -54.249  97.442  19.611  1.00  0.00     0.016 A 
ENDBRANCH  20  22
ENDBRANCH  19  20
ENDBRANCH  18  19
ENDBRANCH  17  18
ENDBRANCH  15  17
ENDBRANCH   4  15
BRANCH  10  33
HETATM   33  O1  UNL     1     -52.696  94.180  25.254  1.00  0.00    -0.356 OA
HETATM   34  C21 UNL     1     -51.954  93.759  26.379  1.00  0.00     0.210 C 
ENDBRANCH  10  33
BRANCH   1  35
HETATM   35  N1  UNL     1     -49.711 100.520  24.301  1.00  0.00    -0.230 N 
HETATM   36  C1  UNL     1     -48.310 100.768  24.554  1.00  0.00     0.165 C 
ATOM     37  H1  UNL     1     -50.396 101.238  24.537  1.00  0.00     0.177 HD
ENDBRANCH   1  35
TORSDOF 8
ENDMDL
MODEL 3
REMARK VINA RESULT: -8.458487637      2.491      5.244
REMARK  8 active torsions:
REMARK  status: ('A' for Active; 'I' for Inactive)
REMARK    1  A    between atoms: N1_2  and  C2_4 
REMARK    2  A    between atoms: C3_7  and  N3_8 
REMARK    3  A    between atoms: N3_8  and  C4_10 
REMARK    4  A    between atoms: C4_10  and  C5_11 
REMARK    5  A    between atoms: C5_11  and  C6_12 
REMARK    6  A    between atoms: C6_12  and  N4_13 
REMARK    7  A    between atoms: N4_13  and  C7_15 
REMARK    8  A    between atoms: C20_31  and  O1_32 
ROOT
HETATM    1  C2  UNL     1     -53.139 101.424  19.145  1.00  0.00     0.679 A 
HETATM    2  N2  UNL     1     -52.356 100.840  20.070  1.00  0.00    -0.176 N 
ATOM      3  H2  UNL     1     -51.342 100.846  19.962  1.00  0.00     0.186 HD
HETATM    4  C3  UNL     1     -52.926 100.241  21.151  1.00  0.00     0.131 A 
HETATM    5  C16 UNL     1     -54.296 100.235  21.290  1.00  0.00     0.056 A 
HETATM    6  C17 UNL     1     -54.893  99.650  22.350  1.00  0.00     0.063 A 
HETATM    7  C18 UNL     1     -54.138  99.006  23.383  1.00  0.00     0.100 C 
HETATM    8  N6  UNL     1     -53.547  98.466  24.255  1.00  0.00    -0.191 NA
HETATM    9  C19 UNL     1     -56.293  99.672  22.443  1.00  0.00     0.060 A 
HETATM   10  C20 UNL     1     -57.099 100.265  21.503  1.00  0.00     0.071 A 
HETATM   11  C22 UNL     1     -56.477 100.860  20.426  1.00  0.00     0.067 A 
HETATM   12  C23 UNL     1     -55.103 100.841  20.330  1.00  0.00     0.067 A 
HETATM   13  N7  UNL     1     -54.478 101.415  19.287  1.00  0.00    -0.191 N 
ATOM     14  H7  UNL     1     -55.046 101.865  18.569  1.00  0.00     0.184 HD
ENDROOT
BRANCH   4  15
HETATM   15  N3  UNL     1     -52.117  99.723  21.964  1.00  0.00    -0.375 N 
ATOM     16  H3  UNL     1     -52.539  99.185  22.722  1.00  0.00     0.161 HD
BRANCH  15  17
HETATM   17  C4  UNL     1     -50.701  99.785  21.971  1.00  0.00     0.123 C 
BRANCH  17  18
HETATM   18  C5  UNL     1     -49.981  98.497  22.060  1.00  0.00     0.039 C 
BRANCH  18  19
HETATM   19  C6  UNL     1     -50.112  97.789  20.701  1.00  0.00     0.121 C 
BRANCH  19  20
HETATM   20  N4  UNL     1     -50.748  96.526  20.779  1.00  0.00    -0.389 N 
ATOM     21  H4  UNL     1     -50.470  95.853  20.065  1.00  0.00     0.159 HD
BRANCH  20  22
HETATM   22  C7  UNL     1     -51.621  96.109  21.615  1.00  0.00     0.041 A 
HETATM   23  C8  UNL     1     -51.333  95.559  22.849  1.00  0.00     0.047 A 
HETATM   24  C9  UNL     1     -52.330  95.138  23.691  1.00  0.00     0.090 A 
HETATM   25  N5  UNL     1     -53.609  95.238  23.364  1.00  0.00    -0.365 N 
HETATM   26  C10 UNL     1     -53.931  95.762  22.184  1.00  0.00     0.044 A 
ATOM     27  H5  UNL     1     -54.335  94.918  24.004  1.00  0.00     0.165 HD
HETATM   28  C11 UNL     1     -55.285  95.864  21.846  1.00  0.00     0.030 A 
HETATM   29  C15 UNL     1     -52.987  96.197  21.307  1.00  0.00     0.017 A 
HETATM   30  C12 UNL     1     -55.632  96.398  20.644  1.00  0.00     0.002 A 
HETATM   31  C13 UNL     1     -54.667  96.834  19.765  1.00  0.00     0.001 A 
HETATM   32  C14 UNL     1     -53.341  96.732  20.101  1.00  0.00     0.016 A 
ENDBRANCH  20  22
ENDBRANCH  19  20
ENDBRANCH  18  19
ENDBRANCH  17  18
ENDBRANCH  15  17
ENDBRANCH   4  15
BRANCH  10  33
HETATM   33  O1  UNL     1     -58.484 100.276  21.615  1.00  0.00    -0.356 OA
HETATM   34  C21 UNL     1     -59.055 100.983  22.696  1.00  0.00     0.210 C 
ENDBRANCH  10  33
BRANCH   1  35
HETATM   35  N1  UNL     1     -52.593 102.001  18.103  1.00  0.00    -0.230 N 
HETATM   36  C1  UNL     1     -51.210 102.419  18.115  1.00  0.00     0.165 C 
ATOM     37  H1  UNL     1     -53.155 102.158  17.267  1.00  0.00     0.177 HD
ENDBRANCH   1  35
TORSDOF 8
ENDMDL
MODEL 4
REMARK VINA RESULT: -8.425085867      2.199      4.902
REMARK  8 active torsions:
REMARK  status: ('A' for Active; 'I' for Inactive)
REMARK    1  A    between atoms: N1_2  and  C2_4 
REMARK    2  A    between atoms: C3_7  and  N3_8 
REMARK    3  A    between atoms: N3_8  and  C4_10 
REMARK    4  A    between atoms: C4_10  and  C5_11 
REMARK    5  A    between atoms: C5_11  and  C6_12 
REMARK    6  A    between atoms: C6_12  and  N4_13 
REMARK    7  A    between atoms: N4_13  and  C7_15 
REMARK    8  A    between atoms: C20_31  and  O1_32 
ROOT
HETATM    1  C2  UNL     1     -50.184  97.997  20.401  1.00  0.00     0.679 A 
HETATM    2  N2  UNL     1     -51.005  99.053  20.547  1.00  0.00    -0.176 N 
ATOM      3  H2  UNL     1     -50.876  99.886  19.973  1.00  0.00     0.186 HD
HETATM    4  C3  UNL     1     -52.007  99.003  21.467  1.00  0.00     0.131 A 
HETATM    5  C16 UNL     1     -52.175  97.875  22.238  1.00  0.00     0.056 A 
HETATM    6  C17 UNL     1     -53.158  97.792  23.159  1.00  0.00     0.063 A 
HETATM    7  C18 UNL     1     -54.078  98.867  23.381  1.00  0.00     0.100 C 
HETATM    8  N6  UNL     1     -54.856  99.735  23.592  1.00  0.00    -0.191 NA
HETATM    9  C19 UNL     1     -53.285  96.620  23.920  1.00  0.00     0.060 A 
HETATM   10  C20 UNL     1     -52.452  95.538  23.777  1.00  0.00     0.071 A 
HETATM   11  C22 UNL     1     -51.452  95.634  22.833  1.00  0.00     0.067 A 
HETATM   12  C23 UNL     1     -51.323  96.783  22.084  1.00  0.00     0.067 A 
HETATM   13  N7  UNL     1     -50.354  96.897  21.159  1.00  0.00    -0.191 N 
ATOM     14  H7  UNL     1     -49.716  96.112  21.026  1.00  0.00     0.184 HD
ENDROOT
BRANCH   4  15
HETATM   15  N3  UNL     1     -52.724 100.034  21.533  1.00  0.00    -0.375 N 
ATOM     16  H3  UNL     1     -53.337 100.092  22.347  1.00  0.00     0.161 HD
BRANCH  15  17
HETATM   17  C4  UNL     1     -52.797 101.127  20.632  1.00  0.00     0.123 C 
BRANCH  17  18
HETATM   18  C5  UNL     1     -52.947 100.795  19.199  1.00  0.00     0.039 C 
BRANCH  18  19
HETATM   19  C6  UNL     1     -54.395 101.111  18.791  1.00  0.00     0.121 C 
BRANCH  19  20
HETATM   20  N4  UNL     1     -55.241  99.975  18.780  1.00  0.00    -0.389 N 
ATOM     21  H4  UNL     1     -55.364  99.531  17.871  1.00  0.00     0.159 HD
BRANCH  20  22
HETATM   22  C7  UNL     1     -55.874  99.428  19.748  1.00  0.00     0.041 A 
HETATM   23  C8  UNL     1     -56.855 100.045  20.498  1.00  0.00     0.047 A 
HETATM   24  C9  UNL     1     -57.490  99.386  21.520  1.00  0.00     0.090 A 
HETATM   25  N5  UNL     1     -57.193  98.134  21.835  1.00  0.00    -0.365 N 
HETATM   26  C10 UNL     1     -56.253  97.503  21.137  1.00  0.00     0.044 A 
ATOM     27  H5  UNL     1     -57.676  97.663  22.599  1.00  0.00     0.165 HD
HETATM   28  C11 UNL     1     -55.946  96.180  21.475  1.00  0.00     0.030 A 
HETATM   29  C15 UNL     1     -55.589  98.103  20.112  1.00  0.00     0.017 A 
HETATM   30  C12 UNL     1     -54.988  95.519  20.772  1.00  0.00     0.002 A 
HETATM   31  C13 UNL     1     -54.324  96.138  19.738  1.00  0.00     0.001 A 
HETATM   32  C14 UNL     1     -54.628  97.435  19.410  1.00  0.00     0.016 A 
ENDBRANCH  20  22
ENDBRANCH  19  20
ENDBRANCH  18  19
ENDBRANCH  17  18
ENDBRANCH  15  17
ENDBRANCH   4  15
BRANCH  10  33
HETATM   33  O1  UNL     1     -52.595  94.386  24.541  1.00  0.00    -0.356 OA
HETATM   34  C21 UNL     1     -51.942  94.336  25.792  1.00  0.00     0.210 C 
ENDBRANCH  10  33
BRANCH   1  35
HETATM   35  N1  UNL     1     -49.218  98.043  19.517  1.00  0.00    -0.230 N 
HETATM   36  C1  UNL     1     -48.983  99.227  18.723  1.00  0.00     0.165 C 
ATOM     37  H1  UNL     1     -48.620  97.227  19.388  1.00  0.00     0.177 HD
ENDBRANCH   1  35
TORSDOF 8
ENDMDL
MODEL 5
REMARK VINA RESULT: -8.341359195     10.459     13.321
REMARK  8 active torsions:
REMARK  status: ('A' for Active; 'I' for Inactive)
REMARK    1  A    between atoms: N1_2  and  C2_4 
REMARK    2  A    between atoms: C3_7  and  N3_8 
REMARK    3  A    between atoms: N3_8  and  C4_10 
REMARK    4  A    between atoms: C4_10  and  C5_11 
REMARK    5  A    between atoms: C5_11  and  C6_12 
REMARK    6  A    between atoms: C6_12  and  N4_13 
REMARK    7  A    between atoms: N4_13  and  C7_15 
REMARK    8  A    between atoms: C20_31  and  O1_32 
ROOT
HETATM    1  C2  UNL     1     -51.475  93.174  27.948  1.00  0.00     0.679 A 
HETATM    2  N2  UNL     1     -50.310  92.509  27.839  1.00  0.00    -0.176 N 
ATOM      3  H2  UNL     1     -49.560  92.881  27.257  1.00  0.00     0.186 HD
HETATM    4  C3  UNL     1     -50.140  91.337  28.511  1.00  0.00     0.131 A 
HETATM    5  C16 UNL     1     -51.158  90.842  29.294  1.00  0.00     0.056 A 
HETATM    6  C17 UNL     1     -51.022  89.683  29.973  1.00  0.00     0.063 A 
HETATM    7  C18 UNL     1     -49.818  88.910  29.917  1.00  0.00     0.100 C 
HETATM    8  N6  UNL     1     -48.838  88.246  29.894  1.00  0.00    -0.191 NA
HETATM    9  C19 UNL     1     -52.091  89.221  30.758  1.00  0.00     0.060 A 
HETATM   10  C20 UNL     1     -53.283  89.894  30.873  1.00  0.00     0.071 A 
HETATM   11  C22 UNL     1     -53.408  91.076  30.176  1.00  0.00     0.067 A 
HETATM   12  C23 UNL     1     -52.362  91.533  29.404  1.00  0.00     0.067 A 
HETATM   13  N7  UNL     1     -52.466  92.683  28.716  1.00  0.00    -0.191 N 
ATOM     14  H7  UNL     1     -53.338  93.209  28.779  1.00  0.00     0.184 HD
ENDROOT
BRANCH   4  15
HETATM   15  N3  UNL     1     -49.021  90.787  28.351  1.00  0.00    -0.375 N 
ATOM     16  H3  UNL     1     -49.025  89.767  28.369  1.00  0.00     0.161 HD
BRANCH  15  17
HETATM   17  C4  UNL     1     -47.753  91.391  28.151  1.00  0.00     0.123 C 
BRANCH  17  18
HETATM   18  C5  UNL     1     -46.581  90.664  28.682  1.00  0.00     0.039 C 
BRANCH  18  19
HETATM   19  C6  UNL     1     -46.228  91.274  30.049  1.00  0.00     0.121 C 
BRANCH  19  20
HETATM   20  N4  UNL     1     -46.923  90.681  31.131  1.00  0.00    -0.389 N 
ATOM     21  H4  UNL     1     -47.875  91.018  31.276  1.00  0.00     0.159 HD
BRANCH  20  22
HETATM   22  C7  UNL     1     -46.528  89.784  31.952  1.00  0.00     0.041 A 
HETATM   23  C8  UNL     1     -45.328  89.106  31.863  1.00  0.00     0.047 A 
HETATM   24  C9  UNL     1     -44.976  88.157  32.789  1.00  0.00     0.090 A 
HETATM   25  N5  UNL     1     -45.765  87.847  33.806  1.00  0.00    -0.365 N 
HETATM   26  C10 UNL     1     -46.930  88.477  33.929  1.00  0.00     0.044 A 
ATOM     27  H5  UNL     1     -45.485  87.138  34.483  1.00  0.00     0.165 HD
HETATM   28  C11 UNL     1     -47.758  88.144  35.008  1.00  0.00     0.030 A 
HETATM   29  C15 UNL     1     -47.334  89.427  33.043  1.00  0.00     0.017 A 
HETATM   30  C12 UNL     1     -48.953  88.778  35.149  1.00  0.00     0.002 A 
HETATM   31  C13 UNL     1     -49.350  89.737  34.246  1.00  0.00     0.001 A 
HETATM   32  C14 UNL     1     -48.535  90.060  33.190  1.00  0.00     0.016 A 
ENDBRANCH  20  22
ENDBRANCH  19  20
ENDBRANCH  18  19
ENDBRANCH  17  18
ENDBRANCH  15  17
ENDBRANCH   4  15
BRANCH  10  33
HETATM   33  O1  UNL     1     -54.328  89.419  31.656  1.00  0.00    -0.356 OA
HETATM   34  C21 UNL     1     -55.279  88.570  31.046  1.00  0.00     0.210 C 
ENDBRANCH  10  33
BRANCH   1  35
HETATM   35  N1  UNL     1     -51.641  94.302  27.302  1.00  0.00    -0.230 N 
HETATM   36  C1  UNL     1     -51.915  94.321  25.884  1.00  0.00     0.165 C 
ATOM     37  H1  UNL     1     -51.576  95.183  27.811  1.00  0.00     0.177 HD
ENDBRANCH   1  35
TORSDOF 8
ENDMDL
