MODEL 1
REMARK VINA RESULT: -9.210031137      0.000      0.000
REMARK  5 active torsions:
REMARK  status: ('A' for Active; 'I' for Inactive)
REMARK    1  A    between atoms: N2_6  and  C4_7 
REMARK    2  A    between atoms: C4_7  and  C5_8 
REMARK    3  A    between atoms: C5_8  and  N3_10 
REMARK    4  A    between atoms: N3_10  and  S1_12 
REMARK    5  A    between atoms: S1_12  and  C7_15 
ROOT
HETATM    1  C7  UNL     1     -51.226  98.981  22.301  1.00  0.00     0.086 A 
HETATM    2  C8  UNL     1     -51.899  97.771  22.228  1.00  0.00     0.037 A 
HETATM    3  C9  UNL     1     -51.883  96.814  23.234  1.00  0.00    -0.003 A 
HETATM    4  C10 UNL     1     -51.164  97.063  24.378  1.00  0.00     0.043 A 
HETATM    5  C11 UNL     1     -50.491  98.264  24.464  1.00  0.00     0.038 A 
HETATM    6  C12 UNL     1     -50.511  99.220  23.449  1.00  0.00    -0.036 A 
HETATM    7  C13 UNL     1     -49.769 100.487  23.659  1.00  0.00     0.050 C 
HETATM    8  N4  UNL     1     -51.097  96.119  25.468  1.00  0.00    -0.333 N 
ATOM      9  H4  UNL     1     -50.555  96.331  26.305  1.00  0.00     0.168 HD
HETATM   10  C14 UNL     1     -51.793  94.901  25.356  1.00  0.00     0.173 A 
HETATM   11  S2  UNL     1     -51.772  93.766  26.553  1.00  0.00    -0.041 SA
HETATM   12  N5  UNL     1     -52.537  94.638  24.180  1.00  0.00    -0.354 N 
ATOM     13  H5  UNL     1     -53.037  93.752  24.108  1.00  0.00     0.163 HD
HETATM   14  C15 UNL     1     -52.618  95.558  23.088  1.00  0.00     0.054 A 
HETATM   15  C16 UNL     1     -52.083  94.872  21.820  1.00  0.00     0.043 C 
HETATM   16  C17 UNL     1     -54.097  95.783  22.814  1.00  0.00     0.043 C 
ENDROOT
BRANCH   1  17
HETATM   17  S1  UNL     1     -51.300 100.100  20.948  1.00  0.00     0.259 S 
HETATM   18  O1  UNL     1     -51.617 101.464  21.529  1.00  0.00    -0.201 OA
HETATM   19  O2  UNL     1     -49.923 100.282  20.312  1.00  0.00    -0.201 OA
BRANCH  17  20
HETATM   20  N3  UNL     1     -52.372  99.663  19.718  1.00  0.00    -0.309 N 
ATOM     21  H3  UNL     1     -52.074  99.622  18.743  1.00  0.00     0.172 HD
BRANCH  20  22
HETATM   22  C5  UNL     1     -53.714  99.354  20.102  1.00  0.00     0.109 C 
HETATM   23  C6  UNL     1     -54.273  98.271  19.147  1.00  0.00     0.034 C 
BRANCH  22  24
HETATM   24  C4  UNL     1     -54.604 100.547  20.096  1.00  0.00     0.173 C 
BRANCH  24  25
HETATM   25  N2  UNL     1     -55.543 100.534  21.224  1.00  0.00    -0.301 N 
HETATM   26  N1  UNL     1     -55.307 100.255  22.494  1.00  0.00    -0.309 N 
HETATM   27  C3  UNL     1     -56.434 100.354  23.222  1.00  0.00     0.115 A 
ATOM     28  H1  UNL     1     -54.394  99.998  22.871  1.00  0.00     0.186 HD
HETATM   29  C2  UNL     1     -57.453 100.719  22.369  1.00  0.00    -0.028 A 
HETATM   30  C1  UNL     1     -58.873 100.945  22.728  1.00  0.00     0.051 C 
HETATM   31  C18 UNL     1     -56.852 100.822  21.122  1.00  0.00     0.118 A 
ENDBRANCH  24  25
ENDBRANCH  22  24
ENDBRANCH  20  22
ENDBRANCH  17  20
ENDBRANCH   1  17
TORSDOF 5
ENDMDL
MODEL 2
REMARK VINA RESULT: -9.117155680      2.864      6.834
REMARK  5 active torsions:
REMARK  status: ('A' for Active; 'I' for Inactive)
REMARK    1  A    between atoms: N2_6  and  C4_7 
REMARK    2  A    between atoms: C4_7  and  C5_8 
REMARK    3  A    between atoms: C5_8  and  N3_10 
REMARK    4  A    between atoms: N3_10  and  S1_12 
REMARK    5  A    between atoms: S1_12  and  C7_15 
ROOT
HETATM    1  C7  UNL     1     -54.398  99.482  21.296  1.00  0.00     0.086 A 
HETATM    2  C8  UNL     1     -53.080  99.910  21.346  1.00  0.00     0.037 A 
HETATM    3  C9  UNL     1     -52.490 100.714  20.380  1.00  0.00    -0.003 A 
HETATM    4  C10 UNL     1     -53.241 101.122  19.304  1.00  0.00     0.043 A 
HETATM    5  C11 UNL     1     -54.554 100.705  19.244  1.00  0.00     0.038 A 
HETATM    6  C12 UNL     1     -55.139  99.896  20.218  1.00  0.00    -0.036 A 
HETATM    7  C13 UNL     1     -56.568  99.527  20.062  1.00  0.00     0.050 C 
HETATM    8  N4  UNL     1     -52.701 101.959  18.259  1.00  0.00    -0.333 N 
ATOM      9  H4  UNL     1     -53.283 102.245  17.472  1.00  0.00     0.168 HD
HETATM   10  C14 UNL     1     -51.358 102.371  18.344  1.00  0.00     0.173 A 
HETATM   11  S2  UNL     1     -50.660 103.328  17.195  1.00  0.00    -0.041 SA
HETATM   12  N5  UNL     1     -50.578 101.955  19.450  1.00  0.00    -0.354 N 
ATOM     13  H5  UNL     1     -49.606 102.258  19.502  1.00  0.00     0.163 HD
HETATM   14  C15 UNL     1     -51.092 101.127  20.498  1.00  0.00     0.054 A 
HETATM   15  C16 UNL     1     -50.251  99.843  20.573  1.00  0.00     0.043 C 
HETATM   16  C17 UNL     1     -50.812 101.852  21.805  1.00  0.00     0.043 C 
ENDROOT
BRANCH   1  17
HETATM   17  S1  UNL     1     -55.022  98.440  22.567  1.00  0.00     0.259 S 
HETATM   18  O1  UNL     1     -54.211  98.739  23.812  1.00  0.00    -0.201 OA
HETATM   19  O2  UNL     1     -56.446  98.839  22.951  1.00  0.00    -0.201 OA
BRANCH  17  20
HETATM   20  N3  UNL     1     -55.040  96.793  22.194  1.00  0.00    -0.309 N 
ATOM     21  H3  UNL     1     -55.729  96.163  22.605  1.00  0.00     0.172 HD
BRANCH  20  22
HETATM   22  C5  UNL     1     -54.049  96.320  21.279  1.00  0.00     0.109 C 
HETATM   23  C6  UNL     1     -54.749  95.544  20.136  1.00  0.00     0.034 C 
BRANCH  22  24
HETATM   24  C4  UNL     1     -53.028  95.455  21.931  1.00  0.00     0.173 C 
BRANCH  24  25
HETATM   25  N2  UNL     1     -52.251  96.189  22.937  1.00  0.00    -0.301 N 
HETATM   26  N1  UNL     1     -52.317  96.106  24.255  1.00  0.00    -0.309 N 
HETATM   27  C3  UNL     1     -51.436  96.946  24.829  1.00  0.00     0.115 A 
ATOM     28  H1  UNL     1     -52.950  95.491  24.766  1.00  0.00     0.186 HD
HETATM   29  C2  UNL     1     -50.767  97.605  23.821  1.00  0.00    -0.028 A 
HETATM   30  C1  UNL     1     -49.704  98.626  23.982  1.00  0.00     0.051 C 
HETATM   31  C18 UNL     1     -51.308  97.101  22.647  1.00  0.00     0.118 A 
ENDBRANCH  24  25
ENDBRANCH  22  24
ENDBRANCH  20  22
ENDBRANCH  17  20
ENDBRANCH   1  17
TORSDOF 5
ENDMDL
MODEL 3
REMARK VINA RESULT: -9.024474398      3.003      5.430
REMARK  5 active torsions:
REMARK  status: ('A' for Active; 'I' for Inactive)
REMARK    1  A    between atoms: N2_6  and  C4_7 
REMARK    2  A    between atoms: C4_7  and  C5_8 
REMARK    3  A    between atoms: C5_8  and  N3_10 
REMARK    4  A    between atoms: N3_10  and  S1_12 
REMARK    5  A    between atoms: S1_12  and  C7_15 
ROOT
HETATM    1  C7  UNL     1     -51.081  96.783  22.424  1.00  0.00     0.086 A 
HETATM    2  C8  UNL     1     -50.450  97.919  22.909  1.00  0.00     0.037 A 
HETATM    3  C9  UNL     1     -49.657  98.755  22.134  1.00  0.00    -0.003 A 
HETATM    4  C10 UNL     1     -49.476  98.457  20.805  1.00  0.00     0.043 A 
HETATM    5  C11 UNL     1     -50.100  97.331  20.310  1.00  0.00     0.038 A 
HETATM    6  C12 UNL     1     -50.894  96.495  21.094  1.00  0.00    -0.036 A 
HETATM    7  C13 UNL     1     -51.535  95.323  20.450  1.00  0.00     0.050 C 
HETATM    8  N4  UNL     1     -48.667  99.276  19.933  1.00  0.00    -0.333 N 
ATOM      9  H4  UNL     1     -48.551  99.029  18.951  1.00  0.00     0.168 HD
HETATM   10  C14 UNL     1     -48.042 100.420  20.463  1.00  0.00     0.173 A 
HETATM   11  S2  UNL     1     -47.101 101.412  19.539  1.00  0.00    -0.041 SA
HETATM   12  N5  UNL     1     -48.224 100.733  21.832  1.00  0.00    -0.354 N 
ATOM     13  H5  UNL     1     -47.766 101.564  22.207  1.00  0.00     0.163 HD
HETATM   14  C15 UNL     1     -49.022  99.938  22.713  1.00  0.00     0.054 A 
HETATM   15  C16 UNL     1     -48.140  99.448  23.874  1.00  0.00     0.043 C 
HETATM   16  C17 UNL     1     -50.029 100.877  23.360  1.00  0.00     0.043 C 
ENDROOT
BRANCH   1  17
HETATM   17  S1  UNL     1     -52.036  95.788  23.512  1.00  0.00     0.259 S 
HETATM   18  O1  UNL     1     -51.462  94.387  23.435  1.00  0.00    -0.201 OA
HETATM   19  O2  UNL     1     -51.814  96.197  24.967  1.00  0.00    -0.201 OA
BRANCH  17  20
HETATM   20  N3  UNL     1     -53.701  95.814  23.226  1.00  0.00    -0.309 N 
ATOM     21  H3  UNL     1     -54.304  95.048  23.526  1.00  0.00     0.172 HD
BRANCH  20  22
HETATM   22  C5  UNL     1     -54.228  96.955  22.545  1.00  0.00     0.109 C 
HETATM   23  C6  UNL     1     -54.167  98.178  23.492  1.00  0.00     0.034 C 
BRANCH  22  24
HETATM   24  C4  UNL     1     -55.623  96.748  22.069  1.00  0.00     0.173 C 
BRANCH  24  25
HETATM   25  N2  UNL     1     -56.117  97.899  21.303  1.00  0.00    -0.301 N 
HETATM   26  N1  UNL     1     -57.181  98.649  21.531  1.00  0.00    -0.309 N 
HETATM   27  C3  UNL     1     -57.294  99.611  20.598  1.00  0.00     0.115 A 
ATOM     28  H1  UNL     1     -57.829  98.515  22.308  1.00  0.00     0.186 HD
HETATM   29  C2  UNL     1     -56.242  99.470  19.720  1.00  0.00    -0.028 A 
HETATM   30  C1  UNL     1     -55.959 100.310  18.532  1.00  0.00     0.051 C 
HETATM   31  C18 UNL     1     -55.525  98.383  20.198  1.00  0.00     0.118 A 
ENDBRANCH  24  25
ENDBRANCH  22  24
ENDBRANCH  20  22
ENDBRANCH  17  20
ENDBRANCH   1  17
TORSDOF 5
ENDMDL
MODEL 4
REMARK VINA RESULT: -9.020939102      3.527      6.386
REMARK  5 active torsions:
REMARK  status: ('A' for Active; 'I' for Inactive)
REMARK    1  A    between atoms: N2_6  and  C4_7 
REMARK    2  A    between atoms: C4_7  and  C5_8 
REMARK    3  A    between atoms: C5_8  and  N3_10 
REMARK    4  A    between atoms: N3_10  and  S1_12 
REMARK    5  A    between atoms: S1_12  and  C7_15 
ROOT
HETATM    1  C7  UNL     1     -50.006  99.248  21.561  1.00  0.00     0.086 A 
HETATM    2  C8  UNL     1     -48.718  99.762  21.580  1.00  0.00     0.037 A 
HETATM    3  C9  UNL     1     -48.130 100.417  20.506  1.00  0.00    -0.003 A 
HETATM    4  C10 UNL     1     -48.853 100.579  19.349  1.00  0.00     0.043 A 
HETATM    5  C11 UNL     1     -50.136 100.075  19.318  1.00  0.00     0.038 A 
HETATM    6  C12 UNL     1     -50.719  99.416  20.400  1.00  0.00    -0.036 A 
HETATM    7  C13 UNL     1     -52.116  98.935  20.263  1.00  0.00     0.050 C 
HETATM    8  N4  UNL     1     -48.313 101.249  18.189  1.00  0.00    -0.333 N 
ATOM      9  H4  UNL     1     -48.873 101.353  17.343  1.00  0.00     0.168 HD
HETATM   10  C14 UNL     1     -47.001 101.754  18.246  1.00  0.00     0.173 A 
HETATM   11  S2  UNL     1     -46.306 102.534  16.969  1.00  0.00    -0.041 SA
HETATM   12  N5  UNL     1     -46.251 101.592  19.436  1.00  0.00    -0.354 N 
ATOM     13  H5  UNL     1     -45.300 101.962  19.467  1.00  0.00     0.163 HD
HETATM   14  C15 UNL     1     -46.765 100.933  20.597  1.00  0.00     0.054 A 
HETATM   15  C16 UNL     1     -45.857  99.739  20.932  1.00  0.00     0.043 C 
HETATM   16  C17 UNL     1     -46.587 101.896  21.761  1.00  0.00     0.043 C 
ENDROOT
BRANCH   1  17
HETATM   17  S1  UNL     1     -50.629  98.412  22.976  1.00  0.00     0.259 S 
HETATM   18  O1  UNL     1     -49.496  98.354  23.981  1.00  0.00    -0.201 OA
HETATM   19  O2  UNL     1     -51.701  99.244  23.677  1.00  0.00    -0.201 OA
BRANCH  17  20
HETATM   20  N3  UNL     1     -51.291  96.888  22.669  1.00  0.00    -0.309 N 
ATOM     21  H3  UNL     1     -50.972  96.319  21.886  1.00  0.00     0.172 HD
BRANCH  20  22
HETATM   22  C5  UNL     1     -52.316  96.431  23.554  1.00  0.00     0.109 C 
HETATM   23  C6  UNL     1     -51.803  95.186  24.318  1.00  0.00     0.034 C 
BRANCH  22  24
HETATM   24  C4  UNL     1     -53.586  96.109  22.848  1.00  0.00     0.173 C 
BRANCH  24  25
HETATM   25  N2  UNL     1     -54.453  97.286  22.716  1.00  0.00    -0.301 N 
HETATM   26  N1  UNL     1     -54.453  98.398  23.430  1.00  0.00    -0.309 N 
HETATM   27  C3  UNL     1     -55.406  99.243  22.996  1.00  0.00     0.115 A 
ATOM     28  H1  UNL     1     -53.817  98.590  24.204  1.00  0.00     0.186 HD
HETATM   29  C2  UNL     1     -56.056  98.637  21.943  1.00  0.00    -0.028 A 
HETATM   30  C1  UNL     1     -57.179  99.196  21.154  1.00  0.00     0.051 C 
HETATM   31  C18 UNL     1     -55.427  97.408  21.798  1.00  0.00     0.118 A 
ENDBRANCH  24  25
ENDBRANCH  22  24
ENDBRANCH  20  22
ENDBRANCH  17  20
ENDBRANCH   1  17
TORSDOF 5
ENDMDL
MODEL 5
REMARK VINA RESULT: -9.010212222      2.079      2.742
REMARK  5 active torsions:
REMARK  status: ('A' for Active; 'I' for Inactive)
REMARK    1  A    between atoms: N2_6  and  C4_7 
REMARK    2  A    between atoms: C4_7  and  C5_8 
REMARK    3  A    between atoms: C5_8  and  N3_10 
REMARK    4  A    between atoms: N3_10  and  S1_12 
REMARK    5  A    between atoms: S1_12  and  C7_15 
ROOT
HETATM    1  C7  UNL     1     -50.714 100.036  22.651  1.00  0.00     0.086 A 
HETATM    2  C8  UNL     1     -51.705  99.075  22.517  1.00  0.00     0.037 A 
HETATM    3  C9  UNL     1     -51.785  97.931  23.299  1.00  0.00    -0.003 A 
HETATM    4  C10 UNL     1     -50.836  97.721  24.270  1.00  0.00     0.043 A 
HETATM    5  C11 UNL     1     -49.846  98.670  24.415  1.00  0.00     0.038 A 
HETATM    6  C12 UNL     1     -49.772  99.817  23.624  1.00  0.00    -0.036 A 
HETATM    7  C13 UNL     1     -48.675 100.782  23.884  1.00  0.00     0.050 C 
HETATM    8  N4  UNL     1     -50.850  96.557  25.124  1.00  0.00    -0.333 N 
ATOM      9  H4  UNL     1     -50.131  96.427  25.836  1.00  0.00     0.168 HD
HETATM   10  C14 UNL     1     -51.871  95.604  24.956  1.00  0.00     0.173 A 
HETATM   11  S2  UNL     1     -51.963  94.244  25.888  1.00  0.00    -0.041 SA
HETATM   12  N5  UNL     1     -52.853  95.814  23.958  1.00  0.00    -0.354 N 
ATOM     13  H5  UNL     1     -53.589  95.116  23.844  1.00  0.00     0.163 HD
HETATM   14  C15 UNL     1     -52.860  96.959  23.102  1.00  0.00     0.054 A 
HETATM   15  C16 UNL     1     -52.773  96.488  21.641  1.00  0.00     0.043 C 
HETATM   16  C17 UNL     1     -54.239  97.590  23.226  1.00  0.00     0.043 C 
ENDROOT
BRANCH   1  17
HETATM   17  S1  UNL     1     -50.704 101.430  21.580  1.00  0.00     0.259 S 
HETATM   18  O1  UNL     1     -52.145 101.873  21.430  1.00  0.00    -0.201 OA
HETATM   19  O2  UNL     1     -50.018 102.624  22.242  1.00  0.00    -0.201 OA
BRANCH  17  20
HETATM   20  N3  UNL     1     -49.953 101.177  20.088  1.00  0.00    -0.309 N 
ATOM     21  H3  UNL     1     -49.173 101.758  19.781  1.00  0.00     0.172 HD
BRANCH  20  22
HETATM   22  C5  UNL     1     -50.457 100.114  19.275  1.00  0.00     0.109 C 
HETATM   23  C6  UNL     1     -49.263  99.340  18.664  1.00  0.00     0.034 C 
BRANCH  22  24
HETATM   24  C4  UNL     1     -51.361 100.594  18.195  1.00  0.00     0.173 C 
BRANCH  24  25
HETATM   25  N2  UNL     1     -52.766 100.596  18.618  1.00  0.00    -0.301 N 
HETATM   26  N1  UNL     1     -53.629 101.598  18.618  1.00  0.00    -0.309 N 
HETATM   27  C3  UNL     1     -54.826 101.196  19.083  1.00  0.00     0.115 A 
ATOM     28  H1  UNL     1     -53.416 102.546  18.309  1.00  0.00     0.186 HD
HETATM   29  C2  UNL     1     -54.725  99.859  19.400  1.00  0.00    -0.028 A 
HETATM   30  C1  UNL     1     -55.797  98.993  19.948  1.00  0.00     0.051 C 
HETATM   31  C18 UNL     1     -53.415  99.519  19.093  1.00  0.00     0.118 A 
ENDBRANCH  24  25
ENDBRANCH  22  24
ENDBRANCH  20  22
ENDBRANCH  17  20
ENDBRANCH   1  17
TORSDOF 5
ENDMDL
