MODEL 1
REMARK VINA RESULT: -9.727445167      0.000      0.000
REMARK  5 active torsions:
REMARK  status: ('A' for Active; 'I' for Inactive)
REMARK    1  A    between atoms: C2_2  and  N1_3 
REMARK    2  A    between atoms: N1_3  and  C3_4 
REMARK    3  A    between atoms: N1_3  and  C5_6 
REMARK    4  A    between atoms: C5_6  and  C6_7 
REMARK    5  A    between atoms: C11_20  and  C12_21 
ROOT
HETATM    1  C6  UNL     1     -55.004  98.976  22.460  1.00  0.00     0.046 C 
HETATM    2  C7  UNL     1     -56.449  99.053  22.446  1.00  0.00     0.070 C 
HETATM    3  N2  UNL     1     -57.191  99.035  21.238  1.00  0.00    -0.335 N 
ATOM      4  H2  UNL     1     -58.021  98.443  21.230  1.00  0.00     0.168 HD
HETATM    5  C8  UNL     1     -56.917  99.745  20.036  1.00  0.00     0.273 C 
HETATM    6  O1  UNL     1     -57.871  99.960  19.227  1.00  0.00    -0.266 OA
HETATM    7  C9  UNL     1     -55.586 100.256  19.651  1.00  0.00     0.123 A 
HETATM    8  N3  UNL     1     -55.686 101.226  18.739  1.00  0.00    -0.292 N 
ATOM      9  H3  UNL     1     -56.591 101.531  18.378  1.00  0.00     0.187 HD
HETATM   10  N4  UNL     1     -54.565 101.768  18.333  1.00  0.00    -0.265 N 
ATOM     11  H4  UNL     1     -54.613 102.512  17.636  1.00  0.00     0.190 HD
HETATM   12  C10 UNL     1     -53.354 101.398  18.783  1.00  0.00     0.274 A 
HETATM   13  O2  UNL     1     -52.343 101.981  18.323  1.00  0.00    -0.266 OA
HETATM   14  C11 UNL     1     -53.190 100.384  19.742  1.00  0.00     0.086 A 
HETATM   15  C21 UNL     1     -54.348  99.813  20.171  1.00  0.00    -0.004 A 
HETATM   16  C22 UNL     1     -54.237  98.778  21.166  1.00  0.00     0.054 C 
ENDROOT
BRANCH  14  17
HETATM   17  C12 UNL     1     -51.840 100.089  20.231  1.00  0.00     0.122 A 
HETATM   18  N5  UNL     1     -50.746  99.668  19.588  1.00  0.00    -0.340 N 
HETATM   19  C13 UNL     1     -49.665  99.587  20.360  1.00  0.00     0.061 A 
ATOM     20  H5  UNL     1     -50.740  99.430  18.595  1.00  0.00     0.167 HD
HETATM   21  C14 UNL     1     -48.339  99.204  20.155  1.00  0.00     0.039 A 
HETATM   22  C20 UNL     1     -50.090  99.987  21.600  1.00  0.00     0.061 A 
HETATM   23  C15 UNL     1     -47.437  99.220  21.194  1.00  0.00    -0.054 A 
HETATM   24  C16 UNL     1     -46.010  98.820  21.010  1.00  0.00     0.049 C 
HETATM   25  C17 UNL     1     -47.851  99.620  22.446  1.00  0.00    -0.054 A 
HETATM   26  C18 UNL     1     -46.891  99.630  23.571  1.00  0.00     0.049 C 
HETATM   27  C19 UNL     1     -49.175  99.998  22.630  1.00  0.00     0.039 A 
HETATM   28  N6  UNL     1     -51.420 100.289  21.499  1.00  0.00    -0.340 N 
ATOM     29  H6  UNL     1     -52.006 100.616  22.267  1.00  0.00     0.167 HD
ENDBRANCH  14  17
BRANCH   1  30
HETATM   30  C5  UNL     1     -54.607  97.757  23.296  1.00  0.00     0.127 C 
BRANCH  30  31
HETATM   31  N1  UNL     1     -54.291  96.623  22.531  1.00  0.00    -0.412 N 
BRANCH  31  32
HETATM   32  C2  UNL     1     -53.138  95.896  22.999  1.00  0.00     0.112 C 
HETATM   33  C1  UNL     1     -51.827  96.575  22.804  1.00  0.00     0.026 C 
ENDBRANCH  31  32
BRANCH  31  34
HETATM   34  C3  UNL     1     -55.338  95.778  22.090  1.00  0.00     0.112 C 
HETATM   35  C4  UNL     1     -55.135  95.498  20.590  1.00  0.00     0.026 C 
ENDBRANCH  31  34
ENDBRANCH  30  31
ENDBRANCH   1  30
TORSDOF 5
ENDMDL
MODEL 2
REMARK VINA RESULT: -9.584930055      1.020      1.232
REMARK  5 active torsions:
REMARK  status: ('A' for Active; 'I' for Inactive)
REMARK    1  A    between atoms: C2_2  and  N1_3 
REMARK    2  A    between atoms: N1_3  and  C3_4 
REMARK    3  A    between atoms: N1_3  and  C5_6 
REMARK    4  A    between atoms: C5_6  and  C6_7 
REMARK    5  A    between atoms: C11_20  and  C12_21 
ROOT
HETATM    1  C6  UNL     1     -54.626  99.284  22.290  1.00  0.00     0.046 C 
HETATM    2  C7  UNL     1     -56.026  99.259  21.927  1.00  0.00     0.070 C 
HETATM    3  N2  UNL     1     -56.451  99.149  20.578  1.00  0.00    -0.335 N 
ATOM      4  H2  UNL     1     -57.217  98.500  20.401  1.00  0.00     0.168 HD
HETATM    5  C8  UNL     1     -55.938  99.834  19.443  1.00  0.00     0.273 C 
HETATM    6  O1  UNL     1     -56.678  99.954  18.419  1.00  0.00    -0.266 OA
HETATM    7  C9  UNL     1     -54.586 100.425  19.363  1.00  0.00     0.123 A 
HETATM    8  N3  UNL     1     -54.520 101.354  18.407  1.00  0.00    -0.292 N 
ATOM      9  H3  UNL     1     -55.326 101.582  17.825  1.00  0.00     0.187 HD
HETATM   10  N4  UNL     1     -53.368 101.959  18.254  1.00  0.00    -0.265 N 
ATOM     11  H4  UNL     1     -53.291 102.673  17.530  1.00  0.00     0.190 HD
HETATM   12  C10 UNL     1     -52.282 101.690  19.000  1.00  0.00     0.274 A 
HETATM   13  O2  UNL     1     -51.227 102.327  18.767  1.00  0.00    -0.266 OA
HETATM   14  C11 UNL     1     -52.295 100.723  20.019  1.00  0.00     0.086 A 
HETATM   15  C21 UNL     1     -53.487 100.088  20.186  1.00  0.00    -0.004 A 
HETATM   16  C22 UNL     1     -53.558  99.097  21.229  1.00  0.00     0.054 C 
ENDROOT
BRANCH  14  17
HETATM   17  C12 UNL     1     -51.089 100.541  20.831  1.00  0.00     0.122 A 
HETATM   18  N5  UNL     1     -49.902 100.001  20.532  1.00  0.00    -0.340 N 
HETATM   19  C13 UNL     1     -49.009 100.084  21.515  1.00  0.00     0.061 A 
ATOM     20  H5  UNL     1     -49.700  99.565  19.632  1.00  0.00     0.167 HD
HETATM   21  C14 UNL     1     -47.686  99.673  21.676  1.00  0.00     0.039 A 
HETATM   22  C20 UNL     1     -49.666 100.728  22.531  1.00  0.00     0.061 A 
HETATM   23  C15 UNL     1     -47.020  99.906  22.858  1.00  0.00    -0.054 A 
HETATM   24  C16 UNL     1     -45.603  99.482  23.064  1.00  0.00     0.049 C 
HETATM   25  C17 UNL     1     -47.669 100.552  23.887  1.00  0.00    -0.054 A 
HETATM   26  C18 UNL     1     -46.964 100.796  25.164  1.00  0.00     0.049 C 
HETATM   27  C19 UNL     1     -48.986 100.954  23.707  1.00  0.00     0.039 A 
HETATM   28  N6  UNL     1     -50.933 100.998  22.093  1.00  0.00    -0.340 N 
ATOM     29  H6  UNL     1     -51.653 101.473  22.637  1.00  0.00     0.167 HD
ENDBRANCH  14  17
BRANCH   1  30
HETATM   30  C5  UNL     1     -54.372  98.125  23.257  1.00  0.00     0.127 C 
BRANCH  30  31
HETATM   31  N1  UNL     1     -54.025  96.922  22.620  1.00  0.00    -0.412 N 
BRANCH  31  32
HETATM   32  C2  UNL     1     -52.863  96.274  23.173  1.00  0.00     0.112 C 
HETATM   33  C1  UNL     1     -52.167  97.019  24.259  1.00  0.00     0.026 C 
ENDBRANCH  31  32
BRANCH  31  34
HETATM   34  C3  UNL     1     -55.051  96.013  22.265  1.00  0.00     0.112 C 
HETATM   35  C4  UNL     1     -54.960  95.749  20.751  1.00  0.00     0.026 C 
ENDBRANCH  31  34
ENDBRANCH  30  31
ENDBRANCH   1  30
TORSDOF 5
ENDMDL
MODEL 3
REMARK VINA RESULT: -9.547085513      0.567      1.379
REMARK  5 active torsions:
REMARK  status: ('A' for Active; 'I' for Inactive)
REMARK    1  A    between atoms: C2_2  and  N1_3 
REMARK    2  A    between atoms: N1_3  and  C3_4 
REMARK    3  A    between atoms: N1_3  and  C5_6 
REMARK    4  A    between atoms: C5_6  and  C6_7 
REMARK    5  A    between atoms: C11_20  and  C12_21 
ROOT
HETATM    1  C6  UNL     1     -55.043  99.307  22.658  1.00  0.00     0.046 C 
HETATM    2  C7  UNL     1     -56.489  99.320  22.627  1.00  0.00     0.070 C 
HETATM    3  N2  UNL     1     -57.216  99.148  21.421  1.00  0.00    -0.335 N 
ATOM      4  H2  UNL     1     -58.020  98.522  21.467  1.00  0.00     0.168 HD
HETATM    5  C8  UNL     1     -56.960  99.744  20.155  1.00  0.00     0.273 C 
HETATM    6  O1  UNL     1     -57.913  99.834  19.323  1.00  0.00    -0.266 OA
HETATM    7  C9  UNL     1     -55.648 100.271  19.730  1.00  0.00     0.123 A 
HETATM    8  N3  UNL     1     -55.779 101.139  18.724  1.00  0.00    -0.292 N 
ATOM      9  H3  UNL     1     -56.691 101.366  18.328  1.00  0.00     0.187 HD
HETATM   10  N4  UNL     1     -54.676 101.685  18.272  1.00  0.00    -0.265 N 
ATOM     11  H4  UNL     1     -54.749 102.352  17.504  1.00  0.00     0.190 HD
HETATM   12  C10 UNL     1     -53.456 101.415  18.766  1.00  0.00     0.274 A 
HETATM   13  O2  UNL     1     -52.466 101.993  18.257  1.00  0.00    -0.266 OA
HETATM   14  C11 UNL     1     -53.260 100.511  19.824  1.00  0.00     0.086 A 
HETATM   15  C21 UNL     1     -54.398  99.937  20.301  1.00  0.00    -0.004 A 
HETATM   16  C22 UNL     1     -54.254  99.013  21.396  1.00  0.00     0.054 C 
ENDROOT
BRANCH  14  17
HETATM   17  C12 UNL     1     -51.904 100.326  20.349  1.00  0.00     0.122 A 
HETATM   18  N5  UNL     1     -51.411 100.491  21.582  1.00  0.00    -0.340 N 
HETATM   19  C13 UNL     1     -50.131 100.146  21.700  1.00  0.00     0.061 A 
ATOM     20  H5  UNL     1     -51.965 100.849  22.360  1.00  0.00     0.167 HD
HETATM   21  C14 UNL     1     -49.207 100.147  22.745  1.00  0.00     0.039 A 
HETATM   22  C20 UNL     1     -49.766  99.724  20.448  1.00  0.00     0.061 A 
HETATM   23  C15 UNL     1     -47.914  99.725  22.536  1.00  0.00    -0.054 A 
HETATM   24  C16 UNL     1     -46.899  99.711  23.632  1.00  0.00     0.049 C 
HETATM   25  C17 UNL     1     -47.533  99.299  21.282  1.00  0.00    -0.054 A 
HETATM   26  C18 UNL     1     -46.141  98.856  21.046  1.00  0.00     0.049 C 
HETATM   27  C19 UNL     1     -48.468  99.305  20.254  1.00  0.00     0.039 A 
HETATM   28  N6  UNL     1     -50.862  99.842  19.640  1.00  0.00    -0.340 N 
ATOM     29  H6  UNL     1     -50.889  99.601  18.649  1.00  0.00     0.167 HD
ENDBRANCH  14  17
BRANCH   1  30
HETATM   30  C5  UNL     1     -54.605  98.197  23.616  1.00  0.00     0.127 C 
BRANCH  30  31
HETATM   31  N1  UNL     1     -53.913  97.147  22.989  1.00  0.00    -0.412 N 
BRANCH  31  32
HETATM   32  C2  UNL     1     -52.695  96.761  23.655  1.00  0.00     0.112 C 
HETATM   33  C1  UNL     1     -51.859  97.882  24.168  1.00  0.00     0.026 C 
ENDBRANCH  31  32
BRANCH  31  34
HETATM   34  C3  UNL     1     -54.647  96.044  22.490  1.00  0.00     0.112 C 
HETATM   35  C4  UNL     1     -53.873  95.448  21.299  1.00  0.00     0.026 C 
ENDBRANCH  31  34
ENDBRANCH  30  31
ENDBRANCH   1  30
TORSDOF 5
ENDMDL
MODEL 4
REMARK VINA RESULT: -9.472027148      1.388      1.947
REMARK  5 active torsions:
REMARK  status: ('A' for Active; 'I' for Inactive)
REMARK    1  A    between atoms: C2_2  and  N1_3 
REMARK    2  A    between atoms: N1_3  and  C3_4 
REMARK    3  A    between atoms: N1_3  and  C5_6 
REMARK    4  A    between atoms: C5_6  and  C6_7 
REMARK    5  A    between atoms: C11_20  and  C12_21 
ROOT
HETATM    1  C6  UNL     1     -53.817  98.276  21.631  1.00  0.00     0.046 C 
HETATM    2  C7  UNL     1     -55.248  98.216  21.426  1.00  0.00     0.070 C 
HETATM    3  N2  UNL     1     -55.833  98.399  20.147  1.00  0.00    -0.335 N 
ATOM      4  H2  UNL     1     -56.575  97.747  19.896  1.00  0.00     0.168 HD
HETATM    5  C8  UNL     1     -55.510  99.383  19.174  1.00  0.00     0.273 C 
HETATM    6  O1  UNL     1     -56.380  99.682  18.300  1.00  0.00    -0.266 OA
HETATM    7  C9  UNL     1     -54.217 100.094  19.100  1.00  0.00     0.123 A 
HETATM    8  N3  UNL     1     -54.329 101.230  18.408  1.00  0.00    -0.292 N 
ATOM      9  H3  UNL     1     -55.215 101.520  17.993  1.00  0.00     0.187 HD
HETATM   10  N4  UNL     1     -53.243 101.955  18.289  1.00  0.00    -0.265 N 
ATOM     11  H4  UNL     1     -53.302 102.828  17.765  1.00  0.00     0.190 HD
HETATM   12  C10 UNL     1     -52.058 101.611  18.821  1.00  0.00     0.274 A 
HETATM   13  O2  UNL     1     -51.080 102.377  18.643  1.00  0.00    -0.266 OA
HETATM   14  C11 UNL     1     -51.884 100.428  19.558  1.00  0.00     0.086 A 
HETATM   15  C21 UNL     1     -53.004  99.667  19.687  1.00  0.00    -0.004 A 
HETATM   16  C22 UNL     1     -52.883  98.449  20.448  1.00  0.00     0.054 C 
ENDROOT
BRANCH  14  17
HETATM   17  C12 UNL     1     -50.575 100.162  20.163  1.00  0.00     0.122 A 
HETATM   18  N5  UNL     1     -49.481  99.574  19.665  1.00  0.00    -0.340 N 
HETATM   19  C13 UNL     1     -48.440  99.583  20.495  1.00  0.00     0.061 A 
ATOM     20  H5  UNL     1     -49.448  99.156  18.735  1.00  0.00     0.167 HD
HETATM   21  C14 UNL     1     -47.132  99.103  20.433  1.00  0.00     0.039 A 
HETATM   22  C20 UNL     1     -48.893 100.228  21.617  1.00  0.00     0.061 A 
HETATM   23  C15 UNL     1     -46.275  99.267  21.498  1.00  0.00    -0.054 A 
HETATM   24  C16 UNL     1     -44.868  98.768  21.465  1.00  0.00     0.049 C 
HETATM   25  C17 UNL     1     -46.718  99.912  22.632  1.00  0.00    -0.054 A 
HETATM   26  C18 UNL     1     -45.807 100.083  23.785  1.00  0.00     0.049 C 
HETATM   27  C19 UNL     1     -48.024 100.384  22.674  1.00  0.00     0.039 A 
HETATM   28  N6  UNL     1     -50.197 100.573  21.393  1.00  0.00    -0.340 N 
ATOM     29  H6  UNL     1     -50.796 101.066  22.056  1.00  0.00     0.167 HD
ENDBRANCH  14  17
BRANCH   1  30
HETATM   30  C5  UNL     1     -53.373  96.944  22.240  1.00  0.00     0.127 C 
BRANCH  30  31
HETATM   31  N1  UNL     1     -53.008  97.033  23.593  1.00  0.00    -0.412 N 
BRANCH  31  32
HETATM   32  C2  UNL     1     -52.258  95.904  24.079  1.00  0.00     0.112 C 
HETATM   33  C1  UNL     1     -51.932  94.863  23.064  1.00  0.00     0.026 C 
ENDBRANCH  31  32
BRANCH  31  34
HETATM   34  C3  UNL     1     -52.537  98.270  24.097  1.00  0.00     0.112 C 
HETATM   35  C4  UNL     1     -50.998  98.251  24.064  1.00  0.00     0.026 C 
ENDBRANCH  31  34
ENDBRANCH  30  31
ENDBRANCH   1  30
TORSDOF 5
ENDMDL
MODEL 5
REMARK VINA RESULT: -9.288197307      1.665      2.515
REMARK  5 active torsions:
REMARK  status: ('A' for Active; 'I' for Inactive)
REMARK    1  A    between atoms: C2_2  and  N1_3 
REMARK    2  A    between atoms: N1_3  and  C3_4 
REMARK    3  A    between atoms: N1_3  and  C5_6 
REMARK    4  A    between atoms: C5_6  and  C6_7 
REMARK    5  A    between atoms: C11_20  and  C12_21 
ROOT
HETATM    1  C6  UNL     1     -52.763  98.822  21.745  1.00  0.00     0.046 C 
HETATM    2  C7  UNL     1     -54.208  98.755  21.780  1.00  0.00     0.070 C 
HETATM    3  N2  UNL     1     -54.995  98.876  20.606  1.00  0.00    -0.335 N 
ATOM      4  H2  UNL     1     -55.765  98.214  20.513  1.00  0.00     0.168 HD
HETATM    5  C8  UNL     1     -54.840  99.809  19.545  1.00  0.00     0.273 C 
HETATM    6  O1  UNL     1     -55.843 100.066  18.811  1.00  0.00    -0.266 OA
HETATM    7  C9  UNL     1     -53.580 100.511  19.225  1.00  0.00     0.123 A 
HETATM    8  N3  UNL     1     -53.809 101.611  18.505  1.00  0.00    -0.292 N 
ATOM      9  H3  UNL     1     -54.752 101.882  18.226  1.00  0.00     0.187 HD
HETATM   10  N4  UNL     1     -52.761 102.325  18.174  1.00  0.00    -0.265 N 
ATOM     11  H4  UNL     1     -52.909 103.171  17.623  1.00  0.00     0.190 HD
HETATM   12  C10 UNL     1     -51.503 102.005  18.522  1.00  0.00     0.274 A 
HETATM   13  O2  UNL     1     -50.572 102.758  18.149  1.00  0.00    -0.266 OA
HETATM   14  C11 UNL     1     -51.205 100.860  19.279  1.00  0.00     0.086 A 
HETATM   15  C21 UNL     1     -52.286 100.110  19.628  1.00  0.00    -0.004 A 
HETATM   16  C22 UNL     1     -52.036  98.932  20.419  1.00  0.00     0.054 C 
ENDROOT
BRANCH  14  17
HETATM   17  C12 UNL     1     -49.814 100.621  19.675  1.00  0.00     0.122 A 
HETATM   18  N5  UNL     1     -48.825 101.473  19.964  1.00  0.00    -0.340 N 
HETATM   19  C13 UNL     1     -47.703 100.881  20.366  1.00  0.00     0.061 A 
ATOM     20  H5  UNL     1     -48.921 102.486  19.883  1.00  0.00     0.167 HD
HETATM   21  C14 UNL     1     -46.442 101.330  20.757  1.00  0.00     0.039 A 
HETATM   22  C20 UNL     1     -47.986  99.540  20.337  1.00  0.00     0.061 A 
HETATM   23  C15 UNL     1     -45.460 100.435  21.117  1.00  0.00    -0.054 A 
HETATM   24  C16 UNL     1     -44.100 100.881  21.542  1.00  0.00     0.049 C 
HETATM   25  C17 UNL     1     -45.731  99.084  21.092  1.00  0.00    -0.054 A 
HETATM   26  C18 UNL     1     -44.679  98.115  21.466  1.00  0.00     0.049 C 
HETATM   27  C19 UNL     1     -46.994  98.656  20.701  1.00  0.00     0.039 A 
HETATM   28  N6  UNL     1     -49.279  99.404  19.913  1.00  0.00    -0.340 N 
ATOM     29  H6  UNL     1     -49.766  98.515  19.793  1.00  0.00     0.167 HD
ENDBRANCH  14  17
BRANCH   1  30
HETATM   30  C5  UNL     1     -52.219  97.521  22.340  1.00  0.00     0.127 C 
BRANCH  30  31
HETATM   31  N1  UNL     1     -53.024  96.399  22.081  1.00  0.00    -0.412 N 
BRANCH  31  32
HETATM   32  C2  UNL     1     -52.529  95.547  21.030  1.00  0.00     0.112 C 
HETATM   33  C1  UNL     1     -53.565  94.970  20.129  1.00  0.00     0.026 C 
ENDBRANCH  31  32
BRANCH  31  34
HETATM   34  C3  UNL     1     -53.567  95.677  23.172  1.00  0.00     0.112 C 
HETATM   35  C4  UNL     1     -52.406  95.025  23.945  1.00  0.00     0.026 C 
ENDBRANCH  31  34
ENDBRANCH  30  31
ENDBRANCH   1  30
TORSDOF 5
ENDMDL
