MODEL 1
REMARK VINA RESULT: -6.994813902      0.000      0.000
REMARK  4 active torsions:
REMARK  status: ('A' for Active; 'I' for Inactive)
REMARK    1  A    between atoms: C6_6  and  C7_7 
REMARK    2  A    between atoms: C7_7  and  C8_8 
REMARK       I    between atoms: C8_8  and  N1_10 
REMARK    3  A    between atoms: N1_10  and  C9_12 
REMARK    4  A    between atoms: C18_23  and  O2_24 
ROOT
HETATM    1  C9  UNL     1       4.438  15.070   8.246  1.00  0.00     0.070 A 
HETATM    2  C10 UNL     1       5.727  14.629   8.379  1.00  0.00     0.062 A 
HETATM    3  C11 UNL     1       6.270  13.640   7.585  1.00  0.00     0.045 A 
HETATM    4  N2  UNL     1       7.496  13.074   7.547  1.00  0.00    -0.365 N 
ATOM      5  H2  UNL     1       8.271  13.320   8.163  1.00  0.00     0.165 HD
HETATM    6  C12 UNL     1       7.550  12.152   6.591  1.00  0.00     0.096 A 
HETATM    7  C13 UNL     1       6.300  12.092   5.952  1.00  0.00    -0.034 A 
HETATM    8  C14 UNL     1       5.937  11.205   4.828  1.00  0.00     0.050 C 
HETATM    9  C15 UNL     1       5.524  13.024   6.588  1.00  0.00     0.007 A 
HETATM   10  C16 UNL     1       4.217  13.440   6.423  1.00  0.00    -0.013 A 
HETATM   11  C17 UNL     1       3.421  12.764   5.368  1.00  0.00     0.052 C 
HETATM   12  C18 UNL     1       3.694  14.428   7.223  1.00  0.00     0.099 A 
ENDROOT
BRANCH   1  13
HETATM   13  N1  UNL     1       3.812  16.056   8.999  1.00  0.00    -0.325 N 
HETATM   14  C8  UNL     1       3.210  15.909  10.258  1.00  0.00     0.222 C 
HETATM   15  O1  UNL     1       3.171  14.832  10.861  1.00  0.00    -0.273 OA
ATOM     16  H1  UNL     1       3.788  16.990   8.592  1.00  0.00     0.169 HD
BRANCH  14  17
HETATM   17  C7  UNL     1       2.573  17.090  10.938  1.00  0.00     0.112 C 
BRANCH  17  18
HETATM   18  C6  UNL     1       3.145  18.344  10.376  1.00  0.00     0.023 C 
HETATM   19  C2  UNL     1       2.066  19.306   9.968  1.00  0.00    -0.083 C 
HETATM   20  C1  UNL     1       0.724  18.956   9.427  1.00  0.00     0.043 C 
HETATM   21  C3  UNL     1       2.484  20.544  10.157  1.00  0.00    -0.024 C 
HETATM   22  C4  UNL     1       3.868  20.547  10.708  1.00  0.00     0.028 C 
HETATM   23  C5  UNL     1       3.860  19.183  11.422  1.00  0.00     0.013 C 
ENDBRANCH  17  18
ENDBRANCH  14  17
ENDBRANCH   1  13
BRANCH  12  24
HETATM   24  O2  UNL     1       2.391  14.863   7.074  1.00  0.00    -0.358 OA
ATOM     25  H2  UNL     1       1.722  14.208   7.231  1.00  0.00     0.217 HD
ENDBRANCH  12  24
TORSDOF 4
ENDMDL
MODEL 2
REMARK VINA RESULT: -6.598195324      2.922      4.703
REMARK  4 active torsions:
REMARK  status: ('A' for Active; 'I' for Inactive)
REMARK    1  A    between atoms: C6_6  and  C7_7 
REMARK    2  A    between atoms: C7_7  and  C8_8 
REMARK       I    between atoms: C8_8  and  N1_10 
REMARK    3  A    between atoms: N1_10  and  C9_12 
REMARK    4  A    between atoms: C18_23  and  O2_24 
ROOT
HETATM    1  C9  UNL     1       4.381  14.702   7.292  1.00  0.00     0.070 A 
HETATM    2  C10 UNL     1       4.074  15.570   6.280  1.00  0.00     0.062 A 
HETATM    3  C11 UNL     1       3.577  15.160   5.060  1.00  0.00     0.045 A 
HETATM    4  N2  UNL     1       3.211  15.840   3.951  1.00  0.00    -0.365 N 
ATOM      5  H2  UNL     1       3.258  16.853   3.847  1.00  0.00     0.165 HD
HETATM    6  C12 UNL     1       2.779  14.999   3.016  1.00  0.00     0.096 A 
HETATM    7  C13 UNL     1       2.857  13.689   3.517  1.00  0.00    -0.034 A 
HETATM    8  C14 UNL     1       2.466  12.457   2.802  1.00  0.00     0.050 C 
HETATM    9  C15 UNL     1       3.356  13.816   4.787  1.00  0.00     0.007 A 
HETATM   10  C16 UNL     1       3.654  12.907   5.783  1.00  0.00    -0.013 A 
HETATM   11  C17 UNL     1       3.433  11.471   5.475  1.00  0.00     0.052 C 
HETATM   12  C18 UNL     1       4.148  13.335   6.992  1.00  0.00     0.099 A 
ENDROOT
BRANCH   1  13
HETATM   13  N1  UNL     1       4.885  15.027   8.546  1.00  0.00    -0.325 N 
HETATM   14  C8  UNL     1       4.168  15.519   9.647  1.00  0.00     0.222 C 
HETATM   15  O1  UNL     1       2.951  15.726   9.617  1.00  0.00    -0.273 OA
ATOM     16  H1  UNL     1       5.886  14.893   8.681  1.00  0.00     0.169 HD
BRANCH  14  17
HETATM   17  C7  UNL     1       4.874  15.821  10.940  1.00  0.00     0.112 C 
BRANCH  17  18
HETATM   18  C6  UNL     1       5.724  14.657  11.315  1.00  0.00     0.023 C 
HETATM   19  C2  UNL     1       6.281  14.808  12.702  1.00  0.00    -0.083 C 
HETATM   20  C1  UNL     1       6.666  16.081  13.370  1.00  0.00     0.043 C 
HETATM   21  C3  UNL     1       6.388  13.618  13.266  1.00  0.00    -0.024 C 
HETATM   22  C4  UNL     1       5.918  12.556  12.332  1.00  0.00     0.028 C 
HETATM   23  C5  UNL     1       4.923  13.378  11.493  1.00  0.00     0.013 C 
ENDBRANCH  17  18
ENDBRANCH  14  17
ENDBRANCH   1  13
BRANCH  12  24
HETATM   24  O2  UNL     1       4.450  12.444   8.004  1.00  0.00    -0.358 OA
ATOM     25  H2  UNL     1       5.335  12.498   8.344  1.00  0.00     0.217 HD
ENDBRANCH  12  24
TORSDOF 4
ENDMDL
MODEL 3
REMARK VINA RESULT: -6.431993435      2.767      6.962
REMARK  4 active torsions:
REMARK  status: ('A' for Active; 'I' for Inactive)
REMARK    1  A    between atoms: C6_6  and  C7_7 
REMARK    2  A    between atoms: C7_7  and  C8_8 
REMARK       I    between atoms: C8_8  and  N1_10 
REMARK    3  A    between atoms: N1_10  and  C9_12 
REMARK    4  A    between atoms: C18_23  and  O2_24 
ROOT
HETATM    1  C9  UNL     1       3.485  14.902   7.444  1.00  0.00     0.070 A 
HETATM    2  C10 UNL     1       2.793  15.733   8.282  1.00  0.00     0.062 A 
HETATM    3  C11 UNL     1       3.275  16.137   9.510  1.00  0.00     0.045 A 
HETATM    4  N2  UNL     1       2.766  16.942  10.468  1.00  0.00    -0.365 N 
ATOM      5  H2  UNL     1       1.861  17.409  10.416  1.00  0.00     0.165 HD
HETATM    6  C12 UNL     1       3.613  17.040  11.487  1.00  0.00     0.096 A 
HETATM    7  C13 UNL     1       4.750  16.264  11.205  1.00  0.00    -0.034 A 
HETATM    8  C14 UNL     1       5.935  16.105  12.073  1.00  0.00     0.050 C 
HETATM    9  C15 UNL     1       4.515  15.714   9.972  1.00  0.00     0.007 A 
HETATM   10  C16 UNL     1       5.245  14.873   9.156  1.00  0.00    -0.013 A 
HETATM   11  C17 UNL     1       6.560  14.409   9.667  1.00  0.00     0.052 C 
HETATM   12  C18 UNL     1       4.748  14.481   7.936  1.00  0.00     0.099 A 
ENDROOT
BRANCH   1  13
HETATM   13  N1  UNL     1       3.077  14.446   6.196  1.00  0.00    -0.325 N 
HETATM   14  C8  UNL     1       1.964  13.642   5.909  1.00  0.00     0.222 C 
HETATM   15  O1  UNL     1       1.190  13.232   6.780  1.00  0.00    -0.273 OA
ATOM     16  H1  UNL     1       3.649  14.728   5.401  1.00  0.00     0.169 HD
BRANCH  14  17
HETATM   17  C7  UNL     1       1.664  13.237   4.492  1.00  0.00     0.112 C 
BRANCH  17  18
HETATM   18  C6  UNL     1       2.656  13.874   3.583  1.00  0.00     0.023 C 
HETATM   19  C2  UNL     1       3.203  12.888   2.589  1.00  0.00    -0.083 C 
HETATM   20  C1  UNL     1       3.432  11.435   2.814  1.00  0.00     0.043 C 
HETATM   21  C3  UNL     1       3.462  13.508   1.451  1.00  0.00    -0.024 C 
HETATM   22  C4  UNL     1       3.120  14.954   1.557  1.00  0.00     0.028 C 
HETATM   23  C5  UNL     1       2.023  14.877   2.633  1.00  0.00     0.013 C 
ENDBRANCH  17  18
ENDBRANCH  14  17
ENDBRANCH   1  13
BRANCH  12  24
HETATM   24  O2  UNL     1       5.462  13.644   7.101  1.00  0.00    -0.358 OA
ATOM     25  H2  UNL     1       6.401  13.628   7.244  1.00  0.00     0.217 HD
ENDBRANCH  12  24
TORSDOF 4
ENDMDL
MODEL 4
REMARK VINA RESULT: -6.408426755      3.171      4.834
REMARK  4 active torsions:
REMARK  status: ('A' for Active; 'I' for Inactive)
REMARK    1  A    between atoms: C6_6  and  C7_7 
REMARK    2  A    between atoms: C7_7  and  C8_8 
REMARK       I    between atoms: C8_8  and  N1_10 
REMARK    3  A    between atoms: N1_10  and  C9_12 
REMARK    4  A    between atoms: C18_23  and  O2_24 
ROOT
HETATM    1  C9  UNL     1       3.782  14.220   8.037  1.00  0.00     0.070 A 
HETATM    2  C10 UNL     1       2.927  13.150   8.044  1.00  0.00     0.062 A 
HETATM    3  C11 UNL     1       2.230  12.736   6.927  1.00  0.00     0.045 A 
HETATM    4  N2  UNL     1       1.360  11.724   6.721  1.00  0.00    -0.365 N 
ATOM      5  H2  UNL     1       1.061  11.058   7.433  1.00  0.00     0.165 HD
HETATM    6  C12 UNL     1       0.948  11.719   5.457  1.00  0.00     0.096 A 
HETATM    7  C13 UNL     1       1.571  12.779   4.776  1.00  0.00    -0.034 A 
HETATM    8  C14 UNL     1       1.395  13.122   3.350  1.00  0.00     0.050 C 
HETATM    9  C15 UNL     1       2.361  13.395   5.711  1.00  0.00     0.007 A 
HETATM   10  C16 UNL     1       3.214  14.480   5.663  1.00  0.00    -0.013 A 
HETATM   11  C17 UNL     1       3.332  15.190   4.364  1.00  0.00     0.052 C 
HETATM   12  C18 UNL     1       3.899  14.877   6.786  1.00  0.00     0.099 A 
ENDROOT
BRANCH   1  13
HETATM   13  N1  UNL     1       4.519  14.704   9.111  1.00  0.00    -0.325 N 
HETATM   14  C8  UNL     1       4.049  15.471  10.187  1.00  0.00     0.222 C 
HETATM   15  O1  UNL     1       2.869  15.817  10.299  1.00  0.00    -0.273 OA
ATOM     16  H1  UNL     1       5.513  14.476   9.118  1.00  0.00     0.169 HD
BRANCH  14  17
HETATM   17  C7  UNL     1       4.990  15.916  11.272  1.00  0.00     0.112 C 
BRANCH  17  18
HETATM   18  C6  UNL     1       5.831  14.761  11.692  1.00  0.00     0.023 C 
HETATM   19  C2  UNL     1       6.453  14.996  13.039  1.00  0.00    -0.083 C 
HETATM   20  C1  UNL     1       6.896  16.303  13.597  1.00  0.00     0.043 C 
HETATM   21  C3  UNL     1       6.560  13.846  13.682  1.00  0.00    -0.024 C 
HETATM   22  C4  UNL     1       6.026  12.733  12.848  1.00  0.00     0.028 C 
HETATM   23  C5  UNL     1       5.012  13.518  11.996  1.00  0.00     0.013 C 
ENDBRANCH  17  18
ENDBRANCH  14  17
ENDBRANCH   1  13
BRANCH  12  24
HETATM   24  O2  UNL     1       4.760  15.957   6.761  1.00  0.00    -0.358 OA
ATOM     25  H2  UNL     1       5.090  16.236   7.607  1.00  0.00     0.217 HD
ENDBRANCH  12  24
TORSDOF 4
ENDMDL
MODEL 5
REMARK VINA RESULT: -6.365954114      1.415      2.183
REMARK  4 active torsions:
REMARK  status: ('A' for Active; 'I' for Inactive)
REMARK    1  A    between atoms: C6_6  and  C7_7 
REMARK    2  A    between atoms: C7_7  and  C8_8 
REMARK       I    between atoms: C8_8  and  N1_10 
REMARK    3  A    between atoms: N1_10  and  C9_12 
REMARK    4  A    between atoms: C18_23  and  O2_24 
ROOT
HETATM    1  C9  UNL     1       4.187  15.282   8.227  1.00  0.00     0.070 A 
HETATM    2  C10 UNL     1       3.430  14.856   7.169  1.00  0.00     0.062 A 
HETATM    3  C11 UNL     1       3.837  13.862   6.303  1.00  0.00     0.045 A 
HETATM    4  N2  UNL     1       3.252  13.300   5.223  1.00  0.00    -0.365 N 
ATOM      5  H2  UNL     1       2.337  13.559   4.855  1.00  0.00     0.165 HD
HETATM    6  C12 UNL     1       4.039  12.362   4.708  1.00  0.00     0.096 A 
HETATM    7  C13 UNL     1       5.212  12.285   5.477  1.00  0.00    -0.034 A 
HETATM    8  C14 UNL     1       6.345  11.364   5.250  1.00  0.00     0.050 C 
HETATM    9  C15 UNL     1       5.062  13.227   6.460  1.00  0.00     0.007 A 
HETATM   10  C16 UNL     1       5.857  13.629   7.515  1.00  0.00    -0.013 A 
HETATM   11  C17 UNL     1       7.173  12.959   7.664  1.00  0.00     0.052 C 
HETATM   12  C18 UNL     1       5.434  14.620   8.368  1.00  0.00     0.099 A 
ENDROOT
BRANCH   1  13
HETATM   13  N1  UNL     1       3.856  16.273   9.144  1.00  0.00    -0.325 N 
HETATM   14  C8  UNL     1       3.197  16.107  10.371  1.00  0.00     0.222 C 
HETATM   15  O1  UNL     1       2.820  15.007  10.787  1.00  0.00    -0.273 OA
ATOM     16  H1  UNL     1       4.122  17.226   8.898  1.00  0.00     0.169 HD
BRANCH  14  17
HETATM   17  C7  UNL     1       2.915  17.295  11.249  1.00  0.00     0.112 C 
BRANCH  17  18
HETATM   18  C6  UNL     1       3.326  18.536  10.537  1.00  0.00     0.023 C 
HETATM   19  C2  UNL     1       2.135  19.301  10.034  1.00  0.00    -0.083 C 
HETATM   20  C1  UNL     1       0.847  18.726   9.557  1.00  0.00     0.043 C 
HETATM   21  C3  UNL     1       2.394  20.596  10.072  1.00  0.00    -0.024 C 
HETATM   22  C4  UNL     1       3.767  20.836  10.599  1.00  0.00     0.028 C 
HETATM   23  C5  UNL     1       3.929  19.575  11.467  1.00  0.00     0.013 C 
ENDBRANCH  17  18
ENDBRANCH  14  17
ENDBRANCH   1  13
BRANCH  12  24
HETATM   24  O2  UNL     1       6.210  15.036   9.433  1.00  0.00    -0.358 OA
ATOM     25  H2  UNL     1       7.052  15.410   9.202  1.00  0.00     0.217 HD
ENDBRANCH  12  24
TORSDOF 4
ENDMDL
