MODEL 1
REMARK VINA RESULT: -7.339144797      0.000      0.000
REMARK  5 active torsions:
REMARK  status: ('A' for Active; 'I' for Inactive)
REMARK    1  A    between atoms: C5_7  and  C6_8 
REMARK    2  A    between atoms: C6_8  and  C7_10 
REMARK    3  A    between atoms: C7_10  and  C8_11 
REMARK    4  A    between atoms: C8_11  and  N2_12 
REMARK       I    between atoms: N2_12  and  C9_14 
REMARK    5  A    between atoms: C9_14  and  C10_16 
ROOT
HETATM    1  C6  UNL     1       4.584  14.559   7.509  1.00  0.00     0.163 C 
HETATM    2  O1  UNL     1       4.715  15.607   6.830  1.00  0.00    -0.292 OA
ENDROOT
BRANCH   1   3
HETATM    3  C5  UNL     1       5.691  13.616   7.552  1.00  0.00     0.040 A 
HETATM    4  C2  UNL     1       6.684  13.616   8.490  1.00  0.00     0.020 A 
HETATM    5  C1  UNL     1       6.824  14.572   9.641  1.00  0.00     0.069 C 
HETATM    6  N1  UNL     1       7.512  12.601   8.191  1.00  0.00    -0.362 N 
HETATM    7  C3  UNL     1       7.071  11.962   7.094  1.00  0.00     0.016 A 
ATOM      8  H1  UNL     1       8.349  12.352   8.717  1.00  0.00     0.165 HD
HETATM    9  C4  UNL     1       5.916  12.583   6.664  1.00  0.00    -0.020 A 
HETATM   10  C18 UNL     1       7.557  10.806   6.322  1.00  0.00     0.057 C 
HETATM   11  C15 UNL     1       5.141  12.172   5.494  1.00  0.00     0.042 C 
HETATM   12  C16 UNL     1       5.863  11.304   4.535  1.00  0.00     0.005 C 
HETATM   13  C17 UNL     1       7.284  11.025   4.858  1.00  0.00     0.006 C 
ENDBRANCH   1   3
BRANCH   1  14
HETATM   14  C7  UNL     1       3.323  14.333   8.227  1.00  0.00     0.103 C 
BRANCH  14  15
HETATM   15  C8  UNL     1       3.312  15.018   9.562  1.00  0.00     0.130 C 
BRANCH  15  16
HETATM   16  N2  UNL     1       3.192  16.447   9.459  1.00  0.00    -0.356 N 
HETATM   17  C9  UNL     1       2.841  17.200  10.588  1.00  0.00     0.254 C 
HETATM   18  O2  UNL     1       2.635  16.642  11.677  1.00  0.00    -0.268 OA
ATOM     19  H2  UNL     1       3.361  16.911   8.567  1.00  0.00     0.162 HD
BRANCH  17  20
HETATM   20  C10 UNL     1       2.723  18.655  10.465  1.00  0.00     0.066 A 
HETATM   21  C11 UNL     1       3.557  19.565  10.939  1.00  0.00    -0.003 A 
HETATM   22  C12 UNL     1       3.077  20.926  10.599  1.00  0.00     0.058 A 
HETATM   23  C13 UNL     1       1.816  20.673   9.842  1.00  0.00     0.020 A 
HETATM   24  C14 UNL     1       1.633  19.366   9.777  1.00  0.00     0.128 A 
HETATM   25  F1  UNL     1       0.604  18.723   9.174  1.00  0.00    -0.205 F 
ENDBRANCH  17  20
ENDBRANCH  15  16
ENDBRANCH  14  15
ENDBRANCH   1  14
TORSDOF 5
ENDMDL
MODEL 2
REMARK VINA RESULT: -7.255771689      1.926      2.492
REMARK  5 active torsions:
REMARK  status: ('A' for Active; 'I' for Inactive)
REMARK    1  A    between atoms: C5_7  and  C6_8 
REMARK    2  A    between atoms: C6_8  and  C7_10 
REMARK    3  A    between atoms: C7_10  and  C8_11 
REMARK    4  A    between atoms: C8_11  and  N2_12 
REMARK       I    between atoms: N2_12  and  C9_14 
REMARK    5  A    between atoms: C9_14  and  C10_16 
ROOT
HETATM    1  C6  UNL     1       5.573  14.095  11.232  1.00  0.00     0.163 C 
HETATM    2  O1  UNL     1       6.105  15.229  11.147  1.00  0.00    -0.292 OA
ENDROOT
BRANCH   1   3
HETATM    3  C5  UNL     1       6.197  12.980  10.535  1.00  0.00     0.040 A 
HETATM    4  C2  UNL     1       6.956  12.012  11.128  1.00  0.00     0.020 A 
HETATM    5  C1  UNL     1       7.288  11.909  12.589  1.00  0.00     0.069 C 
HETATM    6  N1  UNL     1       7.349  11.168  10.159  1.00  0.00    -0.362 N 
HETATM    7  C3  UNL     1       6.861  11.576   8.974  1.00  0.00     0.016 A 
ATOM      8  H1  UNL     1       7.930  10.342  10.301  1.00  0.00     0.165 HD
HETATM    9  C4  UNL     1       6.125  12.724   9.180  1.00  0.00    -0.020 A 
HETATM   10  C18 UNL     1       6.960  11.061   7.599  1.00  0.00     0.057 C 
HETATM   11  C15 UNL     1       5.436  13.467   8.125  1.00  0.00     0.042 C 
HETATM   12  C16 UNL     1       5.891  13.168   6.747  1.00  0.00     0.005 C 
HETATM   13  C17 UNL     1       7.020  12.212   6.631  1.00  0.00     0.006 C 
ENDBRANCH   1   3
BRANCH   1  14
HETATM   14  C7  UNL     1       4.350  13.946  12.030  1.00  0.00     0.103 C 
BRANCH  14  15
HETATM   15  C8  UNL     1       3.160  14.549  11.343  1.00  0.00     0.130 C 
BRANCH  15  16
HETATM   16  N2  UNL     1       3.159  15.986  11.382  1.00  0.00    -0.356 N 
HETATM   17  C9  UNL     1       2.957  16.716  10.201  1.00  0.00     0.254 C 
HETATM   18  O2  UNL     1       2.779  16.129   9.122  1.00  0.00    -0.268 OA
ATOM     19  H2  UNL     1       3.305  16.473  12.266  1.00  0.00     0.162 HD
BRANCH  17  20
HETATM   20  C10 UNL     1       2.960  18.180  10.260  1.00  0.00     0.066 A 
HETATM   21  C11 UNL     1       3.947  18.959  10.669  1.00  0.00    -0.003 A 
HETATM   22  C12 UNL     1       3.548  20.383  10.573  1.00  0.00     0.058 A 
HETATM   23  C13 UNL     1       2.156  20.321  10.038  1.00  0.00     0.020 A 
HETATM   24  C14 UNL     1       1.840  19.049   9.866  1.00  0.00     0.128 A 
HETATM   25  F1  UNL     1       0.664  18.565   9.398  1.00  0.00    -0.205 F 
ENDBRANCH  17  20
ENDBRANCH  15  16
ENDBRANCH  14  15
ENDBRANCH   1  14
TORSDOF 5
ENDMDL
MODEL 3
REMARK VINA RESULT: -7.184840932      2.536      3.094
REMARK  5 active torsions:
REMARK  status: ('A' for Active; 'I' for Inactive)
REMARK    1  A    between atoms: C5_7  and  C6_8 
REMARK    2  A    between atoms: C6_8  and  C7_10 
REMARK    3  A    between atoms: C7_10  and  C8_11 
REMARK    4  A    between atoms: C8_11  and  N2_12 
REMARK       I    between atoms: N2_12  and  C9_14 
REMARK    5  A    between atoms: C9_14  and  C10_16 
ROOT
HETATM    1  C6  UNL     1       6.150  14.228   9.785  1.00  0.00     0.163 C 
HETATM    2  O1  UNL     1       7.246  13.839   9.312  1.00  0.00    -0.292 OA
ENDROOT
BRANCH   1   3
HETATM    3  C5  UNL     1       4.921  13.677   9.234  1.00  0.00     0.040 A 
HETATM    4  C2  UNL     1       4.251  12.598   9.737  1.00  0.00     0.020 A 
HETATM    5  C1  UNL     1       4.646  11.784  10.937  1.00  0.00     0.069 C 
HETATM    6  N1  UNL     1       3.175  12.401   8.959  1.00  0.00    -0.362 N 
HETATM    7  C3  UNL     1       3.145  13.323   7.981  1.00  0.00     0.016 A 
ATOM      8  H1  UNL     1       2.483  11.663   9.089  1.00  0.00     0.165 HD
HETATM    9  C4  UNL     1       4.241  14.148   8.128  1.00  0.00    -0.020 A 
HETATM   10  C18 UNL     1       2.227  13.595   6.863  1.00  0.00     0.057 C 
HETATM   11  C15 UNL     1       4.554  15.275   7.251  1.00  0.00     0.042 C 
HETATM   12  C16 UNL     1       3.865  15.259   5.939  1.00  0.00     0.005 C 
HETATM   13  C17 UNL     1       3.010  14.077   5.671  1.00  0.00     0.006 C 
ENDBRANCH   1   3
BRANCH   1  14
HETATM   14  C7  UNL     1       6.158  15.218  10.870  1.00  0.00     0.103 C 
BRANCH  14  15
HETATM   15  C8  UNL     1       4.767  15.623  11.263  1.00  0.00     0.130 C 
BRANCH  15  16
HETATM   16  N2  UNL     1       4.442  16.967  10.870  1.00  0.00    -0.356 N 
HETATM   17  C9  UNL     1       3.173  17.489  11.158  1.00  0.00     0.254 C 
HETATM   18  O2  UNL     1       2.329  16.799  11.751  1.00  0.00    -0.268 OA
ATOM     19  H2  UNL     1       5.132  17.538  10.383  1.00  0.00     0.162 HD
BRANCH  17  20
HETATM   20  C10 UNL     1       2.859  18.861  10.749  1.00  0.00     0.066 A 
HETATM   21  C11 UNL     1       3.518  19.960  11.076  1.00  0.00    -0.003 A 
HETATM   22  C12 UNL     1       2.876  21.144  10.457  1.00  0.00     0.058 A 
HETATM   23  C13 UNL     1       1.723  20.565   9.707  1.00  0.00     0.020 A 
HETATM   24  C14 UNL     1       1.732  19.256   9.888  1.00  0.00     0.128 A 
HETATM   25  F1  UNL     1       0.852  18.363   9.376  1.00  0.00    -0.205 F 
ENDBRANCH  17  20
ENDBRANCH  15  16
ENDBRANCH  14  15
ENDBRANCH   1  14
TORSDOF 5
ENDMDL
MODEL 4
REMARK VINA RESULT: -7.103332406      3.942      7.463
REMARK  5 active torsions:
REMARK  status: ('A' for Active; 'I' for Inactive)
REMARK    1  A    between atoms: C5_7  and  C6_8 
REMARK    2  A    between atoms: C6_8  and  C7_10 
REMARK    3  A    between atoms: C7_10  and  C8_11 
REMARK    4  A    between atoms: C8_11  and  N2_12 
REMARK       I    between atoms: N2_12  and  C9_14 
REMARK    5  A    between atoms: C9_14  and  C10_16 
ROOT
HETATM    1  C6  UNL     1       5.483  15.026  11.792  1.00  0.00     0.163 C 
HETATM    2  O1  UNL     1       6.284  15.870  12.265  1.00  0.00    -0.292 OA
ENDROOT
BRANCH   1   3
HETATM    3  C5  UNL     1       4.861  15.304  10.506  1.00  0.00     0.040 A 
HETATM    4  C2  UNL     1       3.747  16.073  10.324  1.00  0.00     0.020 A 
HETATM    5  C1  UNL     1       2.959  16.769  11.398  1.00  0.00     0.069 C 
HETATM    6  N1  UNL     1       3.487  16.089   9.007  1.00  0.00    -0.362 N 
HETATM    7  C3  UNL     1       4.403  15.354   8.353  1.00  0.00     0.016 A 
ATOM      8  H1  UNL     1       2.711  16.584   8.568  1.00  0.00     0.165 HD
HETATM    9  C4  UNL     1       5.290  14.842   9.277  1.00  0.00    -0.020 A 
HETATM   10  C18 UNL     1       4.619  15.019   6.936  1.00  0.00     0.057 C 
HETATM   11  C15 UNL     1       6.431  13.989   8.947  1.00  0.00     0.042 C 
HETATM   12  C16 UNL     1       6.372  13.352   7.611  1.00  0.00     0.005 C 
HETATM   13  C17 UNL     1       5.143  13.612   6.823  1.00  0.00     0.006 C 
ENDBRANCH   1   3
BRANCH   1  14
HETATM   14  C7  UNL     1       5.211  13.802  12.556  1.00  0.00     0.103 C 
BRANCH  14  15
HETATM   15  C8  UNL     1       6.396  12.881  12.571  1.00  0.00     0.130 C 
BRANCH  15  16
HETATM   16  N2  UNL     1       6.096  11.572  12.059  1.00  0.00    -0.356 N 
HETATM   17  C9  UNL     1       6.983  10.953  11.166  1.00  0.00     0.254 C 
HETATM   18  O2  UNL     1       8.026  11.528  10.815  1.00  0.00    -0.268 OA
ATOM     19  H2  UNL     1       5.242  11.095  12.343  1.00  0.00     0.162 HD
BRANCH  17  20
HETATM   20  C10 UNL     1       6.661   9.619  10.653  1.00  0.00     0.066 A 
HETATM   21  C11 UNL     1       6.324   8.554  11.362  1.00  0.00    -0.003 A 
HETATM   22  C12 UNL     1       6.079   7.400  10.464  1.00  0.00     0.058 A 
HETATM   23  C13 UNL     1       6.328   7.956   9.102  1.00  0.00     0.020 A 
HETATM   24  C14 UNL     1       6.660   9.229   9.235  1.00  0.00     0.128 A 
HETATM   25  F1  UNL     1       6.965  10.093   8.236  1.00  0.00    -0.205 F 
ENDBRANCH  17  20
ENDBRANCH  15  16
ENDBRANCH  14  15
ENDBRANCH   1  14
TORSDOF 5
ENDMDL
MODEL 5
REMARK VINA RESULT: -7.082960189      1.928      2.745
REMARK  5 active torsions:
REMARK  status: ('A' for Active; 'I' for Inactive)
REMARK    1  A    between atoms: C5_7  and  C6_8 
REMARK    2  A    between atoms: C6_8  and  C7_10 
REMARK    3  A    between atoms: C7_10  and  C8_11 
REMARK    4  A    between atoms: C8_11  and  N2_12 
REMARK       I    between atoms: N2_12  and  C9_14 
REMARK    5  A    between atoms: C9_14  and  C10_16 
ROOT
HETATM    1  C6  UNL     1       5.573  14.453  10.653  1.00  0.00     0.163 C 
HETATM    2  O1  UNL     1       6.234  15.512  10.785  1.00  0.00    -0.292 OA
ENDROOT
BRANCH   1   3
HETATM    3  C5  UNL     1       5.847  13.601   9.506  1.00  0.00     0.040 A 
HETATM    4  C2  UNL     1       5.607  13.939   8.204  1.00  0.00     0.020 A 
HETATM    5  C1  UNL     1       5.026  15.234   7.712  1.00  0.00     0.069 C 
HETATM    6  N1  UNL     1       5.990  12.898   7.447  1.00  0.00    -0.362 N 
HETATM    7  C3  UNL     1       6.463  11.914   8.232  1.00  0.00     0.016 A 
ATOM      8  H1  UNL     1       5.931  12.859   6.430  1.00  0.00     0.165 HD
HETATM    9  C4  UNL     1       6.385  12.330   9.545  1.00  0.00    -0.020 A 
HETATM   10  C18 UNL     1       7.008  10.572   7.968  1.00  0.00     0.057 C 
HETATM   11  C15 UNL     1       6.807  11.530  10.694  1.00  0.00     0.042 C 
HETATM   12  C16 UNL     1       6.950  10.079  10.430  1.00  0.00     0.005 C 
HETATM   13  C17 UNL     1       6.586   9.631   9.064  1.00  0.00     0.006 C 
ENDBRANCH   1   3
BRANCH   1  14
HETATM   14  C7  UNL     1       4.557  14.122  11.661  1.00  0.00     0.103 C 
BRANCH  14  15
HETATM   15  C8  UNL     1       3.229  14.740  11.335  1.00  0.00     0.130 C 
BRANCH  15  16
HETATM   16  N2  UNL     1       3.255  16.177  11.372  1.00  0.00    -0.356 N 
HETATM   17  C9  UNL     1       2.878  16.910  10.238  1.00  0.00     0.254 C 
HETATM   18  O2  UNL     1       2.521  16.327   9.202  1.00  0.00    -0.268 OA
ATOM     19  H2  UNL     1       3.547  16.661  12.221  1.00  0.00     0.162 HD
BRANCH  17  20
HETATM   20  C10 UNL     1       2.910  18.374  10.293  1.00  0.00     0.066 A 
HETATM   21  C11 UNL     1       3.903  19.133  10.729  1.00  0.00    -0.003 A 
HETATM   22  C12 UNL     1       3.538  20.565  10.618  1.00  0.00     0.058 A 
HETATM   23  C13 UNL     1       2.161  20.532  10.043  1.00  0.00     0.020 A 
HETATM   24  C14 UNL     1       1.822  19.267   9.865  1.00  0.00     0.128 A 
HETATM   25  F1  UNL     1       0.650  18.807   9.364  1.00  0.00    -0.205 F 
ENDBRANCH  17  20
ENDBRANCH  15  16
ENDBRANCH  14  15
ENDBRANCH   1  14
TORSDOF 5
ENDMDL
