MODEL 1
REMARK VINA RESULT: -6.557509611      0.000      0.000
REMARK  7 active torsions:
REMARK  status: ('A' for Active; 'I' for Inactive)
REMARK       I    between atoms: N2_7  and  C5_9 
REMARK    1  A    between atoms: C5_9  and  C6_11 
REMARK    2  A    between atoms: C6_11  and  C7_12 
REMARK    3  A    between atoms: C7_12  and  C8_13 
REMARK    4  A    between atoms: C8_13  and  O3_15 
REMARK    5  A    between atoms: O3_15  and  C9_16 
REMARK    6  A    between atoms: C9_16  and  C10_17 
REMARK       I    between atoms: C10_17  and  N3_19 
REMARK    7  A    between atoms: N3_19  and  C11_20 
ROOT
HETATM    1  C1  UNL     1      18.058  40.440  50.677  1.00  0.00     0.049 C 
HETATM    2  C2  UNL     1      18.969  41.141  51.640  1.00  0.00    -0.045 A 
HETATM    3  C3  UNL     1      20.312  41.111  51.363  1.00  0.00     0.096 A 
HETATM    4  N1  UNL     1      21.195  41.734  52.235  1.00  0.00    -0.350 N 
ATOM      5  H1  UNL     1      22.193  41.711  52.025  1.00  0.00     0.166 HD
HETATM    6  C4  UNL     1      20.787  42.356  53.327  1.00  0.00     0.129 A 
HETATM    7  N2  UNL     1      21.579  42.885  54.156  1.00  0.00    -0.312 N 
ATOM      8  H2  UNL     1      21.108  43.323  54.948  1.00  0.00     0.170 HD
HETATM    9  C5  UNL     1      22.924  42.989  54.205  1.00  0.00     0.223 C 
HETATM   10  O1  UNL     1      23.709  42.535  53.347  1.00  0.00    -0.273 OA
HETATM   11  C12 UNL     1      19.407  42.382  53.603  1.00  0.00     0.078 A 
HETATM   12 CL3  UNL     1      18.817  43.181  55.041  1.00  0.00    -0.080 Cl
HETATM   13  C13 UNL     1      18.499  41.776  52.759  1.00  0.00     0.035 A 
ENDROOT
BRANCH   9  14
HETATM   14  C6  UNL     1      23.654  43.692  55.343  1.00  0.00     0.113 C 
BRANCH  14  15
HETATM   15  C7  UNL     1      22.691  44.600  56.023  1.00  0.00     0.120 C 
BRANCH  15  16
HETATM   16  C8  UNL     1      22.227  44.014  57.329  1.00  0.00     0.259 C 
HETATM   17  O2  UNL     1      21.407  43.024  57.363  1.00  0.00    -0.265 OA
BRANCH  16  18
HETATM   18  O3  UNL     1      22.611  44.441  58.488  1.00  0.00    -0.311 OA
BRANCH  18  19
HETATM   19  C9  UNL     1      23.119  44.514  59.659  1.00  0.00     0.297 C 
BRANCH  19  20
HETATM   20  C10 UNL     1      22.175  43.939  60.748  1.00  0.00     0.313 C 
HETATM   21  O4  UNL     1      22.787  43.305  61.639  1.00  0.00    -0.255 OA
HETATM   22  N3  UNL     1      20.844  44.218  60.567  1.00  0.00    -0.376 NA
BRANCH  22  23
HETATM   23  C11 UNL     1      19.538  44.491  60.390  1.00  0.00     0.359 C 
HETATM   24 CL1  UNL     1      18.513  43.262  59.624  1.00  0.00    -0.071 Cl
HETATM   25 CL2  UNL     1      18.670  44.976  61.902  1.00  0.00    -0.071 Cl
ENDBRANCH  22  23
ENDBRANCH  19  20
ENDBRANCH  18  19
ENDBRANCH  16  18
ENDBRANCH  15  16
ENDBRANCH  14  15
ENDBRANCH   9  14
TORSDOF 7
ENDMDL
MODEL 2
REMARK VINA RESULT: -6.553968322      2.617      8.175
REMARK  7 active torsions:
REMARK  status: ('A' for Active; 'I' for Inactive)
REMARK       I    between atoms: N2_7  and  C5_9 
REMARK    1  A    between atoms: C5_9  and  C6_11 
REMARK    2  A    between atoms: C6_11  and  C7_12 
REMARK    3  A    between atoms: C7_12  and  C8_13 
REMARK    4  A    between atoms: C8_13  and  O3_15 
REMARK    5  A    between atoms: O3_15  and  C9_16 
REMARK    6  A    between atoms: C9_16  and  C10_17 
REMARK       I    between atoms: C10_17  and  N3_19 
REMARK    7  A    between atoms: N3_19  and  C11_20 
ROOT
HETATM    1  C1  UNL     1      21.220  45.521  63.412  1.00  0.00     0.049 C 
HETATM    2  C2  UNL     1      21.073  44.973  62.024  1.00  0.00    -0.045 A 
HETATM    3  C3  UNL     1      22.187  44.995  61.223  1.00  0.00     0.096 A 
HETATM    4  N1  UNL     1      22.094  44.511  59.925  1.00  0.00    -0.350 N 
ATOM      5  H1  UNL     1      22.924  44.528  59.332  1.00  0.00     0.166 HD
HETATM    6  C4  UNL     1      20.968  44.029  59.430  1.00  0.00     0.129 A 
HETATM    7  N2  UNL     1      20.852  43.630  58.238  1.00  0.00    -0.312 N 
ATOM      8  H2  UNL     1      19.918  43.290  58.009  1.00  0.00     0.170 HD
HETATM    9  C5  UNL     1      21.718  43.563  57.204  1.00  0.00     0.223 C 
HETATM   10  O1  UNL     1      22.914  43.918  57.246  1.00  0.00    -0.273 OA
HETATM   11  C12 UNL     1      19.830  44.010  60.259  1.00  0.00     0.078 A 
HETATM   12 CL3  UNL     1      18.313  43.393  59.650  1.00  0.00    -0.080 Cl
HETATM   13  C13 UNL     1      19.884  44.480  61.556  1.00  0.00     0.035 A 
ENDROOT
BRANCH   9  14
HETATM   14  C6  UNL     1      21.320  43.032  55.832  1.00  0.00     0.113 C 
BRANCH  14  15
HETATM   15  C7  UNL     1      22.179  43.690  54.811  1.00  0.00     0.120 C 
BRANCH  15  16
HETATM   16  C8  UNL     1      22.352  42.809  53.603  1.00  0.00     0.259 C 
HETATM   17  O2  UNL     1      23.514  42.399  53.237  1.00  0.00    -0.265 OA
BRANCH  16  18
HETATM   18  O3  UNL     1      21.373  42.399  52.863  1.00  0.00    -0.311 OA
BRANCH  18  19
HETATM   19  C9  UNL     1      20.666  41.754  52.016  1.00  0.00     0.297 C 
BRANCH  19  20
HETATM   20  C10 UNL     1      19.182  41.637  52.456  1.00  0.00     0.313 C 
HETATM   21  O4  UNL     1      18.869  42.462  53.346  1.00  0.00    -0.255 OA
HETATM   22  N3  UNL     1      18.459  40.669  51.805  1.00  0.00    -0.376 NA
BRANCH  22  23
HETATM   23  C11 UNL     1      17.750  39.720  51.166  1.00  0.00     0.359 C 
HETATM   24 CL1  UNL     1      18.404  39.045  49.662  1.00  0.00    -0.071 Cl
HETATM   25 CL2  UNL     1      17.323  38.293  52.195  1.00  0.00    -0.071 Cl
ENDBRANCH  22  23
ENDBRANCH  19  20
ENDBRANCH  18  19
ENDBRANCH  16  18
ENDBRANCH  15  16
ENDBRANCH  14  15
ENDBRANCH   9  14
TORSDOF 7
ENDMDL
MODEL 3
REMARK VINA RESULT: -6.532388659      1.014      1.444
REMARK  7 active torsions:
REMARK  status: ('A' for Active; 'I' for Inactive)
REMARK       I    between atoms: N2_7  and  C5_9 
REMARK    1  A    between atoms: C5_9  and  C6_11 
REMARK    2  A    between atoms: C6_11  and  C7_12 
REMARK    3  A    between atoms: C7_12  and  C8_13 
REMARK    4  A    between atoms: C8_13  and  O3_15 
REMARK    5  A    between atoms: O3_15  and  C9_16 
REMARK    6  A    between atoms: C9_16  and  C10_17 
REMARK       I    between atoms: C10_17  and  N3_19 
REMARK    7  A    between atoms: N3_19  and  C11_20 
ROOT
HETATM    1  C1  UNL     1      18.097  40.420  50.691  1.00  0.00     0.049 C 
HETATM    2  C2  UNL     1      19.007  41.144  51.638  1.00  0.00    -0.045 A 
HETATM    3  C3  UNL     1      20.339  41.185  51.314  1.00  0.00     0.096 A 
HETATM    4  N1  UNL     1      21.222  41.832  52.169  1.00  0.00    -0.350 N 
ATOM      5  H1  UNL     1      22.212  41.862  51.924  1.00  0.00     0.166 HD
HETATM    6  C4  UNL     1      20.824  42.412  53.287  1.00  0.00     0.129 A 
HETATM    7  N2  UNL     1      21.619  42.962  54.100  1.00  0.00    -0.312 N 
ATOM      8  H2  UNL     1      21.156  43.360  54.918  1.00  0.00     0.170 HD
HETATM    9  C5  UNL     1      22.958  43.129  54.105  1.00  0.00     0.223 C 
HETATM   10  O1  UNL     1      23.734  42.731  53.211  1.00  0.00    -0.273 OA
HETATM   11  C12 UNL     1      19.456  42.365  53.611  1.00  0.00     0.078 A 
HETATM   12 CL3  UNL     1      18.879  43.106  55.086  1.00  0.00    -0.080 Cl
HETATM   13  C13 UNL     1      18.548  41.733  52.786  1.00  0.00     0.035 A 
ENDROOT
BRANCH   9  14
HETATM   14  C6  UNL     1      23.694  43.843  55.232  1.00  0.00     0.113 C 
BRANCH  14  15
HETATM   15  C7  UNL     1      23.017  45.146  55.477  1.00  0.00     0.120 C 
BRANCH  15  16
HETATM   16  C8  UNL     1      22.346  45.161  56.824  1.00  0.00     0.259 C 
HETATM   17  O2  UNL     1      22.010  46.265  57.390  1.00  0.00    -0.265 OA
BRANCH  16  18
HETATM   18  O3  UNL     1      22.055  44.094  57.496  1.00  0.00    -0.311 OA
BRANCH  18  19
HETATM   19  C9  UNL     1      21.421  43.141  58.065  1.00  0.00     0.297 C 
BRANCH  19  20
HETATM   20  C10 UNL     1      21.693  43.082  59.592  1.00  0.00     0.313 C 
HETATM   21  O4  UNL     1      22.914  43.105  59.873  1.00  0.00    -0.255 OA
HETATM   22  N3  UNL     1      20.570  43.021  60.378  1.00  0.00    -0.376 NA
BRANCH  22  23
HETATM   23  C11 UNL     1      19.468  42.962  61.150  1.00  0.00     0.359 C 
HETATM   24 CL1  UNL     1      19.478  43.821  62.702  1.00  0.00    -0.071 Cl
HETATM   25 CL2  UNL     1      17.949  43.480  60.317  1.00  0.00    -0.071 Cl
ENDBRANCH  22  23
ENDBRANCH  19  20
ENDBRANCH  18  19
ENDBRANCH  16  18
ENDBRANCH  15  16
ENDBRANCH  14  15
ENDBRANCH   9  14
TORSDOF 7
ENDMDL
MODEL 4
REMARK VINA RESULT: -6.518027875      3.748      6.195
REMARK  7 active torsions:
REMARK  status: ('A' for Active; 'I' for Inactive)
REMARK       I    between atoms: N2_7  and  C5_9 
REMARK    1  A    between atoms: C5_9  and  C6_11 
REMARK    2  A    between atoms: C6_11  and  C7_12 
REMARK    3  A    between atoms: C7_12  and  C8_13 
REMARK    4  A    between atoms: C8_13  and  O3_15 
REMARK    5  A    between atoms: O3_15  and  C9_16 
REMARK    6  A    between atoms: C9_16  and  C10_17 
REMARK       I    between atoms: C10_17  and  N3_19 
REMARK    7  A    between atoms: N3_19  and  C11_20 
ROOT
HETATM    1  C1  UNL     1      17.868  40.420  50.624  1.00  0.00     0.049 C 
HETATM    2  C2  UNL     1      18.785  41.100  51.596  1.00  0.00    -0.045 A 
HETATM    3  C3  UNL     1      20.128  41.064  51.317  1.00  0.00     0.096 A 
HETATM    4  N1  UNL     1      21.016  41.667  52.197  1.00  0.00    -0.350 N 
ATOM      5  H1  UNL     1      22.014  41.639  51.986  1.00  0.00     0.166 HD
HETATM    6  C4  UNL     1      20.615  42.276  53.298  1.00  0.00     0.129 A 
HETATM    7  N2  UNL     1      21.412  42.787  54.134  1.00  0.00    -0.312 N 
ATOM      8  H2  UNL     1      20.945  43.217  54.933  1.00  0.00     0.170 HD
HETATM    9  C5  UNL     1      22.758  42.879  54.183  1.00  0.00     0.223 C 
HETATM   10  O1  UNL     1      23.539  42.431  53.318  1.00  0.00    -0.273 OA
HETATM   11  C12 UNL     1      19.236  42.309  53.576  1.00  0.00     0.078 A 
HETATM   12 CL3  UNL     1      18.653  43.092  55.026  1.00  0.00    -0.080 Cl
HETATM   13  C13 UNL     1      18.322  41.723  52.725  1.00  0.00     0.035 A 
ENDROOT
BRANCH   9  14
HETATM   14  C6  UNL     1      23.494  43.560  55.330  1.00  0.00     0.113 C 
BRANCH  14  15
HETATM   15  C7  UNL     1      23.274  45.028  55.219  1.00  0.00     0.120 C 
BRANCH  15  16
HETATM   16  C8  UNL     1      24.567  45.780  55.380  1.00  0.00     0.259 C 
HETATM   17  O2  UNL     1      24.680  46.741  56.228  1.00  0.00    -0.265 OA
BRANCH  16  18
HETATM   18  O3  UNL     1      25.641  45.523  54.706  1.00  0.00    -0.311 OA
BRANCH  18  19
HETATM   19  C9  UNL     1      26.795  45.098  54.357  1.00  0.00     0.297 C 
BRANCH  19  20
HETATM   20  C10 UNL     1      26.710  43.893  53.383  1.00  0.00     0.313 C 
HETATM   21  O4  UNL     1      26.737  42.787  53.970  1.00  0.00    -0.255 OA
HETATM   22  N3  UNL     1      26.612  44.227  52.056  1.00  0.00    -0.376 NA
BRANCH  22  23
HETATM   23  C11 UNL     1      26.515  44.555  50.753  1.00  0.00     0.359 C 
HETATM   24 CL1  UNL     1      25.695  46.067  50.321  1.00  0.00    -0.071 Cl
HETATM   25 CL2  UNL     1      28.098  44.592  49.878  1.00  0.00    -0.071 Cl
ENDBRANCH  22  23
ENDBRANCH  19  20
ENDBRANCH  18  19
ENDBRANCH  16  18
ENDBRANCH  15  16
ENDBRANCH  14  15
ENDBRANCH   9  14
TORSDOF 7
ENDMDL
MODEL 5
REMARK VINA RESULT: -6.441943225      3.592      8.248
REMARK  7 active torsions:
REMARK  status: ('A' for Active; 'I' for Inactive)
REMARK       I    between atoms: N2_7  and  C5_9 
REMARK    1  A    between atoms: C5_9  and  C6_11 
REMARK    2  A    between atoms: C6_11  and  C7_12 
REMARK    3  A    between atoms: C7_12  and  C8_13 
REMARK    4  A    between atoms: C8_13  and  O3_15 
REMARK    5  A    between atoms: O3_15  and  C9_16 
REMARK    6  A    between atoms: C9_16  and  C10_17 
REMARK       I    between atoms: C10_17  and  N3_19 
REMARK    7  A    between atoms: N3_19  and  C11_20 
ROOT
HETATM    1  C1  UNL     1      26.837  47.197  59.028  1.00  0.00     0.049 C 
HETATM    2  C2  UNL     1      25.854  46.459  58.168  1.00  0.00    -0.045 A 
HETATM    3  C3  UNL     1      26.354  45.479  57.349  1.00  0.00     0.096 A 
HETATM    4  N1  UNL     1      25.483  44.780  56.524  1.00  0.00    -0.350 N 
ATOM      5  H1  UNL     1      25.858  44.051  55.916  1.00  0.00     0.166 HD
HETATM    6  C4  UNL     1      24.185  45.025  56.498  1.00  0.00     0.129 A 
HETATM    7  N2  UNL     1      23.386  44.433  55.719  1.00  0.00    -0.312 N 
ATOM      8  H2  UNL     1      22.418  44.738  55.820  1.00  0.00     0.170 HD
HETATM    9  C5  UNL     1      23.556  43.478  54.781  1.00  0.00     0.223 C 
HETATM   10  O1  UNL     1      24.648  42.950  54.485  1.00  0.00    -0.273 OA
HETATM   11  C12 UNL     1      23.681  46.032  57.342  1.00  0.00     0.078 A 
HETATM   12 CL3  UNL     1      21.974  46.404  57.338  1.00  0.00    -0.080 Cl
HETATM   13  C13 UNL     1      24.515  46.747  58.177  1.00  0.00     0.035 A 
ENDROOT
BRANCH   9  14
HETATM   14  C6  UNL     1      22.402  42.921  53.956  1.00  0.00     0.113 C 
BRANCH  14  15
HETATM   15  C7  UNL     1      21.342  43.963  53.878  1.00  0.00     0.120 C 
BRANCH  15  16
HETATM   16  C8  UNL     1      19.972  43.342  53.929  1.00  0.00     0.259 C 
HETATM   17  O2  UNL     1      19.225  43.458  54.969  1.00  0.00    -0.265 OA
BRANCH  16  18
HETATM   18  O3  UNL     1      19.447  42.669  52.956  1.00  0.00    -0.311 OA
BRANCH  18  19
HETATM   19  C9  UNL     1      18.730  41.861  52.274  1.00  0.00     0.297 C 
BRANCH  19  20
HETATM   20  C10 UNL     1      19.587  40.876  51.436  1.00  0.00     0.313 C 
HETATM   21  O4  UNL     1      20.706  41.345  51.123  1.00  0.00    -0.255 OA
HETATM   22  N3  UNL     1      18.995  39.664  51.182  1.00  0.00    -0.376 NA
BRANCH  22  23
HETATM   23  C11 UNL     1      18.415  38.475  50.934  1.00  0.00     0.359 C 
HETATM   24 CL1  UNL     1      17.230  37.853  52.099  1.00  0.00    -0.071 Cl
HETATM   25 CL2  UNL     1      17.611  38.364  49.317  1.00  0.00    -0.071 Cl
ENDBRANCH  22  23
ENDBRANCH  19  20
ENDBRANCH  18  19
ENDBRANCH  16  18
ENDBRANCH  15  16
ENDBRANCH  14  15
ENDBRANCH   9  14
TORSDOF 7
ENDMDL
