MODEL 1
REMARK VINA RESULT: -6.798128175      0.000      0.000
REMARK  6 active torsions:
REMARK  status: ('A' for Active; 'I' for Inactive)
REMARK    1  A    between atoms: C2_2  and  C3_3 
REMARK    2  A    between atoms: C3_3  and  C4_6 
REMARK       I    between atoms: C4_6  and  N1_8 
REMARK    3  A    between atoms: N1_8  and  C5_10 
REMARK    4  A    between atoms: C12_18  and  C13_19 
REMARK       I    between atoms: C13_19  and  N2_21 
REMARK    5  A    between atoms: N2_21  and  C14_23 
REMARK    6  A    between atoms: C14_23  and  C15_24 
ROOT
HETATM    1  C5  UNL     1      20.939  41.956  54.031  1.00  0.00     0.232 C 
HETATM    2  O2  UNL     1      21.589  42.878  53.205  1.00  0.00    -0.360 OA
HETATM    3  C6  UNL     1      22.832  43.108  53.763  1.00  0.00     0.128 C 
HETATM    4  C7  UNL     1      23.802  43.774  52.850  1.00  0.00     0.040 C 
HETATM    5  C8  UNL     1      22.643  43.830  55.074  1.00  0.00     0.050 C 
HETATM    6  C9  UNL     1      21.479  44.760  54.920  1.00  0.00    -0.022 C 
HETATM    7  C10 UNL     1      20.350  44.088  55.075  1.00  0.00    -0.020 C 
HETATM    8  C11 UNL     1      20.655  42.658  55.345  1.00  0.00     0.070 C 
HETATM    9  C12 UNL     1      22.013  42.799  56.024  1.00  0.00     0.100 C 
ENDROOT
BRANCH   1  10
HETATM   10  N1  UNL     1      19.747  41.413  53.425  1.00  0.00    -0.331 N 
HETATM   11  C4  UNL     1      19.749  40.822  52.149  1.00  0.00     0.258 C 
HETATM   12  O1  UNL     1      20.814  40.757  51.504  1.00  0.00    -0.270 OA
ATOM     13  H1  UNL     1      18.869  41.459  53.942  1.00  0.00     0.165 HD
BRANCH  11  14
HETATM   14  C3  UNL     1      18.504  40.284  51.576  1.00  0.00     0.192 C 
HETATM   15 CL1  UNL     1      17.088  41.265  51.973  1.00  0.00    -0.091 Cl
HETATM   16 CL2  UNL     1      18.201  38.639  52.231  1.00  0.00    -0.091 Cl
BRANCH  14  17
HETATM   17  C2  UNL     1      18.582  40.220  50.048  1.00  0.00     0.048 C 
HETATM   18  C1  UNL     1      18.038  38.924  49.551  1.00  0.00     0.009 C 
ENDBRANCH  14  17
ENDBRANCH  11  14
ENDBRANCH   1  10
BRANCH   9  19
HETATM   19  C13 UNL     1      21.759  43.420  57.374  1.00  0.00     0.227 C 
HETATM   20  O3  UNL     1      22.563  44.245  57.849  1.00  0.00    -0.273 OA
HETATM   21  N2  UNL     1      20.597  43.043  58.074  1.00  0.00    -0.339 N 
ATOM     22  H2  UNL     1      19.989  42.375  57.602  1.00  0.00     0.167 HD
BRANCH  21  23
HETATM   23  C14 UNL     1      20.169  43.471  59.341  1.00  0.00     0.079 C 
BRANCH  23  24
HETATM   24  C15 UNL     1      18.736  43.380  59.726  1.00  0.00     0.159 C 
HETATM   25 CL3  UNL     1      18.400  43.024  61.404  1.00  0.00    -0.125 Cl
ENDBRANCH  23  24
ENDBRANCH  21  23
ENDBRANCH   9  19
TORSDOF 6
ENDMDL
MODEL 2
REMARK VINA RESULT: -6.727425430      4.075      6.917
REMARK  6 active torsions:
REMARK  status: ('A' for Active; 'I' for Inactive)
REMARK    1  A    between atoms: C2_2  and  C3_3 
REMARK    2  A    between atoms: C3_3  and  C4_6 
REMARK       I    between atoms: C4_6  and  N1_8 
REMARK    3  A    between atoms: N1_8  and  C5_10 
REMARK    4  A    between atoms: C12_18  and  C13_19 
REMARK       I    between atoms: C13_19  and  N2_21 
REMARK    5  A    between atoms: N2_21  and  C14_23 
REMARK    6  A    between atoms: C14_23  and  C15_24 
ROOT
HETATM    1  C5  UNL     1      23.761  43.749  54.712  1.00  0.00     0.232 C 
HETATM    2  O2  UNL     1      23.315  44.387  55.873  1.00  0.00    -0.360 OA
HETATM    3  C6  UNL     1      22.564  43.464  56.574  1.00  0.00     0.128 C 
HETATM    4  C7  UNL     1      22.305  43.832  57.994  1.00  0.00     0.040 C 
HETATM    5  C8  UNL     1      21.309  43.171  55.788  1.00  0.00     0.050 C 
HETATM    6  C9  UNL     1      20.881  44.443  55.122  1.00  0.00    -0.022 C 
HETATM    7  C10 UNL     1      21.585  44.624  54.017  1.00  0.00    -0.020 C 
HETATM    8  C11 UNL     1      22.541  43.498  53.846  1.00  0.00     0.070 C 
HETATM    9  C12 UNL     1      21.773  42.386  54.551  1.00  0.00     0.100 C 
ENDROOT
BRANCH   1  10
HETATM   10  N1  UNL     1      24.783  44.500  54.024  1.00  0.00    -0.331 N 
HETATM   11  C4  UNL     1      25.932  43.896  53.484  1.00  0.00     0.258 C 
HETATM   12  O1  UNL     1      26.088  42.664  53.595  1.00  0.00    -0.270 OA
ATOM     13  H1  UNL     1      24.668  45.509  53.926  1.00  0.00     0.165 HD
BRANCH  11  14
HETATM   14  C3  UNL     1      26.945  44.710  52.791  1.00  0.00     0.192 C 
HETATM   15 CL1  UNL     1      28.599  44.224  53.185  1.00  0.00    -0.091 Cl
HETATM   16 CL2  UNL     1      26.775  46.430  53.281  1.00  0.00    -0.091 Cl
BRANCH  14  17
HETATM   17  C2  UNL     1      26.801  44.594  51.271  1.00  0.00     0.048 C 
HETATM   18  C1  UNL     1      25.853  45.623  50.756  1.00  0.00     0.009 C 
ENDBRANCH  14  17
ENDBRANCH  11  14
ENDBRANCH   1  10
BRANCH   9  19
HETATM   19  C13 UNL     1      20.594  42.052  53.673  1.00  0.00     0.227 C 
HETATM   20  O3  UNL     1      19.455  41.937  54.166  1.00  0.00    -0.273 OA
HETATM   21  N2  UNL     1      20.816  41.875  52.294  1.00  0.00    -0.339 N 
ATOM     22  H2  UNL     1      21.777  42.005  51.978  1.00  0.00     0.167 HD
BRANCH  21  23
HETATM   23  C14 UNL     1      19.884  41.545  51.299  1.00  0.00     0.079 C 
BRANCH  23  24
HETATM   24  C15 UNL     1      19.613  40.124  50.958  1.00  0.00     0.159 C 
HETATM   25 CL3  UNL     1      18.638  39.220  52.095  1.00  0.00    -0.125 Cl
ENDBRANCH  23  24
ENDBRANCH  21  23
ENDBRANCH   9  19
TORSDOF 6
ENDMDL
MODEL 3
REMARK VINA RESULT: -6.706798755      1.702      6.952
REMARK  6 active torsions:
REMARK  status: ('A' for Active; 'I' for Inactive)
REMARK    1  A    between atoms: C2_2  and  C3_3 
REMARK    2  A    between atoms: C3_3  and  C4_6 
REMARK       I    between atoms: C4_6  and  N1_8 
REMARK    3  A    between atoms: N1_8  and  C5_10 
REMARK    4  A    between atoms: C12_18  and  C13_19 
REMARK       I    between atoms: C13_19  and  N2_21 
REMARK    5  A    between atoms: N2_21  and  C14_23 
REMARK    6  A    between atoms: C14_23  and  C15_24 
ROOT
HETATM    1  C5  UNL     1      21.572  44.083  56.425  1.00  0.00     0.232 C 
HETATM    2  O2  UNL     1      22.945  44.098  56.159  1.00  0.00    -0.360 OA
HETATM    3  C6  UNL     1      23.109  44.721  54.938  1.00  0.00     0.128 C 
HETATM    4  C7  UNL     1      24.505  45.154  54.650  1.00  0.00     0.040 C 
HETATM    5  C8  UNL     1      22.517  43.840  53.866  1.00  0.00     0.050 C 
HETATM    6  C9  UNL     1      22.774  42.416  54.253  1.00  0.00    -0.022 C 
HETATM    7  C10 UNL     1      21.871  42.025  55.136  1.00  0.00    -0.020 C 
HETATM    8  C11 UNL     1      20.934  43.145  55.418  1.00  0.00     0.070 C 
HETATM    9  C12 UNL     1      20.997  43.887  54.087  1.00  0.00     0.100 C 
ENDROOT
BRANCH   1  10
HETATM   10  N1  UNL     1      21.276  43.714  57.789  1.00  0.00    -0.331 N 
HETATM   11  C4  UNL     1      21.390  44.619  58.859  1.00  0.00     0.258 C 
HETATM   12  O1  UNL     1      21.759  45.789  58.637  1.00  0.00    -0.270 OA
ATOM     13  H1  UNL     1      20.973  42.760  57.984  1.00  0.00     0.165 HD
BRANCH  11  14
HETATM   14  C3  UNL     1      21.075  44.191  60.232  1.00  0.00     0.192 C 
HETATM   15 CL1  UNL     1      22.186  44.866  61.430  1.00  0.00    -0.091 Cl
HETATM   16 CL2  UNL     1      21.201  42.404  60.351  1.00  0.00    -0.091 Cl
BRANCH  14  17
HETATM   17  C2  UNL     1      19.666  44.633  60.639  1.00  0.00     0.048 C 
HETATM   18  C1  UNL     1      18.648  43.677  60.118  1.00  0.00     0.009 C 
ENDBRANCH  14  17
ENDBRANCH  11  14
ENDBRANCH   1  10
BRANCH   9  19
HETATM   19  C13 UNL     1      20.295  43.018  53.075  1.00  0.00     0.227 C 
HETATM   20  O3  UNL     1      20.826  42.782  51.972  1.00  0.00    -0.273 OA
HETATM   21  N2  UNL     1      19.035  42.487  53.410  1.00  0.00    -0.339 N 
ATOM     22  H2  UNL     1      18.687  42.719  54.340  1.00  0.00     0.167 HD
BRANCH  21  23
HETATM   23  C14 UNL     1      18.198  41.677  52.627  1.00  0.00     0.079 C 
BRANCH  23  24
HETATM   24  C15 UNL     1      18.634  40.319  52.209  1.00  0.00     0.159 C 
HETATM   25 CL3  UNL     1      17.368  39.155  51.890  1.00  0.00    -0.125 Cl
ENDBRANCH  23  24
ENDBRANCH  21  23
ENDBRANCH   9  19
TORSDOF 6
ENDMDL
MODEL 4
REMARK VINA RESULT: -6.698201142      0.752      1.022
REMARK  6 active torsions:
REMARK  status: ('A' for Active; 'I' for Inactive)
REMARK    1  A    between atoms: C2_2  and  C3_3 
REMARK    2  A    between atoms: C3_3  and  C4_6 
REMARK       I    between atoms: C4_6  and  N1_8 
REMARK    3  A    between atoms: N1_8  and  C5_10 
REMARK    4  A    between atoms: C12_18  and  C13_19 
REMARK       I    between atoms: C13_19  and  N2_21 
REMARK    5  A    between atoms: N2_21  and  C14_23 
REMARK    6  A    between atoms: C14_23  and  C15_24 
ROOT
HETATM    1  C5  UNL     1      20.956  41.972  54.013  1.00  0.00     0.232 C 
HETATM    2  O2  UNL     1      21.604  42.896  53.188  1.00  0.00    -0.360 OA
HETATM    3  C6  UNL     1      22.848  43.126  53.742  1.00  0.00     0.128 C 
HETATM    4  C7  UNL     1      23.815  43.795  52.829  1.00  0.00     0.040 C 
HETATM    5  C8  UNL     1      22.663  43.844  55.056  1.00  0.00     0.050 C 
HETATM    6  C9  UNL     1      21.497  44.774  54.907  1.00  0.00    -0.022 C 
HETATM    7  C10 UNL     1      20.369  44.102  55.064  1.00  0.00    -0.020 C 
HETATM    8  C11 UNL     1      20.676  42.671  55.330  1.00  0.00     0.070 C 
HETATM    9  C12 UNL     1      22.036  42.810  56.005  1.00  0.00     0.100 C 
ENDROOT
BRANCH   1  10
HETATM   10  N1  UNL     1      19.763  41.430  53.409  1.00  0.00    -0.331 N 
HETATM   11  C4  UNL     1      19.765  40.827  52.138  1.00  0.00     0.258 C 
HETATM   12  O1  UNL     1      20.831  40.750  51.497  1.00  0.00    -0.270 OA
ATOM     13  H1  UNL     1      18.884  41.487  53.923  1.00  0.00     0.165 HD
BRANCH  11  14
HETATM   14  C3  UNL     1      18.518  40.291  51.568  1.00  0.00     0.192 C 
HETATM   15 CL1  UNL     1      18.503  40.328  49.800  1.00  0.00    -0.091 Cl
HETATM   16 CL2  UNL     1      17.126  41.279  52.123  1.00  0.00    -0.091 Cl
BRANCH  14  17
HETATM   17  C2  UNL     1      18.306  38.830  51.981  1.00  0.00     0.048 C 
HETATM   18  C1  UNL     1      18.250  37.951  50.778  1.00  0.00     0.009 C 
ENDBRANCH  14  17
ENDBRANCH  11  14
ENDBRANCH   1  10
BRANCH   9  19
HETATM   19  C13 UNL     1      21.785  43.427  57.357  1.00  0.00     0.227 C 
HETATM   20  O3  UNL     1      22.591  44.251  57.833  1.00  0.00    -0.273 OA
HETATM   21  N2  UNL     1      20.624  43.050  58.059  1.00  0.00    -0.339 N 
ATOM     22  H2  UNL     1      20.015  42.384  57.586  1.00  0.00     0.167 HD
BRANCH  21  23
HETATM   23  C14 UNL     1      20.199  43.475  59.328  1.00  0.00     0.079 C 
BRANCH  23  24
HETATM   24  C15 UNL     1      18.773  43.354  59.727  1.00  0.00     0.159 C 
HETATM   25 CL3  UNL     1      18.460  43.027  61.416  1.00  0.00    -0.125 Cl
ENDBRANCH  23  24
ENDBRANCH  21  23
ENDBRANCH   9  19
TORSDOF 6
ENDMDL
MODEL 5
REMARK VINA RESULT: -6.641425029      2.021      7.253
REMARK  6 active torsions:
REMARK  status: ('A' for Active; 'I' for Inactive)
REMARK    1  A    between atoms: C2_2  and  C3_3 
REMARK    2  A    between atoms: C3_3  and  C4_6 
REMARK       I    between atoms: C4_6  and  N1_8 
REMARK    3  A    between atoms: N1_8  and  C5_10 
REMARK    4  A    between atoms: C12_18  and  C13_19 
REMARK       I    between atoms: C13_19  and  N2_21 
REMARK    5  A    between atoms: N2_21  and  C14_23 
REMARK    6  A    between atoms: C14_23  and  C15_24 
ROOT
HETATM    1  C5  UNL     1      21.953  44.218  56.688  1.00  0.00     0.232 C 
HETATM    2  O2  UNL     1      23.256  44.166  56.184  1.00  0.00    -0.360 OA
HETATM    3  C6  UNL     1      23.229  44.772  54.943  1.00  0.00     0.128 C 
HETATM    4  C7  UNL     1      24.570  45.136  54.407  1.00  0.00     0.040 C 
HETATM    5  C8  UNL     1      22.418  43.913  54.006  1.00  0.00     0.050 C 
HETATM    6  C9  UNL     1      22.674  42.480  54.364  1.00  0.00    -0.022 C 
HETATM    7  C10 UNL     1      21.924  42.139  55.399  1.00  0.00    -0.020 C 
HETATM    8  C11 UNL     1      21.104  43.305  55.824  1.00  0.00     0.070 C 
HETATM    9  C12 UNL     1      20.965  44.033  54.492  1.00  0.00     0.100 C 
ENDROOT
BRANCH   1  10
HETATM   10  N1  UNL     1      21.887  43.874  58.089  1.00  0.00    -0.331 N 
HETATM   11  C4  UNL     1      21.698  44.837  59.096  1.00  0.00     0.258 C 
HETATM   12  O1  UNL     1      21.582  46.038  58.783  1.00  0.00    -0.270 OA
ATOM     13  H1  UNL     1      21.980  42.895  58.358  1.00  0.00     0.165 HD
BRANCH  11  14
HETATM   14  C3  UNL     1      21.638  44.432  60.510  1.00  0.00     0.192 C 
HETATM   15 CL1  UNL     1      23.021  45.011  61.447  1.00  0.00    -0.091 Cl
HETATM   16 CL2  UNL     1      21.642  42.639  60.625  1.00  0.00    -0.091 Cl
BRANCH  14  17
HETATM   17  C2  UNL     1      20.382  44.985  61.190  1.00  0.00     0.048 C 
HETATM   18  C1  UNL     1      19.162  44.308  60.664  1.00  0.00     0.009 C 
ENDBRANCH  14  17
ENDBRANCH  11  14
ENDBRANCH   1  10
BRANCH   9  19
HETATM   19  C13 UNL     1      20.055  43.192  53.633  1.00  0.00     0.227 C 
HETATM   20  O3  UNL     1      18.966  42.785  54.082  1.00  0.00    -0.273 OA
HETATM   21  N2  UNL     1      20.469  42.883  52.324  1.00  0.00    -0.339 N 
ATOM     22  H2  UNL     1      21.367  43.272  52.037  1.00  0.00     0.167 HD
BRANCH  21  23
HETATM   23  C14 UNL     1      19.802  42.108  51.362  1.00  0.00     0.079 C 
BRANCH  23  24
HETATM   24  C15 UNL     1      20.088  40.655  51.231  1.00  0.00     0.159 C 
HETATM   25 CL3  UNL     1      19.095  39.575  52.182  1.00  0.00    -0.125 Cl
ENDBRANCH  23  24
ENDBRANCH  21  23
ENDBRANCH   9  19
TORSDOF 6
ENDMDL
