MODEL 1
REMARK VINA RESULT: -7.350234922      0.000      0.000
REMARK  5 active torsions:
REMARK  status: ('A' for Active; 'I' for Inactive)
REMARK    1  A    between atoms: C2_2  and  N1_3 
REMARK    2  A    between atoms: C2_2  and  C11_17 
REMARK       I    between atoms: N1_3  and  C3_5 
REMARK    3  A    between atoms: C3_5  and  C4_7 
REMARK    4  A    between atoms: C4_7  and  N2_8 
REMARK    5  A    between atoms: C8_12  and  C9_13 
ROOT
HETATM    1  N1  UNL     1      20.570  43.541  56.218  1.00  0.00    -0.349 N 
ATOM      2  H1  UNL     1      19.758  44.109  56.461  1.00  0.00     0.163 HD
HETATM    3  C3  UNL     1      20.516  42.794  55.011  1.00  0.00     0.257 C 
HETATM    4  O1  UNL     1      21.510  42.097  54.715  1.00  0.00    -0.267 OA
ENDROOT
BRANCH   1   5
HETATM    5  C2  UNL     1      21.676  43.552  57.114  1.00  0.00     0.121 C 
HETATM    6  C1  UNL     1      21.148  43.335  58.549  1.00  0.00     0.036 C 
BRANCH   5   7
HETATM    7  C11 UNL     1      22.509  44.772  57.156  1.00  0.00     0.136 C 
HETATM    8  F1  UNL     1      22.273  45.456  58.359  1.00  0.00    -0.240 F 
HETATM    9  C12 UNL     1      22.351  45.739  56.005  1.00  0.00     0.089 C 
HETATM   10  C13 UNL     1      23.806  46.136  56.275  1.00  0.00     0.126 C 
HETATM   11 CL1  UNL     1      24.774  46.371  54.815  1.00  0.00    -0.101 Cl
HETATM   12 CL2  UNL     1      23.928  47.457  57.429  1.00  0.00    -0.101 Cl
HETATM   13  C14 UNL     1      23.958  44.733  56.890  1.00  0.00     0.026 C 
HETATM   14  C15 UNL     1      24.519  43.826  55.853  1.00  0.00     0.021 C 
HETATM   15  C16 UNL     1      24.872  44.819  58.095  1.00  0.00     0.021 C 
ENDBRANCH   5   7
ENDBRANCH   1   5
BRANCH   3  16
HETATM   16  C4  UNL     1      19.357  42.798  54.096  1.00  0.00     0.160 C 
BRANCH  16  17
HETATM   17  N2  UNL     1      19.540  41.989  52.962  1.00  0.00    -0.385 N 
HETATM   18  C5  UNL     1      19.829  42.603  51.719  1.00  0.00     0.122 C 
HETATM   19  C6  UNL     1      20.569  41.705  50.754  1.00  0.00     0.021 C 
HETATM   20  C7  UNL     1      20.132  40.263  50.875  1.00  0.00     0.019 C 
HETATM   21  C8  UNL     1      18.733  40.243  51.470  1.00  0.00     0.105 C 
HETATM   22  C10 UNL     1      18.882  40.736  52.903  1.00  0.00     0.137 C 
BRANCH  21  23
HETATM   23  C9  UNL     1      18.226  38.865  51.490  1.00  0.00     0.178 C 
HETATM   24  O2  UNL     1      17.408  38.453  52.363  1.00  0.00    -0.648 OA
HETATM   25  O3  UNL     1      18.633  37.948  50.540  1.00  0.00    -0.648 OA
ENDBRANCH  21  23
ENDBRANCH  16  17
ENDBRANCH   3  16
TORSDOF 5
ENDMDL
MODEL 2
REMARK VINA RESULT: -7.032356572      1.441      1.750
REMARK  5 active torsions:
REMARK  status: ('A' for Active; 'I' for Inactive)
REMARK    1  A    between atoms: C2_2  and  N1_3 
REMARK    2  A    between atoms: C2_2  and  C11_17 
REMARK       I    between atoms: N1_3  and  C3_5 
REMARK    3  A    between atoms: C3_5  and  C4_7 
REMARK    4  A    between atoms: C4_7  and  N2_8 
REMARK    5  A    between atoms: C8_12  and  C9_13 
ROOT
HETATM    1  N1  UNL     1      21.089  44.251  55.561  1.00  0.00    -0.349 N 
ATOM      2  H1  UNL     1      20.496  45.060  55.376  1.00  0.00     0.163 HD
HETATM    3  C3  UNL     1      20.661  42.991  55.064  1.00  0.00     0.257 C 
HETATM    4  O1  UNL     1      21.387  42.000  55.292  1.00  0.00    -0.267 OA
ENDROOT
BRANCH   1   5
HETATM    5  C2  UNL     1      22.288  44.465  56.299  1.00  0.00     0.121 C 
HETATM    6  C1  UNL     1      21.982  45.437  57.460  1.00  0.00     0.036 C 
BRANCH   5   7
HETATM    7  C11 UNL     1      23.444  45.032  55.574  1.00  0.00     0.136 C 
HETATM    8  F1  UNL     1      23.149  46.348  55.183  1.00  0.00    -0.240 F 
HETATM    9  C12 UNL     1      23.930  44.261  54.368  1.00  0.00     0.089 C 
HETATM   10  C13 UNL     1      25.310  44.854  54.675  1.00  0.00     0.126 C 
HETATM   11 CL1  UNL     1      26.645  43.711  54.488  1.00  0.00    -0.101 Cl
HETATM   12 CL2  UNL     1      25.568  46.388  53.857  1.00  0.00    -0.101 Cl
HETATM   13  C14 UNL     1      24.809  44.978  56.125  1.00  0.00     0.026 C 
HETATM   14  C15 UNL     1      25.279  43.789  56.885  1.00  0.00     0.021 C 
HETATM   15  C16 UNL     1      25.350  46.259  56.725  1.00  0.00     0.021 C 
ENDBRANCH   5   7
ENDBRANCH   1   5
BRANCH   3  16
HETATM   16  C4  UNL     1      19.413  42.792  54.301  1.00  0.00     0.160 C 
BRANCH  16  17
HETATM   17  N2  UNL     1      19.591  42.034  53.131  1.00  0.00    -0.385 N 
HETATM   18  C5  UNL     1      19.822  42.706  51.905  1.00  0.00     0.122 C 
HETATM   19  C6  UNL     1      20.563  41.872  50.886  1.00  0.00     0.021 C 
HETATM   20  C7  UNL     1      20.181  40.412  50.962  1.00  0.00     0.019 C 
HETATM   21  C8  UNL     1      18.801  40.319  51.594  1.00  0.00     0.105 C 
HETATM   22  C10 UNL     1      18.976  40.761  53.041  1.00  0.00     0.137 C 
BRANCH  21  23
HETATM   23  C9  UNL     1      18.344  38.923  51.575  1.00  0.00     0.178 C 
HETATM   24  O2  UNL     1      17.554  38.453  52.446  1.00  0.00    -0.648 OA
HETATM   25  O3  UNL     1      18.767  38.054  50.588  1.00  0.00    -0.648 OA
ENDBRANCH  21  23
ENDBRANCH  16  17
ENDBRANCH   3  16
TORSDOF 5
ENDMDL
MODEL 3
REMARK VINA RESULT: -6.899225795      2.496      3.458
REMARK  5 active torsions:
REMARK  status: ('A' for Active; 'I' for Inactive)
REMARK    1  A    between atoms: C2_2  and  N1_3 
REMARK    2  A    between atoms: C2_2  and  C11_17 
REMARK       I    between atoms: N1_3  and  C3_5 
REMARK    3  A    between atoms: C3_5  and  C4_7 
REMARK    4  A    between atoms: C4_7  and  N2_8 
REMARK    5  A    between atoms: C8_12  and  C9_13 
ROOT
HETATM    1  N1  UNL     1      23.278  43.579  55.690  1.00  0.00    -0.349 N 
ATOM      2  H1  UNL     1      23.788  42.696  55.680  1.00  0.00     0.163 HD
HETATM    3  C3  UNL     1      22.473  43.890  54.562  1.00  0.00     0.257 C 
HETATM    4  O1  UNL     1      21.849  44.973  54.574  1.00  0.00    -0.267 OA
ENDROOT
BRANCH   1   5
HETATM    5  C2  UNL     1      23.425  44.414  56.834  1.00  0.00     0.121 C 
HETATM    6  C1  UNL     1      24.931  44.661  57.072  1.00  0.00     0.036 C 
BRANCH   5   7
HETATM    7  C11 UNL     1      22.875  43.920  58.114  1.00  0.00     0.136 C 
HETATM    8  F1  UNL     1      23.790  43.033  58.702  1.00  0.00    -0.240 F 
HETATM    9  C12 UNL     1      21.518  43.256  58.057  1.00  0.00     0.089 C 
HETATM   10  C13 UNL     1      21.337  43.740  59.500  1.00  0.00     0.126 C 
HETATM   11 CL1  UNL     1      19.722  44.365  59.854  1.00  0.00    -0.101 Cl
HETATM   12 CL2  UNL     1      21.916  42.562  60.670  1.00  0.00    -0.101 Cl
HETATM   13  C14 UNL     1      22.353  44.839  59.141  1.00  0.00     0.026 C 
HETATM   14  C15 UNL     1      21.601  46.064  58.759  1.00  0.00     0.021 C 
HETATM   15  C16 UNL     1      23.245  45.095  60.339  1.00  0.00     0.021 C 
ENDBRANCH   5   7
ENDBRANCH   1   5
BRANCH   3  16
HETATM   16  C4  UNL     1      22.336  43.008  53.385  1.00  0.00     0.160 C 
BRANCH  16  17
HETATM   17  N2  UNL     1      21.022  42.552  53.182  1.00  0.00    -0.385 N 
HETATM   18  C5  UNL     1      20.166  42.402  54.300  1.00  0.00     0.122 C 
HETATM   19  C6  UNL     1      18.697  42.496  53.957  1.00  0.00     0.021 C 
HETATM   20  C7  UNL     1      18.391  41.897  52.604  1.00  0.00     0.019 C 
HETATM   21  C8  UNL     1      19.487  40.895  52.274  1.00  0.00     0.105 C 
HETATM   22  C10 UNL     1      20.754  41.715  52.071  1.00  0.00     0.137 C 
BRANCH  21  23
HETATM   23  C9  UNL     1      19.160  40.204  51.020  1.00  0.00     0.178 C 
HETATM   24  O2  UNL     1      20.026  39.575  50.344  1.00  0.00    -0.648 OA
HETATM   25  O3  UNL     1      17.872  40.215  50.521  1.00  0.00    -0.648 OA
ENDBRANCH  21  23
ENDBRANCH  16  17
ENDBRANCH   3  16
TORSDOF 5
ENDMDL
MODEL 4
REMARK VINA RESULT: -6.884545573      1.714      2.453
REMARK  5 active torsions:
REMARK  status: ('A' for Active; 'I' for Inactive)
REMARK    1  A    between atoms: C2_2  and  N1_3 
REMARK    2  A    between atoms: C2_2  and  C11_17 
REMARK       I    between atoms: N1_3  and  C3_5 
REMARK    3  A    between atoms: C3_5  and  C4_7 
REMARK    4  A    between atoms: C4_7  and  N2_8 
REMARK    5  A    between atoms: C8_12  and  C9_13 
ROOT
HETATM    1  N1  UNL     1      22.092  42.738  54.563  1.00  0.00    -0.349 N 
ATOM      2  H1  UNL     1      22.288  41.759  54.773  1.00  0.00     0.163 HD
HETATM    3  C3  UNL     1      20.766  43.081  54.189  1.00  0.00     0.257 C 
HETATM    4  O1  UNL     1      20.527  44.281  53.930  1.00  0.00    -0.267 OA
ENDROOT
BRANCH   1   5
HETATM    5  C2  UNL     1      23.170  43.664  54.665  1.00  0.00     0.121 C 
HETATM    6  C1  UNL     1      24.412  43.048  53.984  1.00  0.00     0.036 C 
BRANCH   5   7
HETATM    7  C11 UNL     1      23.595  44.069  56.021  1.00  0.00     0.136 C 
HETATM    8  F1  UNL     1      24.879  43.562  56.277  1.00  0.00    -0.240 F 
HETATM    9  C12 UNL     1      22.681  43.683  57.161  1.00  0.00     0.089 C 
HETATM   10  C13 UNL     1      23.224  44.923  57.879  1.00  0.00     0.126 C 
HETATM   11 CL1  UNL     1      21.996  45.850  58.748  1.00  0.00    -0.101 Cl
HETATM   12 CL2  UNL     1      24.652  44.559  58.838  1.00  0.00    -0.101 Cl
HETATM   13  C14 UNL     1      23.522  45.470  56.471  1.00  0.00     0.026 C 
HETATM   14  C15 UNL     1      22.391  46.345  56.062  1.00  0.00     0.021 C 
HETATM   15  C16 UNL     1      24.825  46.241  56.508  1.00  0.00     0.021 C 
ENDBRANCH   5   7
ENDBRANCH   1   5
BRANCH   3  16
HETATM   16  C4  UNL     1      19.663  42.104  54.090  1.00  0.00     0.160 C 
BRANCH  16  17
HETATM   17  N2  UNL     1      19.677  41.369  52.891  1.00  0.00    -0.385 N 
HETATM   18  C5  UNL     1      19.897  42.051  51.670  1.00  0.00     0.122 C 
HETATM   19  C6  UNL     1      20.471  41.176  50.580  1.00  0.00     0.021 C 
HETATM   20  C7  UNL     1      19.936  39.764  50.646  1.00  0.00     0.019 C 
HETATM   21  C8  UNL     1      18.600  39.800  51.373  1.00  0.00     0.105 C 
HETATM   22  C10 UNL     1      18.920  40.174  52.814  1.00  0.00     0.137 C 
BRANCH  21  23
HETATM   23  C9  UNL     1      17.992  38.464  51.351  1.00  0.00     0.178 C 
HETATM   24  O2  UNL     1      18.107  37.680  50.364  1.00  0.00    -0.648 OA
HETATM   25  O3  UNL     1      17.256  38.004  52.426  1.00  0.00    -0.648 OA
ENDBRANCH  21  23
ENDBRANCH  16  17
ENDBRANCH   3  16
TORSDOF 5
ENDMDL
MODEL 5
REMARK VINA RESULT: -6.695621120      1.316      1.823
REMARK  5 active torsions:
REMARK  status: ('A' for Active; 'I' for Inactive)
REMARK    1  A    between atoms: C2_2  and  N1_3 
REMARK    2  A    between atoms: C2_2  and  C11_17 
REMARK       I    between atoms: N1_3  and  C3_5 
REMARK    3  A    between atoms: C3_5  and  C4_7 
REMARK    4  A    between atoms: C4_7  and  N2_8 
REMARK    5  A    between atoms: C8_12  and  C9_13 
ROOT
HETATM    1  N1  UNL     1      22.028  43.742  55.228  1.00  0.00    -0.349 N 
ATOM      2  H1  UNL     1      21.196  44.305  55.050  1.00  0.00     0.163 HD
HETATM    3  C3  UNL     1      22.565  42.997  54.145  1.00  0.00     0.257 C 
HETATM    4  O1  UNL     1      23.583  42.307  54.363  1.00  0.00    -0.267 OA
ENDROOT
BRANCH   1   5
HETATM    5  C2  UNL     1      22.568  43.759  56.546  1.00  0.00     0.121 C 
HETATM    6  C1  UNL     1      21.454  43.359  57.538  1.00  0.00     0.036 C 
BRANCH   5   7
HETATM    7  C11 UNL     1      23.127  45.035  57.038  1.00  0.00     0.136 C 
HETATM    8  F1  UNL     1      22.387  45.469  58.150  1.00  0.00    -0.240 F 
HETATM    9  C12 UNL     1      23.216  46.165  56.039  1.00  0.00     0.089 C 
HETATM   10  C13 UNL     1      24.408  46.663  56.865  1.00  0.00     0.126 C 
HETATM   11 CL1  UNL     1      25.763  47.252  55.896  1.00  0.00    -0.101 Cl
HETATM   12 CL2  UNL     1      23.913  47.767  58.141  1.00  0.00    -0.101 Cl
HETATM   13  C14 UNL     1      24.566  45.198  57.312  1.00  0.00     0.026 C 
HETATM   14  C15 UNL     1      25.586  44.552  56.443  1.00  0.00     0.021 C 
HETATM   15  C16 UNL     1      24.988  45.170  58.766  1.00  0.00     0.021 C 
ENDBRANCH   5   7
ENDBRANCH   1   5
BRANCH   3  16
HETATM   16  C4  UNL     1      21.987  42.996  52.786  1.00  0.00     0.160 C 
BRANCH  16  17
HETATM   17  N2  UNL     1      20.714  42.403  52.722  1.00  0.00    -0.385 N 
HETATM   18  C5  UNL     1      19.911  42.377  53.888  1.00  0.00     0.122 C 
HETATM   19  C6  UNL     1      18.429  42.287  53.602  1.00  0.00     0.021 C 
HETATM   20  C7  UNL     1      18.138  41.440  52.385  1.00  0.00     0.019 C 
HETATM   21  C8  UNL     1      19.308  40.492  52.179  1.00  0.00     0.105 C 
HETATM   22  C10 UNL     1      20.489  41.368  51.782  1.00  0.00     0.137 C 
BRANCH  21  23
HETATM   23  C9  UNL     1      19.007  39.570  51.077  1.00  0.00     0.178 C 
HETATM   24  O2  UNL     1      19.793  39.398  50.099  1.00  0.00    -0.648 OA
HETATM   25  O3  UNL     1      17.832  38.843  51.063  1.00  0.00    -0.648 OA
ENDBRANCH  21  23
ENDBRANCH  16  17
ENDBRANCH   3  16
TORSDOF 5
ENDMDL
