MODEL 1
REMARK VINA RESULT: -7.881378631      0.000      0.000
REMARK  6 active torsions:
REMARK  status: ('A' for Active; 'I' for Inactive)
REMARK    1  A    between atoms: C1_2  and  C2_4 
REMARK    2  A    between atoms: N2_7  and  C5_8 
REMARK    3  A    between atoms: C8_11  and  N3_12 
REMARK       I    between atoms: N3_12  and  C9_14 
REMARK    4  A    between atoms: C9_14  and  C10_16 
REMARK    5  A    between atoms: C10_16  and  C11_17 
REMARK    6  A    between atoms: C11_17  and  C12_19 
ROOT
HETATM    1  C5  UNL     1      20.914  42.893  53.149  1.00  0.00     0.079 C 
HETATM    2  C6  UNL     1      22.206  42.218  53.564  1.00  0.00     0.027 C 
HETATM    3  C7  UNL     1      23.162  43.257  54.088  1.00  0.00     0.027 C 
HETATM    4  C8  UNL     1      22.565  44.155  55.128  1.00  0.00     0.084 C 
HETATM    5  C13 UNL     1      21.200  44.685  54.756  1.00  0.00     0.027 C 
HETATM    6  C14 UNL     1      20.317  43.507  54.393  1.00  0.00     0.027 C 
ENDROOT
BRANCH   4   7
HETATM    7  N3  UNL     1      22.524  43.463  56.371  1.00  0.00    -0.353 N 
HETATM    8  C9  UNL     1      22.750  44.195  57.604  1.00  0.00     0.243 C 
HETATM    9  O2  UNL     1      22.967  45.405  57.449  1.00  0.00    -0.269 OA
ATOM     10  H3  UNL     1      22.336  42.461  56.395  1.00  0.00     0.163 HD
BRANCH   8  11
HETATM   11  C10 UNL     1      22.689  43.409  58.819  1.00  0.00     0.101 C 
BRANCH  11  12
HETATM   12  C11 UNL     1      21.550  43.394  59.704  1.00  0.00     0.089 C 
HETATM   13 CL1  UNL     1      21.661  42.054  60.952  1.00  0.00    -0.080 Cl
BRANCH  12  14
HETATM   14  C12 UNL     1      20.486  44.125  59.792  1.00  0.00     0.207 C 
HETATM   15  F1  UNL     1      20.386  45.447  59.970  1.00  0.00    -0.191 F 
HETATM   16 CL2  UNL     1      18.879  43.322  59.664  1.00  0.00    -0.050 Cl
ENDBRANCH  12  14
ENDBRANCH  11  12
ENDBRANCH   8  11
ENDBRANCH   4   7
BRANCH   1  17
HETATM   17  N2  UNL     1      20.044  42.115  52.379  1.00  0.00    -0.408 N 
HETATM   18  C4  UNL     1      20.432  41.693  51.094  1.00  0.00     0.118 C 
HETATM   19  C3  UNL     1      20.041  40.219  50.944  1.00  0.00     0.033 C 
HETATM   20  C2  UNL     1      19.020  39.868  51.989  1.00  0.00     0.078 C 
HETATM   21  C16 UNL     1      17.973  40.973  52.166  1.00  0.00     0.033 C 
HETATM   22  C15 UNL     1      18.647  42.298  52.523  1.00  0.00     0.118 C 
BRANCH  20  23
HETATM   23  C1  UNL     1      18.289  38.628  51.707  1.00  0.00     0.235 C 
HETATM   24  N1  UNL     1      18.599  37.887  50.563  1.00  0.00    -0.062 NA
HETATM   25  O1  UNL     1      17.397  38.243  52.486  1.00  0.00    -0.277 OA
ENDBRANCH  20  23
ENDBRANCH   1  17
TORSDOF 6
ENDMDL
MODEL 2
REMARK VINA RESULT: -7.809194127      4.438      5.305
REMARK  6 active torsions:
REMARK  status: ('A' for Active; 'I' for Inactive)
REMARK    1  A    between atoms: C1_2  and  C2_4 
REMARK    2  A    between atoms: N2_7  and  C5_8 
REMARK    3  A    between atoms: C8_11  and  N3_12 
REMARK       I    between atoms: N3_12  and  C9_14 
REMARK    4  A    between atoms: C9_14  and  C10_16 
REMARK    5  A    between atoms: C10_16  and  C11_17 
REMARK    6  A    between atoms: C11_17  and  C12_19 
ROOT
HETATM    1  C5  UNL     1      21.095  42.686  53.757  1.00  0.00     0.079 C 
HETATM    2  C6  UNL     1      20.915  44.176  53.964  1.00  0.00     0.027 C 
HETATM    3  C7  UNL     1      21.709  44.609  55.167  1.00  0.00     0.027 C 
HETATM    4  C8  UNL     1      23.135  44.149  55.146  1.00  0.00     0.084 C 
HETATM    5  C13 UNL     1      23.294  42.693  54.775  1.00  0.00     0.027 C 
HETATM    6  C14 UNL     1      22.560  42.453  53.472  1.00  0.00     0.027 C 
ENDROOT
BRANCH   4   7
HETATM    7  N3  UNL     1      23.879  44.985  54.266  1.00  0.00    -0.353 N 
HETATM    8  C9  UNL     1      25.174  45.489  54.684  1.00  0.00     0.243 C 
HETATM    9  O2  UNL     1      25.523  45.128  55.817  1.00  0.00    -0.269 OA
ATOM     10  H3  UNL     1      23.505  45.227  53.349  1.00  0.00     0.163 HD
BRANCH   8  11
HETATM   11  C10 UNL     1      25.858  46.331  53.725  1.00  0.00     0.101 C 
BRANCH  11  12
HETATM   12  C11 UNL     1      26.052  45.970  52.341  1.00  0.00     0.089 C 
HETATM   13 CL1  UNL     1      26.725  44.274  52.156  1.00  0.00    -0.080 Cl
BRANCH  12  14
HETATM   14  C12 UNL     1      25.849  46.594  51.226  1.00  0.00     0.207 C 
HETATM   15  F1  UNL     1      25.712  46.091  49.994  1.00  0.00    -0.191 F 
HETATM   16 CL2  UNL     1      25.718  48.390  51.257  1.00  0.00    -0.050 Cl
ENDBRANCH  12  14
ENDBRANCH  11  12
ENDBRANCH   8  11
ENDBRANCH   4   7
BRANCH   1  17
HETATM   17  N2  UNL     1      20.200  42.085  52.866  1.00  0.00    -0.408 N 
HETATM   18  C4  UNL     1      20.576  41.880  51.525  1.00  0.00     0.118 C 
HETATM   19  C3  UNL     1      20.134  40.470  51.122  1.00  0.00     0.033 C 
HETATM   20  C2  UNL     1      19.099  39.977  52.094  1.00  0.00     0.078 C 
HETATM   21  C16 UNL     1      18.091  41.070  52.465  1.00  0.00     0.033 C 
HETATM   22  C15 UNL     1      18.810  42.288  53.045  1.00  0.00     0.118 C 
BRANCH  20  23
HETATM   23  C1  UNL     1      18.326  38.831  51.603  1.00  0.00     0.235 C 
HETATM   24  N1  UNL     1      18.581  38.322  50.326  1.00  0.00    -0.062 NA
HETATM   25  O1  UNL     1      17.448  38.321  52.323  1.00  0.00    -0.277 OA
ENDBRANCH  20  23
ENDBRANCH   1  17
TORSDOF 6
ENDMDL
MODEL 3
REMARK VINA RESULT: -7.702103819      4.382      5.216
REMARK  6 active torsions:
REMARK  status: ('A' for Active; 'I' for Inactive)
REMARK    1  A    between atoms: C1_2  and  C2_4 
REMARK    2  A    between atoms: N2_7  and  C5_8 
REMARK    3  A    between atoms: C8_11  and  N3_12 
REMARK       I    between atoms: N3_12  and  C9_14 
REMARK    4  A    between atoms: C9_14  and  C10_16 
REMARK    5  A    between atoms: C10_16  and  C11_17 
REMARK    6  A    between atoms: C11_17  and  C12_19 
ROOT
HETATM    1  C5  UNL     1      21.180  42.683  53.868  1.00  0.00     0.079 C 
HETATM    2  C6  UNL     1      20.851  44.068  54.388  1.00  0.00     0.027 C 
HETATM    3  C7  UNL     1      21.697  44.356  55.599  1.00  0.00     0.027 C 
HETATM    4  C8  UNL     1      23.158  44.099  55.390  1.00  0.00     0.084 C 
HETATM    5  C13 UNL     1      23.448  42.776  54.719  1.00  0.00     0.027 C 
HETATM    6  C14 UNL     1      22.629  42.702  53.445  1.00  0.00     0.027 C 
ENDROOT
BRANCH   4   7
HETATM    7  N3  UNL     1      23.719  45.179  54.652  1.00  0.00    -0.353 N 
HETATM    8  C9  UNL     1      25.063  45.633  54.960  1.00  0.00     0.243 C 
HETATM    9  O2  UNL     1      25.617  45.009  55.876  1.00  0.00    -0.269 OA
ATOM     10  H3  UNL     1      23.181  45.631  53.913  1.00  0.00     0.163 HD
BRANCH   8  11
HETATM   11  C10 UNL     1      25.550  46.737  54.160  1.00  0.00     0.101 C 
BRANCH  11  12
HETATM   12  C11 UNL     1      25.794  46.648  52.740  1.00  0.00     0.089 C 
HETATM   13 CL1  UNL     1      25.877  48.300  51.948  1.00  0.00    -0.080 Cl
BRANCH  12  14
HETATM   14  C12 UNL     1      25.964  45.653  51.931  1.00  0.00     0.207 C 
HETATM   15  F1  UNL     1      26.259  44.380  52.213  1.00  0.00    -0.191 F 
HETATM   16 CL2  UNL     1      25.792  45.947  50.162  1.00  0.00    -0.050 Cl
ENDBRANCH  12  14
ENDBRANCH  11  12
ENDBRANCH   8  11
ENDBRANCH   4   7
BRANCH   1  17
HETATM   17  N2  UNL     1      20.282  42.156  52.934  1.00  0.00    -0.408 N 
HETATM   18  C4  UNL     1      20.683  41.981  51.597  1.00  0.00     0.118 C 
HETATM   19  C3  UNL     1      20.186  40.608  51.133  1.00  0.00     0.033 C 
HETATM   20  C2  UNL     1      19.104  40.132  52.060  1.00  0.00     0.078 C 
HETATM   21  C16 UNL     1      18.139  41.258  52.445  1.00  0.00     0.033 C 
HETATM   22  C15 UNL     1      18.899  42.420  53.086  1.00  0.00     0.118 C 
BRANCH  20  23
HETATM   23  C1  UNL     1      18.291  39.042  51.509  1.00  0.00     0.235 C 
HETATM   24  N1  UNL     1      18.655  38.455  50.294  1.00  0.00    -0.062 NA
HETATM   25  O1  UNL     1      17.284  38.647  52.125  1.00  0.00    -0.277 OA
ENDBRANCH  20  23
ENDBRANCH   1  17
TORSDOF 6
ENDMDL
MODEL 4
REMARK VINA RESULT: -7.526579743      3.770      4.368
REMARK  6 active torsions:
REMARK  status: ('A' for Active; 'I' for Inactive)
REMARK    1  A    between atoms: C1_2  and  C2_4 
REMARK    2  A    between atoms: N2_7  and  C5_8 
REMARK    3  A    between atoms: C8_11  and  N3_12 
REMARK       I    between atoms: N3_12  and  C9_14 
REMARK    4  A    between atoms: C9_14  and  C10_16 
REMARK    5  A    between atoms: C10_16  and  C11_17 
REMARK    6  A    between atoms: C11_17  and  C12_19 
ROOT
HETATM    1  C5  UNL     1      20.501  42.924  54.211  1.00  0.00     0.079 C 
HETATM    2  C6  UNL     1      21.297  44.152  53.819  1.00  0.00     0.027 C 
HETATM    3  C7  UNL     1      21.672  44.917  55.061  1.00  0.00     0.027 C 
HETATM    4  C8  UNL     1      22.311  44.070  56.120  1.00  0.00     0.084 C 
HETATM    5  C13 UNL     1      21.583  42.771  56.374  1.00  0.00     0.027 C 
HETATM    6  C14 UNL     1      21.411  42.057  55.048  1.00  0.00     0.027 C 
ENDROOT
BRANCH   4   7
HETATM    7  N3  UNL     1      23.670  43.835  55.768  1.00  0.00    -0.353 N 
HETATM    8  C9  UNL     1      24.711  44.055  56.754  1.00  0.00     0.243 C 
HETATM    9  O2  UNL     1      24.299  44.445  57.856  1.00  0.00    -0.269 OA
ATOM     10  H3  UNL     1      23.909  43.513  54.830  1.00  0.00     0.163 HD
BRANCH   8  11
HETATM   11  C10 UNL     1      26.063  43.790  56.308  1.00  0.00     0.101 C 
BRANCH  11  12
HETATM   12  C11 UNL     1      26.638  44.365  55.116  1.00  0.00     0.089 C 
HETATM   13 CL1  UNL     1      27.373  46.016  55.429  1.00  0.00    -0.080 Cl
BRANCH  12  14
HETATM   14  C12 UNL     1      26.738  43.954  53.893  1.00  0.00     0.207 C 
HETATM   15  F1  UNL     1      27.743  43.295  53.307  1.00  0.00    -0.191 F 
HETATM   16 CL2  UNL     1      25.372  44.277  52.765  1.00  0.00    -0.050 Cl
ENDBRANCH  12  14
ENDBRANCH  11  12
ENDBRANCH   8  11
ENDBRANCH   4   7
BRANCH   1  17
HETATM   17  N2  UNL     1      19.836  42.274  53.166  1.00  0.00    -0.408 N 
HETATM   18  C4  UNL     1      20.465  42.132  51.915  1.00  0.00     0.118 C 
HETATM   19  C3  UNL     1      20.223  40.700  51.426  1.00  0.00     0.033 C 
HETATM   20  C2  UNL     1      19.073  40.103  52.188  1.00  0.00     0.078 C 
HETATM   21  C16 UNL     1      17.928  41.102  52.378  1.00  0.00     0.033 C 
HETATM   22  C15 UNL     1      18.425  42.360  53.090  1.00  0.00     0.118 C 
BRANCH  20  23
HETATM   23  C1  UNL     1      18.500  38.910  51.554  1.00  0.00     0.235 C 
HETATM   24  N1  UNL     1      17.461  38.223  52.188  1.00  0.00    -0.062 NA
HETATM   25  O1  UNL     1      18.943  38.517  50.459  1.00  0.00    -0.277 OA
ENDBRANCH  20  23
ENDBRANCH   1  17
TORSDOF 6
ENDMDL
MODEL 5
REMARK VINA RESULT: -7.378453620      4.421      5.199
REMARK  6 active torsions:
REMARK  status: ('A' for Active; 'I' for Inactive)
REMARK    1  A    between atoms: C1_2  and  C2_4 
REMARK    2  A    between atoms: N2_7  and  C5_8 
REMARK    3  A    between atoms: C8_11  and  N3_12 
REMARK       I    between atoms: N3_12  and  C9_14 
REMARK    4  A    between atoms: C9_14  and  C10_16 
REMARK    5  A    between atoms: C10_16  and  C11_17 
REMARK    6  A    between atoms: C11_17  and  C12_19 
ROOT
HETATM    1  C5  UNL     1      21.145  42.693  53.666  1.00  0.00     0.079 C 
HETATM    2  C6  UNL     1      21.007  44.195  53.809  1.00  0.00     0.027 C 
HETATM    3  C7  UNL     1      21.829  44.659  54.982  1.00  0.00     0.027 C 
HETATM    4  C8  UNL     1      23.242  44.161  54.962  1.00  0.00     0.084 C 
HETATM    5  C13 UNL     1      23.359  42.686  54.654  1.00  0.00     0.027 C 
HETATM    6  C14 UNL     1      22.599  42.409  53.372  1.00  0.00     0.027 C 
ENDROOT
BRANCH   4   7
HETATM    7  N3  UNL     1      23.995  44.937  54.036  1.00  0.00    -0.353 N 
HETATM    8  C9  UNL     1      25.342  45.352  54.381  1.00  0.00     0.243 C 
HETATM    9  O2  UNL     1      25.724  44.974  55.498  1.00  0.00    -0.269 OA
ATOM     10  H3  UNL     1      23.590  45.200  53.138  1.00  0.00     0.163 HD
BRANCH   8  11
HETATM   11  C10 UNL     1      26.031  46.139  53.380  1.00  0.00     0.101 C 
BRANCH  11  12
HETATM   12  C11 UNL     1      26.036  47.581  53.361  1.00  0.00     0.089 C 
HETATM   13 CL1  UNL     1      26.475  48.293  54.993  1.00  0.00    -0.080 Cl
BRANCH  12  14
HETATM   14  C12 UNL     1      25.799  48.456  52.438  1.00  0.00     0.207 C 
HETATM   15  F1  UNL     1      25.330  48.267  51.200  1.00  0.00    -0.191 F 
HETATM   16 CL2  UNL     1      26.118  50.192  52.798  1.00  0.00    -0.050 Cl
ENDBRANCH  12  14
ENDBRANCH  11  12
ENDBRANCH   8  11
ENDBRANCH   4   7
BRANCH   1  17
HETATM   17  N2  UNL     1      20.222  42.078  52.814  1.00  0.00    -0.408 N 
HETATM   18  C4  UNL     1      20.546  41.873  51.460  1.00  0.00     0.118 C 
HETATM   19  C3  UNL     1      20.106  40.456  51.079  1.00  0.00     0.033 C 
HETATM   20  C2  UNL     1      19.118  39.954  52.094  1.00  0.00     0.078 C 
HETATM   21  C16 UNL     1      18.112  41.035  52.503  1.00  0.00     0.033 C 
HETATM   22  C15 UNL     1      18.839  42.264  53.049  1.00  0.00     0.118 C 
BRANCH  20  23
HETATM   23  C1  UNL     1      18.340  38.796  51.638  1.00  0.00     0.235 C 
HETATM   24  N1  UNL     1      18.588  38.251  50.375  1.00  0.00    -0.062 NA
HETATM   25  O1  UNL     1      17.464  38.308  52.377  1.00  0.00    -0.277 OA
ENDBRANCH  20  23
ENDBRANCH   1  17
TORSDOF 6
ENDMDL
