MODEL 1
REMARK VINA RESULT: -9.462722062      0.000      0.000
REMARK  5 active torsions:
REMARK  status: ('A' for Active; 'I' for Inactive)
REMARK       I    between atoms: C1_2  and  N1_3 
REMARK    1  A    between atoms: C1_2  and  C10_17 
REMARK    2  A    between atoms: N1_3  and  C2_5 
REMARK    3  A    between atoms: C2_5  and  C3_6 
REMARK    4  A    between atoms: C3_6  and  C4_7 
REMARK    5  A    between atoms: C4_7  and  N2_8 
ROOT
HETATM    1  O1  UNL     1      22.133  42.417  53.337  1.00  0.00    -0.273 OA
HETATM    2  C1  UNL     1      21.045  43.032  53.205  1.00  0.00     0.230 C 
HETATM    3  N1  UNL     1      20.849  44.206  53.964  1.00  0.00    -0.360 N 
ATOM      4  H1  UNL     1      19.959  44.688  53.841  1.00  0.00     0.162 HD
ENDROOT
BRANCH   2   5
HETATM    5  C10 UNL     1      20.032  42.499  52.270  1.00  0.00     0.169 C 
HETATM    6  C11 UNL     1      20.570  41.489  51.293  1.00  0.00     0.026 C 
HETATM    7  C12 UNL     1      19.989  40.110  51.466  1.00  0.00     0.032 C 
HETATM    8  C13 UNL     1      18.492  40.074  51.563  1.00  0.00     0.033 C 
HETATM    9  C14 UNL     1      17.795  40.297  50.259  1.00  0.00     0.031 C 
HETATM   10  C18 UNL     1      18.081  38.743  52.140  1.00  0.00     0.031 C 
HETATM   11  N3  UNL     1      17.994  41.095  52.488  1.00  0.00    -0.351 N 
HETATM   12  C15 UNL     1      18.022  39.190  49.262  1.00  0.00     0.002 C 
HETATM   13  C16 UNL     1      17.866  37.831  49.889  1.00  0.00     0.000 C 
HETATM   14  C17 UNL     1      17.142  37.980  51.226  1.00  0.00     0.002 C 
HETATM   15  C19 UNL     1      18.875  42.023  53.039  1.00  0.00     0.231 C 
ATOM     16  H3  UNL     1      17.003  41.125  52.729  1.00  0.00     0.163 HD
HETATM   17  O2  UNL     1      18.682  42.455  54.194  1.00  0.00    -0.273 OA
ENDBRANCH   2   5
BRANCH   3  18
HETATM   18  C2  UNL     1      21.778  44.790  54.893  1.00  0.00     0.124 C 
BRANCH  18  19
HETATM   19  C3  UNL     1      21.673  44.147  56.233  1.00  0.00     0.050 C 
BRANCH  19  20
HETATM   20  C4  UNL     1      22.145  45.070  57.347  1.00  0.00     0.278 C 
BRANCH  20  21
HETATM   21  N2  UNL     1      22.044  44.426  58.641  1.00  0.00     0.122 N 
HETATM   22  C5  UNL     1      21.640  43.078  58.439  1.00  0.00     0.282 C 
HETATM   23  C6  UNL     1      21.034  42.413  59.637  1.00  0.00     0.109 C 
HETATM   24  C7  UNL     1      20.031  43.293  60.346  1.00  0.00     0.249 C 
HETATM   25  F1  UNL     1      19.539  42.610  61.439  1.00  0.00    -0.206 F 
HETATM   26  F2  UNL     1      19.034  43.666  59.462  1.00  0.00    -0.206 F 
HETATM   27  C8  UNL     1      20.782  44.546  60.751  1.00  0.00     0.148 C 
HETATM   28  C9  UNL     1      21.243  45.213  59.493  1.00  0.00     0.410 C 
HETATM   29  F3  UNL     1      22.005  46.318  59.894  1.00  0.00    -0.216 F 
ENDBRANCH  20  21
ENDBRANCH  19  20
ENDBRANCH  18  19
ENDBRANCH   3  18
TORSDOF 5
ENDMDL
MODEL 2
REMARK VINA RESULT: -9.097240472      4.748      6.190
REMARK  5 active torsions:
REMARK  status: ('A' for Active; 'I' for Inactive)
REMARK       I    between atoms: C1_2  and  N1_3 
REMARK    1  A    between atoms: C1_2  and  C10_17 
REMARK    2  A    between atoms: N1_3  and  C2_5 
REMARK    3  A    between atoms: C2_5  and  C3_6 
REMARK    4  A    between atoms: C3_6  and  C4_7 
REMARK    5  A    between atoms: C4_7  and  N2_8 
ROOT
HETATM    1  O1  UNL     1      20.848  44.350  53.860  1.00  0.00    -0.273 OA
HETATM    2  C1  UNL     1      21.080  43.266  53.267  1.00  0.00     0.230 C 
HETATM    3  N1  UNL     1      22.323  42.638  53.494  1.00  0.00    -0.360 N 
ATOM      4  H1  UNL     1      22.489  41.760  53.002  1.00  0.00     0.162 HD
ENDROOT
BRANCH   2   5
HETATM    5  C10 UNL     1      20.047  42.707  52.369  1.00  0.00     0.169 C 
HETATM    6  C11 UNL     1      20.582  41.744  51.344  1.00  0.00     0.026 C 
HETATM    7  C12 UNL     1      20.073  40.336  51.513  1.00  0.00     0.032 C 
HETATM    8  C13 UNL     1      18.587  40.228  51.681  1.00  0.00     0.033 C 
HETATM    9  C14 UNL     1      17.816  40.447  50.417  1.00  0.00     0.031 C 
HETATM   10  C18 UNL     1      18.265  38.868  52.246  1.00  0.00     0.031 C 
HETATM   11  N3  UNL     1      18.089  41.205  52.652  1.00  0.00    -0.351 N 
HETATM   12  C15 UNL     1      18.045  39.373  49.385  1.00  0.00     0.002 C 
HETATM   13  C16 UNL     1      17.982  37.995  49.987  1.00  0.00     0.000 C 
HETATM   14  C17 UNL     1      17.318  38.081  51.361  1.00  0.00     0.002 C 
HETATM   15  C19 UNL     1      18.952  42.162  53.182  1.00  0.00     0.231 C 
ATOM     16  H3  UNL     1      17.110  41.185  52.941  1.00  0.00     0.163 HD
HETATM   17  O2  UNL     1      18.797  42.560  54.355  1.00  0.00    -0.273 OA
ENDBRANCH   2   5
BRANCH   3  18
HETATM   18  C2  UNL     1      23.379  43.111  54.347  1.00  0.00     0.124 C 
BRANCH  18  19
HETATM   19  C3  UNL     1      24.576  43.506  53.550  1.00  0.00     0.050 C 
BRANCH  19  20
HETATM   20  C4  UNL     1      25.518  44.401  54.343  1.00  0.00     0.278 C 
BRANCH  20  21
HETATM   21  N2  UNL     1      26.337  45.212  53.463  1.00  0.00     0.122 N 
HETATM   22  C5  UNL     1      25.655  46.435  53.220  1.00  0.00     0.282 C 
HETATM   23  C6  UNL     1      26.099  47.174  51.994  1.00  0.00     0.109 C 
HETATM   24  C7  UNL     1      26.259  46.268  50.795  1.00  0.00     0.249 C 
HETATM   25  F1  UNL     1      26.684  47.026  49.724  1.00  0.00    -0.206 F 
HETATM   26  F2  UNL     1      25.065  45.617  50.544  1.00  0.00    -0.206 F 
HETATM   27  C8  UNL     1      27.281  45.221  51.191  1.00  0.00     0.148 C 
HETATM   28  C9  UNL     1      26.706  44.449  52.337  1.00  0.00     0.410 C 
HETATM   29  F3  UNL     1      27.700  43.548  52.739  1.00  0.00    -0.216 F 
ENDBRANCH  20  21
ENDBRANCH  19  20
ENDBRANCH  18  19
ENDBRANCH   3  18
TORSDOF 5
ENDMDL
MODEL 3
REMARK VINA RESULT: -9.012465255      1.118      1.536
REMARK  5 active torsions:
REMARK  status: ('A' for Active; 'I' for Inactive)
REMARK       I    between atoms: C1_2  and  N1_3 
REMARK    1  A    between atoms: C1_2  and  C10_17 
REMARK    2  A    between atoms: N1_3  and  C2_5 
REMARK    3  A    between atoms: C2_5  and  C3_6 
REMARK    4  A    between atoms: C3_6  and  C4_7 
REMARK    5  A    between atoms: C4_7  and  N2_8 
ROOT
HETATM    1  O1  UNL     1      22.343  42.426  53.207  1.00  0.00    -0.273 OA
HETATM    2  C1  UNL     1      21.251  43.044  53.154  1.00  0.00     0.230 C 
HETATM    3  N1  UNL     1      21.105  44.205  53.944  1.00  0.00    -0.360 N 
ATOM      4  H1  UNL     1      20.210  44.690  53.886  1.00  0.00     0.162 HD
ENDROOT
BRANCH   2   5
HETATM    5  C10 UNL     1      20.180  42.531  52.273  1.00  0.00     0.169 C 
HETATM    6  C11 UNL     1      20.655  41.539  51.246  1.00  0.00     0.026 C 
HETATM    7  C12 UNL     1      20.083  40.157  51.428  1.00  0.00     0.032 C 
HETATM    8  C13 UNL     1      18.596  40.120  51.617  1.00  0.00     0.033 C 
HETATM    9  C14 UNL     1      17.818  40.369  50.364  1.00  0.00     0.031 C 
HETATM   10  C18 UNL     1      18.219  38.778  52.193  1.00  0.00     0.031 C 
HETATM   11  N3  UNL     1      18.158  41.123  52.591  1.00  0.00    -0.351 N 
HETATM   12  C15 UNL     1      17.982  39.281  49.334  1.00  0.00     0.002 C 
HETATM   13  C16 UNL     1      17.863  37.910  49.944  1.00  0.00     0.000 C 
HETATM   14  C17 UNL     1      17.224  38.033  51.326  1.00  0.00     0.002 C 
HETATM   15  C19 UNL     1      19.073  42.040  53.104  1.00  0.00     0.231 C 
ATOM     16  H3  UNL     1      17.184  41.150  52.894  1.00  0.00     0.163 HD
HETATM   17  O2  UNL     1      18.953  42.450  54.277  1.00  0.00    -0.273 OA
ENDBRANCH   2   5
BRANCH   3  18
HETATM   18  C2  UNL     1      22.091  44.771  54.824  1.00  0.00     0.124 C 
BRANCH  18  19
HETATM   19  C3  UNL     1      21.652  44.687  56.246  1.00  0.00     0.050 C 
BRANCH  19  20
HETATM   20  C4  UNL     1      21.676  43.257  56.766  1.00  0.00     0.278 C 
BRANCH  20  21
HETATM   21  N2  UNL     1      21.918  43.221  58.195  1.00  0.00     0.122 N 
HETATM   22  C5  UNL     1      20.668  43.335  58.863  1.00  0.00     0.282 C 
HETATM   23  C6  UNL     1      20.752  43.790  60.288  1.00  0.00     0.109 C 
HETATM   24  C7  UNL     1      21.697  44.955  60.473  1.00  0.00     0.249 C 
HETATM   25  F1  UNL     1      21.723  45.294  61.810  1.00  0.00    -0.206 F 
HETATM   26  F2  UNL     1      21.299  46.006  59.667  1.00  0.00    -0.206 F 
HETATM   27  C8  UNL     1      23.050  44.482  59.981  1.00  0.00     0.148 C 
HETATM   28  C9  UNL     1      22.909  44.169  58.524  1.00  0.00     0.410 C 
HETATM   29  F3  UNL     1      24.145  43.655  58.113  1.00  0.00    -0.216 F 
ENDBRANCH  20  21
ENDBRANCH  19  20
ENDBRANCH  18  19
ENDBRANCH   3  18
TORSDOF 5
ENDMDL
MODEL 4
REMARK VINA RESULT: -8.983317711      3.399      4.741
REMARK  5 active torsions:
REMARK  status: ('A' for Active; 'I' for Inactive)
REMARK       I    between atoms: C1_2  and  N1_3 
REMARK    1  A    between atoms: C1_2  and  C10_17 
REMARK    2  A    between atoms: N1_3  and  C2_5 
REMARK    3  A    between atoms: C2_5  and  C3_6 
REMARK    4  A    between atoms: C3_6  and  C4_7 
REMARK    5  A    between atoms: C4_7  and  N2_8 
ROOT
HETATM    1  O1  UNL     1      22.067  42.526  54.341  1.00  0.00    -0.273 OA
HETATM    2  C1  UNL     1      21.061  43.233  54.083  1.00  0.00     0.230 C 
HETATM    3  N1  UNL     1      20.838  44.383  54.870  1.00  0.00    -0.360 N 
ATOM      4  H1  UNL     1      20.015  44.941  54.642  1.00  0.00     0.162 HD
ENDROOT
BRANCH   2   5
HETATM    5  C10 UNL     1      20.167  42.828  52.978  1.00  0.00     0.169 C 
HETATM    6  C11 UNL     1      20.777  41.830  52.030  1.00  0.00     0.026 C 
HETATM    7  C12 UNL     1      20.085  40.492  52.030  1.00  0.00     0.032 C 
HETATM    8  C13 UNL     1      18.592  40.566  51.903  1.00  0.00     0.033 C 
HETATM    9  C14 UNL     1      18.116  40.908  50.527  1.00  0.00     0.031 C 
HETATM   10  C18 UNL     1      18.008  39.243  52.330  1.00  0.00     0.031 C 
HETATM   11  N3  UNL     1      18.030  41.573  52.806  1.00  0.00    -0.351 N 
HETATM   12  C15 UNL     1      18.416  39.840  49.508  1.00  0.00     0.002 C 
HETATM   13  C16 UNL     1      18.076  38.466  50.020  1.00  0.00     0.000 C 
HETATM   14  C17 UNL     1      17.169  38.601  51.242  1.00  0.00     0.002 C 
HETATM   15  C19 UNL     1      18.878  42.402  53.537  1.00  0.00     0.231 C 
ATOM     16  H3  UNL     1      17.018  41.667  52.900  1.00  0.00     0.163 HD
HETATM   17  O2  UNL     1      18.542  42.789  54.676  1.00  0.00    -0.273 OA
ENDBRANCH   2   5
BRANCH   3  18
HETATM   18  C2  UNL     1      21.654  44.848  55.959  1.00  0.00     0.124 C 
BRANCH  18  19
HETATM   19  C3  UNL     1      22.703  45.790  55.479  1.00  0.00     0.050 C 
BRANCH  19  20
HETATM   20  C4  UNL     1      23.979  45.691  56.304  1.00  0.00     0.278 C 
BRANCH  20  21
HETATM   21  N2  UNL     1      25.122  45.384  55.468  1.00  0.00     0.122 N 
HETATM   22  C5  UNL     1      25.126  46.285  54.368  1.00  0.00     0.282 C 
HETATM   23  C6  UNL     1      25.922  45.832  53.183  1.00  0.00     0.109 C 
HETATM   24  C7  UNL     1      25.675  44.381  52.836  1.00  0.00     0.249 C 
HETATM   25  F1  UNL     1      26.456  44.049  51.749  1.00  0.00    -0.206 F 
HETATM   26  F2  UNL     1      24.326  44.185  52.599  1.00  0.00    -0.206 F 
HETATM   27  C8  UNL     1      26.048  43.583  54.069  1.00  0.00     0.148 C 
HETATM   28  C9  UNL     1      25.125  44.007  55.168  1.00  0.00     0.410 C 
HETATM   29  F3  UNL     1      25.543  43.321  56.316  1.00  0.00    -0.216 F 
ENDBRANCH  20  21
ENDBRANCH  19  20
ENDBRANCH  18  19
ENDBRANCH   3  18
TORSDOF 5
ENDMDL
MODEL 5
REMARK VINA RESULT: -8.906349330      1.087      1.621
REMARK  5 active torsions:
REMARK  status: ('A' for Active; 'I' for Inactive)
REMARK       I    between atoms: C1_2  and  N1_3 
REMARK    1  A    between atoms: C1_2  and  C10_17 
REMARK    2  A    between atoms: N1_3  and  C2_5 
REMARK    3  A    between atoms: C2_5  and  C3_6 
REMARK    4  A    between atoms: C3_6  and  C4_7 
REMARK    5  A    between atoms: C4_7  and  N2_8 
ROOT
HETATM    1  O1  UNL     1      22.633  42.495  53.210  1.00  0.00    -0.273 OA
HETATM    2  C1  UNL     1      21.550  43.127  53.276  1.00  0.00     0.230 C 
HETATM    3  N1  UNL     1      21.482  44.241  54.140  1.00  0.00    -0.360 N 
ATOM      4  H1  UNL     1      20.593  44.739  54.177  1.00  0.00     0.162 HD
ENDROOT
BRANCH   2   5
HETATM    5  C10 UNL     1      20.408  42.676  52.453  1.00  0.00     0.169 C 
HETATM    6  C11 UNL     1      20.791  41.759  51.322  1.00  0.00     0.026 C 
HETATM    7  C12 UNL     1      20.228  40.368  51.453  1.00  0.00     0.032 C 
HETATM    8  C13 UNL     1      18.761  40.317  51.761  1.00  0.00     0.033 C 
HETATM    9  C14 UNL     1      17.885  40.654  50.596  1.00  0.00     0.031 C 
HETATM   10  C18 UNL     1      18.425  38.939  52.270  1.00  0.00     0.031 C 
HETATM   11  N3  UNL     1      18.411  41.249  52.836  1.00  0.00    -0.351 N 
HETATM   12  C15 UNL     1      17.958  39.642  49.482  1.00  0.00     0.002 C 
HETATM   13  C16 UNL     1      17.881  38.231  50.001  1.00  0.00     0.000 C 
HETATM   14  C17 UNL     1      17.358  38.256  51.437  1.00  0.00     0.002 C 
HETATM   15  C19 UNL     1      19.369  42.128  53.335  1.00  0.00     0.231 C 
ATOM     16  H3  UNL     1      17.464  41.255  53.218  1.00  0.00     0.163 HD
HETATM   17  O2  UNL     1      19.348  42.455  54.539  1.00  0.00    -0.273 OA
ENDBRANCH   2   5
BRANCH   3  18
HETATM   18  C2  UNL     1      22.541  44.745  54.972  1.00  0.00     0.124 C 
BRANCH  18  19
HETATM   19  C3  UNL     1      22.003  45.627  56.047  1.00  0.00     0.050 C 
BRANCH  19  20
HETATM   20  C4  UNL     1      22.563  45.262  57.415  1.00  0.00     0.278 C 
BRANCH  20  21
HETATM   21  N2  UNL     1      21.539  44.686  58.265  1.00  0.00     0.122 N 
HETATM   22  C5  UNL     1      21.394  45.513  59.412  1.00  0.00     0.282 C 
HETATM   23  C6  UNL     1      20.754  44.848  60.593  1.00  0.00     0.109 C 
HETATM   24  C7  UNL     1      21.306  43.465  60.852  1.00  0.00     0.249 C 
HETATM   25  F1  UNL     1      20.652  42.926  61.941  1.00  0.00    -0.206 F 
HETATM   26  F2  UNL     1      22.674  43.541  61.041  1.00  0.00    -0.206 F 
HETATM   27  C8  UNL     1      21.057  42.668  59.588  1.00  0.00     0.148 C 
HETATM   28  C9  UNL     1      21.830  43.325  58.488  1.00  0.00     0.410 C 
HETATM   29  F3  UNL     1      21.517  42.624  57.317  1.00  0.00    -0.216 F 
ENDBRANCH  20  21
ENDBRANCH  19  20
ENDBRANCH  18  19
ENDBRANCH   3  18
TORSDOF 5
ENDMDL
