MODEL 1
REMARK VINA RESULT: -6.280303744      0.000      0.000
REMARK  16 active torsions:
REMARK  status: ('A' for Active; 'I' for Inactive)
REMARK    1  A    between atoms: O1_2  and  C2_3 
REMARK    2  A    between atoms: C2_3  and  C3_5 
REMARK    3  A    between atoms: C3_5  and  O3_6 
REMARK    4  A    between atoms: O3_6  and  N1_7 
REMARK    5  A    between atoms: C6_11  and  N2_12 
REMARK    6  A    between atoms: N2_12  and  C7_14 
REMARK    7  A    between atoms: C7_14  and  O4_15 
REMARK    8  A    between atoms: C7_14  and  C8_17 
REMARK    9  A    between atoms: C8_17  and  O5_18 
REMARK   10  A    between atoms: C8_17  and  C9_20 
REMARK   11  A    between atoms: C9_20  and  O6_21 
REMARK   12  A    between atoms: C10_23  and  O7_24 
REMARK   13  A    between atoms: O7_24  and  C11_25 
REMARK   14  A    between atoms: C11_25  and  O8_26 
REMARK   15  A    between atoms: C14_33  and  N4_34 
REMARK   16  A    between atoms: C19_47  and  N7_48 
ROOT
HETATM    1  N1  UNL     1      -6.896  -3.257  -7.724  1.00  0.00    -0.270 N 
ATOM      2  H1  UNL     1      -7.379  -2.671  -8.406  1.00  0.00     0.194 HD
HETATM    3  C4  UNL     1      -5.581  -3.254  -7.767  1.00  0.00     0.078 C 
HETATM    4  C5  UNL     1      -4.972  -2.388  -8.814  1.00  0.00     0.086 C 
HETATM    5  C6  UNL     1      -3.730  -1.668  -8.494  1.00  0.00     0.116 C 
HETATM    6  C10 UNL     1      -2.419  -2.246  -8.859  1.00  0.00     0.177 C 
HETATM    7  C12 UNL     1      -2.194  -3.561  -9.396  1.00  0.00     0.174 C 
HETATM    8  O9  UNL     1      -2.954  -4.112 -10.405  1.00  0.00    -0.326 OA
HETATM    9  C13 UNL     1      -2.351  -5.363 -10.648  1.00  0.00     0.170 A 
HETATM   10  N3  UNL     1      -2.234  -6.156 -11.753  1.00  0.00    -0.170 N 
ATOM     11  H3  UNL     1      -2.650  -5.835 -12.626  1.00  0.00     0.186 HD
HETATM   12  C14 UNL     1      -1.600  -7.328 -11.744  1.00  0.00     0.680 A 
HETATM   13  N5  UNL     1      -1.051  -7.747 -10.589  1.00  0.00    -0.156 N 
ATOM     14  H5  UNL     1      -0.565  -8.644 -10.577  1.00  0.00     0.187 HD
HETATM   15  C15 UNL     1      -1.116  -7.029  -9.438  1.00  0.00     0.270 A 
HETATM   16  O10 UNL     1      -0.594  -7.439  -8.357  1.00  0.00    -0.267 OA
HETATM   17  C16 UNL     1      -1.779  -5.821  -9.482  1.00  0.00     0.073 A 
HETATM   18  C17 UNL     1      -2.069  -4.763  -8.445  1.00  0.00     0.117 C 
HETATM   19  C18 UNL     1      -3.377  -4.989  -7.918  1.00  0.00     0.336 C 
HETATM   20  N6  UNL     1      -3.563  -4.042  -6.806  1.00  0.00    -0.006 N 
ATOM     21  H61 UNL     1      -3.145  -3.118  -6.905  1.00  0.00     0.283 HD
ATOM     22  H62 UNL     1      -3.063  -4.237  -5.939  1.00  0.00     0.283 HD
HETATM   23  C19 UNL     1      -4.986  -4.113  -6.768  1.00  0.00     0.347 C 
HETATM   24  C20 UNL     1      -5.141  -5.625  -7.037  1.00  0.00     0.246 C 
HETATM   25  O11 UNL     1      -3.799  -6.094  -7.241  1.00  0.00    -0.354 OA
ENDROOT
BRANCH   5  26
HETATM   26  N2  UNL     1      -3.767  -0.310  -8.848  1.00  0.00    -0.388 N 
ATOM     27  H2  UNL     1      -3.833   0.333  -8.059  1.00  0.00     0.156 HD
BRANCH  26  28
HETATM   28  C7  UNL     1      -3.730   0.291 -10.070  1.00  0.00     0.244 C 
BRANCH  28  29
HETATM   29  O4  UNL     1      -2.498   1.070 -10.087  1.00  0.00    -0.374 OA
ATOM     30  H4  UNL     1      -2.546   1.607 -10.869  1.00  0.00     0.212 HD
ENDBRANCH  28  29
BRANCH  28  31
HETATM   31  C8  UNL     1      -4.740   1.226 -10.605  1.00  0.00     0.189 C 
BRANCH  31  32
HETATM   32  O5  UNL     1      -4.319   2.410 -11.162  1.00  0.00    -0.389 OA
ATOM     33  H5  UNL     1      -4.763   3.213 -10.920  1.00  0.00     0.210 HD
ENDBRANCH  31  32
BRANCH  31  34
HETATM   34  C9  UNL     1      -5.776   1.622  -9.527  1.00  0.00     0.200 C 
BRANCH  34  35
HETATM   35  O6  UNL     1      -5.098   2.413  -8.606  1.00  0.00    -0.398 OA
ATOM     36  H6  UNL     1      -5.672   2.500  -7.855  1.00  0.00     0.209 HD
ENDBRANCH  34  35
ENDBRANCH  31  34
ENDBRANCH  28  31
ENDBRANCH  26  28
ENDBRANCH   5  26
BRANCH   6  37
HETATM   37  O7  UNL     1      -1.558  -2.116  -7.761  1.00  0.00    -0.357 OA
BRANCH  37  38
HETATM   38  C11 UNL     1      -0.526  -1.247  -7.915  1.00  0.00     0.335 C 
BRANCH  38  39
HETATM   39  O8  UNL     1      -0.829   0.095  -7.858  1.00  0.00    -0.377 OA
ATOM     40  H8  UNL     1      -0.192   0.662  -7.439  1.00  0.00     0.212 HD
ENDBRANCH  38  39
ENDBRANCH  37  38
ENDBRANCH   6  37
BRANCH   1  41
HETATM   41  O3  UNL     1      -7.664  -3.950  -6.876  1.00  0.00    -0.271 OA
BRANCH  41  42
HETATM   42  C3  UNL     1      -8.970  -4.306  -7.293  1.00  0.00     0.312 C 
BRANCH  42  43
HETATM   43  C2  UNL     1      -9.240  -3.858  -8.671  1.00  0.00     0.284 C 
HETATM   44  O2  UNL     1      -8.963  -4.618  -9.624  1.00  0.00    -0.263 OA
BRANCH  43  45
HETATM   45  O1  UNL     1      -9.791  -2.622  -8.934  1.00  0.00    -0.325 OA
HETATM   46  C1  UNL     1      -9.298  -1.840 -10.033  1.00  0.00     0.213 C 
ENDBRANCH  43  45
ENDBRANCH  42  43
ENDBRANCH  41  42
ENDBRANCH   1  41
BRANCH  23  47
HETATM   47  N7  UNL     1      -5.523  -3.914  -5.433  1.00  0.00    -0.037 N 
ATOM     48  H73 UNL     1      -4.969  -3.228  -4.920  1.00  0.00     0.277 HD
ATOM     49  H72 UNL     1      -6.413  -3.418  -5.473  1.00  0.00     0.277 HD
ATOM     50  H71 UNL     1      -5.615  -4.776  -4.896  1.00  0.00     0.277 HD
ENDBRANCH  23  47
BRANCH  12  51
HETATM   51  N4  UNL     1      -1.487  -8.081 -12.796  1.00  0.00    -0.234 N 
ATOM     52  H42 UNL     1      -0.953  -7.731 -13.592  1.00  0.00     0.174 HD
ATOM     53  H41 UNL     1      -1.909  -9.008 -12.866  1.00  0.00     0.174 HD
ENDBRANCH  12  51
TORSDOF 16
ENDMDL
MODEL 2
REMARK VINA RESULT: -6.131312217      3.829      8.071
REMARK  16 active torsions:
REMARK  status: ('A' for Active; 'I' for Inactive)
REMARK    1  A    between atoms: O1_2  and  C2_3 
REMARK    2  A    between atoms: C2_3  and  C3_5 
REMARK    3  A    between atoms: C3_5  and  O3_6 
REMARK    4  A    between atoms: O3_6  and  N1_7 
REMARK    5  A    between atoms: C6_11  and  N2_12 
REMARK    6  A    between atoms: N2_12  and  C7_14 
REMARK    7  A    between atoms: C7_14  and  O4_15 
REMARK    8  A    between atoms: C7_14  and  C8_17 
REMARK    9  A    between atoms: C8_17  and  O5_18 
REMARK   10  A    between atoms: C8_17  and  C9_20 
REMARK   11  A    between atoms: C9_20  and  O6_21 
REMARK   12  A    between atoms: C10_23  and  O7_24 
REMARK   13  A    between atoms: O7_24  and  C11_25 
REMARK   14  A    between atoms: C11_25  and  O8_26 
REMARK   15  A    between atoms: C14_33  and  N4_34 
REMARK   16  A    between atoms: C19_47  and  N7_48 
ROOT
HETATM    1  N1  UNL     1      -4.342  -5.075  -6.723  1.00  0.00    -0.270 N 
ATOM      2  H1  UNL     1      -4.289  -4.291  -7.373  1.00  0.00     0.194 HD
HETATM    3  C4  UNL     1      -5.404  -5.131  -5.949  1.00  0.00     0.078 C 
HETATM    4  C5  UNL     1      -6.392  -4.033  -6.128  1.00  0.00     0.086 C 
HETATM    5  C6  UNL     1      -7.824  -4.353  -6.021  1.00  0.00     0.116 C 
HETATM    6  C10 UNL     1      -8.535  -4.162  -4.739  1.00  0.00     0.177 C 
HETATM    7  C12 UNL     1      -7.932  -3.814  -3.480  1.00  0.00     0.174 C 
HETATM    8  O9  UNL     1      -6.979  -2.828  -3.339  1.00  0.00    -0.326 OA
HETATM    9  C13 UNL     1      -6.724  -2.791  -1.954  1.00  0.00     0.170 A 
HETATM   10  N3  UNL     1      -6.335  -1.807  -1.091  1.00  0.00    -0.170 N 
ATOM     11  H3  UNL     1      -6.176  -0.871  -1.463  1.00  0.00     0.186 HD
HETATM   12  C14 UNL     1      -6.153  -2.011   0.213  1.00  0.00     0.680 A 
HETATM   13  N5  UNL     1      -6.364  -3.247   0.700  1.00  0.00    -0.156 N 
ATOM     14  H5  UNL     1      -6.227  -3.409   1.698  1.00  0.00     0.187 HD
HETATM   15  C15 UNL     1      -6.752  -4.290  -0.079  1.00  0.00     0.270 A 
HETATM   16  O10 UNL     1      -6.946  -5.451   0.397  1.00  0.00    -0.267 OA
HETATM   17  C16 UNL     1      -6.931  -4.045  -1.423  1.00  0.00     0.073 A 
HETATM   18  C17 UNL     1      -7.336  -4.916  -2.588  1.00  0.00     0.117 C 
HETATM   19  C18 UNL     1      -6.154  -5.366  -3.251  1.00  0.00     0.336 C 
HETATM   20  N6  UNL     1      -6.579  -6.333  -4.278  1.00  0.00    -0.006 N 
ATOM     21  H61 UNL     1      -7.461  -6.151  -4.755  1.00  0.00     0.283 HD
ATOM     22  H62 UNL     1      -6.879  -7.253  -3.956  1.00  0.00     0.283 HD
HETATM   23  C19 UNL     1      -5.389  -6.273  -5.061  1.00  0.00     0.347 C 
HETATM   24  C20 UNL     1      -4.368  -6.186  -3.908  1.00  0.00     0.246 C 
HETATM   25  O11 UNL     1      -5.170  -6.144  -2.718  1.00  0.00    -0.354 OA
ENDROOT
BRANCH   5  26
HETATM   26  N2  UNL     1      -8.591  -3.829  -7.073  1.00  0.00    -0.388 N 
ATOM     27  H2  UNL     1      -9.098  -4.526  -7.618  1.00  0.00     0.156 HD
BRANCH  26  28
HETATM   28  C7  UNL     1      -8.771  -2.543  -7.488  1.00  0.00     0.244 C 
BRANCH  28  29
HETATM   29  O4  UNL     1     -10.202  -2.405  -7.729  1.00  0.00    -0.374 OA
ATOM     30  H4  UNL     1     -10.370  -1.471  -7.744  1.00  0.00     0.212 HD
ENDBRANCH  28  29
BRANCH  28  31
HETATM   31  C8  UNL     1      -8.156  -1.924  -8.678  1.00  0.00     0.189 C 
BRANCH  31  32
HETATM   32  O5  UNL     1      -6.828  -1.577  -8.634  1.00  0.00    -0.389 OA
ATOM     33  H5  UNL     1      -6.596  -0.670  -8.473  1.00  0.00     0.210 HD
ENDBRANCH  31  32
BRANCH  31  34
HETATM   34  C9  UNL     1      -8.905  -0.639  -9.102  1.00  0.00     0.200 C 
BRANCH  34  35
HETATM   35  O6  UNL     1      -8.759   0.262  -8.053  1.00  0.00    -0.398 OA
ATOM     36  H6  UNL     1      -9.409   0.940  -8.191  1.00  0.00     0.209 HD
ENDBRANCH  34  35
ENDBRANCH  31  34
ENDBRANCH  28  31
ENDBRANCH  26  28
ENDBRANCH   5  26
BRANCH   6  37
HETATM   37  O7  UNL     1      -9.322  -5.297  -4.498  1.00  0.00    -0.357 OA
BRANCH  37  38
HETATM   38  C11 UNL     1     -10.575  -5.064  -4.031  1.00  0.00     0.335 C 
BRANCH  38  39
HETATM   39  O8  UNL     1     -11.195  -3.911  -4.460  1.00  0.00    -0.377 OA
ATOM     40  H8  UNL     1     -12.003  -4.015  -4.948  1.00  0.00     0.212 HD
ENDBRANCH  38  39
ENDBRANCH  37  38
ENDBRANCH   6  37
BRANCH   1  41
HETATM   41  O3  UNL     1      -3.324  -5.943  -6.745  1.00  0.00    -0.271 OA
BRANCH  41  42
HETATM   42  C3  UNL     1      -2.209  -5.649  -7.567  1.00  0.00     0.312 C 
BRANCH  42  43
HETATM   43  C2  UNL     1      -2.541  -4.639  -8.588  1.00  0.00     0.284 C 
HETATM   44  O2  UNL     1      -3.002  -5.015  -9.688  1.00  0.00    -0.263 OA
BRANCH  43  45
HETATM   45  O1  UNL     1      -2.355  -3.293  -8.361  1.00  0.00    -0.325 OA
HETATM   46  C1  UNL     1      -3.294  -2.343  -8.891  1.00  0.00     0.213 C 
ENDBRANCH  43  45
ENDBRANCH  42  43
ENDBRANCH  41  42
ENDBRANCH   1  41
BRANCH  23  47
HETATM   47  N7  UNL     1      -5.092  -7.528  -5.730  1.00  0.00    -0.037 N 
ATOM     48  H73 UNL     1      -5.259  -8.317  -5.105  1.00  0.00     0.277 HD
ATOM     49  H72 UNL     1      -5.789  -7.728  -6.446  1.00  0.00     0.277 HD
ATOM     50  H71 UNL     1      -4.151  -7.571  -6.120  1.00  0.00     0.277 HD
ENDBRANCH  23  47
BRANCH  12  51
HETATM   51  N4  UNL     1      -5.785  -1.074   1.033  1.00  0.00    -0.234 N 
ATOM     52  H42 UNL     1      -5.963  -0.103   0.777  1.00  0.00     0.174 HD
ATOM     53  H41 UNL     1      -5.324  -1.262   1.924  1.00  0.00     0.174 HD
ENDBRANCH  12  51
TORSDOF 16
ENDMDL
MODEL 3
REMARK VINA RESULT: -6.101175379      5.224      9.079
REMARK  16 active torsions:
REMARK  status: ('A' for Active; 'I' for Inactive)
REMARK    1  A    between atoms: O1_2  and  C2_3 
REMARK    2  A    between atoms: C2_3  and  C3_5 
REMARK    3  A    between atoms: C3_5  and  O3_6 
REMARK    4  A    between atoms: O3_6  and  N1_7 
REMARK    5  A    between atoms: C6_11  and  N2_12 
REMARK    6  A    between atoms: N2_12  and  C7_14 
REMARK    7  A    between atoms: C7_14  and  O4_15 
REMARK    8  A    between atoms: C7_14  and  C8_17 
REMARK    9  A    between atoms: C8_17  and  O5_18 
REMARK   10  A    between atoms: C8_17  and  C9_20 
REMARK   11  A    between atoms: C9_20  and  O6_21 
REMARK   12  A    between atoms: C10_23  and  O7_24 
REMARK   13  A    between atoms: O7_24  and  C11_25 
REMARK   14  A    between atoms: C11_25  and  O8_26 
REMARK   15  A    between atoms: C14_33  and  N4_34 
REMARK   16  A    between atoms: C19_47  and  N7_48 
ROOT
HETATM    1  N1  UNL     1      -6.285  -2.393  -1.958  1.00  0.00    -0.270 N 
ATOM      2  H1  UNL     1      -6.544  -1.563  -2.493  1.00  0.00     0.194 HD
HETATM    3  C4  UNL     1      -6.543  -3.558  -2.512  1.00  0.00     0.078 C 
HETATM    4  C5  UNL     1      -7.183  -3.506  -3.855  1.00  0.00     0.086 C 
HETATM    5  C6  UNL     1      -6.790  -4.508  -4.858  1.00  0.00     0.116 C 
HETATM    6  C10 UNL     1      -7.590  -5.740  -5.033  1.00  0.00     0.177 C 
HETATM    7  C12 UNL     1      -8.684  -6.163  -4.202  1.00  0.00     0.174 C 
HETATM    8  O9  UNL     1      -9.689  -5.320  -3.777  1.00  0.00    -0.326 OA
HETATM    9  C13 UNL     1     -10.559  -6.158  -3.052  1.00  0.00     0.170 A 
HETATM   10  N3  UNL     1     -11.903  -6.145  -2.816  1.00  0.00    -0.170 N 
ATOM     11  H3  UNL     1     -12.460  -5.392  -3.220  1.00  0.00     0.186 HD
HETATM   12  C14 UNL     1     -12.524  -7.068  -2.081  1.00  0.00     0.680 A 
HETATM   13  N5  UNL     1     -11.786  -8.060  -1.550  1.00  0.00    -0.156 N 
ATOM     14  H5  UNL     1     -12.256  -8.769  -0.987  1.00  0.00     0.187 HD
HETATM   15  C15 UNL     1     -10.443  -8.158  -1.729  1.00  0.00     0.270 A 
HETATM   16  O10 UNL     1      -9.762  -9.100  -1.219  1.00  0.00    -0.267 OA
HETATM   17  C16 UNL     1      -9.834  -7.187  -2.493  1.00  0.00     0.073 A 
HETATM   18  C17 UNL     1      -8.402  -6.944  -2.907  1.00  0.00     0.117 C 
HETATM   19  C18 UNL     1      -7.819  -6.008  -1.999  1.00  0.00     0.336 C 
HETATM   20  N6  UNL     1      -6.388  -5.917  -2.335  1.00  0.00    -0.006 N 
ATOM     21  H61 UNL     1      -6.135  -5.982  -3.320  1.00  0.00     0.283 HD
ATOM     22  H62 UNL     1      -5.796  -6.704  -2.073  1.00  0.00     0.283 HD
HETATM   23  C19 UNL     1      -6.147  -4.673  -1.681  1.00  0.00     0.347 C 
HETATM   24  C20 UNL     1      -7.028  -4.901  -0.436  1.00  0.00     0.246 C 
HETATM   25  O11 UNL     1      -7.642  -6.180  -0.658  1.00  0.00    -0.354 OA
ENDROOT
BRANCH   5  26
HETATM   26  N2  UNL     1      -6.492  -3.953  -6.113  1.00  0.00    -0.388 N 
ATOM     27  H2  UNL     1      -5.498  -3.804  -6.287  1.00  0.00     0.156 HD
BRANCH  26  28
HETATM   28  C7  UNL     1      -7.310  -3.578  -7.136  1.00  0.00     0.244 C 
BRANCH  28  29
HETATM   29  O4  UNL     1      -6.505  -2.707  -7.984  1.00  0.00    -0.374 OA
ATOM     30  H4  UNL     1      -5.897  -3.280  -8.435  1.00  0.00     0.212 HD
ENDBRANCH  28  29
BRANCH  28  31
HETATM   31  C8  UNL     1      -8.586  -2.848  -7.001  1.00  0.00     0.189 C 
BRANCH  31  32
HETATM   32  O5  UNL     1      -9.670  -3.501  -6.464  1.00  0.00    -0.389 OA
ATOM     33  H5  UNL     1      -9.953  -3.274  -5.587  1.00  0.00     0.210 HD
ENDBRANCH  31  32
BRANCH  31  34
HETATM   34  C9  UNL     1      -9.070  -2.292  -8.360  1.00  0.00     0.200 C 
BRANCH  34  35
HETATM   35  O6  UNL     1     -10.458  -2.366  -8.340  1.00  0.00    -0.398 OA
ATOM     36  H6  UNL     1     -10.704  -2.962  -9.037  1.00  0.00     0.209 HD
ENDBRANCH  34  35
ENDBRANCH  31  34
ENDBRANCH  28  31
ENDBRANCH  26  28
ENDBRANCH   5  26
BRANCH   6  37
HETATM   37  O7  UNL     1      -6.711  -6.829  -5.112  1.00  0.00    -0.357 OA
BRANCH  37  38
HETATM   38  C11 UNL     1      -6.808  -7.592  -6.231  1.00  0.00     0.335 C 
BRANCH  38  39
HETATM   39  O8  UNL     1      -7.042  -6.931  -7.416  1.00  0.00    -0.377 OA
ATOM     40  H8  UNL     1      -7.803  -6.364  -7.448  1.00  0.00     0.212 HD
ENDBRANCH  38  39
ENDBRANCH  37  38
ENDBRANCH   6  37
BRANCH   1  41
HETATM   41  O3  UNL     1      -5.718  -2.186  -0.764  1.00  0.00    -0.271 OA
BRANCH  41  42
HETATM   42  C3  UNL     1      -4.927  -1.024  -0.591  1.00  0.00     0.312 C 
BRANCH  42  43
HETATM   43  C2  UNL     1      -3.618  -1.156  -1.254  1.00  0.00     0.284 C 
HETATM   44  O2  UNL     1      -3.306  -2.249  -1.775  1.00  0.00    -0.263 OA
BRANCH  43  45
HETATM   45  O1  UNL     1      -2.730  -0.104  -1.315  1.00  0.00    -0.325 OA
HETATM   46  C1  UNL     1      -1.412  -0.311  -1.848  1.00  0.00     0.213 C 
ENDBRANCH  43  45
ENDBRANCH  42  43
ENDBRANCH  41  42
ENDBRANCH   1  41
BRANCH  23  47
HETATM   47  N7  UNL     1      -4.793  -4.563  -1.166  1.00  0.00    -0.037 N 
ATOM     48  H73 UNL     1      -4.131  -4.395  -1.924  1.00  0.00     0.277 HD
ATOM     49  H72 UNL     1      -4.676  -3.696  -0.643  1.00  0.00     0.277 HD
ATOM     50  H71 UNL     1      -4.502  -5.364  -0.605  1.00  0.00     0.277 HD
ENDBRANCH  23  47
BRANCH  12  51
HETATM   51  N4  UNL     1     -13.803  -7.056  -1.858  1.00  0.00    -0.234 N 
ATOM     52  H42 UNL     1     -14.375  -6.357  -2.333  1.00  0.00     0.174 HD
ATOM     53  H41 UNL     1     -14.265  -7.711  -1.228  1.00  0.00     0.174 HD
ENDBRANCH  12  51
TORSDOF 16
ENDMDL
MODEL 4
REMARK VINA RESULT: -6.063641788      3.506      7.596
REMARK  16 active torsions:
REMARK  status: ('A' for Active; 'I' for Inactive)
REMARK    1  A    between atoms: O1_2  and  C2_3 
REMARK    2  A    between atoms: C2_3  and  C3_5 
REMARK    3  A    between atoms: C3_5  and  O3_6 
REMARK    4  A    between atoms: O3_6  and  N1_7 
REMARK    5  A    between atoms: C6_11  and  N2_12 
REMARK    6  A    between atoms: N2_12  and  C7_14 
REMARK    7  A    between atoms: C7_14  and  O4_15 
REMARK    8  A    between atoms: C7_14  and  C8_17 
REMARK    9  A    between atoms: C8_17  and  O5_18 
REMARK   10  A    between atoms: C8_17  and  C9_20 
REMARK   11  A    between atoms: C9_20  and  O6_21 
REMARK   12  A    between atoms: C10_23  and  O7_24 
REMARK   13  A    between atoms: O7_24  and  C11_25 
REMARK   14  A    between atoms: C11_25  and  O8_26 
REMARK   15  A    between atoms: C14_33  and  N4_34 
REMARK   16  A    between atoms: C19_47  and  N7_48 
ROOT
HETATM    1  N1  UNL     1      -6.390  -3.787  -2.937  1.00  0.00    -0.270 N 
ATOM      2  H1  UNL     1      -5.394  -3.604  -2.810  1.00  0.00     0.194 HD
HETATM    3  C4  UNL     1      -6.757  -4.280  -4.101  1.00  0.00     0.078 C 
HETATM    4  C5  UNL     1      -5.659  -4.506  -5.080  1.00  0.00     0.086 C 
HETATM    5  C6  UNL     1      -5.728  -5.690  -5.951  1.00  0.00     0.116 C 
HETATM    6  C10 UNL     1      -6.299  -5.581  -7.310  1.00  0.00     0.177 C 
HETATM    7  C12 UNL     1      -6.955  -4.428  -7.864  1.00  0.00     0.174 C 
HETATM    8  O9  UNL     1      -6.472  -3.143  -7.737  1.00  0.00    -0.326 OA
HETATM    9  C13 UNL     1      -7.384  -2.357  -8.470  1.00  0.00     0.170 A 
HETATM   10  N3  UNL     1      -7.276  -1.190  -9.170  1.00  0.00    -0.170 N 
ATOM     11  H3  UNL     1      -6.365  -0.733  -9.213  1.00  0.00     0.186 HD
HETATM   12  C14 UNL     1      -8.302  -0.620  -9.800  1.00  0.00     0.680 A 
HETATM   13  N5  UNL     1      -9.502  -1.227  -9.741  1.00  0.00    -0.156 N 
ATOM     14  H5  UNL     1     -10.291  -0.795 -10.223  1.00  0.00     0.187 HD
HETATM   15  C15 UNL     1      -9.709  -2.389  -9.069  1.00  0.00     0.270 A 
HETATM   16  O10 UNL     1     -10.847  -2.947  -9.023  1.00  0.00    -0.267 OA
HETATM   17  C16 UNL     1      -8.626  -2.951  -8.429  1.00  0.00     0.073 A 
HETATM   18  C17 UNL     1      -8.452  -4.197  -7.593  1.00  0.00     0.117 C 
HETATM   19  C18 UNL     1      -8.553  -3.836  -6.214  1.00  0.00     0.336 C 
HETATM   20  N6  UNL     1      -8.537  -5.088  -5.439  1.00  0.00    -0.006 N 
ATOM     21  H61 UNL     1      -7.946  -5.843  -5.785  1.00  0.00     0.283 HD
ATOM     22  H62 UNL     1      -9.380  -5.663  -5.463  1.00  0.00     0.283 HD
HETATM   23  C19 UNL     1      -8.183  -4.502  -4.190  1.00  0.00     0.347 C 
HETATM   24  C20 UNL     1      -9.034  -3.220  -4.295  1.00  0.00     0.246 C 
HETATM   25  O11 UNL     1      -9.641  -3.296  -5.595  1.00  0.00    -0.354 OA
ENDROOT
BRANCH   5  26
HETATM   26  N2  UNL     1      -4.530  -6.419  -5.995  1.00  0.00    -0.388 N 
ATOM     27  H2  UNL     1      -4.368  -7.021  -5.187  1.00  0.00     0.156 HD
BRANCH  26  28
HETATM   28  C7  UNL     1      -3.546  -6.456  -6.937  1.00  0.00     0.244 C 
BRANCH  28  29
HETATM   29  O4  UNL     1      -2.732  -7.620  -6.608  1.00  0.00    -0.374 OA
ATOM     30  H4  UNL     1      -1.837  -7.305  -6.575  1.00  0.00     0.212 HD
ENDBRANCH  28  29
BRANCH  28  31
HETATM   31  C8  UNL     1      -2.551  -5.396  -7.191  1.00  0.00     0.189 C 
BRANCH  31  32
HETATM   32  O5  UNL     1      -2.260  -4.505  -6.186  1.00  0.00    -0.389 OA
ATOM     33  H5  UNL     1      -1.371  -4.181  -6.103  1.00  0.00     0.210 HD
ENDBRANCH  31  32
BRANCH  31  34
HETATM   34  C9  UNL     1      -2.941  -4.530  -8.411  1.00  0.00     0.200 C 
BRANCH  34  35
HETATM   35  O6  UNL     1      -3.526  -3.377  -7.900  1.00  0.00    -0.398 OA
ATOM     36  H6  UNL     1      -4.271  -3.661  -7.384  1.00  0.00     0.209 HD
ENDBRANCH  34  35
ENDBRANCH  31  34
ENDBRANCH  28  31
ENDBRANCH  26  28
ENDBRANCH   5  26
BRANCH   6  37
HETATM   37  O7  UNL     1      -7.168  -6.663  -7.512  1.00  0.00    -0.357 OA
BRANCH  37  38
HETATM   38  C11 UNL     1      -6.828  -7.823  -6.893  1.00  0.00     0.335 C 
BRANCH  38  39
HETATM   39  O8  UNL     1      -7.319  -8.987  -7.441  1.00  0.00    -0.377 OA
ATOM     40  H8  UNL     1      -7.803  -9.563  -6.861  1.00  0.00     0.212 HD
ENDBRANCH  38  39
ENDBRANCH  37  38
ENDBRANCH   6  37
BRANCH   1  41
HETATM   41  O3  UNL     1      -7.190  -3.501  -1.905  1.00  0.00    -0.271 OA
BRANCH  41  42
HETATM   42  C3  UNL     1      -6.602  -2.986  -0.724  1.00  0.00     0.312 C 
BRANCH  42  43
HETATM   43  C2  UNL     1      -5.651  -1.901  -1.020  1.00  0.00     0.284 C 
HETATM   44  O2  UNL     1      -5.933  -0.732  -0.675  1.00  0.00    -0.263 OA
BRANCH  43  45
HETATM   45  O1  UNL     1      -4.459  -2.141  -1.669  1.00  0.00    -0.325 OA
HETATM   46  C1  UNL     1      -3.304  -1.345  -1.360  1.00  0.00     0.213 C 
ENDBRANCH  43  45
ENDBRANCH  42  43
ENDBRANCH  41  42
ENDBRANCH   1  41
BRANCH  23  47
HETATM   47  N7  UNL     1      -8.732  -5.224  -3.055  1.00  0.00    -0.037 N 
ATOM     48  H73 UNL     1      -8.593  -6.228  -3.164  1.00  0.00     0.277 HD
ATOM     49  H72 UNL     1      -8.169  -5.064  -2.220  1.00  0.00     0.277 HD
ATOM     50  H71 UNL     1      -9.713  -5.014  -2.873  1.00  0.00     0.277 HD
ENDBRANCH  23  47
BRANCH  12  51
HETATM   51  N4  UNL     1      -8.198   0.488 -10.468  1.00  0.00    -0.234 N 
ATOM     52  H42 UNL     1      -8.046   0.439 -11.476  1.00  0.00     0.174 HD
ATOM     53  H41 UNL     1      -8.259   1.409 -10.033  1.00  0.00     0.174 HD
ENDBRANCH  12  51
TORSDOF 16
ENDMDL
MODEL 5
REMARK VINA RESULT: -5.945483717      4.024      8.506
REMARK  16 active torsions:
REMARK  status: ('A' for Active; 'I' for Inactive)
REMARK    1  A    between atoms: O1_2  and  C2_3 
REMARK    2  A    between atoms: C2_3  and  C3_5 
REMARK    3  A    between atoms: C3_5  and  O3_6 
REMARK    4  A    between atoms: O3_6  and  N1_7 
REMARK    5  A    between atoms: C6_11  and  N2_12 
REMARK    6  A    between atoms: N2_12  and  C7_14 
REMARK    7  A    between atoms: C7_14  and  O4_15 
REMARK    8  A    between atoms: C7_14  and  C8_17 
REMARK    9  A    between atoms: C8_17  and  O5_18 
REMARK   10  A    between atoms: C8_17  and  C9_20 
REMARK   11  A    between atoms: C9_20  and  O6_21 
REMARK   12  A    between atoms: C10_23  and  O7_24 
REMARK   13  A    between atoms: O7_24  and  C11_25 
REMARK   14  A    between atoms: C11_25  and  O8_26 
REMARK   15  A    between atoms: C14_33  and  N4_34 
REMARK   16  A    between atoms: C19_47  and  N7_48 
ROOT
HETATM    1  N1  UNL     1      -4.769  -6.238  -6.291  1.00  0.00    -0.270 N 
ATOM      2  H1  UNL     1      -4.718  -5.612  -7.096  1.00  0.00     0.194 HD
HETATM    3  C4  UNL     1      -5.776  -6.058  -5.464  1.00  0.00     0.078 C 
HETATM    4  C5  UNL     1      -6.711  -4.956  -5.818  1.00  0.00     0.086 C 
HETATM    5  C6  UNL     1      -8.148  -5.146  -5.565  1.00  0.00     0.116 C 
HETATM    6  C10 UNL     1      -8.756  -4.643  -4.314  1.00  0.00     0.177 C 
HETATM    7  C12 UNL     1      -8.050  -4.082  -3.195  1.00  0.00     0.174 C 
HETATM    8  O9  UNL     1      -7.036  -3.156  -3.321  1.00  0.00    -0.326 OA
HETATM    9  C13 UNL     1      -6.683  -2.848  -1.992  1.00  0.00     0.170 A 
HETATM   10  N3  UNL     1      -6.181  -1.735  -1.382  1.00  0.00    -0.170 N 
ATOM     11  H3  UNL     1      -5.996  -0.910  -1.954  1.00  0.00     0.186 HD
HETATM   12  C14 UNL     1      -5.920  -1.673  -0.077  1.00  0.00     0.680 A 
HETATM   13  N5  UNL     1      -6.165  -2.763   0.673  1.00  0.00    -0.156 N 
ATOM     14  H5  UNL     1      -5.968  -2.721   1.673  1.00  0.00     0.187 HD
HETATM   15  C15 UNL     1      -6.663  -3.916   0.158  1.00  0.00     0.270 A 
HETATM   16  O10 UNL     1      -6.888  -4.935   0.880  1.00  0.00    -0.267 OA
HETATM   17  C16 UNL     1      -6.921  -3.946  -1.195  1.00  0.00     0.073 A 
HETATM   18  C17 UNL     1      -7.455  -5.011  -2.123  1.00  0.00     0.117 C 
HETATM   19  C18 UNL     1      -6.349  -5.671  -2.741  1.00  0.00     0.336 C 
HETATM   20  N6  UNL     1      -6.896  -6.800  -3.512  1.00  0.00    -0.006 N 
ATOM     21  H61 UNL     1      -7.798  -6.660  -3.966  1.00  0.00     0.283 HD
ATOM     22  H62 UNL     1      -7.224  -7.609  -2.985  1.00  0.00     0.283 HD
HETATM   23  C19 UNL     1      -5.763  -6.986  -4.356  1.00  0.00     0.347 C 
HETATM   24  C20 UNL     1      -4.660  -6.730  -3.307  1.00  0.00     0.246 C 
HETATM   25  O11 UNL     1      -5.375  -6.386  -2.110  1.00  0.00    -0.354 OA
ENDROOT
BRANCH   5  26
HETATM   26  N2  UNL     1      -8.957  -4.802  -6.659  1.00  0.00    -0.388 N 
ATOM     27  H2  UNL     1      -9.625  -5.521  -6.937  1.00  0.00     0.156 HD
BRANCH  26  28
HETATM   28  C7  UNL     1      -8.997  -3.668  -7.413  1.00  0.00     0.244 C 
BRANCH  28  29
HETATM   29  O4  UNL     1      -9.942  -2.784  -6.741  1.00  0.00    -0.374 OA
ATOM     30  H4  UNL     1     -10.612  -3.352  -6.382  1.00  0.00     0.212 HD
ENDBRANCH  28  29
BRANCH  28  31
HETATM   31  C8  UNL     1      -9.393  -3.586  -8.832  1.00  0.00     0.189 C 
BRANCH  31  32
HETATM   32  O5  UNL     1      -8.984  -4.576  -9.693  1.00  0.00    -0.389 OA
ATOM     33  H5  UNL     1      -9.149  -4.471 -10.623  1.00  0.00     0.210 HD
ENDBRANCH  31  32
BRANCH  31  34
HETATM   34  C9  UNL     1      -8.928  -2.260  -9.477  1.00  0.00     0.200 C 
BRANCH  34  35
HETATM   35  O6  UNL     1      -9.805  -1.278  -9.029  1.00  0.00    -0.398 OA
ATOM     36  H6  UNL     1     -10.550  -1.736  -8.656  1.00  0.00     0.209 HD
ENDBRANCH  34  35
ENDBRANCH  31  34
ENDBRANCH  28  31
ENDBRANCH  26  28
ENDBRANCH   5  26
BRANCH   6  37
HETATM   37  O7  UNL     1      -9.586  -5.646  -3.793  1.00  0.00    -0.357 OA
BRANCH  37  38
HETATM   38  C11 UNL     1     -10.910  -5.350  -3.732  1.00  0.00     0.335 C 
BRANCH  38  39
HETATM   39  O8  UNL     1     -11.323  -4.209  -4.384  1.00  0.00    -0.377 OA
ATOM     40  H8  UNL     1     -11.730  -3.535  -3.852  1.00  0.00     0.212 HD
ENDBRANCH  38  39
ENDBRANCH  37  38
ENDBRANCH   6  37
BRANCH   1  41
HETATM   41  O3  UNL     1      -3.805  -7.159  -6.184  1.00  0.00    -0.271 OA
BRANCH  41  42
HETATM   42  C3  UNL     1      -2.650  -7.018  -6.992  1.00  0.00     0.312 C 
BRANCH  42  43
HETATM   43  C2  UNL     1      -2.622  -5.711  -7.673  1.00  0.00     0.284 C 
HETATM   44  O2  UNL     1      -2.141  -4.723  -7.076  1.00  0.00    -0.263 OA
BRANCH  43  45
HETATM   45  O1  UNL     1      -3.112  -5.552  -8.952  1.00  0.00    -0.325 OA
HETATM   46  C1  UNL     1      -2.481  -4.623  -9.848  1.00  0.00     0.213 C 
ENDBRANCH  43  45
ENDBRANCH  42  43
ENDBRANCH  41  42
ENDBRANCH   1  41
BRANCH  23  47
HETATM   47  N7  UNL     1      -5.583  -8.371  -4.757  1.00  0.00    -0.037 N 
ATOM     48  H73 UNL     1      -5.835  -8.498  -5.738  1.00  0.00     0.277 HD
ATOM     49  H72 UNL     1      -4.592  -8.606  -4.805  1.00  0.00     0.277 HD
ATOM     50  H71 UNL     1      -6.084  -9.036  -4.168  1.00  0.00     0.277 HD
ENDBRANCH  23  47
BRANCH  12  51
HETATM   51  N4  UNL     1      -5.445  -0.613   0.503  1.00  0.00    -0.234 N 
ATOM     52  H42 UNL     1      -6.050  -0.089   1.135  1.00  0.00     0.174 HD
ATOM     53  H41 UNL     1      -4.493  -0.276   0.355  1.00  0.00     0.174 HD
ENDBRANCH  12  51
TORSDOF 16
ENDMDL
