MODEL 1
REMARK VINA RESULT: -6.981504489      0.000      0.000
REMARK  14 active torsions:
REMARK  status: ('A' for Active; 'I' for Inactive)
REMARK    1  A    between atoms: O1_2  and  C2_3 
REMARK    2  A    between atoms: C4_5  and  O2_6 
REMARK    3  A    between atoms: C5_8  and  O3_9 
REMARK    4  A    between atoms: C7_12  and  N1_13 
REMARK    5  A    between atoms: N1_13  and  C8_15 
REMARK    6  A    between atoms: C10_20  and  S1_21 
REMARK    7  A    between atoms: S1_21  and  C11_22 
REMARK    8  A    between atoms: C11_22  and  C12_23 
REMARK    9  A    between atoms: C11_22  and  C14_29 
REMARK   10  A    between atoms: C12_23  and  C13_24 
REMARK   11  A    between atoms: C13_24  and  O5_25 
REMARK   12  A    between atoms: C13_24  and  O6_27 
REMARK   13  A    between atoms: N4_34  and  N5_35 
REMARK   14  A    between atoms: C16_44  and  C17_45 
ROOT
HETATM    1  N1  UNL     1      -7.955  -4.106  -3.683  1.00  0.00    -0.209 N 
ATOM      2  H1  UNL     1      -8.602  -3.632  -3.052  1.00  0.00     0.178 HD
ENDROOT
BRANCH   1   3
HETATM    3  C7  UNL     1      -6.960  -4.931  -3.078  1.00  0.00     0.198 C 
HETATM    4  C6  UNL     1      -5.787  -4.141  -2.535  1.00  0.00     0.150 C 
HETATM    5  C5  UNL     1      -6.293  -2.790  -2.071  1.00  0.00     0.172 C 
HETATM    6  N7  UNL     1      -5.390  -4.915  -1.406  1.00  0.00    -0.162 NA
HETATM    7  C4  UNL     1      -5.287  -2.128  -1.151  1.00  0.00     0.185 C 
HETATM    8  C2  UNL     1      -4.966  -2.978   0.036  1.00  0.00     0.113 C 
HETATM    9  C3  UNL     1      -3.798  -2.349   0.769  1.00  0.00     0.051 C 
HETATM   10  C16 UNL     1      -4.438  -4.312  -0.524  1.00  0.00     0.224 C 
HETATM   11  O9  UNL     1      -6.574  -5.236  -0.810  1.00  0.00    -0.245 OA
HETATM   12  C15 UNL     1      -7.462  -5.598  -1.832  1.00  0.00     0.159 C 
HETATM   13  N6  UNL     1      -8.506  -6.353  -1.735  1.00  0.00    -0.380 N 
ATOM     14  H62 UNL     1      -9.152  -6.616  -2.479  1.00  0.00     0.158 HD
ATOM     15  H61 UNL     1      -8.847  -6.807  -0.888  1.00  0.00     0.158 HD
BRANCH   5  16
HETATM   16  O3  UNL     1      -7.510  -2.868  -1.446  1.00  0.00    -0.391 OA
ATOM     17  H3  UNL     1      -8.142  -3.278  -2.025  1.00  0.00     0.210 HD
ENDBRANCH   5  16
BRANCH   7  18
HETATM   18  O2  UNL     1      -5.687  -0.844  -0.878  1.00  0.00    -0.390 OA
ATOM     19  H2  UNL     1      -6.486  -0.559  -1.305  1.00  0.00     0.210 HD
ENDBRANCH   7  18
BRANCH   8  20
HETATM   20  O1  UNL     1      -6.022  -3.242   0.858  1.00  0.00    -0.380 OA
HETATM   21  C1  UNL     1      -6.188  -2.504   1.982  1.00  0.00     0.202 C 
ENDBRANCH   8  20
BRANCH  10  22
HETATM   22  C17 UNL     1      -4.164  -5.261   0.580  1.00  0.00     0.197 C 
HETATM   23  O10 UNL     1      -2.994  -5.601   0.883  1.00  0.00    -0.647 OA
HETATM   24  O11 UNL     1      -5.192  -5.815   1.328  1.00  0.00    -0.647 OA
ENDBRANCH  10  22
ENDBRANCH   1   3
BRANCH   1  25
HETATM   25  C8  UNL     1      -8.118  -3.901  -4.927  1.00  0.00     0.718 A 
HETATM   26  N2  UNL     1      -7.131  -3.737  -5.813  1.00  0.00    -0.151 N 
HETATM   27  C9  UNL     1      -7.349  -3.519  -7.149  1.00  0.00     0.294 A 
ATOM     28  H2  UNL     1      -6.167  -3.776  -5.480  1.00  0.00     0.188 HD
HETATM   29  O4  UNL     1      -6.307  -3.384  -7.848  1.00  0.00    -0.265 OA
HETATM   30  C10 UNL     1      -8.623  -3.464  -7.613  1.00  0.00     0.156 A 
HETATM   31  N3  UNL     1      -9.615  -3.636  -6.685  1.00  0.00    -0.254 N 
HETATM   32  N4  UNL     1      -9.383  -3.844  -5.407  1.00  0.00    -0.026 N 
ATOM     33  H3  UNL     1     -10.585  -3.601  -7.001  1.00  0.00     0.190 HD
BRANCH  30  34
HETATM   34  S1  UNL     1      -9.015  -3.182  -9.314  1.00  0.00    -0.089 SA
BRANCH  34  35
HETATM   35  C11 UNL     1      -8.641  -1.548  -9.921  1.00  0.00     0.159 C 
BRANCH  35  36
HETATM   36  C12 UNL     1      -9.731  -0.990 -10.796  1.00  0.00     0.086 C 
BRANCH  36  37
HETATM   37  C13 UNL     1      -9.120  -0.262 -11.960  1.00  0.00     0.255 C 
BRANCH  37  38
HETATM   38  O5  UNL     1      -7.866  -0.674 -12.292  1.00  0.00    -0.371 OA
ATOM     39  H5  UNL     1      -7.173  -0.313 -11.750  1.00  0.00     0.212 HD
ENDBRANCH  37  38
BRANCH  37  40
HETATM   40  O6  UNL     1      -9.987  -0.254 -13.068  1.00  0.00    -0.371 OA
ATOM     41  H6  UNL     1      -9.602   0.209 -13.803  1.00  0.00     0.212 HD
ENDBRANCH  37  40
ENDBRANCH  36  37
ENDBRANCH  35  36
BRANCH  35  42
HETATM   42  C14 UNL     1      -8.211  -0.583  -8.882  1.00  0.00     0.187 C 
HETATM   43  O7  UNL     1      -9.041  -0.061  -8.123  1.00  0.00    -0.647 OA
HETATM   44  O8  UNL     1      -6.872  -0.258  -8.753  1.00  0.00    -0.647 OA
ENDBRANCH  35  42
ENDBRANCH  34  35
ENDBRANCH  30  34
BRANCH  32  45
HETATM   45  N5  UNL     1     -10.440  -4.012  -4.513  1.00  0.00    -0.309 N 
ATOM     46  H52 UNL     1     -10.406  -4.740  -3.800  1.00  0.00     0.179 HD
ATOM     47  H51 UNL     1     -11.245  -3.390  -4.592  1.00  0.00     0.179 HD
ENDBRANCH  32  45
ENDBRANCH   1  25
TORSDOF 14
ENDMDL
MODEL 2
REMARK VINA RESULT: -6.731121882      1.981      2.684
REMARK  14 active torsions:
REMARK  status: ('A' for Active; 'I' for Inactive)
REMARK    1  A    between atoms: O1_2  and  C2_3 
REMARK    2  A    between atoms: C4_5  and  O2_6 
REMARK    3  A    between atoms: C5_8  and  O3_9 
REMARK    4  A    between atoms: C7_12  and  N1_13 
REMARK    5  A    between atoms: N1_13  and  C8_15 
REMARK    6  A    between atoms: C10_20  and  S1_21 
REMARK    7  A    between atoms: S1_21  and  C11_22 
REMARK    8  A    between atoms: C11_22  and  C12_23 
REMARK    9  A    between atoms: C11_22  and  C14_29 
REMARK   10  A    between atoms: C12_23  and  C13_24 
REMARK   11  A    between atoms: C13_24  and  O5_25 
REMARK   12  A    between atoms: C13_24  and  O6_27 
REMARK   13  A    between atoms: N4_34  and  N5_35 
REMARK   14  A    between atoms: C16_44  and  C17_45 
ROOT
HETATM    1  N1  UNL     1      -6.248  -3.456  -3.225  1.00  0.00    -0.209 N 
ATOM      2  H1  UNL     1      -6.051  -2.468  -3.066  1.00  0.00     0.178 HD
ENDROOT
BRANCH   1   3
HETATM    3  C7  UNL     1      -5.981  -4.345  -2.140  1.00  0.00     0.198 C 
HETATM    4  C6  UNL     1      -5.365  -3.650  -0.943  1.00  0.00     0.150 C 
HETATM    5  C5  UNL     1      -5.901  -2.233  -0.884  1.00  0.00     0.172 C 
HETATM    6  N7  UNL     1      -5.883  -4.402   0.151  1.00  0.00    -0.162 NA
HETATM    7  C4  UNL     1      -5.669  -1.629   0.486  1.00  0.00     0.185 C 
HETATM    8  C2  UNL     1      -6.290  -2.447   1.573  1.00  0.00     0.113 C 
HETATM    9  C3  UNL     1      -5.819  -1.901   2.906  1.00  0.00     0.051 C 
HETATM   10  C16 UNL     1      -5.673  -3.853   1.456  1.00  0.00     0.224 C 
HETATM   11  O9  UNL     1      -7.196  -4.573  -0.176  1.00  0.00    -0.245 OA
HETATM   12  C15 UNL     1      -7.240  -4.895  -1.539  1.00  0.00     0.159 C 
HETATM   13  N6  UNL     1      -8.170  -5.536  -2.165  1.00  0.00    -0.380 N 
ATOM     14  H62 UNL     1      -8.202  -5.771  -3.157  1.00  0.00     0.158 HD
ATOM     15  H61 UNL     1      -9.026  -5.911  -1.756  1.00  0.00     0.158 HD
BRANCH   5  16
HETATM   16  O3  UNL     1      -7.232  -2.159  -1.204  1.00  0.00    -0.391 OA
ATOM     17  H3  UNL     1      -7.329  -1.943  -2.124  1.00  0.00     0.210 HD
ENDBRANCH   5  16
BRANCH   7  18
HETATM   18  O2  UNL     1      -6.008  -0.301   0.468  1.00  0.00    -0.390 OA
ATOM     19  H2  UNL     1      -5.465   0.259  -0.075  1.00  0.00     0.210 HD
ENDBRANCH   7  18
BRANCH   8  20
HETATM   20  O1  UNL     1      -7.648  -2.562   1.503  1.00  0.00    -0.380 OA
HETATM   21  C1  UNL     1      -8.416  -1.907   2.405  1.00  0.00     0.202 C 
ENDBRANCH   8  20
BRANCH  10  22
HETATM   22  C17 UNL     1      -6.288  -4.768   2.446  1.00  0.00     0.197 C 
HETATM   23  O10 UNL     1      -5.726  -5.030   3.539  1.00  0.00    -0.647 OA
HETATM   24  O11 UNL     1      -7.512  -5.374   2.208  1.00  0.00    -0.647 OA
ENDBRANCH  10  22
ENDBRANCH   1   3
BRANCH   1  25
HETATM   25  C8  UNL     1      -6.707  -3.770  -4.367  1.00  0.00     0.718 A 
HETATM   26  N2  UNL     1      -6.087  -4.555  -5.255  1.00  0.00    -0.151 N 
HETATM   27  C9  UNL     1      -6.618  -4.870  -6.478  1.00  0.00     0.294 A 
ATOM     28  H2  UNL     1      -5.174  -4.939  -5.009  1.00  0.00     0.188 HD
HETATM   29  O4  UNL     1      -5.903  -5.623  -7.196  1.00  0.00    -0.265 OA
HETATM   30  C10 UNL     1      -7.831  -4.371  -6.824  1.00  0.00     0.156 A 
HETATM   31  N3  UNL     1      -8.445  -3.571  -5.899  1.00  0.00    -0.254 N 
HETATM   32  N4  UNL     1      -7.918  -3.281  -4.728  1.00  0.00    -0.026 N 
ATOM     33  H3  UNL     1      -9.359  -3.179  -6.127  1.00  0.00     0.190 HD
BRANCH  30  34
HETATM   34  S1  UNL     1      -8.603  -4.710  -8.379  1.00  0.00    -0.089 SA
BRANCH  34  35
HETATM   35  C11 UNL     1      -9.790  -3.495  -8.921  1.00  0.00     0.159 C 
BRANCH  35  36
HETATM   36  C12 UNL     1      -9.231  -2.562  -9.963  1.00  0.00     0.086 C 
BRANCH  36  37
HETATM   37  C13 UNL     1      -8.944  -1.225  -9.340  1.00  0.00     0.255 C 
BRANCH  37  38
HETATM   38  O5  UNL     1      -9.942  -0.741  -8.551  1.00  0.00    -0.371 OA
ATOM     39  H5  UNL     1     -10.330  -1.381  -7.966  1.00  0.00     0.212 HD
ENDBRANCH  37  38
BRANCH  37  40
HETATM   40  O6  UNL     1      -7.700  -1.226  -8.682  1.00  0.00    -0.371 OA
ATOM     41  H6  UNL     1      -7.091  -0.626  -9.098  1.00  0.00     0.212 HD
ENDBRANCH  37  40
ENDBRANCH  36  37
ENDBRANCH  35  36
BRANCH  35  42
HETATM   42  C14 UNL     1     -11.107  -4.046  -9.315  1.00  0.00     0.187 C 
HETATM   43  O7  UNL     1     -11.998  -3.302  -9.751  1.00  0.00    -0.647 OA
HETATM   44  O8  UNL     1     -11.351  -5.403  -9.196  1.00  0.00    -0.647 OA
ENDBRANCH  35  42
ENDBRANCH  34  35
ENDBRANCH  30  34
BRANCH  32  45
HETATM   45  N5  UNL     1      -8.596  -2.458  -3.830  1.00  0.00    -0.309 N 
ATOM     46  H52 UNL     1      -8.270  -2.361  -2.869  1.00  0.00     0.179 HD
ATOM     47  H51 UNL     1      -9.422  -1.959  -4.158  1.00  0.00     0.179 HD
ENDBRANCH  32  45
ENDBRANCH   1  25
TORSDOF 14
ENDMDL
MODEL 3
REMARK VINA RESULT: -6.644362372      2.361      3.200
REMARK  14 active torsions:
REMARK  status: ('A' for Active; 'I' for Inactive)
REMARK    1  A    between atoms: O1_2  and  C2_3 
REMARK    2  A    between atoms: C4_5  and  O2_6 
REMARK    3  A    between atoms: C5_8  and  O3_9 
REMARK    4  A    between atoms: C7_12  and  N1_13 
REMARK    5  A    between atoms: N1_13  and  C8_15 
REMARK    6  A    between atoms: C10_20  and  S1_21 
REMARK    7  A    between atoms: S1_21  and  C11_22 
REMARK    8  A    between atoms: C11_22  and  C12_23 
REMARK    9  A    between atoms: C11_22  and  C14_29 
REMARK   10  A    between atoms: C12_23  and  C13_24 
REMARK   11  A    between atoms: C13_24  and  O5_25 
REMARK   12  A    between atoms: C13_24  and  O6_27 
REMARK   13  A    between atoms: N4_34  and  N5_35 
REMARK   14  A    between atoms: C16_44  and  C17_45 
ROOT
HETATM    1  N1  UNL     1      -8.453  -5.648  -3.779  1.00  0.00    -0.209 N 
ATOM      2  H1  UNL     1      -8.393  -4.909  -3.079  1.00  0.00     0.178 HD
ENDROOT
BRANCH   1   3
HETATM    3  C7  UNL     1      -8.479  -6.990  -3.292  1.00  0.00     0.198 C 
HETATM    4  C6  UNL     1      -7.235  -7.360  -2.512  1.00  0.00     0.150 C 
HETATM    5  C5  UNL     1      -6.722  -6.119  -1.811  1.00  0.00     0.172 C 
HETATM    6  N7  UNL     1      -7.737  -8.280  -1.547  1.00  0.00    -0.162 NA
HETATM    7  C4  UNL     1      -5.757  -6.488  -0.702  1.00  0.00     0.185 C 
HETATM    8  C2  UNL     1      -6.378  -7.410   0.298  1.00  0.00     0.113 C 
HETATM    9  C3  UNL     1      -5.288  -7.903   1.230  1.00  0.00     0.051 C 
HETATM   10  C16 UNL     1      -6.843  -8.648  -0.492  1.00  0.00     0.224 C 
HETATM   11  O9  UNL     1      -8.890  -7.691  -1.118  1.00  0.00    -0.245 OA
HETATM   12  C15 UNL     1      -9.542  -7.193  -2.254  1.00  0.00     0.159 C 
HETATM   13  N6  UNL     1     -10.804  -6.954  -2.395  1.00  0.00    -0.380 N 
ATOM     14  H62 UNL     1     -11.279  -6.592  -3.222  1.00  0.00     0.158 HD
ATOM     15  H61 UNL     1     -11.527  -7.092  -1.689  1.00  0.00     0.158 HD
BRANCH   5  16
HETATM   16  O3  UNL     1      -7.733  -5.343  -1.305  1.00  0.00    -0.391 OA
ATOM     17  H3  UNL     1      -8.545  -5.539  -1.758  1.00  0.00     0.210 HD
ENDBRANCH   5  16
BRANCH   7  18
HETATM   18  O2  UNL     1      -5.181  -5.352  -0.194  1.00  0.00    -0.390 OA
ATOM     19  H2  UNL     1      -5.155  -4.602  -0.777  1.00  0.00     0.210 HD
ENDBRANCH   7  18
BRANCH   8  20
HETATM   20  O1  UNL     1      -7.448  -6.896   0.968  1.00  0.00    -0.380 OA
HETATM   21  C1  UNL     1      -7.280  -6.427   2.228  1.00  0.00     0.202 C 
ENDBRANCH   8  20
BRANCH  10  22
HETATM   22  C17 UNL     1      -7.549  -9.594   0.404  1.00  0.00     0.197 C 
HETATM   23  O10 UNL     1      -6.994 -10.638   0.827  1.00  0.00    -0.647 OA
HETATM   24  O11 UNL     1      -8.853  -9.365   0.814  1.00  0.00    -0.647 OA
ENDBRANCH  10  22
ENDBRANCH   1   3
BRANCH   1  25
HETATM   25  C8  UNL     1      -8.498  -5.281  -4.995  1.00  0.00     0.718 A 
HETATM   26  N2  UNL     1      -7.611  -5.627  -5.934  1.00  0.00    -0.151 N 
HETATM   27  C9  UNL     1      -7.696  -5.208  -7.237  1.00  0.00     0.294 A 
ATOM     28  H2  UNL     1      -6.833  -6.231  -5.668  1.00  0.00     0.188 HD
HETATM   29  O4  UNL     1      -6.777  -5.625  -7.995  1.00  0.00    -0.265 OA
HETATM   30  C10 UNL     1      -8.724  -4.405  -7.611  1.00  0.00     0.156 A 
HETATM   31  N3  UNL     1      -9.618  -4.067  -6.631  1.00  0.00    -0.254 N 
HETATM   32  N4  UNL     1      -9.518  -4.480  -5.385  1.00  0.00    -0.026 N 
ATOM     33  H3  UNL     1     -10.403  -3.464  -6.879  1.00  0.00     0.190 HD
BRANCH  30  34
HETATM   34  S1  UNL     1      -8.923  -3.806  -9.262  1.00  0.00    -0.089 SA
BRANCH  34  35
HETATM   35  C11 UNL     1      -8.697  -2.049  -9.467  1.00  0.00     0.159 C 
BRANCH  35  36
HETATM   36  C12 UNL     1      -9.030  -1.579 -10.858  1.00  0.00     0.086 C 
BRANCH  36  37
HETATM   37  C13 UNL     1      -8.065  -0.504 -11.271  1.00  0.00     0.255 C 
BRANCH  37  38
HETATM   38  O5  UNL     1      -6.890  -0.500 -10.583  1.00  0.00    -0.371 OA
ATOM     39  H5  UNL     1      -6.743  -1.271 -10.047  1.00  0.00     0.212 HD
ENDBRANCH  37  38
BRANCH  37  40
HETATM   40  O6  UNL     1      -7.864  -0.507 -12.664  1.00  0.00    -0.371 OA
ATOM     41  H6  UNL     1      -8.673  -0.692 -13.127  1.00  0.00     0.212 HD
ENDBRANCH  37  40
ENDBRANCH  36  37
ENDBRANCH  35  36
BRANCH  35  42
HETATM   42  C14 UNL     1      -9.343  -1.215  -8.427  1.00  0.00     0.187 C 
HETATM   43  O7  UNL     1     -10.342  -1.624  -7.819  1.00  0.00    -0.647 OA
HETATM   44  O8  UNL     1      -8.829   0.036  -8.128  1.00  0.00    -0.647 OA
ENDBRANCH  35  42
ENDBRANCH  34  35
ENDBRANCH  30  34
BRANCH  32  45
HETATM   45  N5  UNL     1     -10.463  -4.098  -4.435  1.00  0.00    -0.309 N 
ATOM     46  H52 UNL     1     -10.290  -4.250  -3.441  1.00  0.00     0.179 HD
ATOM     47  H51 UNL     1     -11.329  -3.666  -4.757  1.00  0.00     0.179 HD
ENDBRANCH  32  45
ENDBRANCH   1  25
TORSDOF 14
ENDMDL
MODEL 4
REMARK VINA RESULT: -6.633469513      1.588      2.059
REMARK  14 active torsions:
REMARK  status: ('A' for Active; 'I' for Inactive)
REMARK    1  A    between atoms: O1_2  and  C2_3 
REMARK    2  A    between atoms: C4_5  and  O2_6 
REMARK    3  A    between atoms: C5_8  and  O3_9 
REMARK    4  A    between atoms: C7_12  and  N1_13 
REMARK    5  A    between atoms: N1_13  and  C8_15 
REMARK    6  A    between atoms: C10_20  and  S1_21 
REMARK    7  A    between atoms: S1_21  and  C11_22 
REMARK    8  A    between atoms: C11_22  and  C12_23 
REMARK    9  A    between atoms: C11_22  and  C14_29 
REMARK   10  A    between atoms: C12_23  and  C13_24 
REMARK   11  A    between atoms: C13_24  and  O5_25 
REMARK   12  A    between atoms: C13_24  and  O6_27 
REMARK   13  A    between atoms: N4_34  and  N5_35 
REMARK   14  A    between atoms: C16_44  and  C17_45 
ROOT
HETATM    1  N1  UNL     1      -6.908  -4.606  -4.020  1.00  0.00    -0.209 N 
ATOM      2  H1  UNL     1      -6.354  -3.872  -3.579  1.00  0.00     0.178 HD
ENDROOT
BRANCH   1   3
HETATM    3  C7  UNL     1      -7.008  -5.844  -3.316  1.00  0.00     0.198 C 
HETATM    4  C6  UNL     1      -5.986  -5.978  -2.207  1.00  0.00     0.150 C 
HETATM    5  C5  UNL     1      -5.708  -4.599  -1.643  1.00  0.00     0.172 C 
HETATM    6  N7  UNL     1      -6.681  -6.758  -1.238  1.00  0.00    -0.162 NA
HETATM    7  C4  UNL     1      -5.039  -4.698  -0.287  1.00  0.00     0.185 C 
HETATM    8  C2  UNL     1      -5.857  -5.484   0.687  1.00  0.00     0.113 C 
HETATM    9  C3  UNL     1      -5.018  -5.724   1.927  1.00  0.00     0.051 C 
HETATM   10  C16 UNL     1      -6.067  -6.870   0.049  1.00  0.00     0.224 C 
HETATM   11  O9  UNL     1      -7.925  -6.197  -1.214  1.00  0.00    -0.245 OA
HETATM   12  C15 UNL     1      -8.289  -5.952  -2.544  1.00  0.00     0.159 C 
HETATM   13  N6  UNL     1      -9.483  -5.840  -3.024  1.00  0.00    -0.380 N 
ATOM     14  H62 UNL     1      -9.749  -5.662  -3.993  1.00  0.00     0.158 HD
ATOM     15  H61 UNL     1     -10.355  -5.914  -2.500  1.00  0.00     0.158 HD
BRANCH   5  16
HETATM   16  O3  UNL     1      -6.839  -3.831  -1.545  1.00  0.00    -0.391 OA
ATOM     17  H3  UNL     1      -7.080  -3.503  -2.404  1.00  0.00     0.210 HD
ENDBRANCH   5  16
BRANCH   7  18
HETATM   18  O2  UNL     1      -4.648  -3.451   0.127  1.00  0.00    -0.390 OA
ATOM     19  H2  UNL     1      -5.349  -2.839   0.321  1.00  0.00     0.210 HD
ENDBRANCH   7  18
BRANCH   8  20
HETATM   20  O1  UNL     1      -7.079  -4.950   0.975  1.00  0.00    -0.380 OA
HETATM   21  C1  UNL     1      -7.226  -4.194   2.090  1.00  0.00     0.202 C 
ENDBRANCH   8  20
BRANCH  10  22
HETATM   22  C17 UNL     1      -6.941  -7.703   0.908  1.00  0.00     0.197 C 
HETATM   23  O10 UNL     1      -8.161  -7.444   1.055  1.00  0.00    -0.647 OA
HETATM   24  O11 UNL     1      -6.448  -8.808   1.586  1.00  0.00    -0.647 OA
ENDBRANCH  10  22
ENDBRANCH   1   3
BRANCH   1  25
HETATM   25  C8  UNL     1      -7.440  -4.326  -5.140  1.00  0.00     0.718 A 
HETATM   26  N2  UNL     1      -7.224  -4.989  -6.281  1.00  0.00    -0.151 N 
HETATM   27  C9  UNL     1      -7.819  -4.653  -7.469  1.00  0.00     0.294 A 
ATOM     28  H2  UNL     1      -6.585  -5.785  -6.266  1.00  0.00     0.188 HD
HETATM   29  O4  UNL     1      -7.505  -5.383  -8.451  1.00  0.00    -0.265 OA
HETATM   30  C10 UNL     1      -8.672  -3.599  -7.510  1.00  0.00     0.156 A 
HETATM   31  N3  UNL     1      -8.876  -2.937  -6.329  1.00  0.00    -0.254 N 
HETATM   32  N4  UNL     1      -8.295  -3.276  -5.198  1.00  0.00    -0.026 N 
ATOM     33  H3  UNL     1      -9.513  -2.140  -6.325  1.00  0.00     0.190 HD
BRANCH  30  34
HETATM   34  S1  UNL     1      -9.486  -3.079  -8.990  1.00  0.00    -0.089 SA
BRANCH  34  35
HETATM   35  C11 UNL     1      -8.781  -1.646  -9.784  1.00  0.00     0.159 C 
BRANCH  35  36
HETATM   36  C12 UNL     1      -9.716  -1.017 -10.782  1.00  0.00     0.086 C 
BRANCH  36  37
HETATM   37  C13 UNL     1      -8.921  -0.267 -11.814  1.00  0.00     0.255 C 
BRANCH  37  38
HETATM   38  O5  UNL     1      -7.638  -0.695 -11.962  1.00  0.00    -0.371 OA
ATOM     39  H5  UNL     1      -7.071  -0.513 -11.221  1.00  0.00     0.212 HD
ENDBRANCH  37  38
BRANCH  37  40
HETATM   40  O6  UNL     1      -9.607  -0.210 -13.042  1.00  0.00    -0.371 OA
ATOM     41  H6  UNL     1     -10.546  -0.164 -12.909  1.00  0.00     0.212 HD
ENDBRANCH  37  40
ENDBRANCH  36  37
ENDBRANCH  35  36
BRANCH  35  42
HETATM   42  C14 UNL     1      -8.199  -0.647  -8.859  1.00  0.00     0.187 C 
HETATM   43  O7  UNL     1      -8.907  -0.082  -8.012  1.00  0.00    -0.647 OA
HETATM   44  O8  UNL     1      -6.852  -0.337  -8.935  1.00  0.00    -0.647 OA
ENDBRANCH  35  42
ENDBRANCH  34  35
ENDBRANCH  30  34
BRANCH  32  45
HETATM   45  N5  UNL     1      -8.546  -2.559  -4.030  1.00  0.00    -0.309 N 
ATOM     46  H52 UNL     1      -9.289  -2.848  -3.394  1.00  0.00     0.179 HD
ATOM     47  H51 UNL     1      -7.970  -1.742  -3.829  1.00  0.00     0.179 HD
ENDBRANCH  32  45
ENDBRANCH   1  25
TORSDOF 14
ENDMDL
MODEL 5
REMARK VINA RESULT: -6.602296136      0.592      1.809
REMARK  14 active torsions:
REMARK  status: ('A' for Active; 'I' for Inactive)
REMARK    1  A    between atoms: O1_2  and  C2_3 
REMARK    2  A    between atoms: C4_5  and  O2_6 
REMARK    3  A    between atoms: C5_8  and  O3_9 
REMARK    4  A    between atoms: C7_12  and  N1_13 
REMARK    5  A    between atoms: N1_13  and  C8_15 
REMARK    6  A    between atoms: C10_20  and  S1_21 
REMARK    7  A    between atoms: S1_21  and  C11_22 
REMARK    8  A    between atoms: C11_22  and  C12_23 
REMARK    9  A    between atoms: C11_22  and  C14_29 
REMARK   10  A    between atoms: C12_23  and  C13_24 
REMARK   11  A    between atoms: C13_24  and  O5_25 
REMARK   12  A    between atoms: C13_24  and  O6_27 
REMARK   13  A    between atoms: N4_34  and  N5_35 
REMARK   14  A    between atoms: C16_44  and  C17_45 
ROOT
HETATM    1  N1  UNL     1      -8.003  -4.290  -3.708  1.00  0.00    -0.209 N 
ATOM      2  H1  UNL     1      -8.713  -3.898  -3.090  1.00  0.00     0.178 HD
ENDROOT
BRANCH   1   3
HETATM    3  C7  UNL     1      -6.993  -5.091  -3.096  1.00  0.00     0.198 C 
HETATM    4  C6  UNL     1      -5.826  -4.277  -2.577  1.00  0.00     0.150 C 
HETATM    5  C5  UNL     1      -6.345  -2.924  -2.134  1.00  0.00     0.172 C 
HETATM    6  N7  UNL     1      -5.410  -5.025  -1.438  1.00  0.00    -0.162 NA
HETATM    7  C4  UNL     1      -5.342  -2.232  -1.234  1.00  0.00     0.185 C 
HETATM    8  C2  UNL     1      -5.001  -3.056  -0.035  1.00  0.00     0.113 C 
HETATM    9  C3  UNL     1      -3.836  -2.399   0.678  1.00  0.00     0.051 C 
HETATM   10  C16 UNL     1      -4.459  -4.393  -0.574  1.00  0.00     0.224 C 
HETATM   11  O9  UNL     1      -6.585  -5.350  -0.826  1.00  0.00    -0.245 OA
HETATM   12  C15 UNL     1      -7.476  -5.742  -1.834  1.00  0.00     0.159 C 
HETATM   13  N6  UNL     1      -8.509  -6.508  -1.716  1.00  0.00    -0.380 N 
ATOM     14  H62 UNL     1      -9.157  -6.794  -2.450  1.00  0.00     0.158 HD
ATOM     15  H61 UNL     1      -8.838  -6.951  -0.858  1.00  0.00     0.158 HD
BRANCH   5  16
HETATM   16  O3  UNL     1      -7.557  -3.007  -1.498  1.00  0.00    -0.391 OA
ATOM     17  H3  UNL     1      -8.119  -3.620  -1.957  1.00  0.00     0.210 HD
ENDBRANCH   5  16
BRANCH   7  18
HETATM   18  O2  UNL     1      -5.756  -0.949  -0.982  1.00  0.00    -0.390 OA
ATOM     19  H2  UNL     1      -6.227  -0.518  -1.686  1.00  0.00     0.210 HD
ENDBRANCH   7  18
BRANCH   8  20
HETATM   20  O1  UNL     1      -6.047  -3.318   0.801  1.00  0.00    -0.380 OA
HETATM   21  C1  UNL     1      -6.265  -2.509   1.864  1.00  0.00     0.202 C 
ENDBRANCH   8  20
BRANCH  10  22
HETATM   22  C17 UNL     1      -4.165  -5.318   0.545  1.00  0.00     0.197 C 
HETATM   23  O10 UNL     1      -5.081  -5.910   1.169  1.00  0.00    -0.647 OA
HETATM   24  O11 UNL     1      -2.864  -5.572   0.951  1.00  0.00    -0.647 OA
ENDBRANCH  10  22
ENDBRANCH   1   3
BRANCH   1  25
HETATM   25  C8  UNL     1      -8.108  -4.017  -4.945  1.00  0.00     0.718 A 
HETATM   26  N2  UNL     1      -7.082  -3.868  -5.789  1.00  0.00    -0.151 N 
HETATM   27  C9  UNL     1      -7.240  -3.572  -7.118  1.00  0.00     0.294 A 
ATOM     28  H2  UNL     1      -6.135  -3.979  -5.426  1.00  0.00     0.188 HD
HETATM   29  O4  UNL     1      -6.166  -3.465  -7.774  1.00  0.00    -0.265 OA
HETATM   30  C10 UNL     1      -8.490  -3.421  -7.621  1.00  0.00     0.156 A 
HETATM   31  N3  UNL     1      -9.524  -3.579  -6.737  1.00  0.00    -0.254 N 
HETATM   32  N4  UNL     1      -9.350  -3.863  -5.463  1.00  0.00    -0.026 N 
ATOM     33  H3  UNL     1     -10.478  -3.472  -7.083  1.00  0.00     0.190 HD
BRANCH  30  34
HETATM   34  S1  UNL     1      -8.804  -3.034  -9.317  1.00  0.00    -0.089 SA
BRANCH  34  35
HETATM   35  C11 UNL     1      -8.590  -1.320  -9.760  1.00  0.00     0.159 C 
BRANCH  35  36
HETATM   36  C12 UNL     1      -7.222  -0.797  -9.408  1.00  0.00     0.086 C 
BRANCH  36  37
HETATM   37  C13 UNL     1      -7.355   0.524  -8.704  1.00  0.00     0.255 C 
BRANCH  37  38
HETATM   38  O5  UNL     1      -7.175   1.612  -9.501  1.00  0.00    -0.371 OA
ATOM     39  H5  UNL     1      -6.799   2.367  -9.063  1.00  0.00     0.212 HD
ENDBRANCH  37  38
BRANCH  37  40
HETATM   40  O6  UNL     1      -8.556   0.593  -7.973  1.00  0.00    -0.371 OA
ATOM     41  H6  UNL     1      -9.311   0.557  -8.549  1.00  0.00     0.212 HD
ENDBRANCH  37  40
ENDBRANCH  36  37
ENDBRANCH  35  36
BRANCH  35  42
HETATM   42  C14 UNL     1      -8.974  -0.985 -11.150  1.00  0.00     0.187 C 
HETATM   43  O7  UNL     1      -8.109  -0.830 -12.025  1.00  0.00    -0.647 OA
HETATM   44  O8  UNL     1     -10.310  -0.842 -11.482  1.00  0.00    -0.647 OA
ENDBRANCH  35  42
ENDBRANCH  34  35
ENDBRANCH  30  34
BRANCH  32  45
HETATM   45  N5  UNL     1     -10.447  -4.011  -4.615  1.00  0.00    -0.309 N 
ATOM     46  H52 UNL     1     -11.163  -3.287  -4.563  1.00  0.00     0.179 HD
ATOM     47  H51 UNL     1     -10.513  -4.858  -4.051  1.00  0.00     0.179 HD
ENDBRANCH  32  45
ENDBRANCH   1  25
TORSDOF 14
ENDMDL
