MODEL 1
REMARK VINA RESULT: -8.651017323      0.000      0.000
REMARK  13 active torsions:
REMARK  status: ('A' for Active; 'I' for Inactive)
REMARK    1  A    between atoms: N1_1  and  C1_4 
REMARK    2  A    between atoms: C2_7  and  C3_8 
REMARK    3  A    between atoms: N7_21  and  C6_22 
REMARK    4  A    between atoms: C6_22  and  C7_23 
REMARK       I    between atoms: C7_23  and  N8_25 
REMARK    5  A    between atoms: N8_25  and  C8_27 
REMARK    6  A    between atoms: C9_30  and  C10_31 
REMARK    7  A    between atoms: N11_36  and  C11_37 
REMARK    8  A    between atoms: C11_37  and  C12_38 
REMARK    9  A    between atoms: C11_37  and  C13_41 
REMARK   10  A    between atoms: C12_38  and  O5_39 
REMARK   11  A    between atoms: C13_41  and  O6_42 
REMARK   12  A    between atoms: C14_44  and  S1_45 
REMARK   13  A    between atoms: S1_45  and  N12_46 
ROOT
HETATM    1  C1  UNL     1      -2.630   0.936 -10.961  1.00  0.00     0.677 A 
HETATM    2  N2  UNL     1      -3.967   1.069 -11.021  1.00  0.00    -0.186 N 
ATOM      3  H2  UNL     1      -4.369   1.839 -11.554  1.00  0.00     0.184 HD
HETATM    4  C2  UNL     1      -4.788   0.197 -10.385  1.00  0.00     0.125 A 
HETATM    5  C5  UNL     1      -4.180  -0.816  -9.688  1.00  0.00     0.109 A 
HETATM    6  N6  UNL     1      -4.666  -1.819  -8.970  1.00  0.00    -0.292 N 
ATOM      7  H6  UNL     1      -5.659  -1.993  -8.822  1.00  0.00     0.187 HD
HETATM    8  N7  UNL     1      -3.694  -2.564  -8.469  1.00  0.00    -0.269 N 
HETATM    9  C14 UNL     1      -2.492  -2.068  -8.850  1.00  0.00     0.196 A 
HETATM   10  C15 UNL     1      -2.794  -0.958  -9.624  1.00  0.00     0.121 A 
HETATM   11  N13 UNL     1      -2.037  -0.057 -10.277  1.00  0.00    -0.187 N 
ATOM     12  H13 UNL     1      -1.020  -0.127 -10.253  1.00  0.00     0.184 HD
ENDROOT
BRANCH   8  13
HETATM   13  C6  UNL     1      -3.882  -3.719  -7.651  1.00  0.00     0.253 C 
BRANCH  13  14
HETATM   14  C7  UNL     1      -5.319  -4.021  -7.408  1.00  0.00     0.255 C 
HETATM   15  O2  UNL     1      -5.944  -4.850  -8.117  1.00  0.00    -0.271 OA
HETATM   16  N8  UNL     1      -6.026  -3.374  -6.361  1.00  0.00    -0.157 N 
ATOM     17  H8  UNL     1      -5.540  -2.697  -5.773  1.00  0.00     0.187 HD
BRANCH  16  18
HETATM   18  C8  UNL     1      -7.396  -3.652  -6.118  1.00  0.00     0.704 A 
HETATM   19  N9  UNL     1      -7.866  -4.319  -5.051  1.00  0.00    -0.167 N 
HETATM   20  C9  UNL     1      -9.224  -4.397  -5.150  1.00  0.00     0.213 A 
ATOM     21  H9  UNL     1      -7.301  -4.703  -4.293  1.00  0.00     0.186 HD
HETATM   22  N10 UNL     1      -9.513  -3.755  -6.303  1.00  0.00    -0.262 N 
HETATM   23  N11 UNL     1      -8.434  -3.305  -6.892  1.00  0.00    -0.113 N 
ATOM     24  H10 UNL     1     -10.457  -3.635  -6.669  1.00  0.00     0.189 HD
BRANCH  20  25
HETATM   25  C10 UNL     1     -10.146  -5.027  -4.226  1.00  0.00     0.247 C 
HETATM   26  O3  UNL     1     -11.339  -4.674  -4.187  1.00  0.00    -0.642 OA
HETATM   27  O4  UNL     1      -9.705  -6.023  -3.382  1.00  0.00    -0.642 OA
ENDBRANCH  20  25
BRANCH  23  28
HETATM   28  C11 UNL     1      -8.386  -2.562  -8.160  1.00  0.00     0.173 C 
BRANCH  28  29
HETATM   29  C12 UNL     1      -9.306  -3.247  -9.166  1.00  0.00     0.194 C 
BRANCH  29  30
HETATM   30  O5  UNL     1      -8.849  -4.552  -9.334  1.00  0.00    -0.399 OA
ATOM     31  H5  UNL     1      -8.828  -4.731 -10.268  1.00  0.00     0.209 HD
ENDBRANCH  29  30
ENDBRANCH  28  29
BRANCH  28  32
HETATM   32  C13 UNL     1      -8.878  -1.160  -7.893  1.00  0.00     0.194 C 
BRANCH  32  33
HETATM   33  O6  UNL     1      -9.988  -0.887  -8.666  1.00  0.00    -0.399 OA
ATOM     34  H6  UNL     1      -9.854  -0.092  -9.167  1.00  0.00     0.209 HD
ENDBRANCH  32  33
ENDBRANCH  28  32
ENDBRANCH  23  28
ENDBRANCH  16  18
ENDBRANCH  13  14
ENDBRANCH   8  13
BRANCH   9  35
HETATM   35  S1  UNL     1      -0.895  -2.639  -8.488  1.00  0.00     0.276 S 
HETATM   36  O7  UNL     1       0.172  -1.786  -9.109  1.00  0.00    -0.199 OA
HETATM   37  O8  UNL     1      -0.638  -2.665  -7.006  1.00  0.00    -0.199 OA
BRANCH  35  38
HETATM   38  N12 UNL     1      -0.641  -4.257  -9.074  1.00  0.00    -0.323 N 
ATOM     39 2H12 UNL     1       0.095  -4.504  -9.735  1.00  0.00     0.169 HD
ATOM     40 1H12 UNL     1      -1.314  -4.912  -8.676  1.00  0.00     0.169 HD
ENDBRANCH  35  38
ENDBRANCH   9  35
BRANCH   4  41
HETATM   41  C3  UNL     1      -6.229   0.383 -10.480  1.00  0.00     0.159 A 
HETATM   42  N3  UNL     1      -7.072  -0.259 -11.317  1.00  0.00    -0.304 N 
HETATM   43  C4  UNL     1      -8.328   0.173 -11.120  1.00  0.00     0.242 A 
ATOM     44  H3  UNL     1      -6.796  -0.967 -11.998  1.00  0.00     0.171 HD
HETATM   45  N4  UNL     1      -9.417  -0.182 -11.708  1.00  0.00    -0.364 N 
HETATM   46  O1  UNL     1      -8.274   1.071 -10.175  1.00  0.00    -0.199 OA
ATOM     47  H42 UNL     1      -9.459  -0.883 -12.447  1.00  0.00     0.159 HD
ATOM     48  H41 UNL     1     -10.371   0.146 -11.559  1.00  0.00     0.159 HD
HETATM   49  N5  UNL     1      -7.020   1.210  -9.778  1.00  0.00    -0.239 N 
ATOM     50  H5  UNL     1      -6.702   1.850  -9.050  1.00  0.00     0.196 HD
ENDBRANCH   4  41
BRANCH   1  51
HETATM   51  N1  UNL     1      -1.873   1.777 -11.573  1.00  0.00    -0.234 N 
ATOM     52  H12 UNL     1      -1.360   2.453 -11.007  1.00  0.00     0.174 HD
ATOM     53  H11 UNL     1      -1.801   1.751 -12.590  1.00  0.00     0.174 HD
ENDBRANCH   1  51
TORSDOF 13
ENDMDL
MODEL 2
REMARK VINA RESULT: -8.354578613      2.814      6.674
REMARK  13 active torsions:
REMARK  status: ('A' for Active; 'I' for Inactive)
REMARK    1  A    between atoms: N1_1  and  C1_4 
REMARK    2  A    between atoms: C2_7  and  C3_8 
REMARK    3  A    between atoms: N7_21  and  C6_22 
REMARK    4  A    between atoms: C6_22  and  C7_23 
REMARK       I    between atoms: C7_23  and  N8_25 
REMARK    5  A    between atoms: N8_25  and  C8_27 
REMARK    6  A    between atoms: C9_30  and  C10_31 
REMARK    7  A    between atoms: N11_36  and  C11_37 
REMARK    8  A    between atoms: C11_37  and  C12_38 
REMARK    9  A    between atoms: C11_37  and  C13_41 
REMARK   10  A    between atoms: C12_38  and  O5_39 
REMARK   11  A    between atoms: C13_41  and  O6_42 
REMARK   12  A    between atoms: C14_44  and  S1_45 
REMARK   13  A    between atoms: S1_45  and  N12_46 
ROOT
HETATM    1  C1  UNL     1      -9.258  -0.451 -11.360  1.00  0.00     0.677 A 
HETATM    2  N2  UNL     1      -8.141   0.296 -11.335  1.00  0.00    -0.186 N 
ATOM      3  H2  UNL     1      -8.046   1.076 -11.984  1.00  0.00     0.184 HD
HETATM    4  C2  UNL     1      -7.138   0.031 -10.461  1.00  0.00     0.125 A 
HETATM    5  C5  UNL     1      -7.332  -1.032  -9.615  1.00  0.00     0.109 A 
HETATM    6  N6  UNL     1      -6.578  -1.558  -8.660  1.00  0.00    -0.292 N 
ATOM      7  H6  UNL     1      -5.657  -1.210  -8.396  1.00  0.00     0.187 HD
HETATM    8  N7  UNL     1      -7.175  -2.594  -8.095  1.00  0.00    -0.269 N 
HETATM    9  C14 UNL     1      -8.384  -2.798  -8.671  1.00  0.00     0.196 A 
HETATM   10  C15 UNL     1      -8.489  -1.809  -9.637  1.00  0.00     0.121 A 
HETATM   11  N13 UNL     1      -9.445  -1.492 -10.530  1.00  0.00    -0.187 N 
ATOM     12  H13 UNL     1     -10.305  -2.037 -10.577  1.00  0.00     0.184 HD
ENDROOT
BRANCH   8  13
HETATM   13  C6  UNL     1      -6.630  -3.380  -7.035  1.00  0.00     0.253 C 
BRANCH  13  14
HETATM   14  C7  UNL     1      -5.603  -4.346  -7.509  1.00  0.00     0.255 C 
HETATM   15  O2  UNL     1      -5.907  -5.523  -7.829  1.00  0.00    -0.271 OA
HETATM   16  N8  UNL     1      -4.241  -3.960  -7.611  1.00  0.00    -0.157 N 
ATOM     17  H8  UNL     1      -3.969  -3.010  -7.356  1.00  0.00     0.187 HD
BRANCH  16  18
HETATM   18  C8  UNL     1      -3.250  -4.871  -8.061  1.00  0.00     0.704 A 
HETATM   19  N9  UNL     1      -2.936  -6.027  -7.453  1.00  0.00    -0.167 N 
HETATM   20  C9  UNL     1      -1.945  -6.638  -8.162  1.00  0.00     0.213 A 
ATOM     21  H9  UNL     1      -3.368  -6.387  -6.602  1.00  0.00     0.186 HD
HETATM   22  N10 UNL     1      -1.704  -5.797  -9.192  1.00  0.00    -0.262 N 
HETATM   23  N11 UNL     1      -2.474  -4.738  -9.146  1.00  0.00    -0.113 N 
ATOM     24  H10 UNL     1      -1.008  -5.966  -9.917  1.00  0.00     0.189 HD
BRANCH  20  25
HETATM   25  C10 UNL     1      -1.299  -7.902  -7.875  1.00  0.00     0.247 C 
HETATM   26  O3  UNL     1      -1.799  -8.971  -8.274  1.00  0.00    -0.642 OA
HETATM   27  O4  UNL     1      -0.124  -7.930  -7.156  1.00  0.00    -0.642 OA
ENDBRANCH  20  25
BRANCH  23  28
HETATM   28  C11 UNL     1      -2.475  -3.627 -10.108  1.00  0.00     0.173 C 
BRANCH  28  29
HETATM   29  C12 UNL     1      -2.299  -2.317  -9.347  1.00  0.00     0.194 C 
BRANCH  29  30
HETATM   30  O5  UNL     1      -3.518  -1.641  -9.385  1.00  0.00    -0.399 OA
ATOM     31  H5  UNL     1      -3.867  -1.630  -8.501  1.00  0.00     0.209 HD
ENDBRANCH  29  30
ENDBRANCH  28  29
BRANCH  28  32
HETATM   32  C13 UNL     1      -1.310  -3.828 -11.048  1.00  0.00     0.194 C 
BRANCH  32  33
HETATM   33  O6  UNL     1      -1.414  -2.975 -12.128  1.00  0.00    -0.399 OA
ATOM     34  H6  UNL     1      -0.665  -3.078 -12.702  1.00  0.00     0.209 HD
ENDBRANCH  32  33
ENDBRANCH  28  32
ENDBRANCH  23  28
ENDBRANCH  16  18
ENDBRANCH  13  14
ENDBRANCH   8  13
BRANCH   9  35
HETATM   35  S1  UNL     1      -9.584  -4.003  -8.330  1.00  0.00     0.276 S 
HETATM   36  O7  UNL     1     -10.898  -3.706  -8.989  1.00  0.00    -0.199 OA
HETATM   37  O8  UNL     1      -9.148  -5.365  -8.799  1.00  0.00    -0.199 OA
BRANCH  35  38
HETATM   38  N12 UNL     1      -9.900  -4.133  -6.625  1.00  0.00    -0.323 N 
ATOM     39 2H12 UNL     1      -9.171  -4.298  -5.932  1.00  0.00     0.169 HD
ATOM     40 1H12 UNL     1     -10.893  -4.024  -6.416  1.00  0.00     0.169 HD
ENDBRANCH  35  38
ENDBRANCH   9  35
BRANCH   4  41
HETATM   41  C3  UNL     1      -5.948   0.870 -10.472  1.00  0.00     0.159 A 
HETATM   42  N3  UNL     1      -4.745   0.556 -10.998  1.00  0.00    -0.304 N 
HETATM   43  C4  UNL     1      -3.889   1.575 -10.819  1.00  0.00     0.242 A 
ATOM     44  H3  UNL     1      -4.519  -0.324 -11.462  1.00  0.00     0.171 HD
HETATM   45  N4  UNL     1      -2.654   1.678 -11.170  1.00  0.00    -0.364 N 
HETATM   46  O1  UNL     1      -4.544   2.513 -10.192  1.00  0.00    -0.199 OA
ATOM     47  H42 UNL     1      -2.142   0.945 -11.660  1.00  0.00     0.159 HD
ATOM     48  H41 UNL     1      -2.005   2.452 -11.034  1.00  0.00     0.159 HD
HETATM   49  N5  UNL     1      -5.784   2.106  -9.974  1.00  0.00    -0.239 N 
ATOM     50  H5  UNL     1      -6.506   2.649  -9.500  1.00  0.00     0.196 HD
ENDBRANCH   4  41
BRANCH   1  51
HETATM   51  N1  UNL     1     -10.195  -0.178 -12.199  1.00  0.00    -0.234 N 
ATOM     52  H12 UNL     1     -10.055   0.615 -12.825  1.00  0.00     0.174 HD
ATOM     53  H11 UNL     1     -11.040  -0.749 -12.221  1.00  0.00     0.174 HD
ENDBRANCH   1  51
TORSDOF 13
ENDMDL
MODEL 3
REMARK VINA RESULT: -8.321477070      3.431      6.081
REMARK  13 active torsions:
REMARK  status: ('A' for Active; 'I' for Inactive)
REMARK    1  A    between atoms: N1_1  and  C1_4 
REMARK    2  A    between atoms: C2_7  and  C3_8 
REMARK    3  A    between atoms: N7_21  and  C6_22 
REMARK    4  A    between atoms: C6_22  and  C7_23 
REMARK       I    between atoms: C7_23  and  N8_25 
REMARK    5  A    between atoms: N8_25  and  C8_27 
REMARK    6  A    between atoms: C9_30  and  C10_31 
REMARK    7  A    between atoms: N11_36  and  C11_37 
REMARK    8  A    between atoms: C11_37  and  C12_38 
REMARK    9  A    between atoms: C11_37  and  C13_41 
REMARK   10  A    between atoms: C12_38  and  O5_39 
REMARK   11  A    between atoms: C13_41  and  O6_42 
REMARK   12  A    between atoms: C14_44  and  S1_45 
REMARK   13  A    between atoms: S1_45  and  N12_46 
ROOT
HETATM    1  C1  UNL     1      -9.304  -0.948 -10.670  1.00  0.00     0.677 A 
HETATM    2  N2  UNL     1      -8.227  -0.143 -10.680  1.00  0.00    -0.186 N 
ATOM      3  H2  UNL     1      -8.226   0.684 -11.276  1.00  0.00     0.184 HD
HETATM    4  C2  UNL     1      -7.142  -0.412  -9.911  1.00  0.00     0.125 A 
HETATM    5  C5  UNL     1      -7.212  -1.541  -9.133  1.00  0.00     0.109 A 
HETATM    6  N6  UNL     1      -6.355  -2.089  -8.283  1.00  0.00    -0.292 N 
ATOM      7  H6  UNL     1      -5.434  -1.710  -8.068  1.00  0.00     0.187 HD
HETATM    8  N7  UNL     1      -6.851  -3.193  -7.750  1.00  0.00    -0.269 N 
HETATM    9  C14 UNL     1      -8.092  -3.424  -8.241  1.00  0.00     0.196 A 
HETATM   10  C15 UNL     1      -8.327  -2.377  -9.120  1.00  0.00     0.121 A 
HETATM   11  N13 UNL     1      -9.369  -2.052  -9.908  1.00  0.00    -0.187 N 
ATOM     12  H13 UNL     1     -10.202  -2.640  -9.926  1.00  0.00     0.184 HD
ENDROOT
BRANCH   8  13
HETATM   13  C6  UNL     1      -6.180  -4.020  -6.798  1.00  0.00     0.253 C 
BRANCH  13  14
HETATM   14  C7  UNL     1      -6.574  -3.714  -5.396  1.00  0.00     0.255 C 
HETATM   15  O2  UNL     1      -7.693  -3.210  -5.123  1.00  0.00    -0.271 OA
HETATM   16  N8  UNL     1      -5.688  -3.986  -4.321  1.00  0.00    -0.157 N 
ATOM     17  H8  UNL     1      -4.774  -4.394  -4.517  1.00  0.00     0.187 HD
BRANCH  16  18
HETATM   18  C8  UNL     1      -6.050  -3.699  -2.979  1.00  0.00     0.704 A 
HETATM   19  N9  UNL     1      -5.845  -2.523  -2.363  1.00  0.00    -0.167 N 
HETATM   20  C9  UNL     1      -6.317  -2.612  -1.087  1.00  0.00     0.213 A 
ATOM     21  H9  UNL     1      -5.409  -1.701  -2.781  1.00  0.00     0.186 HD
HETATM   22  N10 UNL     1      -6.797  -3.872  -0.995  1.00  0.00    -0.262 N 
HETATM   23  N11 UNL     1      -6.645  -4.533  -2.114  1.00  0.00    -0.113 N 
ATOM     24  H10 UNL     1      -7.226  -4.260  -0.155  1.00  0.00     0.189 HD
BRANCH  20  25
HETATM   25  C10 UNL     1      -6.306  -1.586  -0.064  1.00  0.00     0.247 C 
HETATM   26  O3  UNL     1      -5.819  -0.464  -0.301  1.00  0.00    -0.642 OA
HETATM   27  O4  UNL     1      -6.836  -1.846   1.182  1.00  0.00    -0.642 OA
ENDBRANCH  20  25
BRANCH  23  28
HETATM   28  C11 UNL     1      -7.055  -5.924  -2.361  1.00  0.00     0.173 C 
BRANCH  28  29
HETATM   29  C12 UNL     1      -6.702  -6.764  -1.138  1.00  0.00     0.194 C 
BRANCH  29  30
HETATM   30  O5  UNL     1      -7.791  -6.720  -0.269  1.00  0.00    -0.399 OA
ATOM     31  H5  UNL     1      -7.458  -6.519   0.598  1.00  0.00     0.209 HD
ENDBRANCH  29  30
ENDBRANCH  28  29
BRANCH  28  32
HETATM   32  C13 UNL     1      -8.550  -5.935  -2.572  1.00  0.00     0.194 C 
BRANCH  32  33
HETATM   33  O6  UNL     1      -8.846  -5.748  -3.906  1.00  0.00    -0.399 OA
ATOM     34  H6  UNL     1      -9.531  -5.098  -4.003  1.00  0.00     0.209 HD
ENDBRANCH  32  33
ENDBRANCH  28  32
ENDBRANCH  23  28
ENDBRANCH  16  18
ENDBRANCH  13  14
ENDBRANCH   8  13
BRANCH   9  35
HETATM   35  S1  UNL     1      -9.198  -4.715  -7.895  1.00  0.00     0.276 S 
HETATM   36  O7  UNL     1     -10.267  -4.848  -8.939  1.00  0.00    -0.199 OA
HETATM   37  O8  UNL     1      -8.491  -6.040  -7.810  1.00  0.00    -0.199 OA
BRANCH  35  38
HETATM   38  N12 UNL     1     -10.011  -4.477  -6.377  1.00  0.00    -0.323 N 
ATOM     39 2H12 UNL     1     -10.893  -4.929  -6.137  1.00  0.00     0.169 HD
ATOM     40 1H12 UNL     1      -9.498  -3.837  -5.769  1.00  0.00     0.169 HD
ENDBRANCH  35  38
ENDBRANCH   9  35
BRANCH   4  41
HETATM   41  C3  UNL     1      -6.000   0.490  -9.955  1.00  0.00     0.159 A 
HETATM   42  N3  UNL     1      -4.955   0.427 -10.807  1.00  0.00    -0.304 N 
HETATM   43  C4  UNL     1      -4.094   1.424 -10.548  1.00  0.00     0.242 A 
ATOM     44  H3  UNL     1      -4.837  -0.274 -11.539  1.00  0.00     0.171 HD
HETATM   45  N4  UNL     1      -2.982   1.716 -11.126  1.00  0.00    -0.364 N 
HETATM   46  O1  UNL     1      -4.592   2.102  -9.550  1.00  0.00    -0.199 OA
ATOM     47  H42 UNL     1      -2.593   1.186 -11.906  1.00  0.00     0.159 HD
ATOM     48  H41 UNL     1      -2.328   2.473 -10.929  1.00  0.00     0.159 HD
HETATM   49  N5  UNL     1      -5.738   1.554  -9.180  1.00  0.00    -0.239 N 
ATOM     50  H5  UNL     1      -6.332   1.890  -8.421  1.00  0.00     0.196 HD
ENDBRANCH   4  41
BRANCH   1  51
HETATM   51  N1  UNL     1     -10.320  -0.670 -11.409  1.00  0.00    -0.234 N 
ATOM     52  H12 UNL     1     -10.611   0.306 -11.469  1.00  0.00     0.174 HD
ATOM     53  H11 UNL     1     -10.804  -1.415 -11.910  1.00  0.00     0.174 HD
ENDBRANCH   1  51
TORSDOF 13
ENDMDL
MODEL 4
REMARK VINA RESULT: -8.301516364      2.678      6.890
REMARK  13 active torsions:
REMARK  status: ('A' for Active; 'I' for Inactive)
REMARK    1  A    between atoms: N1_1  and  C1_4 
REMARK    2  A    between atoms: C2_7  and  C3_8 
REMARK    3  A    between atoms: N7_21  and  C6_22 
REMARK    4  A    between atoms: C6_22  and  C7_23 
REMARK       I    between atoms: C7_23  and  N8_25 
REMARK    5  A    between atoms: N8_25  and  C8_27 
REMARK    6  A    between atoms: C9_30  and  C10_31 
REMARK    7  A    between atoms: N11_36  and  C11_37 
REMARK    8  A    between atoms: C11_37  and  C12_38 
REMARK    9  A    between atoms: C11_37  and  C13_41 
REMARK   10  A    between atoms: C12_38  and  O5_39 
REMARK   11  A    between atoms: C13_41  and  O6_42 
REMARK   12  A    between atoms: C14_44  and  S1_45 
REMARK   13  A    between atoms: S1_45  and  N12_46 
ROOT
HETATM    1  C1  UNL     1      -9.265  -0.402 -11.344  1.00  0.00     0.677 A 
HETATM    2  N2  UNL     1      -8.143   0.338 -11.333  1.00  0.00    -0.186 N 
ATOM      3  H2  UNL     1      -8.058   1.125 -11.975  1.00  0.00     0.184 HD
HETATM    4  C2  UNL     1      -7.124   0.056 -10.485  1.00  0.00     0.125 A 
HETATM    5  C5  UNL     1      -7.307  -1.017  -9.648  1.00  0.00     0.109 A 
HETATM    6  N6  UNL     1      -6.536  -1.560  -8.716  1.00  0.00    -0.292 N 
ATOM      7  H6  UNL     1      -5.607  -1.221  -8.467  1.00  0.00     0.187 HD
HETATM    8  N7  UNL     1      -7.128  -2.599  -8.151  1.00  0.00    -0.269 N 
HETATM    9  C14 UNL     1      -8.350  -2.788  -8.704  1.00  0.00     0.196 A 
HETATM   10  C15 UNL     1      -8.469  -1.786  -9.655  1.00  0.00     0.121 A 
HETATM   11  N13 UNL     1      -9.442  -1.452 -10.523  1.00  0.00    -0.187 N 
ATOM     12  H13 UNL     1     -10.306  -1.991 -10.559  1.00  0.00     0.184 HD
ENDROOT
BRANCH   8  13
HETATM   13  C6  UNL     1      -6.565  -3.402  -7.113  1.00  0.00     0.253 C 
BRANCH  13  14
HETATM   14  C7  UNL     1      -5.295  -4.059  -7.522  1.00  0.00     0.255 C 
HETATM   15  O2  UNL     1      -5.268  -5.256  -7.904  1.00  0.00    -0.271 OA
HETATM   16  N8  UNL     1      -4.069  -3.344  -7.491  1.00  0.00    -0.157 N 
ATOM     17  H8  UNL     1      -4.065  -2.371  -7.185  1.00  0.00     0.187 HD
BRANCH  16  18
HETATM   18  C8  UNL     1      -2.850  -3.958  -7.879  1.00  0.00     0.704 A 
HETATM   19  N9  UNL     1      -2.456  -5.186  -7.505  1.00  0.00    -0.167 N 
HETATM   20  C9  UNL     1      -1.238  -5.443  -8.064  1.00  0.00     0.213 A 
ATOM     21  H9  UNL     1      -2.980  -5.822  -6.903  1.00  0.00     0.186 HD
HETATM   22  N10 UNL     1      -0.952  -4.326  -8.767  1.00  0.00    -0.262 N 
HETATM   23  N11 UNL     1      -1.902  -3.430  -8.667  1.00  0.00    -0.113 N 
ATOM     24  H10 UNL     1      -0.099  -4.196  -9.311  1.00  0.00     0.189 HD
BRANCH  20  25
HETATM   25  C10 UNL     1      -0.437  -6.643  -7.932  1.00  0.00     0.247 C 
HETATM   26  O3  UNL     1       0.805  -6.581  -7.988  1.00  0.00    -0.642 OA
HETATM   27  O4  UNL     1      -1.048  -7.864  -7.743  1.00  0.00    -0.642 OA
ENDBRANCH  20  25
BRANCH  23  28
HETATM   28  C11 UNL     1      -1.913  -2.105  -9.304  1.00  0.00     0.173 C 
BRANCH  28  29
HETATM   29  C12 UNL     1      -0.990  -1.176  -8.522  1.00  0.00     0.194 C 
BRANCH  29  30
HETATM   30  O5  UNL     1      -1.517   0.111  -8.610  1.00  0.00    -0.399 OA
ATOM     31  H5  UNL     1      -1.172   0.613  -7.880  1.00  0.00     0.209 HD
ENDBRANCH  29  30
ENDBRANCH  28  29
BRANCH  28  32
HETATM   32  C13 UNL     1      -1.398  -2.266 -10.714  1.00  0.00     0.194 C 
BRANCH  32  33
HETATM   33  O6  UNL     1      -1.061  -1.037 -11.243  1.00  0.00    -0.399 OA
ATOM     34  H6  UNL     1      -1.808  -0.451 -11.216  1.00  0.00     0.209 HD
ENDBRANCH  32  33
ENDBRANCH  28  32
ENDBRANCH  23  28
ENDBRANCH  16  18
ENDBRANCH  13  14
ENDBRANCH   8  13
BRANCH   9  35
HETATM   35  S1  UNL     1      -9.550  -3.991  -8.353  1.00  0.00     0.276 S 
HETATM   36  O7  UNL     1     -10.857  -3.710  -9.032  1.00  0.00    -0.199 OA
HETATM   37  O8  UNL     1      -9.105  -5.360  -8.790  1.00  0.00    -0.199 OA
BRANCH  35  38
HETATM   38  N12 UNL     1      -9.885  -4.087  -6.649  1.00  0.00    -0.323 N 
ATOM     39 2H12 UNL     1      -9.687  -4.914  -6.086  1.00  0.00     0.169 HD
ATOM     40 1H12 UNL     1     -10.297  -3.224  -6.295  1.00  0.00     0.169 HD
ENDBRANCH  35  38
ENDBRANCH   9  35
BRANCH   4  41
HETATM   41  C3  UNL     1      -5.929   0.887 -10.510  1.00  0.00     0.159 A 
HETATM   42  N3  UNL     1      -4.710   0.532 -10.968  1.00  0.00    -0.304 N 
HETATM   43  C4  UNL     1      -3.854   1.558 -10.830  1.00  0.00     0.242 A 
ATOM     44  H3  UNL     1      -4.473  -0.379 -11.361  1.00  0.00     0.171 HD
HETATM   45  N4  UNL     1      -2.607   1.632 -11.141  1.00  0.00    -0.364 N 
HETATM   46  O1  UNL     1      -4.526   2.540 -10.295  1.00  0.00    -0.199 OA
ATOM     47  H42 UNL     1      -2.082   0.864 -11.560  1.00  0.00     0.159 HD
ATOM     48  H41 UNL     1      -1.958   2.411 -11.036  1.00  0.00     0.159 HD
HETATM   49  N5  UNL     1      -5.776   2.155 -10.095  1.00  0.00    -0.239 N 
ATOM     50  H5  UNL     1      -6.511   2.732  -9.687  1.00  0.00     0.196 HD
ENDBRANCH   4  41
BRANCH   1  51
HETATM   51  N1  UNL     1     -10.218  -0.113 -12.159  1.00  0.00    -0.234 N 
ATOM     52  H12 UNL     1     -10.109   0.718 -12.741  1.00  0.00     0.174 HD
ATOM     53  H11 UNL     1     -11.045  -0.708 -12.207  1.00  0.00     0.174 HD
ENDBRANCH   1  51
TORSDOF 13
ENDMDL
MODEL 5
REMARK VINA RESULT: -8.261912084      1.642      1.920
REMARK  13 active torsions:
REMARK  status: ('A' for Active; 'I' for Inactive)
REMARK    1  A    between atoms: N1_1  and  C1_4 
REMARK    2  A    between atoms: C2_7  and  C3_8 
REMARK    3  A    between atoms: N7_21  and  C6_22 
REMARK    4  A    between atoms: C6_22  and  C7_23 
REMARK       I    between atoms: C7_23  and  N8_25 
REMARK    5  A    between atoms: N8_25  and  C8_27 
REMARK    6  A    between atoms: C9_30  and  C10_31 
REMARK    7  A    between atoms: N11_36  and  C11_37 
REMARK    8  A    between atoms: C11_37  and  C12_38 
REMARK    9  A    between atoms: C11_37  and  C13_41 
REMARK   10  A    between atoms: C12_38  and  O5_39 
REMARK   11  A    between atoms: C13_41  and  O6_42 
REMARK   12  A    between atoms: C14_44  and  S1_45 
REMARK   13  A    between atoms: S1_45  and  N12_46 
ROOT
HETATM    1  C1  UNL     1      -0.936  -0.644 -10.467  1.00  0.00     0.677 A 
HETATM    2  N2  UNL     1      -2.040   0.088 -10.243  1.00  0.00    -0.186 N 
ATOM      3  H2  UNL     1      -2.061   1.064 -10.535  1.00  0.00     0.184 HD
HETATM    4  C2  UNL     1      -3.129  -0.450  -9.638  1.00  0.00     0.125 A 
HETATM    5  C5  UNL     1      -3.033  -1.770  -9.273  1.00  0.00     0.109 A 
HETATM    6  N6  UNL     1      -3.885  -2.591  -8.677  1.00  0.00    -0.292 N 
ATOM      7  H6  UNL     1      -4.824  -2.330  -8.377  1.00  0.00     0.187 HD
HETATM    8  N7  UNL     1      -3.360  -3.795  -8.521  1.00  0.00    -0.269 N 
HETATM    9  C14 UNL     1      -2.102  -3.816  -9.024  1.00  0.00     0.196 A 
HETATM   10  C15 UNL     1      -1.890  -2.532  -9.503  1.00  0.00     0.121 A 
HETATM   11  N13 UNL     1      -0.845  -1.936 -10.108  1.00  0.00    -0.187 N 
ATOM     12  H13 UNL     1       0.009  -2.462 -10.293  1.00  0.00     0.184 HD
ENDROOT
BRANCH   8  13
HETATM   13  C6  UNL     1      -4.018  -4.907  -7.914  1.00  0.00     0.253 C 
BRANCH  13  14
HETATM   14  C7  UNL     1      -5.248  -4.512  -7.176  1.00  0.00     0.255 C 
HETATM   15  O2  UNL     1      -5.188  -3.916  -6.071  1.00  0.00    -0.271 OA
HETATM   16  N8  UNL     1      -6.532  -4.801  -7.707  1.00  0.00    -0.157 N 
ATOM     17  H8  UNL     1      -6.607  -5.284  -8.602  1.00  0.00     0.187 HD
BRANCH  16  18
HETATM   18  C8  UNL     1      -7.714  -4.430  -7.014  1.00  0.00     0.704 A 
HETATM   19  N9  UNL     1      -8.173  -5.028  -5.903  1.00  0.00    -0.167 N 
HETATM   20  C9  UNL     1      -9.326  -4.410  -5.519  1.00  0.00     0.213 A 
ATOM     21  H9  UNL     1      -7.732  -5.815  -5.425  1.00  0.00     0.186 HD
HETATM   22  N10 UNL     1      -9.510  -3.442  -6.443  1.00  0.00    -0.262 N 
HETATM   23  N11 UNL     1      -8.558  -3.440  -7.342  1.00  0.00    -0.113 N 
ATOM     24  H10 UNL     1     -10.295  -2.791  -6.441  1.00  0.00     0.189 HD
BRANCH  20  25
HETATM   25  C10 UNL     1     -10.163  -4.723  -4.377  1.00  0.00     0.247 C 
HETATM   26  O3  UNL     1     -11.306  -4.238  -4.282  1.00  0.00    -0.642 OA
HETATM   27  O4  UNL     1      -9.696  -5.561  -3.388  1.00  0.00    -0.642 OA
ENDBRANCH  20  25
BRANCH  23  28
HETATM   28  C11 UNL     1      -8.449  -2.523  -8.485  1.00  0.00     0.173 C 
BRANCH  28  29
HETATM   29  C12 UNL     1      -9.453  -2.945  -9.553  1.00  0.00     0.194 C 
BRANCH  29  30
HETATM   30  O5  UNL     1     -10.705  -3.018  -8.947  1.00  0.00    -0.399 OA
ATOM     31  H5  UNL     1     -11.360  -2.931  -9.631  1.00  0.00     0.209 HD
ENDBRANCH  29  30
ENDBRANCH  28  29
BRANCH  28  32
HETATM   32  C13 UNL     1      -8.781  -1.133  -7.996  1.00  0.00     0.194 C 
BRANCH  32  33
HETATM   33  O6  UNL     1      -9.657  -0.517  -8.865  1.00  0.00    -0.399 OA
ATOM     34  H6  UNL     1     -10.156   0.152  -8.411  1.00  0.00     0.209 HD
ENDBRANCH  32  33
ENDBRANCH  28  32
ENDBRANCH  23  28
ENDBRANCH  16  18
ENDBRANCH  13  14
ENDBRANCH   8  13
BRANCH   9  35
HETATM   35  S1  UNL     1      -0.958  -5.117  -9.089  1.00  0.00     0.276 S 
HETATM   36  O7  UNL     1       0.338  -4.709  -9.727  1.00  0.00    -0.199 OA
HETATM   37  O8  UNL     1      -0.634  -5.639  -7.716  1.00  0.00    -0.199 OA
BRANCH  35  38
HETATM   38  N12 UNL     1      -1.563  -6.462 -10.012  1.00  0.00    -0.323 N 
ATOM     39 2H12 UNL     1      -2.402  -6.983  -9.756  1.00  0.00     0.169 HD
ATOM     40 1H12 UNL     1      -0.980  -6.655 -10.826  1.00  0.00     0.169 HD
ENDBRANCH  35  38
ENDBRANCH   9  35
BRANCH   4  41
HETATM   41  C3  UNL     1      -4.302   0.383  -9.418  1.00  0.00     0.159 A 
HETATM   42  N3  UNL     1      -5.488   0.291 -10.056  1.00  0.00    -0.304 N 
HETATM   43  C4  UNL     1      -6.331   1.226  -9.591  1.00  0.00     0.242 A 
ATOM     44  H3  UNL     1      -5.711  -0.388 -10.784  1.00  0.00     0.171 HD
HETATM   45  N4  UNL     1      -7.548   1.474  -9.931  1.00  0.00    -0.364 N 
HETATM   46  O1  UNL     1      -5.685   1.895  -8.675  1.00  0.00    -0.199 OA
ATOM     47  H42 UNL     1      -8.053   0.952 -10.647  1.00  0.00     0.159 HD
ATOM     48  H41 UNL     1      -8.188   2.184  -9.578  1.00  0.00     0.159 HD
HETATM   49  N5  UNL     1      -4.463   1.402  -8.558  1.00  0.00    -0.239 N 
ATOM     50  H5  UNL     1      -3.751   1.744  -7.912  1.00  0.00     0.196 HD
ENDBRANCH   4  41
BRANCH   1  51
HETATM   51  N1  UNL     1       0.083  -0.110 -11.043  1.00  0.00    -0.234 N 
ATOM     52  H12 UNL     1       0.175  -0.230 -12.052  1.00  0.00     0.174 HD
ATOM     53  H11 UNL     1       0.764   0.412 -10.492  1.00  0.00     0.174 HD
ENDBRANCH   1  51
TORSDOF 13
ENDMDL
