MODEL 1
REMARK VINA RESULT: -9.121529512      0.000      0.000
REMARK  14 active torsions:
REMARK  status: ('A' for Active; 'I' for Inactive)
REMARK    1  A    between atoms: C3_4  and  N1_5 
REMARK    2  A    between atoms: C4_10  and  C5_11 
REMARK    3  A    between atoms: C6_14  and  O2_15 
REMARK    4  A    between atoms: O2_15  and  C7_16 
REMARK    5  A    between atoms: C8_23  and  N7_24 
REMARK    6  A    between atoms: C9_25  and  C10_26 
REMARK    7  A    between atoms: C10_26  and  O3_27 
REMARK    8  A    between atoms: C11_29  and  O4_30 
REMARK    9  A    between atoms: C12_32  and  O5_33 
REMARK   10  A    between atoms: C13_35  and  C14_36 
REMARK   11  A    between atoms: C14_36  and  O6_37 
REMARK   12  A    between atoms: O6_37  and  N8_38 
REMARK   13  A    between atoms: C16_43  and  C17_44 
REMARK   14  A    between atoms: C17_44  and  N11_45 
ROOT
HETATM    1  C7  UNL     1      -9.656  -2.468  -8.096  1.00  0.00     0.262 A 
HETATM    2  N4  UNL     1     -10.409  -3.470  -8.639  1.00  0.00    -0.249 N 
ATOM      3  H4  UNL     1     -11.075  -3.261  -9.382  1.00  0.00     0.192 HD
HETATM    4  N5  UNL     1     -10.276  -4.708  -8.204  1.00  0.00    -0.225 N 
ATOM      5  H5  UNL     1     -10.841  -5.453  -8.612  1.00  0.00     0.209 HD
HETATM    6  N6  UNL     1      -9.425  -4.983  -7.254  1.00  0.00    -0.117 N 
ATOM      7  H6  UNL     1      -9.336  -5.947  -6.930  1.00  0.00     0.207 HD
HETATM    8  C8  UNL     1      -8.654  -4.017  -6.684  1.00  0.00     0.700 A 
HETATM    9  N12 UNL     1      -8.793  -2.777  -7.127  1.00  0.00    -0.152 N 
ATOM     10  H12 UNL     1      -8.225  -2.038  -6.715  1.00  0.00     0.188 HD
ENDROOT
BRANCH   8  11
HETATM   11  N7  UNL     1      -7.734  -4.416  -5.639  1.00  0.00    -0.200 N 
HETATM   12  C9  UNL     1      -6.450  -4.965  -5.829  1.00  0.00     0.157 C 
HETATM   13  C11 UNL     1      -5.344  -4.140  -5.189  1.00  0.00     0.172 C 
HETATM   14  C12 UNL     1      -5.735  -3.553  -3.878  1.00  0.00     0.157 C 
HETATM   15  C13 UNL     1      -7.037  -4.012  -3.327  1.00  0.00     0.068 C 
HETATM   16  C16 UNL     1      -8.155  -4.254  -4.245  1.00  0.00     0.137 C 
BRANCH  12  17
HETATM   17  C10 UNL     1      -6.090  -5.268  -7.258  1.00  0.00     0.192 C 
BRANCH  17  18
HETATM   18  O3  UNL     1      -6.680  -6.510  -7.643  1.00  0.00    -0.399 OA
ATOM     19  H3  UNL     1      -7.416  -6.344  -8.220  1.00  0.00     0.209 HD
ENDBRANCH  17  18
ENDBRANCH  12  17
BRANCH  13  20
HETATM   20  O4  UNL     1      -4.243  -4.985  -5.085  1.00  0.00    -0.391 OA
ATOM     21  H4  UNL     1      -3.576  -4.620  -5.654  1.00  0.00     0.210 HD
ENDBRANCH  13  20
BRANCH  14  22
HETATM   22  O5  UNL     1      -4.707  -3.791  -2.964  1.00  0.00    -0.392 OA
ATOM     23  H5  UNL     1      -4.811  -3.194  -2.234  1.00  0.00     0.210 HD
ENDBRANCH  14  22
BRANCH  15  24
HETATM   24  C14 UNL     1      -7.539  -3.018  -2.262  1.00  0.00     0.210 C 
BRANCH  24  25
HETATM   25  O6  UNL     1      -6.553  -2.048  -1.994  1.00  0.00    -0.278 OA
BRANCH  25  26
HETATM   26  N8  UNL     1      -6.086  -1.815  -0.751  1.00  0.00    -0.241 N 
HETATM   27  C15 UNL     1      -4.910  -1.452  -0.410  1.00  0.00     0.221 C 
HETATM   28  N9  UNL     1      -4.575  -1.245   0.978  1.00  0.00    -0.065 NA
HETATM   29  N10 UNL     1      -3.902  -1.240  -1.370  1.00  0.00    -0.065 NA
ATOM     30  H8  UNL     1      -6.754  -1.945   0.010  1.00  0.00     0.196 HD
ENDBRANCH  25  26
ENDBRANCH  24  25
ENDBRANCH  15  24
BRANCH  16  31
HETATM   31  C17 UNL     1      -9.049  -5.391  -3.793  1.00  0.00     0.256 C 
BRANCH  31  32
HETATM   32  N11 UNL     1     -10.446  -5.121  -3.893  1.00  0.00    -0.077 N 
ATOM     33 3H11 UNL     1     -10.975  -5.763  -3.303  1.00  0.00     0.274 HD
ATOM     34 2H11 UNL     1     -10.671  -4.238  -3.435  1.00  0.00     0.274 HD
ATOM     35 1H11 UNL     1     -10.811  -5.130  -4.844  1.00  0.00     0.274 HD
ENDBRANCH  31  32
ENDBRANCH  16  31
ENDBRANCH   8  11
BRANCH   1  36
HETATM   36  O2  UNL     1      -9.828  -1.183  -8.584  1.00  0.00    -0.244 OA
BRANCH  36  37
HETATM   37  C6  UNL     1      -9.100  -0.795  -9.693  1.00  0.00     0.247 A 
HETATM   38  N3  UNL     1      -7.789  -0.524  -9.575  1.00  0.00    -0.305 N 
HETATM   39  C5  UNL     1      -7.043  -0.145 -10.621  1.00  0.00     0.153 A 
ATOM     40  H3  UNL     1      -7.347  -0.611  -8.659  1.00  0.00     0.171 HD
HETATM   41  N15 UNL     1      -7.649  -0.039 -11.813  1.00  0.00    -0.174 N 
HETATM   42  C18 UNL     1      -8.955  -0.296 -11.994  1.00  0.00     0.680 A 
ATOM     43  H15 UNL     1      -7.093   0.250 -12.619  1.00  0.00     0.186 HD
HETATM   44  N13 UNL     1      -9.666  -0.677 -10.901  1.00  0.00    -0.154 N 
HETATM   45  N14 UNL     1      -9.521  -0.188 -13.154  1.00  0.00    -0.234 N 
ATOM     46  H13 UNL     1     -10.661  -0.879 -11.003  1.00  0.00     0.188 HD
ATOM     47 2H14 UNL     1     -10.513  -0.384 -13.292  1.00  0.00     0.174 HD
ATOM     48 1H14 UNL     1      -8.986   0.098 -13.975  1.00  0.00     0.174 HD
BRANCH  39  49
HETATM   49  C4  UNL     1      -5.617   0.140 -10.449  1.00  0.00     0.110 A 
HETATM   50  C2  UNL     1      -4.739  -0.448  -9.564  1.00  0.00     0.083 A 
HETATM   51  C1  UNL     1      -5.091  -1.510  -8.596  1.00  0.00     0.079 C 
HETATM   52  O1  UNL     1      -3.571   0.104  -9.745  1.00  0.00    -0.282 OA
HETATM   53  C3  UNL     1      -3.599   1.003 -10.672  1.00  0.00     0.222 A 
HETATM   54  N2  UNL     1      -4.885   1.041 -11.128  1.00  0.00    -0.317 N 
ATOM     55  H2  UNL     1      -5.235   1.653 -11.865  1.00  0.00     0.169 HD
BRANCH  53  56
HETATM   56  N1  UNL     1      -2.596   1.712 -11.067  1.00  0.00    -0.365 N 
ATOM     57  H12 UNL     1      -1.710   1.867 -10.587  1.00  0.00     0.159 HD
ATOM     58  H11 UNL     1      -2.541   2.234 -11.942  1.00  0.00     0.159 HD
ENDBRANCH  53  56
ENDBRANCH  39  49
ENDBRANCH  36  37
ENDBRANCH   1  36
TORSDOF 14
ENDMDL
MODEL 2
REMARK VINA RESULT: -8.751382976      1.317      1.518
REMARK  14 active torsions:
REMARK  status: ('A' for Active; 'I' for Inactive)
REMARK    1  A    between atoms: C3_4  and  N1_5 
REMARK    2  A    between atoms: C4_10  and  C5_11 
REMARK    3  A    between atoms: C6_14  and  O2_15 
REMARK    4  A    between atoms: O2_15  and  C7_16 
REMARK    5  A    between atoms: C8_23  and  N7_24 
REMARK    6  A    between atoms: C9_25  and  C10_26 
REMARK    7  A    between atoms: C10_26  and  O3_27 
REMARK    8  A    between atoms: C11_29  and  O4_30 
REMARK    9  A    between atoms: C12_32  and  O5_33 
REMARK   10  A    between atoms: C13_35  and  C14_36 
REMARK   11  A    between atoms: C14_36  and  O6_37 
REMARK   12  A    between atoms: O6_37  and  N8_38 
REMARK   13  A    between atoms: C16_43  and  C17_44 
REMARK   14  A    between atoms: C17_44  and  N11_45 
ROOT
HETATM    1  C7  UNL     1      -9.601  -2.441  -8.051  1.00  0.00     0.262 A 
HETATM    2  N4  UNL     1     -10.393  -3.415  -8.591  1.00  0.00    -0.249 N 
ATOM      3  H4  UNL     1     -11.069  -3.176  -9.317  1.00  0.00     0.192 HD
HETATM    4  N5  UNL     1     -10.285  -4.661  -8.175  1.00  0.00    -0.225 N 
ATOM      5  H5  UNL     1     -10.879  -5.385  -8.581  1.00  0.00     0.209 HD
HETATM    6  N6  UNL     1      -9.423  -4.974  -7.247  1.00  0.00    -0.117 N 
ATOM      7  H6  UNL     1      -9.353  -5.943  -6.939  1.00  0.00     0.207 HD
HETATM    8  C8  UNL     1      -8.613  -4.037  -6.681  1.00  0.00     0.700 A 
HETATM    9  N12 UNL     1      -8.727  -2.788  -7.105  1.00  0.00    -0.152 N 
ATOM     10  H12 UNL     1      -8.130  -2.070  -6.695  1.00  0.00     0.188 HD
ENDROOT
BRANCH   8  11
HETATM   11  N7  UNL     1      -7.683  -4.476  -5.662  1.00  0.00    -0.200 N 
HETATM   12  C9  UNL     1      -6.409  -5.036  -5.886  1.00  0.00     0.157 C 
HETATM   13  C11 UNL     1      -5.283  -4.242  -5.242  1.00  0.00     0.172 C 
HETATM   14  C12 UNL     1      -5.646  -3.686  -3.910  1.00  0.00     0.157 C 
HETATM   15  C13 UNL     1      -6.945  -4.144  -3.351  1.00  0.00     0.068 C 
HETATM   16  C16 UNL     1      -8.080  -4.346  -4.257  1.00  0.00     0.137 C 
BRANCH  12  17
HETATM   17  C10 UNL     1      -6.074  -5.305  -7.329  1.00  0.00     0.192 C 
BRANCH  17  18
HETATM   18  O3  UNL     1      -6.682  -6.531  -7.736  1.00  0.00    -0.399 OA
ATOM     19  H3  UNL     1      -6.569  -6.644  -8.673  1.00  0.00     0.209 HD
ENDBRANCH  17  18
ENDBRANCH  12  17
BRANCH  13  20
HETATM   20  O4  UNL     1      -4.192  -5.104  -5.178  1.00  0.00    -0.391 OA
ATOM     21  H4  UNL     1      -4.238  -5.645  -5.957  1.00  0.00     0.210 HD
ENDBRANCH  13  20
BRANCH  14  22
HETATM   22  O5  UNL     1      -4.608  -3.962  -3.019  1.00  0.00    -0.392 OA
ATOM     23  H5  UNL     1      -4.843  -3.614  -2.167  1.00  0.00     0.210 HD
ENDBRANCH  14  22
BRANCH  15  24
HETATM   24  C14 UNL     1      -7.419  -3.173  -2.252  1.00  0.00     0.210 C 
BRANCH  24  25
HETATM   25  O6  UNL     1      -6.778  -3.465  -1.031  1.00  0.00    -0.278 OA
BRANCH  25  26
HETATM   26  N8  UNL     1      -7.156  -4.491  -0.244  1.00  0.00    -0.241 N 
HETATM   27  C15 UNL     1      -6.520  -5.574  -0.006  1.00  0.00     0.221 C 
HETATM   28  N9  UNL     1      -7.073  -6.577   0.869  1.00  0.00    -0.065 NA
HETATM   29  N10 UNL     1      -5.261  -5.825  -0.586  1.00  0.00    -0.065 NA
ATOM     30  H8  UNL     1      -8.060  -4.392   0.219  1.00  0.00     0.196 HD
ENDBRANCH  25  26
ENDBRANCH  24  25
ENDBRANCH  15  24
BRANCH  16  31
HETATM   31  C17 UNL     1      -8.982  -5.483  -3.822  1.00  0.00     0.256 C 
BRANCH  31  32
HETATM   32  N11 UNL     1     -10.373  -5.165  -3.810  1.00  0.00    -0.077 N 
ATOM     33 3H11 UNL     1     -10.624  -4.640  -4.648  1.00  0.00     0.274 HD
ATOM     34 2H11 UNL     1     -10.931  -6.006  -3.957  1.00  0.00     0.274 HD
ATOM     35 1H11 UNL     1     -10.686  -4.672  -2.975  1.00  0.00     0.274 HD
ENDBRANCH  31  32
ENDBRANCH  16  31
ENDBRANCH   8  11
BRANCH   1  36
HETATM   36  O2  UNL     1      -9.747  -1.145  -8.518  1.00  0.00    -0.244 OA
BRANCH  36  37
HETATM   37  C6  UNL     1      -9.032  -0.762  -9.636  1.00  0.00     0.247 A 
HETATM   38  N3  UNL     1      -7.717  -0.501  -9.536  1.00  0.00    -0.305 N 
HETATM   39  C5  UNL     1      -6.983  -0.126 -10.592  1.00  0.00     0.153 A 
ATOM     40  H3  UNL     1      -7.264  -0.591  -8.627  1.00  0.00     0.171 HD
HETATM   41  N15 UNL     1      -7.605  -0.015 -11.776  1.00  0.00    -0.174 N 
HETATM   42  C18 UNL     1      -8.915  -0.262 -11.939  1.00  0.00     0.680 A 
ATOM     43  H15 UNL     1      -7.058   0.270 -12.589  1.00  0.00     0.186 HD
HETATM   44  N13 UNL     1      -9.614  -0.639 -10.836  1.00  0.00    -0.154 N 
HETATM   45  N14 UNL     1      -9.496  -0.150 -13.091  1.00  0.00    -0.234 N 
ATOM     46  H13 UNL     1     -10.611  -0.834 -10.925  1.00  0.00     0.188 HD
ATOM     47 2H14 UNL     1     -10.491  -0.338 -13.215  1.00  0.00     0.174 HD
ATOM     48 1H14 UNL     1      -8.971   0.133 -13.919  1.00  0.00     0.174 HD
BRANCH  39  49
HETATM   49  C4  UNL     1      -5.553   0.149 -10.440  1.00  0.00     0.110 A 
HETATM   50  C2  UNL     1      -4.669  -0.441  -9.561  1.00  0.00     0.083 A 
HETATM   51  C1  UNL     1      -5.017  -1.494  -8.582  1.00  0.00     0.079 C 
HETATM   52  O1  UNL     1      -3.498   0.100  -9.761  1.00  0.00    -0.282 OA
HETATM   53  C3  UNL     1      -3.531   0.993 -10.693  1.00  0.00     0.222 A 
HETATM   54  N2  UNL     1      -4.822   1.038 -11.133  1.00  0.00    -0.317 N 
ATOM     55  H2  UNL     1      -5.176   1.649 -11.870  1.00  0.00     0.169 HD
BRANCH  53  56
HETATM   56  N1  UNL     1      -2.528   1.691 -11.106  1.00  0.00    -0.365 N 
ATOM     57  H12 UNL     1      -2.390   2.107 -12.027  1.00  0.00     0.159 HD
ATOM     58  H11 UNL     1      -1.704   1.937 -10.557  1.00  0.00     0.159 HD
ENDBRANCH  53  56
ENDBRANCH  39  49
ENDBRANCH  36  37
ENDBRANCH   1  36
TORSDOF 14
ENDMDL
MODEL 3
REMARK VINA RESULT: -8.574089146      1.773      2.536
REMARK  14 active torsions:
REMARK  status: ('A' for Active; 'I' for Inactive)
REMARK    1  A    between atoms: C3_4  and  N1_5 
REMARK    2  A    between atoms: C4_10  and  C5_11 
REMARK    3  A    between atoms: C6_14  and  O2_15 
REMARK    4  A    between atoms: O2_15  and  C7_16 
REMARK    5  A    between atoms: C8_23  and  N7_24 
REMARK    6  A    between atoms: C9_25  and  C10_26 
REMARK    7  A    between atoms: C10_26  and  O3_27 
REMARK    8  A    between atoms: C11_29  and  O4_30 
REMARK    9  A    between atoms: C12_32  and  O5_33 
REMARK   10  A    between atoms: C13_35  and  C14_36 
REMARK   11  A    between atoms: C14_36  and  O6_37 
REMARK   12  A    between atoms: O6_37  and  N8_38 
REMARK   13  A    between atoms: C16_43  and  C17_44 
REMARK   14  A    between atoms: C17_44  and  N11_45 
ROOT
HETATM    1  C7  UNL     1      -9.371  -1.993  -8.938  1.00  0.00     0.262 A 
HETATM    2  N4  UNL     1     -10.274  -2.801  -9.568  1.00  0.00    -0.249 N 
ATOM      3  H4  UNL     1     -10.723  -2.487 -10.429  1.00  0.00     0.192 HD
HETATM    4  N5  UNL     1     -10.567  -3.984  -9.067  1.00  0.00    -0.225 N 
ATOM      5  H5  UNL     1     -11.242  -4.584  -9.541  1.00  0.00     0.209 HD
HETATM    6  N6  UNL     1      -9.997  -4.392  -7.966  1.00  0.00    -0.117 N 
ATOM      7  H6  UNL     1     -10.235  -5.311  -7.593  1.00  0.00     0.207 HD
HETATM    8  C8  UNL     1      -9.091  -3.621  -7.304  1.00  0.00     0.700 A 
HETATM    9  N12 UNL     1      -8.803  -2.434  -7.815  1.00  0.00    -0.152 N 
ATOM     10  H12 UNL     1      -8.126  -1.840  -7.336  1.00  0.00     0.188 HD
ENDROOT
BRANCH   8  11
HETATM   11  N7  UNL     1      -8.506  -4.157  -6.093  1.00  0.00    -0.200 N 
HETATM   12  C9  UNL     1      -7.528  -5.169  -6.021  1.00  0.00     0.157 C 
HETATM   13  C11 UNL     1      -6.253  -4.724  -5.321  1.00  0.00     0.172 C 
HETATM   14  C12 UNL     1      -6.506  -3.826  -4.160  1.00  0.00     0.157 C 
HETATM   15  C13 UNL     1      -7.930  -3.668  -3.764  1.00  0.00     0.068 C 
HETATM   16  C16 UNL     1      -8.960  -3.622  -4.807  1.00  0.00     0.137 C 
BRANCH  12  17
HETATM   17  C10 UNL     1      -7.180  -5.816  -7.335  1.00  0.00     0.192 C 
BRANCH  17  18
HETATM   18  O3  UNL     1      -5.870  -5.410  -7.732  1.00  0.00    -0.399 OA
ATOM     19  H3  UNL     1      -5.493  -6.072  -8.299  1.00  0.00     0.209 HD
ENDBRANCH  17  18
ENDBRANCH  12  17
BRANCH  13  20
HETATM   20  O4  UNL     1      -5.587  -5.890  -4.954  1.00  0.00    -0.391 OA
ATOM     21  H4  UNL     1      -4.662  -5.712  -5.070  1.00  0.00     0.210 HD
ENDBRANCH  13  20
BRANCH  14  22
HETATM   22  O5  UNL     1      -5.746  -4.278  -3.080  1.00  0.00    -0.392 OA
ATOM     23  H5  UNL     1      -5.035  -4.811  -3.415  1.00  0.00     0.210 HD
ENDBRANCH  14  22
BRANCH  15  24
HETATM   24  C14 UNL     1      -8.102  -2.397  -2.909  1.00  0.00     0.210 C 
BRANCH  24  25
HETATM   25  O6  UNL     1      -6.937  -2.154  -2.154  1.00  0.00    -0.278 OA
BRANCH  25  26
HETATM   26  N8  UNL     1      -6.881  -2.361  -0.823  1.00  0.00    -0.241 N 
HETATM   27  C15 UNL     1      -6.304  -1.640   0.059  1.00  0.00     0.221 C 
HETATM   28  N9  UNL     1      -6.341  -2.009   1.453  1.00  0.00    -0.065 NA
HETATM   29  N10 UNL     1      -5.615  -0.463  -0.293  1.00  0.00    -0.065 NA
ATOM     30  H8  UNL     1      -7.358  -3.195  -0.479  1.00  0.00     0.196 HD
ENDBRANCH  25  26
ENDBRANCH  24  25
ENDBRANCH  15  24
BRANCH  16  31
HETATM   31  C17 UNL     1     -10.267  -4.251  -4.368  1.00  0.00     0.256 C 
BRANCH  31  32
HETATM   32  N11 UNL     1     -10.122  -5.454  -3.615  1.00  0.00    -0.077 N 
ATOM     33 3H11 UNL     1      -9.215  -5.474  -3.149  1.00  0.00     0.274 HD
ATOM     34 2H11 UNL     1     -10.736  -5.439  -2.800  1.00  0.00     0.274 HD
ATOM     35 1H11 UNL     1     -10.264  -6.308  -4.151  1.00  0.00     0.274 HD
ENDBRANCH  31  32
ENDBRANCH  16  31
ENDBRANCH   8  11
BRANCH   1  36
HETATM   36  O2  UNL     1      -9.093  -0.758  -9.500  1.00  0.00    -0.244 OA
BRANCH  36  37
HETATM   37  C6  UNL     1      -7.811  -0.255  -9.387  1.00  0.00     0.247 A 
HETATM   38  N3  UNL     1      -6.784  -1.084  -9.134  1.00  0.00    -0.305 N 
HETATM   39  C5  UNL     1      -5.525  -0.642  -9.015  1.00  0.00     0.153 A 
ATOM     40  H3  UNL     1      -6.970  -2.081  -9.029  1.00  0.00     0.171 HD
HETATM   41  N15 UNL     1      -5.310   0.675  -9.157  1.00  0.00    -0.174 N 
HETATM   42  C18 UNL     1      -6.294   1.553  -9.411  1.00  0.00     0.680 A 
ATOM     43  H15 UNL     1      -4.355   1.025  -9.069  1.00  0.00     0.186 HD
HETATM   44  N13 UNL     1      -7.554   1.053  -9.522  1.00  0.00    -0.154 N 
HETATM   45  N14 UNL     1      -6.065   2.820  -9.545  1.00  0.00    -0.234 N 
ATOM     46  H13 UNL     1      -8.325   1.692  -9.713  1.00  0.00     0.188 HD
ATOM     47 2H14 UNL     1      -6.813   3.487  -9.738  1.00  0.00     0.174 HD
ATOM     48 1H14 UNL     1      -5.120   3.195  -9.462  1.00  0.00     0.174 HD
BRANCH  39  49
HETATM   49  C4  UNL     1      -4.435  -1.580  -8.739  1.00  0.00     0.110 A 
HETATM   50  C2  UNL     1      -3.106  -1.455  -9.085  1.00  0.00     0.083 A 
HETATM   51  C1  UNL     1      -2.521  -0.312  -9.820  1.00  0.00     0.079 C 
HETATM   52  O1  UNL     1      -2.486  -2.516  -8.646  1.00  0.00    -0.282 OA
HETATM   53  C3  UNL     1      -3.286  -3.329  -8.041  1.00  0.00     0.222 A 
HETATM   54  N2  UNL     1      -4.523  -2.754  -8.091  1.00  0.00    -0.317 N 
ATOM     55  H2  UNL     1      -5.378  -3.151  -7.700  1.00  0.00     0.169 HD
BRANCH  53  56
HETATM   56  N1  UNL     1      -2.957  -4.456  -7.506  1.00  0.00    -0.365 N 
ATOM     57  H12 UNL     1      -3.152  -4.781  -6.559  1.00  0.00     0.159 HD
ATOM     58  H11 UNL     1      -2.441  -5.207  -7.964  1.00  0.00     0.159 HD
ENDBRANCH  53  56
ENDBRANCH  39  49
ENDBRANCH  36  37
ENDBRANCH   1  36
TORSDOF 14
ENDMDL
MODEL 4
REMARK VINA RESULT: -8.539293716      2.482      4.675
REMARK  14 active torsions:
REMARK  status: ('A' for Active; 'I' for Inactive)
REMARK    1  A    between atoms: C3_4  and  N1_5 
REMARK    2  A    between atoms: C4_10  and  C5_11 
REMARK    3  A    between atoms: C6_14  and  O2_15 
REMARK    4  A    between atoms: O2_15  and  C7_16 
REMARK    5  A    between atoms: C8_23  and  N7_24 
REMARK    6  A    between atoms: C9_25  and  C10_26 
REMARK    7  A    between atoms: C10_26  and  O3_27 
REMARK    8  A    between atoms: C11_29  and  O4_30 
REMARK    9  A    between atoms: C12_32  and  O5_33 
REMARK   10  A    between atoms: C13_35  and  C14_36 
REMARK   11  A    between atoms: C14_36  and  O6_37 
REMARK   12  A    between atoms: O6_37  and  N8_38 
REMARK   13  A    between atoms: C16_43  and  C17_44 
REMARK   14  A    between atoms: C17_44  and  N11_45 
ROOT
HETATM    1  C7  UNL     1      -9.728  -2.442  -8.139  1.00  0.00     0.262 A 
HETATM    2  N4  UNL     1     -10.430  -3.353  -8.876  1.00  0.00    -0.249 N 
ATOM      3  H4  UNL     1     -10.954  -3.048  -9.697  1.00  0.00     0.192 HD
HETATM    4  N5  UNL     1     -10.432  -4.625  -8.529  1.00  0.00    -0.225 N 
ATOM      5  H5  UNL     1     -10.957  -5.301  -9.083  1.00  0.00     0.209 HD
HETATM    6  N6  UNL     1      -9.764  -5.021  -7.481  1.00  0.00    -0.117 N 
ATOM      7  H6  UNL     1      -9.776  -6.010  -7.228  1.00  0.00     0.207 HD
HETATM    8  C8  UNL     1      -9.051  -4.150  -6.717  1.00  0.00     0.700 A 
HETATM    9  N12 UNL     1      -9.054  -2.874  -7.072  1.00  0.00    -0.152 N 
ATOM     10  H12 UNL     1      -8.526  -2.203  -6.515  1.00  0.00     0.188 HD
ENDROOT
BRANCH   8  11
HETATM   11  N7  UNL     1      -8.337  -4.681  -5.574  1.00  0.00    -0.200 N 
HETATM   12  C9  UNL     1      -8.799  -4.698  -4.242  1.00  0.00     0.157 C 
HETATM   13  C11 UNL     1      -8.882  -6.099  -3.655  1.00  0.00     0.172 C 
HETATM   14  C12 UNL     1      -7.763  -6.981  -4.084  1.00  0.00     0.157 C 
HETATM   15  C13 UNL     1      -6.670  -6.317  -4.841  1.00  0.00     0.068 C 
HETATM   16  C16 UNL     1      -7.005  -5.251  -5.791  1.00  0.00     0.137 C 
BRANCH  12  17
HETATM   17  C10 UNL     1     -10.097  -3.975  -4.007  1.00  0.00     0.192 C 
BRANCH  17  18
HETATM   18  O3  UNL     1     -11.186  -4.876  -4.215  1.00  0.00    -0.399 OA
ATOM     19  H3  UNL     1     -10.933  -5.537  -4.848  1.00  0.00     0.209 HD
ENDBRANCH  17  18
ENDBRANCH  12  17
BRANCH  13  20
HETATM   20  O4  UNL     1      -8.928  -5.935  -2.273  1.00  0.00    -0.391 OA
ATOM     21  H4  UNL     1      -8.028  -5.968  -1.974  1.00  0.00     0.210 HD
ENDBRANCH  13  20
BRANCH  14  22
HETATM   22  O5  UNL     1      -7.253  -7.627  -2.957  1.00  0.00    -0.392 OA
ATOM     23  H5  UNL     1      -6.755  -6.997  -2.450  1.00  0.00     0.210 HD
ENDBRANCH  14  22
BRANCH  15  24
HETATM   24  C14 UNL     1      -5.852  -7.367  -5.618  1.00  0.00     0.210 C 
BRANCH  24  25
HETATM   25  O6  UNL     1      -6.604  -8.546  -5.788  1.00  0.00    -0.278 OA
BRANCH  25  26
HETATM   26  N8  UNL     1      -6.932  -9.026  -7.003  1.00  0.00    -0.241 N 
HETATM   27  C15 UNL     1      -7.257 -10.223  -7.313  1.00  0.00     0.221 C 
HETATM   28  N9  UNL     1      -7.582 -10.569  -8.675  1.00  0.00    -0.065 NA
HETATM   29  N10 UNL     1      -7.311 -11.241  -6.342  1.00  0.00    -0.065 NA
ATOM     30  H8  UNL     1      -6.920  -8.352  -7.769  1.00  0.00     0.196 HD
ENDBRANCH  25  26
ENDBRANCH  24  25
ENDBRANCH  15  24
BRANCH  16  31
HETATM   31  C17 UNL     1      -5.940  -4.176  -5.866  1.00  0.00     0.256 C 
BRANCH  31  32
HETATM   32  N11 UNL     1      -5.302  -3.888  -4.623  1.00  0.00    -0.077 N 
ATOM     33 3H11 UNL     1      -5.916  -3.333  -4.028  1.00  0.00     0.274 HD
ATOM     34 2H11 UNL     1      -5.228  -4.733  -4.057  1.00  0.00     0.274 HD
ATOM     35 1H11 UNL     1      -4.391  -3.439  -4.710  1.00  0.00     0.274 HD
ENDBRANCH  31  32
ENDBRANCH  16  31
ENDBRANCH   8  11
BRANCH   1  36
HETATM   36  O2  UNL     1      -9.754  -1.116  -8.540  1.00  0.00    -0.244 OA
BRANCH  36  37
HETATM   37  C6  UNL     1      -9.027  -0.750  -9.656  1.00  0.00     0.247 A 
HETATM   38  N3  UNL     1      -7.711  -0.495  -9.547  1.00  0.00    -0.305 N 
HETATM   39  C5  UNL     1      -6.966  -0.137 -10.601  1.00  0.00     0.153 A 
ATOM     40  H3  UNL     1      -7.267  -0.578  -8.633  1.00  0.00     0.171 HD
HETATM   41  N15 UNL     1      -7.576  -0.036 -11.792  1.00  0.00    -0.174 N 
HETATM   42  C18 UNL     1      -8.886  -0.278 -11.964  1.00  0.00     0.680 A 
ATOM     43  H15 UNL     1      -7.020   0.236 -12.603  1.00  0.00     0.186 HD
HETATM   44  N13 UNL     1      -9.597  -0.638 -10.863  1.00  0.00    -0.154 N 
HETATM   45  N14 UNL     1      -9.456  -0.176 -13.122  1.00  0.00    -0.234 N 
ATOM     46  H13 UNL     1     -10.595  -0.828 -10.958  1.00  0.00     0.188 HD
ATOM     47 2H14 UNL     1     -10.451  -0.359 -13.253  1.00  0.00     0.174 HD
ATOM     48 1H14 UNL     1      -8.922   0.094 -13.948  1.00  0.00     0.174 HD
BRANCH  39  49
HETATM   49  C4  UNL     1      -5.535   0.131 -10.439  1.00  0.00     0.110 A 
HETATM   50  C2  UNL     1      -4.664  -0.449  -9.541  1.00  0.00     0.083 A 
HETATM   51  C1  UNL     1      -5.029  -1.483  -8.548  1.00  0.00     0.079 C 
HETATM   52  O1  UNL     1      -3.488   0.080  -9.738  1.00  0.00    -0.282 OA
HETATM   53  C3  UNL     1      -3.505   0.958 -10.686  1.00  0.00     0.222 A 
HETATM   54  N2  UNL     1      -4.791   1.004 -11.140  1.00  0.00    -0.317 N 
ATOM     55  H2  UNL     1      -5.134   1.604 -11.891  1.00  0.00     0.169 HD
BRANCH  53  56
HETATM   56  N1  UNL     1      -2.493   1.642 -11.100  1.00  0.00    -0.365 N 
ATOM     57  H12 UNL     1      -2.276   1.924 -12.057  1.00  0.00     0.159 HD
ATOM     58  H11 UNL     1      -1.742   2.012 -10.518  1.00  0.00     0.159 HD
ENDBRANCH  53  56
ENDBRANCH  39  49
ENDBRANCH  36  37
ENDBRANCH   1  36
TORSDOF 14
ENDMDL
MODEL 5
REMARK VINA RESULT: -8.307852199      2.327      3.850
REMARK  14 active torsions:
REMARK  status: ('A' for Active; 'I' for Inactive)
REMARK    1  A    between atoms: C3_4  and  N1_5 
REMARK    2  A    between atoms: C4_10  and  C5_11 
REMARK    3  A    between atoms: C6_14  and  O2_15 
REMARK    4  A    between atoms: O2_15  and  C7_16 
REMARK    5  A    between atoms: C8_23  and  N7_24 
REMARK    6  A    between atoms: C9_25  and  C10_26 
REMARK    7  A    between atoms: C10_26  and  O3_27 
REMARK    8  A    between atoms: C11_29  and  O4_30 
REMARK    9  A    between atoms: C12_32  and  O5_33 
REMARK   10  A    between atoms: C13_35  and  C14_36 
REMARK   11  A    between atoms: C14_36  and  O6_37 
REMARK   12  A    between atoms: O6_37  and  N8_38 
REMARK   13  A    between atoms: C16_43  and  C17_44 
REMARK   14  A    between atoms: C17_44  and  N11_45 
ROOT
HETATM    1  C7  UNL     1      -9.731  -2.455  -8.137  1.00  0.00     0.262 A 
HETATM    2  N4  UNL     1     -10.434  -3.369  -8.869  1.00  0.00    -0.249 N 
ATOM      3  H4  UNL     1     -10.962  -3.068  -9.688  1.00  0.00     0.192 HD
HETATM    4  N5  UNL     1     -10.430  -4.640  -8.519  1.00  0.00    -0.225 N 
ATOM      5  H5  UNL     1     -10.956  -5.320  -9.069  1.00  0.00     0.209 HD
HETATM    6  N6  UNL     1      -9.756  -5.033  -7.473  1.00  0.00    -0.117 N 
ATOM      7  H6  UNL     1      -9.764  -6.021  -7.218  1.00  0.00     0.207 HD
HETATM    8  C8  UNL     1      -9.042  -4.158  -6.714  1.00  0.00     0.700 A 
HETATM    9  N12 UNL     1      -9.051  -2.883  -7.073  1.00  0.00    -0.152 N 
ATOM     10  H12 UNL     1      -8.522  -2.209  -6.519  1.00  0.00     0.188 HD
ENDROOT
BRANCH   8  11
HETATM   11  N7  UNL     1      -8.321  -4.684  -5.574  1.00  0.00    -0.200 N 
HETATM   12  C9  UNL     1      -8.773  -4.694  -4.239  1.00  0.00     0.157 C 
HETATM   13  C11 UNL     1      -8.855  -6.091  -3.644  1.00  0.00     0.172 C 
HETATM   14  C12 UNL     1      -7.741  -6.978  -4.076  1.00  0.00     0.157 C 
HETATM   15  C13 UNL     1      -6.652  -6.320  -4.845  1.00  0.00     0.068 C 
HETATM   16  C16 UNL     1      -6.992  -5.258  -5.798  1.00  0.00     0.137 C 
BRANCH  12  17
HETATM   17  C10 UNL     1     -10.069  -3.968  -3.998  1.00  0.00     0.192 C 
BRANCH  17  18
HETATM   18  O3  UNL     1     -11.157  -4.884  -4.123  1.00  0.00    -0.399 OA
ATOM     19  H3  UNL     1     -11.967  -4.447  -3.888  1.00  0.00     0.209 HD
ENDBRANCH  17  18
ENDBRANCH  12  17
BRANCH  13  20
HETATM   20  O4  UNL     1      -8.891  -5.920  -2.263  1.00  0.00    -0.391 OA
ATOM     21  H4  UNL     1      -8.014  -6.111  -1.951  1.00  0.00     0.210 HD
ENDBRANCH  13  20
BRANCH  14  22
HETATM   22  O5  UNL     1      -7.223  -7.619  -2.950  1.00  0.00    -0.392 OA
ATOM     23  H5  UNL     1      -7.122  -6.976  -2.258  1.00  0.00     0.210 HD
ENDBRANCH  14  22
BRANCH  15  24
HETATM   24  C14 UNL     1      -5.841  -7.375  -5.622  1.00  0.00     0.210 C 
BRANCH  24  25
HETATM   25  O6  UNL     1      -4.467  -7.059  -5.589  1.00  0.00    -0.278 OA
BRANCH  25  26
HETATM   26  N8  UNL     1      -3.732  -6.911  -6.708  1.00  0.00    -0.241 N 
HETATM   27  C15 UNL     1      -2.807  -6.058  -6.932  1.00  0.00     0.221 C 
HETATM   28  N9  UNL     1      -2.115  -6.036  -8.197  1.00  0.00    -0.065 NA
HETATM   29  N10 UNL     1      -2.431  -5.113  -5.958  1.00  0.00    -0.065 NA
ATOM     30  H8  UNL     1      -3.939  -7.558  -7.469  1.00  0.00     0.196 HD
ENDBRANCH  25  26
ENDBRANCH  24  25
ENDBRANCH  15  24
BRANCH  16  31
HETATM   31  C17 UNL     1      -5.925  -4.186  -5.885  1.00  0.00     0.256 C 
BRANCH  31  32
HETATM   32  N11 UNL     1      -5.161  -4.012  -4.694  1.00  0.00    -0.077 N 
ATOM     33 3H11 UNL     1      -5.607  -3.330  -4.081  1.00  0.00     0.274 HD
ATOM     34 2H11 UNL     1      -5.225  -4.843  -4.106  1.00  0.00     0.274 HD
ATOM     35 1H11 UNL     1      -4.185  -3.763  -4.850  1.00  0.00     0.274 HD
ENDBRANCH  31  32
ENDBRANCH  16  31
ENDBRANCH   8  11
BRANCH   1  36
HETATM   36  O2  UNL     1      -9.763  -1.130  -8.540  1.00  0.00    -0.244 OA
BRANCH  36  37
HETATM   37  C6  UNL     1      -9.038  -0.763  -9.658  1.00  0.00     0.247 A 
HETATM   38  N3  UNL     1      -7.725  -0.499  -9.549  1.00  0.00    -0.305 N 
HETATM   39  C5  UNL     1      -6.981  -0.140 -10.605  1.00  0.00     0.153 A 
ATOM     40  H3  UNL     1      -7.280  -0.576  -8.634  1.00  0.00     0.171 HD
HETATM   41  N15 UNL     1      -7.592  -0.047 -11.795  1.00  0.00    -0.174 N 
HETATM   42  C18 UNL     1      -8.900  -0.298 -11.967  1.00  0.00     0.680 A 
ATOM     43  H15 UNL     1      -7.037   0.226 -12.607  1.00  0.00     0.186 HD
HETATM   44  N13 UNL     1      -9.609  -0.658 -10.865  1.00  0.00    -0.154 N 
HETATM   45  N14 UNL     1      -9.471  -0.203 -13.125  1.00  0.00    -0.234 N 
ATOM     46  H13 UNL     1     -10.606  -0.855 -10.959  1.00  0.00     0.188 HD
ATOM     47 2H14 UNL     1     -10.465  -0.393 -13.256  1.00  0.00     0.174 HD
ATOM     48 1H14 UNL     1      -8.938   0.068 -13.953  1.00  0.00     0.174 HD
BRANCH  39  49
HETATM   49  C4  UNL     1      -5.552   0.138 -10.443  1.00  0.00     0.110 A 
HETATM   50  C2  UNL     1      -4.675  -0.440  -9.549  1.00  0.00     0.083 A 
HETATM   51  C1  UNL     1      -5.032  -1.481  -8.560  1.00  0.00     0.079 C 
HETATM   52  O1  UNL     1      -3.504   0.100  -9.745  1.00  0.00    -0.282 OA
HETATM   53  C3  UNL     1      -3.529   0.981 -10.689  1.00  0.00     0.222 A 
HETATM   54  N2  UNL     1      -4.816   1.020 -11.141  1.00  0.00    -0.317 N 
ATOM     55  H2  UNL     1      -5.164   1.620 -11.889  1.00  0.00     0.169 HD
BRANCH  53  56
HETATM   56  N1  UNL     1      -2.523   1.675 -11.102  1.00  0.00    -0.365 N 
ATOM     57  H12 UNL     1      -1.549   1.381 -11.183  1.00  0.00     0.159 HD
ATOM     58  H11 UNL     1      -2.554   2.644 -11.417  1.00  0.00     0.159 HD
ENDBRANCH  53  56
ENDBRANCH  39  49
ENDBRANCH  36  37
ENDBRANCH   1  36
TORSDOF 14
ENDMDL
