MODEL 1
REMARK VINA RESULT: -6.998167444      0.000      0.000
REMARK  12 active torsions:
REMARK  status: ('A' for Active; 'I' for Inactive)
REMARK    1  A    between atoms: C2_2  and  N1_3 
REMARK    2  A    between atoms: C2_2  and  C3_7 
REMARK    3  A    between atoms: C3_7  and  C4_8 
REMARK    4  A    between atoms: C4_8  and  N2_9 
REMARK    5  A    between atoms: C6_14  and  N4_15 
REMARK    6  A    between atoms: N4_15  and  C7_17 
REMARK    7  A    between atoms: C7_17  and  C8_18 
REMARK    8  A    between atoms: C8_18  and  O1_19 
REMARK    9  A    between atoms: C9_23  and  N6_24 
REMARK   10  A    between atoms: N6_24  and  C10_26 
REMARK   11  A    between atoms: C10_26  and  C11_27 
REMARK   12  A    between atoms: C11_27  and  O2_28 
ROOT
HETATM    1  N2  UNL     1      84.675 -30.647   1.517  1.00  0.00    -0.225 N 
ATOM      2  H2  UNL     1      84.482 -31.613   1.781  1.00  0.00     0.177 HD
HETATM    3  C5  UNL     1      85.328 -30.441   0.423  1.00  0.00     0.707 A 
HETATM    4  N3  UNL     1      85.735 -31.506  -0.335  1.00  0.00    -0.022 N 
ATOM      5  H3  UNL     1      85.516 -32.453  -0.025  1.00  0.00     0.203 HD
HETATM    6  C6  UNL     1      86.415 -31.330  -1.476  1.00  0.00     0.707 A 
HETATM    7  N5  UNL     1      86.718 -30.075  -1.908  1.00  0.00    -0.022 N 
ATOM      8  H5  UNL     1      87.235 -29.948  -2.778  1.00  0.00     0.203 HD
HETATM    9  C9  UNL     1      86.343 -29.016  -1.204  1.00  0.00     0.707 A 
HETATM   10  N7  UNL     1      85.649 -29.226  -0.041  1.00  0.00    -0.022 N 
ATOM     11  H7  UNL     1      85.360 -28.412   0.501  1.00  0.00     0.203 HD
ENDROOT
BRANCH   1  12
HETATM   12  C4  UNL     1      84.199 -29.602   2.389  1.00  0.00     0.140 C 
BRANCH  12  13
HETATM   13  C3  UNL     1      85.212 -29.283   3.480  1.00  0.00     0.052 C 
BRANCH  13  14
HETATM   14  C2  UNL     1      85.428 -27.777   3.515  1.00  0.00     0.181 C 
HETATM   15  C1  UNL     1      86.583 -27.450   2.581  1.00  0.00     0.039 C 
BRANCH  14  16
HETATM   16  N1  UNL     1      85.686 -27.256   4.781  1.00  0.00    -0.075 N 
ATOM     17  H13 UNL     1      85.792 -26.242   4.765  1.00  0.00     0.274 HD
ATOM     18  H12 UNL     1      84.872 -27.310   5.392  1.00  0.00     0.274 HD
ATOM     19  H11 UNL     1      86.501 -27.722   5.183  1.00  0.00     0.274 HD
ENDBRANCH  14  16
ENDBRANCH  13  14
ENDBRANCH  12  13
ENDBRANCH   1  12
BRANCH   6  20
HETATM   20  N4  UNL     1      86.805 -32.326  -2.201  1.00  0.00    -0.223 N 
ATOM     21  H4  UNL     1      86.110 -33.006  -2.508  1.00  0.00     0.177 HD
BRANCH  20  22
HETATM   22  C7  UNL     1      88.167 -32.521  -2.593  1.00  0.00     0.164 C 
BRANCH  22  23
HETATM   23  C8  UNL     1      88.293 -33.974  -3.063  1.00  0.00     0.184 C 
BRANCH  23  24
HETATM   24  O1  UNL     1      87.790 -34.000  -4.363  1.00  0.00    -0.399 OA
ATOM     25  H1  UNL     1      88.069 -33.187  -4.767  1.00  0.00     0.209 HD
ENDBRANCH  23  24
ENDBRANCH  22  23
ENDBRANCH  20  22
ENDBRANCH   6  20
BRANCH   9  26
HETATM   26  N6  UNL     1      86.589 -27.795  -1.543  1.00  0.00    -0.223 N 
ATOM     27  H6  UNL     1      86.498 -27.042  -0.860  1.00  0.00     0.177 HD
BRANCH  26  28
HETATM   28  C10 UNL     1      86.992 -27.506  -2.893  1.00  0.00     0.164 C 
BRANCH  28  29
HETATM   29  C11 UNL     1      88.062 -28.518  -3.275  1.00  0.00     0.184 C 
BRANCH  29  30
HETATM   30  O2  UNL     1      89.243 -28.101  -2.631  1.00  0.00    -0.399 OA
ATOM     31  H2  UNL     1      89.659 -27.480  -3.218  1.00  0.00     0.209 HD
ENDBRANCH  29  30
ENDBRANCH  28  29
ENDBRANCH  26  28
ENDBRANCH   9  26
TORSDOF 12
ENDMDL
MODEL 2
REMARK VINA RESULT: -6.660335552      2.532      3.974
REMARK  12 active torsions:
REMARK  status: ('A' for Active; 'I' for Inactive)
REMARK    1  A    between atoms: C2_2  and  N1_3 
REMARK    2  A    between atoms: C2_2  and  C3_7 
REMARK    3  A    between atoms: C3_7  and  C4_8 
REMARK    4  A    between atoms: C4_8  and  N2_9 
REMARK    5  A    between atoms: C6_14  and  N4_15 
REMARK    6  A    between atoms: N4_15  and  C7_17 
REMARK    7  A    between atoms: C7_17  and  C8_18 
REMARK    8  A    between atoms: C8_18  and  O1_19 
REMARK    9  A    between atoms: C9_23  and  N6_24 
REMARK   10  A    between atoms: N6_24  and  C10_26 
REMARK   11  A    between atoms: C10_26  and  C11_27 
REMARK   12  A    between atoms: C11_27  and  O2_28 
ROOT
HETATM    1  N2  UNL     1      84.484 -31.067  -0.024  1.00  0.00    -0.225 N 
ATOM      2  H2  UNL     1      84.212 -31.615  -0.840  1.00  0.00     0.177 HD
HETATM    3  C5  UNL     1      85.267 -30.057  -0.210  1.00  0.00     0.707 A 
HETATM    4  N3  UNL     1      85.700 -29.759  -1.474  1.00  0.00    -0.022 N 
ATOM      5  H3  UNL     1      85.397 -30.340  -2.256  1.00  0.00     0.203 HD
HETATM    6  C6  UNL     1      86.512 -28.718  -1.705  1.00  0.00     0.707 A 
HETATM    7  N5  UNL     1      86.927 -27.930  -0.675  1.00  0.00    -0.022 N 
ATOM      8  H5  UNL     1      87.545 -27.139  -0.859  1.00  0.00     0.203 HD
HETATM    9  C9  UNL     1      86.531 -28.184   0.564  1.00  0.00     0.707 A 
HETATM   10  N7  UNL     1      85.701 -29.254   0.770  1.00  0.00    -0.022 N 
ATOM     11  H7  UNL     1      85.396 -29.451   1.724  1.00  0.00     0.203 HD
ENDROOT
BRANCH   1  12
HETATM   12  C4  UNL     1      83.969 -31.471   1.261  1.00  0.00     0.140 C 
BRANCH  12  13
HETATM   13  C3  UNL     1      83.001 -30.440   1.822  1.00  0.00     0.052 C 
BRANCH  13  14
HETATM   14  C2  UNL     1      83.245 -30.309   3.319  1.00  0.00     0.181 C 
HETATM   15  C1  UNL     1      84.635 -30.851   3.614  1.00  0.00     0.039 C 
BRANCH  14  16
HETATM   16  N1  UNL     1      82.309 -30.960   4.120  1.00  0.00    -0.075 N 
ATOM     17  H13 UNL     1      82.242 -31.954   3.902  1.00  0.00     0.274 HD
ATOM     18  H12 UNL     1      82.622 -31.043   5.086  1.00  0.00     0.274 HD
ATOM     19  H11 UNL     1      81.407 -30.488   4.046  1.00  0.00     0.274 HD
ENDBRANCH  14  16
ENDBRANCH  13  14
ENDBRANCH  12  13
ENDBRANCH   1  12
BRANCH   6  20
HETATM   20  N4  UNL     1      86.928 -28.425  -2.893  1.00  0.00    -0.223 N 
ATOM     21  H4  UNL     1      86.322 -27.870  -3.496  1.00  0.00     0.177 HD
BRANCH  20  22
HETATM   22  C7  UNL     1      88.198 -28.844  -3.401  1.00  0.00     0.164 C 
BRANCH  22  23
HETATM   23  C8  UNL     1      88.596 -30.103  -2.625  1.00  0.00     0.184 C 
BRANCH  23  24
HETATM   24  O1  UNL     1      87.996 -31.170  -3.293  1.00  0.00    -0.399 OA
ATOM     25  H1  UNL     1      88.218 -31.947  -2.795  1.00  0.00     0.209 HD
ENDBRANCH  23  24
ENDBRANCH  22  23
ENDBRANCH  20  22
ENDBRANCH   6  20
BRANCH   9  26
HETATM   26  N6  UNL     1      86.878 -27.487   1.594  1.00  0.00    -0.223 N 
ATOM     27  H6  UNL     1      87.506 -26.690   1.490  1.00  0.00     0.177 HD
BRANCH  26  28
HETATM   28  C10 UNL     1      86.368 -27.845   2.891  1.00  0.00     0.164 C 
BRANCH  28  29
HETATM   29  C11 UNL     1      85.469 -26.708   3.356  1.00  0.00     0.184 C 
BRANCH  29  30
HETATM   30  O2  UNL     1      84.844 -27.161   4.534  1.00  0.00    -0.399 OA
ATOM     31  H2  UNL     1      84.109 -27.694   4.255  1.00  0.00     0.209 HD
ENDBRANCH  29  30
ENDBRANCH  28  29
ENDBRANCH  26  28
ENDBRANCH   9  26
TORSDOF 12
ENDMDL
MODEL 3
REMARK VINA RESULT: -6.542630959      0.903      1.034
REMARK  12 active torsions:
REMARK  status: ('A' for Active; 'I' for Inactive)
REMARK    1  A    between atoms: C2_2  and  N1_3 
REMARK    2  A    between atoms: C2_2  and  C3_7 
REMARK    3  A    between atoms: C3_7  and  C4_8 
REMARK    4  A    between atoms: C4_8  and  N2_9 
REMARK    5  A    between atoms: C6_14  and  N4_15 
REMARK    6  A    between atoms: N4_15  and  C7_17 
REMARK    7  A    between atoms: C7_17  and  C8_18 
REMARK    8  A    between atoms: C8_18  and  O1_19 
REMARK    9  A    between atoms: C9_23  and  N6_24 
REMARK   10  A    between atoms: N6_24  and  C10_26 
REMARK   11  A    between atoms: C10_26  and  C11_27 
REMARK   12  A    between atoms: C11_27  and  O2_28 
ROOT
HETATM    1  N2  UNL     1      84.056 -30.852   1.039  1.00  0.00    -0.225 N 
ATOM      2  H2  UNL     1      83.734 -31.816   1.122  1.00  0.00     0.177 HD
HETATM    3  C5  UNL     1      84.936 -30.587   0.132  1.00  0.00     0.707 A 
HETATM    4  N3  UNL     1      85.401 -31.591  -0.675  1.00  0.00    -0.022 N 
ATOM      5  H3  UNL     1      85.046 -32.539  -0.550  1.00  0.00     0.203 HD
HETATM    6  C6  UNL     1      86.314 -31.352  -1.627  1.00  0.00     0.707 A 
HETATM    7  N5  UNL     1      86.802 -30.094  -1.811  1.00  0.00    -0.022 N 
ATOM      8  H5  UNL     1      87.496 -29.921  -2.538  1.00  0.00     0.203 HD
HETATM    9  C9  UNL     1      86.378 -29.095  -1.051  1.00  0.00     0.707 A 
HETATM   10  N7  UNL     1      85.444 -29.368  -0.086  1.00  0.00    -0.022 N 
ATOM     11  H7  UNL     1      85.118 -28.599   0.500  1.00  0.00     0.203 HD
ENDROOT
BRANCH   1  12
HETATM   12  C4  UNL     1      83.498 -29.876   1.941  1.00  0.00     0.140 C 
BRANCH  12  13
HETATM   13  C3  UNL     1      83.838 -30.198   3.389  1.00  0.00     0.052 C 
BRANCH  13  14
HETATM   14  C2  UNL     1      85.077 -29.408   3.784  1.00  0.00     0.181 C 
HETATM   15  C1  UNL     1      84.927 -27.998   3.234  1.00  0.00     0.039 C 
BRANCH  14  16
HETATM   16  N1  UNL     1      86.280 -29.956   3.346  1.00  0.00    -0.075 N 
ATOM     17  H13 UNL     1      86.165 -30.506   2.495  1.00  0.00     0.274 HD
ATOM     18  H12 UNL     1      86.913 -29.247   2.978  1.00  0.00     0.274 HD
ATOM     19  H11 UNL     1      86.706 -30.497   4.099  1.00  0.00     0.274 HD
ENDBRANCH  14  16
ENDBRANCH  13  14
ENDBRANCH  12  13
ENDBRANCH   1  12
BRANCH   6  20
HETATM   20  N4  UNL     1      86.762 -32.290  -2.396  1.00  0.00    -0.223 N 
ATOM     21  H4  UNL     1      86.089 -32.882  -2.882  1.00  0.00     0.177 HD
BRANCH  20  22
HETATM   22  C7  UNL     1      88.157 -32.536  -2.596  1.00  0.00     0.164 C 
BRANCH  22  23
HETATM   23  C8  UNL     1      88.290 -33.987  -3.069  1.00  0.00     0.184 C 
BRANCH  23  24
HETATM   24  O1  UNL     1      87.826 -34.005  -4.384  1.00  0.00    -0.399 OA
ATOM     25  H1  UNL     1      88.481 -33.548  -4.898  1.00  0.00     0.209 HD
ENDBRANCH  23  24
ENDBRANCH  22  23
ENDBRANCH  20  22
ENDBRANCH   6  20
BRANCH   9  26
HETATM   26  N6  UNL     1      86.788 -27.875  -1.160  1.00  0.00    -0.223 N 
ATOM     27  H6  UNL     1      86.974 -27.318  -0.327  1.00  0.00     0.177 HD
BRANCH  26  28
HETATM   28  C10 UNL     1      86.979 -27.311  -2.470  1.00  0.00     0.164 C 
BRANCH  28  29
HETATM   29  C11 UNL     1      87.902 -28.247  -3.237  1.00  0.00     0.184 C 
BRANCH  29  30
HETATM   30  O2  UNL     1      89.171 -28.122  -2.639  1.00  0.00    -0.399 OA
ATOM     31  H2  UNL     1      89.730 -27.710  -3.287  1.00  0.00     0.209 HD
ENDBRANCH  29  30
ENDBRANCH  28  29
ENDBRANCH  26  28
ENDBRANCH   9  26
TORSDOF 12
ENDMDL
MODEL 4
REMARK VINA RESULT: -6.531642222      1.870      2.490
REMARK  12 active torsions:
REMARK  status: ('A' for Active; 'I' for Inactive)
REMARK    1  A    between atoms: C2_2  and  N1_3 
REMARK    2  A    between atoms: C2_2  and  C3_7 
REMARK    3  A    between atoms: C3_7  and  C4_8 
REMARK    4  A    between atoms: C4_8  and  N2_9 
REMARK    5  A    between atoms: C6_14  and  N4_15 
REMARK    6  A    between atoms: N4_15  and  C7_17 
REMARK    7  A    between atoms: C7_17  and  C8_18 
REMARK    8  A    between atoms: C8_18  and  O1_19 
REMARK    9  A    between atoms: C9_23  and  N6_24 
REMARK   10  A    between atoms: N6_24  and  C10_26 
REMARK   11  A    between atoms: C10_26  and  C11_27 
REMARK   12  A    between atoms: C11_27  and  O2_28 
ROOT
HETATM    1  N2  UNL     1      85.190 -31.434  -0.647  1.00  0.00    -0.225 N 
ATOM      2  H2  UNL     1      84.792 -32.357  -0.473  1.00  0.00     0.177 HD
HETATM    3  C5  UNL     1      86.270 -31.367  -1.351  1.00  0.00     0.707 A 
HETATM    4  N3  UNL     1      86.836 -32.516  -1.834  1.00  0.00    -0.022 N 
ATOM      5  H3  UNL     1      86.397 -33.414  -1.631  1.00  0.00     0.203 HD
HETATM    6  C6  UNL     1      87.956 -32.484  -2.570  1.00  0.00     0.707 A 
HETATM    7  N5  UNL     1      88.559 -31.296  -2.853  1.00  0.00    -0.022 N 
ATOM      8  H5  UNL     1      89.410 -31.280  -3.413  1.00  0.00     0.203 HD
HETATM    9  C9  UNL     1      88.043 -30.161  -2.404  1.00  0.00     0.707 A 
HETATM   10  N7  UNL     1      86.897 -30.223  -1.655  1.00  0.00    -0.022 N 
ATOM     11  H7  UNL     1      86.499 -29.350  -1.309  1.00  0.00     0.203 HD
ENDROOT
BRANCH   1  12
HETATM   12  C4  UNL     1      84.510 -30.291  -0.090  1.00  0.00     0.140 C 
BRANCH  12  13
HETATM   13  C3  UNL     1      84.413 -30.385   1.426  1.00  0.00     0.052 C 
BRANCH  13  14
HETATM   14  C2  UNL     1      85.702 -29.844   2.029  1.00  0.00     0.181 C 
HETATM   15  C1  UNL     1      85.554 -29.866   3.542  1.00  0.00     0.039 C 
BRANCH  14  16
HETATM   16  N1  UNL     1      86.047 -28.562   1.610  1.00  0.00    -0.075 N 
ATOM     17  H13 UNL     1      85.850 -28.414   0.621  1.00  0.00     0.274 HD
ATOM     18  H12 UNL     1      85.422 -27.852   1.992  1.00  0.00     0.274 HD
ATOM     19  H11 UNL     1      87.024 -28.377   1.839  1.00  0.00     0.274 HD
ENDBRANCH  14  16
ENDBRANCH  13  14
ENDBRANCH  12  13
ENDBRANCH   1  12
BRANCH   6  20
HETATM   20  N4  UNL     1      88.502 -33.561  -3.032  1.00  0.00    -0.223 N 
ATOM     21  H4  UNL     1      88.983 -33.514  -3.930  1.00  0.00     0.177 HD
BRANCH  20  22
HETATM   22  C7  UNL     1      88.462 -34.814  -2.344  1.00  0.00     0.164 C 
BRANCH  22  23
HETATM   23  C8  UNL     1      89.862 -35.427  -2.451  1.00  0.00     0.184 C 
BRANCH  23  24
HETATM   24  O1  UNL     1      90.364 -35.021  -3.687  1.00  0.00    -0.399 OA
ATOM     25  H1  UNL     1      90.668 -35.812  -4.117  1.00  0.00     0.209 HD
ENDBRANCH  23  24
ENDBRANCH  22  23
ENDBRANCH  20  22
ENDBRANCH   6  20
BRANCH   9  26
HETATM   26  N6  UNL     1      88.550 -28.995  -2.627  1.00  0.00    -0.223 N 
ATOM     27  H6  UNL     1      89.480 -28.762  -2.280  1.00  0.00     0.177 HD
BRANCH  26  28
HETATM   28  C10 UNL     1      87.789 -28.027  -3.372  1.00  0.00     0.164 C 
BRANCH  28  29
HETATM   29  C11 UNL     1      86.828 -27.358  -2.400  1.00  0.00     0.184 C 
BRANCH  29  30
HETATM   30  O2  UNL     1      85.543 -27.829  -2.734  1.00  0.00    -0.399 OA
ATOM     31  H2  UNL     1      84.968 -27.073  -2.701  1.00  0.00     0.209 HD
ENDBRANCH  29  30
ENDBRANCH  28  29
ENDBRANCH  26  28
ENDBRANCH   9  26
TORSDOF 12
ENDMDL
MODEL 5
REMARK VINA RESULT: -6.463396501      3.487      6.626
REMARK  12 active torsions:
REMARK  status: ('A' for Active; 'I' for Inactive)
REMARK    1  A    between atoms: C2_2  and  N1_3 
REMARK    2  A    between atoms: C2_2  and  C3_7 
REMARK    3  A    between atoms: C3_7  and  C4_8 
REMARK    4  A    between atoms: C4_8  and  N2_9 
REMARK    5  A    between atoms: C6_14  and  N4_15 
REMARK    6  A    between atoms: N4_15  and  C7_17 
REMARK    7  A    between atoms: C7_17  and  C8_18 
REMARK    8  A    between atoms: C8_18  and  O1_19 
REMARK    9  A    between atoms: C9_23  and  N6_24 
REMARK   10  A    between atoms: N6_24  and  C10_26 
REMARK   11  A    between atoms: C10_26  and  C11_27 
REMARK   12  A    between atoms: C11_27  and  O2_28 
ROOT
HETATM    1  N2  UNL     1      86.298 -31.045  -1.939  1.00  0.00    -0.225 N 
ATOM      2  H2  UNL     1      85.805 -31.798  -2.419  1.00  0.00     0.177 HD
HETATM    3  C5  UNL     1      85.751 -30.545  -0.882  1.00  0.00     0.707 A 
HETATM    4  N3  UNL     1      84.548 -31.031  -0.447  1.00  0.00    -0.022 N 
ATOM      5  H3  UNL     1      84.096 -31.785  -0.964  1.00  0.00     0.203 HD
HETATM    6  C6  UNL     1      83.951 -30.536   0.646  1.00  0.00     0.707 A 
HETATM    7  N5  UNL     1      84.536 -29.529   1.352  1.00  0.00    -0.022 N 
ATOM      8  H5  UNL     1      84.076 -29.158   2.183  1.00  0.00     0.203 HD
HETATM    9  C9  UNL     1      85.701 -29.029   0.964  1.00  0.00     0.707 A 
HETATM   10  N7  UNL     1      86.288 -29.555  -0.157  1.00  0.00    -0.022 N 
ATOM     11  H7  UNL     1      87.184 -29.171  -0.457  1.00  0.00     0.203 HD
ENDROOT
BRANCH   1  12
HETATM   12  C4  UNL     1      87.559 -30.611  -2.486  1.00  0.00     0.140 C 
BRANCH  12  13
HETATM   13  C3  UNL     1      88.529 -31.774  -2.642  1.00  0.00     0.052 C 
BRANCH  13  14
HETATM   14  C2  UNL     1      87.740 -33.011  -3.046  1.00  0.00     0.181 C 
HETATM   15  C1  UNL     1      88.499 -34.231  -2.547  1.00  0.00     0.039 C 
BRANCH  14  16
HETATM   16  N1  UNL     1      87.508 -33.132  -4.414  1.00  0.00    -0.075 N 
ATOM     17  H13 UNL     1      86.547 -33.405  -4.619  1.00  0.00     0.274 HD
ATOM     18  H12 UNL     1      87.508 -32.227  -4.885  1.00  0.00     0.274 HD
ATOM     19  H11 UNL     1      88.186 -33.777  -4.822  1.00  0.00     0.274 HD
ENDBRANCH  14  16
ENDBRANCH  13  14
ENDBRANCH  12  13
ENDBRANCH   1  12
BRANCH   6  20
HETATM   20  N4  UNL     1      82.815 -30.986   1.069  1.00  0.00    -0.223 N 
ATOM     21  H4  UNL     1      82.400 -31.784   0.590  1.00  0.00     0.177 HD
BRANCH  20  22
HETATM   22  C7  UNL     1      82.113 -30.415   2.177  1.00  0.00     0.164 C 
BRANCH  22  23
HETATM   23  C8  UNL     1      82.976 -30.651   3.421  1.00  0.00     0.184 C 
BRANCH  23  24
HETATM   24  O1  UNL     1      82.115 -31.160   4.393  1.00  0.00    -0.399 OA
ATOM     25  H1  UNL     1      81.931 -30.438   4.982  1.00  0.00     0.209 HD
ENDBRANCH  23  24
ENDBRANCH  22  23
ENDBRANCH  20  22
ENDBRANCH   6  20
BRANCH   9  26
HETATM   26  N6  UNL     1      86.322 -28.077   1.575  1.00  0.00    -0.223 N 
ATOM     27  H6  UNL     1      86.851 -27.384   1.046  1.00  0.00     0.177 HD
BRANCH  26  28
HETATM   28  C10 UNL     1      86.260 -28.003   3.011  1.00  0.00     0.164 C 
BRANCH  28  29
HETATM   29  C11 UNL     1      85.488 -26.741   3.368  1.00  0.00     0.184 C 
BRANCH  29  30
HETATM   30  O2  UNL     1      84.747 -27.050   4.524  1.00  0.00    -0.399 OA
ATOM     31  H2  UNL     1      84.467 -27.953   4.425  1.00  0.00     0.209 HD
ENDBRANCH  29  30
ENDBRANCH  28  29
ENDBRANCH  26  28
ENDBRANCH   9  26
TORSDOF 12
ENDMDL
