MODEL 1
REMARK VINA RESULT: -8.611198560      0.000      0.000
REMARK  7 active torsions:
REMARK  status: ('A' for Active; 'I' for Inactive)
REMARK    1  A    between atoms: N1_1  and  C1_4 
REMARK    2  A    between atoms: C2_7  and  O1_8 
REMARK    3  A    between atoms: O1_8  and  C3_9 
REMARK    4  A    between atoms: C3_9  and  C4_10 
REMARK    5  A    between atoms: C4_10  and  C5_11 
REMARK    6  A    between atoms: C5_11  and  N3_12 
REMARK       I    between atoms: C6_14  and  N5_16 
REMARK    7  A    between atoms: N5_16  and  N6_18 
ROOT
HETATM    1  C4  UNL     1      83.097 -31.112   0.614  1.00  0.00     0.071 C 
ENDROOT
BRANCH   1   2
HETATM    2  C3  UNL     1      84.614 -31.192   0.407  1.00  0.00     0.182 C 
BRANCH   2   3
HETATM    3  O1  UNL     1      84.969 -30.089  -0.404  1.00  0.00    -0.335 OA
BRANCH   3   4
HETATM    4  C2  UNL     1      86.118 -30.198  -1.203  1.00  0.00     0.162 A 
HETATM    5  N2  UNL     1      86.550 -31.401  -1.621  1.00  0.00    -0.171 N 
HETATM    6  C1  UNL     1      87.660 -31.515  -2.394  1.00  0.00     0.680 A 
ATOM      7  H2  UNL     1      86.035 -32.240  -1.354  1.00  0.00     0.186 HD
HETATM    8  N11 UNL     1      88.354 -30.423  -2.760  1.00  0.00    -0.156 N 
HETATM    9  C8  UNL     1      87.977 -29.190  -2.376  1.00  0.00     0.263 A 
ATOM     10  H11 UNL     1      89.185 -30.532  -3.341  1.00  0.00     0.187 HD
HETATM   11  C7  UNL     1      86.847 -29.093  -1.591  1.00  0.00     0.131 A 
HETATM   12  O2  UNL     1      88.642 -28.185  -2.729  1.00  0.00    -0.268 OA
BRANCH   6  13
HETATM   13  N1  UNL     1      88.082 -32.676  -2.802  1.00  0.00    -0.234 N 
ATOM     14  H12 UNL     1      88.585 -33.266  -2.140  1.00  0.00     0.174 HD
ATOM     15  H11 UNL     1      87.918 -32.994  -3.758  1.00  0.00     0.174 HD
ENDBRANCH   6  13
ENDBRANCH   3   4
ENDBRANCH   2   3
ENDBRANCH   1   2
BRANCH   1  16
HETATM   16  C5  UNL     1      82.850 -30.280   1.846  1.00  0.00     0.065 C 
BRANCH  16  17
HETATM   17  N3  UNL     1      83.822 -30.439   2.825  1.00  0.00    -0.343 N 
HETATM   18  C6  UNL     1      84.549 -29.694   3.466  1.00  0.00     0.209 C 
HETATM   19  N4  UNL     1      85.453 -30.311   4.428  1.00  0.00    -0.062 NA
HETATM   20  N5  UNL     1      84.595 -28.291   3.360  1.00  0.00    -0.237 N 
ATOM     21  H5  UNL     1      83.820 -27.725   3.707  1.00  0.00     0.193 HD
ATOM     22  H3  UNL     1      83.965 -31.419   3.070  1.00  0.00     0.167 HD
BRANCH  20  23
HETATM   23  N6  UNL     1      85.713 -27.674   2.774  1.00  0.00    -0.099 N 
HETATM   24  N7  UNL     1      86.323 -26.586   3.210  1.00  0.00     0.034 NA
HETATM   25  N8  UNL     1      87.336 -26.298   2.407  1.00  0.00     0.011 NA
HETATM   26  N9  UNL     1      87.342 -27.230   1.464  1.00  0.00    -0.211 N 
HETATM   27  N10 UNL     1      86.360 -28.058   1.690  1.00  0.00    -0.195 N 
ATOM     28  H9  UNL     1      88.004 -27.289   0.691  1.00  0.00     0.207 HD
ATOM     29  H10 UNL     1      86.128 -28.872   1.120  1.00  0.00     0.213 HD
ENDBRANCH  20  23
ENDBRANCH  16  17
ENDBRANCH   1  16
TORSDOF 7
ENDMDL
MODEL 2
REMARK VINA RESULT: -8.596575357      2.355      7.683
REMARK  7 active torsions:
REMARK  status: ('A' for Active; 'I' for Inactive)
REMARK    1  A    between atoms: N1_1  and  C1_4 
REMARK    2  A    between atoms: C2_7  and  O1_8 
REMARK    3  A    between atoms: O1_8  and  C3_9 
REMARK    4  A    between atoms: C3_9  and  C4_10 
REMARK    5  A    between atoms: C4_10  and  C5_11 
REMARK    6  A    between atoms: C5_11  and  N3_12 
REMARK       I    between atoms: C6_14  and  N5_16 
REMARK    7  A    between atoms: N5_16  and  N6_18 
ROOT
HETATM    1  C4  UNL     1      88.226 -29.850  -2.730  1.00  0.00     0.071 C 
ENDROOT
BRANCH   1   2
HETATM    2  C3  UNL     1      87.090 -29.183  -1.946  1.00  0.00     0.182 C 
BRANCH   2   3
HETATM    3  O1  UNL     1      86.232 -30.223  -1.516  1.00  0.00    -0.335 OA
BRANCH   3   4
HETATM    4  C2  UNL     1      85.481 -30.022  -0.348  1.00  0.00     0.162 A 
HETATM    5  N2  UNL     1      85.891 -29.144   0.586  1.00  0.00    -0.171 N 
HETATM    6  C1  UNL     1      85.171 -28.942   1.719  1.00  0.00     0.680 A 
ATOM      7  H2  UNL     1      86.755 -28.622   0.440  1.00  0.00     0.186 HD
HETATM    8  N11 UNL     1      84.028 -29.619   1.932  1.00  0.00    -0.156 N 
HETATM    9  C8  UNL     1      83.562 -30.510   1.040  1.00  0.00     0.263 A 
ATOM     10  H11 UNL     1      83.503 -29.451   2.791  1.00  0.00     0.187 HD
HETATM   11  C7  UNL     1      84.307 -30.703  -0.106  1.00  0.00     0.131 A 
HETATM   12  O2  UNL     1      82.493 -31.130   1.261  1.00  0.00    -0.268 OA
BRANCH   6  13
HETATM   13  N1  UNL     1      85.562 -28.095   2.625  1.00  0.00    -0.234 N 
ATOM     14  H12 UNL     1      86.300 -28.383   3.268  1.00  0.00     0.174 HD
ATOM     15  H11 UNL     1      85.145 -27.167   2.697  1.00  0.00     0.174 HD
ENDBRANCH   6  13
ENDBRANCH   3   4
ENDBRANCH   2   3
ENDBRANCH   1   2
BRANCH   1  16
HETATM   16  C5  UNL     1      88.254 -31.305  -2.338  1.00  0.00     0.065 C 
BRANCH  16  17
HETATM   17  N3  UNL     1      87.937 -32.166  -3.381  1.00  0.00    -0.343 N 
HETATM   18  C6  UNL     1      87.863 -33.378  -3.523  1.00  0.00     0.209 C 
HETATM   19  N4  UNL     1      87.477 -33.870  -4.839  1.00  0.00    -0.062 NA
HETATM   20  N5  UNL     1      88.118 -34.344  -2.532  1.00  0.00    -0.237 N 
ATOM     21  H5  UNL     1      87.469 -34.464  -1.753  1.00  0.00     0.193 HD
ATOM     22  H3  UNL     1      87.709 -31.664  -4.239  1.00  0.00     0.167 HD
BRANCH  20  23
HETATM   23  N6  UNL     1      89.269 -35.144  -2.620  1.00  0.00    -0.099 N 
HETATM   24  N7  UNL     1      89.550 -36.195  -1.871  1.00  0.00     0.034 NA
HETATM   25  N8  UNL     1      90.719 -36.699  -2.239  1.00  0.00     0.011 NA
HETATM   26  N9  UNL     1      91.157 -35.938  -3.232  1.00  0.00    -0.211 N 
HETATM   27  N10 UNL     1      90.278 -35.001  -3.459  1.00  0.00    -0.195 N 
ATOM     28  H9  UNL     1      92.035 -36.065  -3.736  1.00  0.00     0.207 HD
ATOM     29  H10 UNL     1      90.358 -34.273  -4.169  1.00  0.00     0.213 HD
ENDBRANCH  20  23
ENDBRANCH  16  17
ENDBRANCH   1  16
TORSDOF 7
ENDMDL
MODEL 3
REMARK VINA RESULT: -8.538141419      4.024      6.163
REMARK  7 active torsions:
REMARK  status: ('A' for Active; 'I' for Inactive)
REMARK    1  A    between atoms: N1_1  and  C1_4 
REMARK    2  A    between atoms: C2_7  and  O1_8 
REMARK    3  A    between atoms: O1_8  and  C3_9 
REMARK    4  A    between atoms: C3_9  and  C4_10 
REMARK    5  A    between atoms: C4_10  and  C5_11 
REMARK    6  A    between atoms: C5_11  and  N3_12 
REMARK       I    between atoms: C6_14  and  N5_16 
REMARK    7  A    between atoms: N5_16  and  N6_18 
ROOT
HETATM    1  C4  UNL     1      87.576 -32.017  -2.179  1.00  0.00     0.071 C 
ENDROOT
BRANCH   1   2
HETATM    2  C3  UNL     1      88.154 -32.980  -3.222  1.00  0.00     0.182 C 
BRANCH   2   3
HETATM    3  O1  UNL     1      87.852 -34.288  -2.773  1.00  0.00    -0.335 OA
BRANCH   3   4
HETATM    4  C2  UNL     1      88.919 -35.156  -2.496  1.00  0.00     0.162 A 
HETATM    5  N2  UNL     1      90.104 -35.002  -3.113  1.00  0.00    -0.171 N 
HETATM    6  C1  UNL     1      91.143 -35.836  -2.852  1.00  0.00     0.680 A 
ATOM      7  H2  UNL     1      90.225 -34.247  -3.789  1.00  0.00     0.186 HD
HETATM    8  N11 UNL     1      91.007 -36.838  -1.965  1.00  0.00    -0.156 N 
HETATM    9  C8  UNL     1      89.850 -37.048  -1.312  1.00  0.00     0.263 A 
ATOM     10  H11 UNL     1      91.801 -37.453  -1.783  1.00  0.00     0.187 HD
HETATM   11  C7  UNL     1      88.805 -36.190  -1.591  1.00  0.00     0.131 A 
HETATM   12  O2  UNL     1      89.747 -37.990  -0.489  1.00  0.00    -0.268 OA
BRANCH   6  13
HETATM   13  N1  UNL     1      92.291 -35.692  -3.445  1.00  0.00    -0.234 N 
ATOM     14  H12 UNL     1      92.379 -34.966  -4.155  1.00  0.00     0.174 HD
ATOM     15  H11 UNL     1      93.086 -36.287  -3.212  1.00  0.00     0.174 HD
ENDBRANCH   6  13
ENDBRANCH   3   4
ENDBRANCH   2   3
ENDBRANCH   1   2
BRANCH   1  16
HETATM   16  C5  UNL     1      88.141 -30.649  -2.462  1.00  0.00     0.065 C 
BRANCH  16  17
HETATM   17  N3  UNL     1      87.168 -29.676  -2.648  1.00  0.00    -0.343 N 
HETATM   18  C6  UNL     1      86.389 -29.068  -1.927  1.00  0.00     0.209 C 
HETATM   19  N4  UNL     1      85.513 -28.095  -2.567  1.00  0.00    -0.062 NA
HETATM   20  N5  UNL     1      86.260 -29.220  -0.534  1.00  0.00    -0.237 N 
ATOM     21  H5  UNL     1      86.994 -28.884   0.089  1.00  0.00     0.193 HD
ATOM     22  H3  UNL     1      87.082 -29.400  -3.626  1.00  0.00     0.167 HD
BRANCH  20  23
HETATM   23  N6  UNL     1      85.114 -29.838  -0.006  1.00  0.00    -0.099 N 
HETATM   24  N7  UNL     1      84.717 -31.077  -0.236  1.00  0.00     0.034 NA
HETATM   25  N8  UNL     1      83.597 -31.312   0.430  1.00  0.00     0.011 NA
HETATM   26  N9  UNL     1      83.306 -30.192   1.078  1.00  0.00    -0.211 N 
HETATM   27  N10 UNL     1      84.225 -29.305   0.811  1.00  0.00    -0.195 N 
ATOM     28  H9  UNL     1      82.499 -30.049   1.684  1.00  0.00     0.207 HD
ATOM     29  H10 UNL     1      84.252 -28.353   1.175  1.00  0.00     0.213 HD
ENDBRANCH  20  23
ENDBRANCH  16  17
ENDBRANCH   1  16
TORSDOF 7
ENDMDL
MODEL 4
REMARK VINA RESULT: -8.516274372      3.855      5.578
REMARK  7 active torsions:
REMARK  status: ('A' for Active; 'I' for Inactive)
REMARK    1  A    between atoms: N1_1  and  C1_4 
REMARK    2  A    between atoms: C2_7  and  O1_8 
REMARK    3  A    between atoms: O1_8  and  C3_9 
REMARK    4  A    between atoms: C3_9  and  C4_10 
REMARK    5  A    between atoms: C4_10  and  C5_11 
REMARK    6  A    between atoms: C5_11  and  N3_12 
REMARK       I    between atoms: C6_14  and  N5_16 
REMARK    7  A    between atoms: N5_16  and  N6_18 
ROOT
HETATM    1  C4  UNL     1      88.135 -31.642  -2.753  1.00  0.00     0.071 C 
ENDROOT
BRANCH   1   2
HETATM    2  C3  UNL     1      87.767 -33.045  -2.258  1.00  0.00     0.182 C 
BRANCH   2   3
HETATM    3  O1  UNL     1      88.281 -33.956  -3.210  1.00  0.00    -0.335 OA
BRANCH   3   4
HETATM    4  C2  UNL     1      89.139 -34.971  -2.760  1.00  0.00     0.162 A 
HETATM    5  N2  UNL     1      90.405 -35.044  -3.208  1.00  0.00    -0.171 N 
HETATM    6  C1  UNL     1      91.244 -36.022  -2.779  1.00  0.00     0.680 A 
ATOM      7  H2  UNL     1      90.741 -34.355  -3.881  1.00  0.00     0.186 HD
HETATM    8  N11 UNL     1      90.824 -36.941  -1.891  1.00  0.00    -0.156 N 
HETATM    9  C8  UNL     1      89.571 -36.925  -1.403  1.00  0.00     0.263 A 
ATOM     10  H11 UNL     1      91.471 -37.666  -1.582  1.00  0.00     0.187 HD
HETATM   11  C7  UNL     1      88.733 -35.925  -1.851  1.00  0.00     0.131 A 
HETATM   12  O2  UNL     1      89.201 -37.794  -0.575  1.00  0.00    -0.268 OA
BRANCH   6  13
HETATM   13  N1  UNL     1      92.469 -36.098  -3.208  1.00  0.00    -0.234 N 
ATOM     14  H12 UNL     1      92.683 -35.708  -4.126  1.00  0.00     0.174 HD
ATOM     15  H11 UNL     1      93.201 -36.535  -2.648  1.00  0.00     0.174 HD
ENDBRANCH   6  13
ENDBRANCH   3   4
ENDBRANCH   2   3
ENDBRANCH   1   2
BRANCH   1  16
HETATM   16  C5  UNL     1      87.244 -30.660  -2.038  1.00  0.00     0.065 C 
BRANCH  16  17
HETATM   17  N3  UNL     1      86.074 -31.226  -1.551  1.00  0.00    -0.343 N 
HETATM   18  C6  UNL     1      85.221 -30.908  -0.735  1.00  0.00     0.209 C 
HETATM   19  N4  UNL     1      84.118 -31.838  -0.528  1.00  0.00    -0.062 NA
HETATM   20  N5  UNL     1      85.205 -29.725   0.027  1.00  0.00    -0.237 N 
ATOM     21  H5  UNL     1      85.014 -28.828  -0.422  1.00  0.00     0.193 HD
ATOM     22  H3  UNL     1      85.876 -32.130  -1.980  1.00  0.00     0.167 HD
BRANCH  20  23
HETATM   23  N6  UNL     1      85.453 -29.783   1.408  1.00  0.00    -0.099 N 
HETATM   24  N7  UNL     1      86.253 -28.985   2.093  1.00  0.00     0.034 NA
HETATM   25  N8  UNL     1      86.238 -29.337   3.370  1.00  0.00     0.011 NA
HETATM   26  N9  UNL     1      85.413 -30.370   3.463  1.00  0.00    -0.211 N 
HETATM   27  N10 UNL     1      84.942 -30.636   2.276  1.00  0.00    -0.195 N 
ATOM     28  H9  UNL     1      85.184 -30.873   4.320  1.00  0.00     0.207 HD
ATOM     29  H10 UNL     1      84.284 -31.383   2.053  1.00  0.00     0.213 HD
ENDBRANCH  20  23
ENDBRANCH  16  17
ENDBRANCH   1  16
TORSDOF 7
ENDMDL
MODEL 5
REMARK VINA RESULT: -8.446562738      1.293      1.758
REMARK  7 active torsions:
REMARK  status: ('A' for Active; 'I' for Inactive)
REMARK    1  A    between atoms: N1_1  and  C1_4 
REMARK    2  A    between atoms: C2_7  and  O1_8 
REMARK    3  A    between atoms: O1_8  and  C3_9 
REMARK    4  A    between atoms: C3_9  and  C4_10 
REMARK    5  A    between atoms: C4_10  and  C5_11 
REMARK    6  A    between atoms: C5_11  and  N3_12 
REMARK       I    between atoms: C6_14  and  N5_16 
REMARK    7  A    between atoms: N5_16  and  N6_18 
ROOT
HETATM    1  C4  UNL     1      83.206 -31.082   0.631  1.00  0.00     0.071 C 
ENDROOT
BRANCH   1   2
HETATM    2  C3  UNL     1      84.726 -31.223   0.498  1.00  0.00     0.182 C 
BRANCH   2   3
HETATM    3  O1  UNL     1      85.155 -30.177  -0.353  1.00  0.00    -0.335 OA
BRANCH   3   4
HETATM    4  C2  UNL     1      86.220 -30.431  -1.231  1.00  0.00     0.162 A 
HETATM    5  N2  UNL     1      86.851 -29.419  -1.852  1.00  0.00    -0.171 N 
HETATM    6  C1  UNL     1      87.883 -29.655  -2.703  1.00  0.00     0.680 A 
ATOM      7  H2  UNL     1      86.550 -28.459  -1.682  1.00  0.00     0.186 HD
HETATM    8  N11 UNL     1      88.297 -30.912  -2.942  1.00  0.00    -0.156 N 
HETATM    9  C8  UNL     1      87.711 -31.969  -2.353  1.00  0.00     0.263 A 
ATOM     10  H11 UNL     1      89.074 -31.066  -3.584  1.00  0.00     0.187 HD
HETATM   11  C7  UNL     1      86.664 -31.710  -1.492  1.00  0.00     0.131 A 
HETATM   12  O2  UNL     1      88.115 -33.134  -2.592  1.00  0.00    -0.268 OA
BRANCH   6  13
HETATM   13  N1  UNL     1      88.497 -28.680  -3.307  1.00  0.00    -0.234 N 
ATOM     14  H12 UNL     1      88.337 -28.556  -4.306  1.00  0.00     0.174 HD
ATOM     15  H11 UNL     1      89.122 -28.053  -2.800  1.00  0.00     0.174 HD
ENDBRANCH   6  13
ENDBRANCH   3   4
ENDBRANCH   2   3
ENDBRANCH   1   2
BRANCH   1  16
HETATM   16  C5  UNL     1      82.933 -30.235   1.847  1.00  0.00     0.065 C 
BRANCH  16  17
HETATM   17  N3  UNL     1      83.918 -30.332   2.821  1.00  0.00    -0.343 N 
HETATM   18  C6  UNL     1      84.674 -29.552   3.383  1.00  0.00     0.209 C 
HETATM   19  N4  UNL     1      85.579 -30.105   4.381  1.00  0.00    -0.062 NA
HETATM   20  N5  UNL     1      84.752 -28.165   3.153  1.00  0.00    -0.237 N 
ATOM     21  H5  UNL     1      83.997 -27.551   3.460  1.00  0.00     0.193 HD
ATOM     22  H3  UNL     1      84.041 -31.290   3.150  1.00  0.00     0.167 HD
BRANCH  20  23
HETATM   23  N6  UNL     1      85.874 -27.631   2.498  1.00  0.00    -0.099 N 
HETATM   24  N7  UNL     1      86.568 -26.571   2.873  1.00  0.00     0.034 NA
HETATM   25  N8  UNL     1      87.555 -26.365   2.016  1.00  0.00     0.011 NA
HETATM   26  N9  UNL     1      87.461 -27.319   1.100  1.00  0.00    -0.211 N 
HETATM   27  N10 UNL     1      86.444 -28.081   1.395  1.00  0.00    -0.195 N 
ATOM     28  H9  UNL     1      88.080 -27.437   0.298  1.00  0.00     0.207 HD
ATOM     29  H10 UNL     1      86.137 -28.893   0.860  1.00  0.00     0.213 HD
ENDBRANCH  20  23
ENDBRANCH  16  17
ENDBRANCH   1  16
TORSDOF 7
ENDMDL
