MODEL 1
REMARK VINA RESULT: -7.799959345      0.000      0.000
REMARK  9 active torsions:
REMARK  status: ('A' for Active; 'I' for Inactive)
REMARK    1  A    between atoms: O1_2  and  C2_3 
REMARK       I    between atoms: C2_3  and  N1_5 
REMARK    2  A    between atoms: N1_5  and  N2_7 
REMARK       I    between atoms: N2_7  and  C3_9 
REMARK    3  A    between atoms: C3_9  and  C4_11 
REMARK    4  A    between atoms: C4_11  and  C5_12 
REMARK    5  A    between atoms: C4_11  and  N6_23 
REMARK    6  A    between atoms: C5_12  and  C6_13 
REMARK    7  A    between atoms: C6_13  and  C7_14 
REMARK    8  A    between atoms: C7_14  and  O4_15 
REMARK    9  A    between atoms: O4_15  and  N3_16 
REMARK       I    between atoms: N3_16  and  C8_18 
REMARK       I    between atoms: N6_23  and  C9_25 
ROOT
HETATM    1  C4  UNL     1      54.792  15.909  81.971  1.00  0.00     0.181 C 
ENDROOT
BRANCH   1   2
HETATM    2  C3  UNL     1      54.510  14.867  80.977  1.00  0.00     0.259 C 
HETATM    3  N2  UNL     1      54.706  13.496  81.160  1.00  0.00    -0.264 N 
ATOM      4  H2  UNL     1      55.073  13.217  82.069  1.00  0.00     0.190 HD
HETATM    5  O3  UNL     1      54.042  15.249  79.849  1.00  0.00    -0.269 OA
BRANCH   3   6
HETATM    6  N1  UNL     1      54.467  12.476  80.272  1.00  0.00    -0.243 N 
HETATM    7  C2  UNL     1      53.685  11.328  80.547  1.00  0.00     0.379 C 
HETATM    8  O2  UNL     1      53.174  11.251  81.706  1.00  0.00    -0.237 OA
ATOM      9  H1  UNL     1      54.884  12.551  79.345  1.00  0.00     0.192 HD
BRANCH   7  10
HETATM   10  O1  UNL     1      53.432  10.297  79.677  1.00  0.00    -0.308 OA
HETATM   11  C1  UNL     1      52.171  10.043  79.085  1.00  0.00     0.215 C 
ENDBRANCH   7  10
ENDBRANCH   3   6
ENDBRANCH   1   2
BRANCH   1  12
HETATM   12  C5  UNL     1      54.125  17.185  81.575  1.00  0.00     0.037 C 
BRANCH  12  13
HETATM   13  C6  UNL     1      52.876  17.483  82.384  1.00  0.00     0.031 C 
BRANCH  13  14
HETATM   14  C7  UNL     1      52.510  16.154  83.043  1.00  0.00     0.201 C 
BRANCH  14  15
HETATM   15  O4  UNL     1      51.410  15.604  82.400  1.00  0.00    -0.278 OA
BRANCH  15  16
HETATM   16  N3  UNL     1      51.781  14.368  82.004  1.00  0.00    -0.239 N 
HETATM   17  C8  UNL     1      50.940  13.604  81.120  1.00  0.00     0.205 C 
HETATM   18  N4  UNL     1      51.079  13.607  79.850  1.00  0.00    -0.372 N 
HETATM   19  N5  UNL     1      49.915  12.823  81.752  1.00  0.00    -0.062 NA
ATOM     20  H42 UNL     1      51.807  14.162  79.401  1.00  0.00     0.158 HD
ATOM     21  H41 UNL     1      50.483  13.066  79.223  1.00  0.00     0.158 HD
ATOM     22  H3  UNL     1      52.661  13.973  82.334  1.00  0.00     0.197 HD
ENDBRANCH  15  16
ENDBRANCH  14  15
ENDBRANCH  13  14
ENDBRANCH  12  13
ENDBRANCH   1  12
BRANCH   1  23
HETATM   23  N6  UNL     1      56.183  16.035  82.262  1.00  0.00    -0.322 N 
HETATM   24  C9  UNL     1      56.692  16.168  83.582  1.00  0.00     0.284 C 
HETATM   25  O5  UNL     1      55.950  16.187  84.591  1.00  0.00    -0.630 OA
HETATM   26  O6  UNL     1      58.073  16.285  83.803  1.00  0.00    -0.630 OA
ATOM     27  H6  UNL     1      56.843  16.028  81.485  1.00  0.00     0.166 HD
ENDBRANCH   1  23
TORSDOF 9
ENDMDL
MODEL 2
REMARK VINA RESULT: -7.548753643      2.721      3.532
REMARK  9 active torsions:
REMARK  status: ('A' for Active; 'I' for Inactive)
REMARK    1  A    between atoms: O1_2  and  C2_3 
REMARK       I    between atoms: C2_3  and  N1_5 
REMARK    2  A    between atoms: N1_5  and  N2_7 
REMARK       I    between atoms: N2_7  and  C3_9 
REMARK    3  A    between atoms: C3_9  and  C4_11 
REMARK    4  A    between atoms: C4_11  and  C5_12 
REMARK    5  A    between atoms: C4_11  and  N6_23 
REMARK    6  A    between atoms: C5_12  and  C6_13 
REMARK    7  A    between atoms: C6_13  and  C7_14 
REMARK    8  A    between atoms: C7_14  and  O4_15 
REMARK    9  A    between atoms: O4_15  and  N3_16 
REMARK       I    between atoms: N3_16  and  C8_18 
REMARK       I    between atoms: N6_23  and  C9_25 
ROOT
HETATM    1  C4  UNL     1      55.358  16.055  82.702  1.00  0.00     0.181 C 
ENDROOT
BRANCH   1   2
HETATM    2  C3  UNL     1      54.616  15.069  83.497  1.00  0.00     0.259 C 
HETATM    3  N2  UNL     1      54.860  13.694  83.520  1.00  0.00    -0.264 N 
ATOM      4  H2  UNL     1      55.626  13.369  82.929  1.00  0.00     0.190 HD
HETATM    5  O3  UNL     1      53.668  15.511  84.233  1.00  0.00    -0.269 OA
BRANCH   3   6
HETATM    6  N1  UNL     1      54.203  12.724  84.235  1.00  0.00    -0.243 N 
HETATM    7  C2  UNL     1      54.653  12.174  85.460  1.00  0.00     0.379 C 
HETATM    8  O2  UNL     1      55.749  12.621  85.917  1.00  0.00    -0.237 OA
ATOM      9  H1  UNL     1      53.324  12.374  83.856  1.00  0.00     0.192 HD
BRANCH   7  10
HETATM   10  O1  UNL     1      54.014  11.205  86.192  1.00  0.00    -0.308 OA
HETATM   11  C1  UNL     1      54.621  10.460  87.232  1.00  0.00     0.215 C 
ENDBRANCH   7  10
ENDBRANCH   3   6
ENDBRANCH   1   2
BRANCH   1  12
HETATM   12  C5  UNL     1      54.480  16.607  81.627  1.00  0.00     0.037 C 
BRANCH  12  13
HETATM   13  C6  UNL     1      53.945  15.543  80.687  1.00  0.00     0.031 C 
BRANCH  13  14
HETATM   14  C7  UNL     1      52.437  15.789  80.634  1.00  0.00     0.201 C 
BRANCH  14  15
HETATM   15  O4  UNL     1      51.785  14.845  81.415  1.00  0.00    -0.278 OA
BRANCH  15  16
HETATM   16  N3  UNL     1      51.752  13.708  80.687  1.00  0.00    -0.239 N 
HETATM   17  C8  UNL     1      51.557  12.436  81.333  1.00  0.00     0.205 C 
HETATM   18  N4  UNL     1      50.409  11.895  81.475  1.00  0.00    -0.372 N 
HETATM   19  N5  UNL     1      52.746  11.794  81.820  1.00  0.00    -0.062 NA
ATOM     20  H42 UNL     1      49.565  12.351  81.129  1.00  0.00     0.158 HD
ATOM     21  H41 UNL     1      50.271  10.994  81.933  1.00  0.00     0.158 HD
ATOM     22  H3  UNL     1      51.866  13.750  79.674  1.00  0.00     0.197 HD
ENDBRANCH  15  16
ENDBRANCH  14  15
ENDBRANCH  13  14
ENDBRANCH  12  13
ENDBRANCH   1  12
BRANCH   1  23
HETATM   23  N6  UNL     1      56.615  15.562  82.243  1.00  0.00    -0.322 N 
HETATM   24  C9  UNL     1      57.846  15.846  82.895  1.00  0.00     0.284 C 
HETATM   25  O5  UNL     1      57.914  16.555  83.925  1.00  0.00    -0.630 OA
HETATM   26  O6  UNL     1      59.052  15.329  82.395  1.00  0.00    -0.630 OA
ATOM     27  H6  UNL     1      56.632  14.979  81.407  1.00  0.00     0.166 HD
ENDBRANCH   1  23
TORSDOF 9
ENDMDL
MODEL 3
REMARK VINA RESULT: -7.530648709      2.262      5.654
REMARK  9 active torsions:
REMARK  status: ('A' for Active; 'I' for Inactive)
REMARK    1  A    between atoms: O1_2  and  C2_3 
REMARK       I    between atoms: C2_3  and  N1_5 
REMARK    2  A    between atoms: N1_5  and  N2_7 
REMARK       I    between atoms: N2_7  and  C3_9 
REMARK    3  A    between atoms: C3_9  and  C4_11 
REMARK    4  A    between atoms: C4_11  and  C5_12 
REMARK    5  A    between atoms: C4_11  and  N6_23 
REMARK    6  A    between atoms: C5_12  and  C6_13 
REMARK    7  A    between atoms: C6_13  and  C7_14 
REMARK    8  A    between atoms: C7_14  and  O4_15 
REMARK    9  A    between atoms: O4_15  and  N3_16 
REMARK       I    between atoms: N3_16  and  C8_18 
REMARK       I    between atoms: N6_23  and  C9_25 
ROOT
HETATM    1  C4  UNL     1      53.065  12.439  81.223  1.00  0.00     0.181 C 
ENDROOT
BRANCH   1   2
HETATM    2  C3  UNL     1      54.021  12.438  82.337  1.00  0.00     0.259 C 
HETATM    3  N2  UNL     1      55.332  12.916  82.282  1.00  0.00    -0.264 N 
ATOM      4  H2  UNL     1      55.630  13.297  81.384  1.00  0.00     0.190 HD
HETATM    5  O3  UNL     1      53.615  11.961  83.452  1.00  0.00    -0.269 OA
BRANCH   3   6
HETATM    6  N1  UNL     1      56.273  12.939  83.282  1.00  0.00    -0.243 N 
HETATM    7  C2  UNL     1      57.301  13.906  83.407  1.00  0.00     0.379 C 
HETATM    8  O2  UNL     1      57.342  14.811  82.520  1.00  0.00    -0.237 OA
ATOM      9  H1  UNL     1      56.228  12.205  83.989  1.00  0.00     0.192 HD
BRANCH   7  10
HETATM   10  O1  UNL     1      58.251  13.949  84.397  1.00  0.00    -0.308 OA
HETATM   11  C1  UNL     1      59.642  13.803  84.175  1.00  0.00     0.215 C 
ENDBRANCH   7  10
ENDBRANCH   3   6
ENDBRANCH   1   2
BRANCH   1  12
HETATM   12  C5  UNL     1      53.249  13.667  80.395  1.00  0.00     0.037 C 
BRANCH  12  13
HETATM   13  C6  UNL     1      51.971  14.468  80.221  1.00  0.00     0.031 C 
BRANCH  13  14
HETATM   14  C7  UNL     1      52.254  15.809  80.897  1.00  0.00     0.201 C 
BRANCH  14  15
HETATM   15  O4  UNL     1      51.745  15.796  82.188  1.00  0.00    -0.278 OA
BRANCH  15  16
HETATM   16  N3  UNL     1      52.573  16.560  82.931  1.00  0.00    -0.239 N 
HETATM   17  C8  UNL     1      53.932  16.145  83.165  1.00  0.00     0.205 C 
HETATM   18  N4  UNL     1      54.910  16.516  82.433  1.00  0.00    -0.372 N 
HETATM   19  N5  UNL     1      54.134  15.274  84.288  1.00  0.00    -0.062 NA
ATOM     20  H42 UNL     1      54.766  17.136  81.635  1.00  0.00     0.158 HD
ATOM     21  H41 UNL     1      55.873  16.222  82.598  1.00  0.00     0.158 HD
ATOM     22  H3  UNL     1      52.235  17.436  83.329  1.00  0.00     0.197 HD
ENDBRANCH  15  16
ENDBRANCH  14  15
ENDBRANCH  13  14
ENDBRANCH  12  13
ENDBRANCH   1  12
BRANCH   1  23
HETATM   23  N6  UNL     1      51.723  12.207  81.646  1.00  0.00    -0.322 N 
HETATM   24  C9  UNL     1      50.989  11.040  81.298  1.00  0.00     0.284 C 
HETATM   25  O5  UNL     1      51.473  10.128  80.589  1.00  0.00    -0.630 OA
HETATM   26  O6  UNL     1      49.671  10.869  81.749  1.00  0.00    -0.630 OA
ATOM     27  H6  UNL     1      51.268  12.911  82.226  1.00  0.00     0.166 HD
ENDBRANCH   1  23
TORSDOF 9
ENDMDL
MODEL 4
REMARK VINA RESULT: -7.524665003      1.856      2.390
REMARK  9 active torsions:
REMARK  status: ('A' for Active; 'I' for Inactive)
REMARK    1  A    between atoms: O1_2  and  C2_3 
REMARK       I    between atoms: C2_3  and  N1_5 
REMARK    2  A    between atoms: N1_5  and  N2_7 
REMARK       I    between atoms: N2_7  and  C3_9 
REMARK    3  A    between atoms: C3_9  and  C4_11 
REMARK    4  A    between atoms: C4_11  and  C5_12 
REMARK    5  A    between atoms: C4_11  and  N6_23 
REMARK    6  A    between atoms: C5_12  and  C6_13 
REMARK    7  A    between atoms: C6_13  and  C7_14 
REMARK    8  A    between atoms: C7_14  and  O4_15 
REMARK    9  A    between atoms: O4_15  and  N3_16 
REMARK       I    between atoms: N3_16  and  C8_18 
REMARK       I    between atoms: N6_23  and  C9_25 
ROOT
HETATM    1  C4  UNL     1      55.664  15.089  83.624  1.00  0.00     0.181 C 
ENDROOT
BRANCH   1   2
HETATM    2  C3  UNL     1      54.793  13.908  83.618  1.00  0.00     0.259 C 
HETATM    3  N2  UNL     1      54.164  13.369  82.493  1.00  0.00    -0.264 N 
ATOM      4  H2  UNL     1      54.341  13.850  81.612  1.00  0.00     0.190 HD
HETATM    5  O3  UNL     1      54.597  13.323  84.739  1.00  0.00    -0.269 OA
BRANCH   3   6
HETATM    6  N1  UNL     1      53.338  12.275  82.423  1.00  0.00    -0.243 N 
HETATM    7  C2  UNL     1      53.048  11.553  81.239  1.00  0.00     0.379 C 
HETATM    8  O2  UNL     1      53.600  11.961  80.172  1.00  0.00    -0.237 OA
ATOM      9  H1  UNL     1      52.900  11.958  83.287  1.00  0.00     0.192 HD
BRANCH   7  10
HETATM   10  O1  UNL     1      52.226  10.457  81.144  1.00  0.00    -0.308 OA
HETATM   11  C1  UNL     1      51.202  10.310  80.177  1.00  0.00     0.215 C 
ENDBRANCH   7  10
ENDBRANCH   3   6
ENDBRANCH   1   2
BRANCH   1  12
HETATM   12  C5  UNL     1      54.866  16.313  83.318  1.00  0.00     0.037 C 
BRANCH  12  13
HETATM   13  C6  UNL     1      53.700  16.520  84.269  1.00  0.00     0.031 C 
BRANCH  13  14
HETATM   14  C7  UNL     1      52.523  16.894  83.369  1.00  0.00     0.201 C 
BRANCH  14  15
HETATM   15  O4  UNL     1      52.128  15.784  82.636  1.00  0.00    -0.278 OA
BRANCH  15  16
HETATM   16  N3  UNL     1      52.046  16.188  81.350  1.00  0.00    -0.239 N 
HETATM   17  C8  UNL     1      52.508  15.332  80.289  1.00  0.00     0.205 C 
HETATM   18  N4  UNL     1      51.741  14.529  79.657  1.00  0.00    -0.372 N 
HETATM   19  N5  UNL     1      53.904  15.429  79.969  1.00  0.00    -0.062 NA
ATOM     20  H42 UNL     1      50.748  14.460  79.883  1.00  0.00     0.158 HD
ATOM     21  H41 UNL     1      52.067  13.922  78.905  1.00  0.00     0.158 HD
ATOM     22  H3  UNL     1      51.656  17.104  81.130  1.00  0.00     0.197 HD
ENDBRANCH  15  16
ENDBRANCH  14  15
ENDBRANCH  13  14
ENDBRANCH  12  13
ENDBRANCH   1  12
BRANCH   1  23
HETATM   23  N6  UNL     1      56.826  14.924  82.814  1.00  0.00    -0.322 N 
HETATM   24  C9  UNL     1      58.022  15.667  83.010  1.00  0.00     0.284 C 
HETATM   25  O5  UNL     1      58.140  16.528  83.913  1.00  0.00    -0.630 OA
HETATM   26  O6  UNL     1      59.134  15.456  82.180  1.00  0.00    -0.630 OA
ATOM     27  H6  UNL     1      56.798  14.240  82.059  1.00  0.00     0.166 HD
ENDBRANCH   1  23
TORSDOF 9
ENDMDL
MODEL 5
REMARK VINA RESULT: -7.489175981      2.351      5.830
REMARK  9 active torsions:
REMARK  status: ('A' for Active; 'I' for Inactive)
REMARK    1  A    between atoms: O1_2  and  C2_3 
REMARK       I    between atoms: C2_3  and  N1_5 
REMARK    2  A    between atoms: N1_5  and  N2_7 
REMARK       I    between atoms: N2_7  and  C3_9 
REMARK    3  A    between atoms: C3_9  and  C4_11 
REMARK    4  A    between atoms: C4_11  and  C5_12 
REMARK    5  A    between atoms: C4_11  and  N6_23 
REMARK    6  A    between atoms: C5_12  and  C6_13 
REMARK    7  A    between atoms: C6_13  and  C7_14 
REMARK    8  A    between atoms: C7_14  and  O4_15 
REMARK    9  A    between atoms: O4_15  and  N3_16 
REMARK       I    between atoms: N3_16  and  C8_18 
REMARK       I    between atoms: N6_23  and  C9_25 
ROOT
HETATM    1  C4  UNL     1      53.306  12.329  81.400  1.00  0.00     0.181 C 
ENDROOT
BRANCH   1   2
HETATM    2  C3  UNL     1      54.233  12.446  82.532  1.00  0.00     0.259 C 
HETATM    3  N2  UNL     1      55.582  12.795  82.444  1.00  0.00    -0.264 N 
ATOM      4  H2  UNL     1      55.932  12.984  81.504  1.00  0.00     0.190 HD
HETATM    5  O3  UNL     1      53.761  12.210  83.697  1.00  0.00    -0.269 OA
BRANCH   3   6
HETATM    6  N1  UNL     1      56.499  12.916  83.459  1.00  0.00    -0.243 N 
HETATM    7  C2  UNL     1      57.480  13.933  83.548  1.00  0.00     0.379 C 
HETATM    8  O2  UNL     1      57.502  14.788  82.612  1.00  0.00    -0.237 OA
ATOM      9  H1  UNL     1      56.470  12.222  84.205  1.00  0.00     0.192 HD
BRANCH   7  10
HETATM   10  O1  UNL     1      58.406  14.074  84.553  1.00  0.00    -0.308 OA
HETATM   11  C1  UNL     1      59.710  13.523  84.519  1.00  0.00     0.215 C 
ENDBRANCH   7  10
ENDBRANCH   3   6
ENDBRANCH   1   2
BRANCH   1  12
HETATM   12  C5  UNL     1      53.571  13.415  80.410  1.00  0.00     0.037 C 
BRANCH  12  13
HETATM   13  C6  UNL     1      52.790  14.685  80.693  1.00  0.00     0.031 C 
BRANCH  13  14
HETATM   14  C7  UNL     1      53.811  15.814  80.546  1.00  0.00     0.201 C 
BRANCH  14  15
HETATM   15  O4  UNL     1      54.844  15.625  81.453  1.00  0.00    -0.278 OA
BRANCH  15  16
HETATM   16  N3  UNL     1      54.714  16.595  82.383  1.00  0.00    -0.239 N 
HETATM   17  C8  UNL     1      54.440  16.254  83.755  1.00  0.00     0.205 C 
HETATM   18  N4  UNL     1      55.355  16.102  84.633  1.00  0.00    -0.372 N 
HETATM   19  N5  UNL     1      53.054  16.090  84.093  1.00  0.00    -0.062 NA
ATOM     20  H42 UNL     1      56.340  16.218  84.392  1.00  0.00     0.158 HD
ATOM     21  H41 UNL     1      55.161  15.860  85.604  1.00  0.00     0.158 HD
ATOM     22  H3  UNL     1      54.811  17.573  82.114  1.00  0.00     0.197 HD
ENDBRANCH  15  16
ENDBRANCH  14  15
ENDBRANCH  13  14
ENDBRANCH  12  13
ENDBRANCH   1  12
BRANCH   1  23
HETATM   23  N6  UNL     1      51.944  12.222  81.809  1.00  0.00    -0.322 N 
HETATM   24  C9  UNL     1      51.098  11.146  81.424  1.00  0.00     0.284 C 
HETATM   25  O5  UNL     1      51.492  10.210  80.691  1.00  0.00    -0.630 OA
HETATM   26  O6  UNL     1      49.766  11.097  81.863  1.00  0.00    -0.630 OA
ATOM     27  H6  UNL     1      51.558  12.952  82.407  1.00  0.00     0.166 HD
ENDBRANCH   1  23
TORSDOF 9
ENDMDL
