MODEL 1
REMARK VINA RESULT: -7.371425904      0.000      0.000
REMARK  9 active torsions:
REMARK  status: ('A' for Active; 'I' for Inactive)
REMARK    1  A    between atoms: N1_1  and  C1_5 
REMARK    2  A    between atoms: C1_5  and  C2_6 
REMARK    3  A    between atoms: C2_6  and  N2_7 
REMARK    4  A    between atoms: N2_7  and  C3_10 
REMARK    5  A    between atoms: C3_10  and  C4_11 
REMARK    6  A    between atoms: C4_11  and  C5_12 
REMARK    7  A    between atoms: C5_12  and  N3_13 
REMARK    8  A    between atoms: C8_19  and  N5_20 
REMARK    9  A    between atoms: N5_20  and  N6_22 
ROOT
HETATM    1  N3  UNL     1      59.973  11.356  84.005  1.00  0.00    -0.146 N 
HETATM    2  C6  UNL     1      61.081  12.249  83.959  1.00  0.00     0.298 A 
HETATM    3  O1  UNL     1      61.334  13.163  84.813  1.00  0.00    -0.267 OA
HETATM    4  C7  UNL     1      61.840  11.899  82.763  1.00  0.00     0.288 A 
HETATM    5  N4  UNL     1      61.105  10.805  82.190  1.00  0.00    -0.179 N 
ATOM      6  H4  UNL     1      61.383  10.328  81.333  1.00  0.00     0.181 HD
HETATM    7  C8  UNL     1      60.063  10.492  82.870  1.00  0.00     0.700 A 
HETATM    8  N7  UNL     1      61.927  12.927  81.770  1.00  0.00    -0.300 N 
ATOM      9  H7  UNL     1      61.264  13.692  81.641  1.00  0.00     0.167 HD
HETATM   10  C9  UNL     1      63.090  12.699  80.999  1.00  0.00     0.325 C 
HETATM   11  O2  UNL     1      63.392  13.132  79.842  1.00  0.00    -0.247 OA
HETATM   12  N8  UNL     1      63.923  11.838  81.807  1.00  0.00    -0.275 N 
ATOM     13  H8  UNL     1      64.842  11.481  81.543  1.00  0.00     0.173 HD
HETATM   14  C10 UNL     1      63.253  11.572  83.026  1.00  0.00     0.285 C 
HETATM   15  O3  UNL     1      63.768  11.154  84.072  1.00  0.00    -0.268 OA
ENDROOT
BRANCH   1  16
HETATM   16  C5  UNL     1      58.940  11.319  84.995  1.00  0.00     0.152 C 
BRANCH  16  17
HETATM   17  C4  UNL     1      57.991  12.469  84.980  1.00  0.00     0.048 C 
BRANCH  17  18
HETATM   18  C3  UNL     1      57.043  12.437  83.814  1.00  0.00     0.234 C 
BRANCH  18  19
HETATM   19  N2  UNL     1      57.251  13.537  82.920  1.00  0.00    -0.073 N 
ATOM     20  H22 UNL     1      56.691  13.419  82.075  1.00  0.00     0.277 HD
ATOM     21  H21 UNL     1      58.186  13.495  82.515  1.00  0.00     0.277 HD
BRANCH  19  22
HETATM   22  C2  UNL     1      57.013  14.835  83.505  1.00  0.00     0.259 C 
BRANCH  22  23
HETATM   23  C1  UNL     1      58.114  15.779  82.997  1.00  0.00     0.257 C 
BRANCH  23  24
HETATM   24  N1  UNL     1      59.059  15.002  82.215  1.00  0.00    -0.078 N 
ATOM     25  H13 UNL     1      59.946  14.862  82.698  1.00  0.00     0.274 HD
ATOM     26  H12 UNL     1      58.788  14.022  82.134  1.00  0.00     0.274 HD
ATOM     27  H11 UNL     1      59.174  15.453  81.308  1.00  0.00     0.274 HD
ENDBRANCH  23  24
ENDBRANCH  22  23
ENDBRANCH  19  22
ENDBRANCH  18  19
ENDBRANCH  17  18
ENDBRANCH  16  17
ENDBRANCH   1  16
BRANCH   7  28
HETATM   28  N5  UNL     1      59.104   9.456  82.587  1.00  0.00    -0.138 N 
ATOM     29  H5  UNL     1      58.246   9.411  83.136  1.00  0.00     0.205 HD
BRANCH  28  30
HETATM   30  N6  UNL     1      59.315   8.512  81.583  1.00  0.00    -0.331 N 
ATOM     31  H62 UNL     1      58.613   7.783  81.454  1.00  0.00     0.177 HD
ATOM     32  H61 UNL     1      60.143   8.536  80.988  1.00  0.00     0.177 HD
ENDBRANCH  28  30
ENDBRANCH   7  28
TORSDOF 9
ENDMDL
MODEL 2
REMARK VINA RESULT: -7.055304007      5.979      8.700
REMARK  9 active torsions:
REMARK  status: ('A' for Active; 'I' for Inactive)
REMARK    1  A    between atoms: N1_1  and  C1_5 
REMARK    2  A    between atoms: C1_5  and  C2_6 
REMARK    3  A    between atoms: C2_6  and  N2_7 
REMARK    4  A    between atoms: N2_7  and  C3_10 
REMARK    5  A    between atoms: C3_10  and  C4_11 
REMARK    6  A    between atoms: C4_11  and  C5_12 
REMARK    7  A    between atoms: C5_12  and  N3_13 
REMARK    8  A    between atoms: C8_19  and  N5_20 
REMARK    9  A    between atoms: N5_20  and  N6_22 
ROOT
HETATM    1  N3  UNL     1      53.077  13.785  82.051  1.00  0.00    -0.146 N 
HETATM    2  C6  UNL     1      52.807  12.394  82.188  1.00  0.00     0.298 A 
HETATM    3  O1  UNL     1      53.067  11.685  83.218  1.00  0.00    -0.267 OA
HETATM    4  C7  UNL     1      52.188  11.971  80.936  1.00  0.00     0.288 A 
HETATM    5  N4  UNL     1      52.140  13.171  80.147  1.00  0.00    -0.179 N 
ATOM      6  H4  UNL     1      51.755  13.209  79.204  1.00  0.00     0.181 HD
HETATM    7  C8  UNL     1      52.632  14.189  80.754  1.00  0.00     0.700 A 
HETATM    8  N7  UNL     1      52.922  10.993  80.190  1.00  0.00    -0.300 N 
ATOM      9  H7  UNL     1      53.929  10.836  80.238  1.00  0.00     0.167 HD
HETATM   10  C9  UNL     1      52.010  10.284  79.375  1.00  0.00     0.325 C 
HETATM   11  O2  UNL     1      52.228   9.583  78.337  1.00  0.00    -0.247 OA
HETATM   12  N8  UNL     1      50.711  10.510  79.968  1.00  0.00    -0.275 N 
ATOM     13  H8  UNL     1      49.827  10.136  79.622  1.00  0.00     0.173 HD
HETATM   14  C10 UNL     1      50.869  11.336  81.107  1.00  0.00     0.285 C 
HETATM   15  O3  UNL     1      50.057  11.477  82.031  1.00  0.00    -0.268 OA
ENDROOT
BRANCH   1  16
HETATM   16  C5  UNL     1      53.690  14.641  83.021  1.00  0.00     0.152 C 
BRANCH  16  17
HETATM   17  C4  UNL     1      55.173  14.766  82.925  1.00  0.00     0.048 C 
BRANCH  17  18
HETATM   18  C3  UNL     1      55.906  13.766  83.773  1.00  0.00     0.234 C 
BRANCH  18  19
HETATM   19  N2  UNL     1      57.062  13.241  83.108  1.00  0.00    -0.073 N 
ATOM     20  H22 UNL     1      57.144  13.635  82.171  1.00  0.00     0.277 HD
ATOM     21  H21 UNL     1      56.922  12.258  82.872  1.00  0.00     0.277 HD
BRANCH  19  22
HETATM   22  C2  UNL     1      58.298  13.412  83.836  1.00  0.00     0.259 C 
BRANCH  22  23
HETATM   23  C1  UNL     1      58.792  14.843  83.574  1.00  0.00     0.257 C 
BRANCH  23  24
HETATM   24  N1  UNL     1      58.973  15.012  82.143  1.00  0.00    -0.078 N 
ATOM     25  H13 UNL     1      58.113  14.852  81.618  1.00  0.00     0.274 HD
ATOM     26  H12 UNL     1      59.119  15.986  81.879  1.00  0.00     0.274 HD
ATOM     27  H11 UNL     1      59.735  14.405  81.841  1.00  0.00     0.274 HD
ENDBRANCH  23  24
ENDBRANCH  22  23
ENDBRANCH  19  22
ENDBRANCH  18  19
ENDBRANCH  17  18
ENDBRANCH  16  17
ENDBRANCH   1  16
BRANCH   7  28
HETATM   28  N5  UNL     1      52.746  15.538  80.263  1.00  0.00    -0.138 N 
ATOM     29  H5  UNL     1      51.943  16.161  80.334  1.00  0.00     0.205 HD
BRANCH  28  30
HETATM   30  N6  UNL     1      53.926  16.015  79.694  1.00  0.00    -0.331 N 
ATOM     31  H62 UNL     1      54.810  15.752  80.130  1.00  0.00     0.177 HD
ATOM     32  H61 UNL     1      53.921  16.611  78.866  1.00  0.00     0.177 HD
ENDBRANCH  28  30
ENDBRANCH   7  28
TORSDOF 9
ENDMDL
MODEL 3
REMARK VINA RESULT: -7.015144434      6.317      8.191
REMARK  9 active torsions:
REMARK  status: ('A' for Active; 'I' for Inactive)
REMARK    1  A    between atoms: N1_1  and  C1_5 
REMARK    2  A    between atoms: C1_5  and  C2_6 
REMARK    3  A    between atoms: C2_6  and  N2_7 
REMARK    4  A    between atoms: N2_7  and  C3_10 
REMARK    5  A    between atoms: C3_10  and  C4_11 
REMARK    6  A    between atoms: C4_11  and  C5_12 
REMARK    7  A    between atoms: C5_12  and  N3_13 
REMARK    8  A    between atoms: C8_19  and  N5_20 
REMARK    9  A    between atoms: N5_20  and  N6_22 
ROOT
HETATM    1  N3  UNL     1      55.005  13.595  82.240  1.00  0.00    -0.146 N 
HETATM    2  C6  UNL     1      54.122  13.403  81.140  1.00  0.00     0.298 A 
HETATM    3  O1  UNL     1      54.171  14.032  80.030  1.00  0.00    -0.267 OA
HETATM    4  C7  UNL     1      53.184  12.361  81.544  1.00  0.00     0.288 A 
HETATM    5  N4  UNL     1      53.597  12.015  82.875  1.00  0.00    -0.179 N 
ATOM      6  H4  UNL     1      53.134  11.305  83.441  1.00  0.00     0.181 HD
HETATM    7  C8  UNL     1      54.609  12.694  83.278  1.00  0.00     0.700 A 
HETATM    8  N7  UNL     1      51.811  12.767  81.610  1.00  0.00    -0.300 N 
ATOM      9  H7  UNL     1      51.475  13.719  81.755  1.00  0.00     0.167 HD
HETATM   10  C9  UNL     1      51.003  11.619  81.439  1.00  0.00     0.325 C 
HETATM   11  O2  UNL     1      49.783  11.435  81.746  1.00  0.00    -0.247 OA
HETATM   12  N8  UNL     1      51.861  10.635  80.817  1.00  0.00    -0.275 N 
ATOM     13  H8  UNL     1      51.587   9.688  80.555  1.00  0.00     0.173 HD
HETATM   14  C10 UNL     1      53.144  11.205  80.631  1.00  0.00     0.285 C 
HETATM   15  O3  UNL     1      54.024  10.798  79.860  1.00  0.00    -0.268 OA
ENDROOT
BRANCH   1  16
HETATM   16  C5  UNL     1      56.092  14.522  82.317  1.00  0.00     0.152 C 
BRANCH  16  17
HETATM   17  C4  UNL     1      55.722  15.922  82.677  1.00  0.00     0.048 C 
BRANCH  17  18
HETATM   18  C3  UNL     1      55.442  16.101  84.142  1.00  0.00     0.234 C 
BRANCH  18  19
HETATM   19  N2  UNL     1      54.070  16.427  84.394  1.00  0.00    -0.073 N 
ATOM     20  H22 UNL     1      53.977  16.914  85.286  1.00  0.00     0.277 HD
ATOM     21  H21 UNL     1      53.535  15.583  84.600  1.00  0.00     0.277 HD
BRANCH  19  22
HETATM   22  C2  UNL     1      53.434  17.181  83.340  1.00  0.00     0.259 C 
BRANCH  22  23
HETATM   23  C1  UNL     1      52.252  16.346  82.824  1.00  0.00     0.257 C 
BRANCH  23  24
HETATM   24  N1  UNL     1      52.329  16.287  81.375  1.00  0.00    -0.078 N 
ATOM     25  H13 UNL     1      51.473  16.608  80.923  1.00  0.00     0.274 HD
ATOM     26  H12 UNL     1      52.962  16.988  80.988  1.00  0.00     0.274 HD
ATOM     27  H11 UNL     1      52.583  15.338  81.103  1.00  0.00     0.274 HD
ENDBRANCH  23  24
ENDBRANCH  22  23
ENDBRANCH  19  22
ENDBRANCH  18  19
ENDBRANCH  17  18
ENDBRANCH  16  17
ENDBRANCH   1  16
BRANCH   7  28
HETATM   28  N5  UNL     1      55.278  12.610  84.549  1.00  0.00    -0.138 N 
ATOM     29  H5  UNL     1      56.195  13.042  84.656  1.00  0.00     0.205 HD
BRANCH  28  30
HETATM   30  N6  UNL     1      54.707  11.954  85.639  1.00  0.00    -0.331 N 
ATOM     31  H62 UNL     1      54.359  11.006  85.499  1.00  0.00     0.177 HD
ATOM     32  H61 UNL     1      54.633  12.396  86.555  1.00  0.00     0.177 HD
ENDBRANCH  28  30
ENDBRANCH   7  28
TORSDOF 9
ENDMDL
MODEL 4
REMARK VINA RESULT: -7.004443105      5.759      8.122
REMARK  9 active torsions:
REMARK  status: ('A' for Active; 'I' for Inactive)
REMARK    1  A    between atoms: N1_1  and  C1_5 
REMARK    2  A    between atoms: C1_5  and  C2_6 
REMARK    3  A    between atoms: C2_6  and  N2_7 
REMARK    4  A    between atoms: N2_7  and  C3_10 
REMARK    5  A    between atoms: C3_10  and  C4_11 
REMARK    6  A    between atoms: C4_11  and  C5_12 
REMARK    7  A    between atoms: C5_12  and  N3_13 
REMARK    8  A    between atoms: C8_19  and  N5_20 
REMARK    9  A    between atoms: N5_20  and  N6_22 
ROOT
HETATM    1  N3  UNL     1      53.572  14.595  81.179  1.00  0.00    -0.146 N 
HETATM    2  C6  UNL     1      54.009  15.819  81.759  1.00  0.00     0.298 A 
HETATM    3  O1  UNL     1      53.590  16.983  81.442  1.00  0.00    -0.267 OA
HETATM    4  C7  UNL     1      55.006  15.464  82.763  1.00  0.00     0.288 A 
HETATM    5  N4  UNL     1      55.076  14.031  82.694  1.00  0.00    -0.179 N 
ATOM      6  H4  UNL     1      55.691  13.468  83.282  1.00  0.00     0.181 HD
HETATM    7  C8  UNL     1      54.284  13.532  81.816  1.00  0.00     0.700 A 
HETATM    8  N7  UNL     1      56.324  15.972  82.525  1.00  0.00    -0.300 N 
ATOM      9  H7  UNL     1      56.712  16.227  81.617  1.00  0.00     0.167 HD
HETATM   10  C9  UNL     1      56.994  16.060  83.767  1.00  0.00     0.325 C 
HETATM   11  O2  UNL     1      58.240  16.132  84.010  1.00  0.00    -0.247 OA
HETATM   12  N8  UNL     1      55.951  16.054  84.767  1.00  0.00    -0.275 N 
ATOM     13  H8  UNL     1      56.095  16.105  85.776  1.00  0.00     0.173 HD
HETATM   14  C10 UNL     1      54.698  15.964  84.115  1.00  0.00     0.285 C 
HETATM   15  O3  UNL     1      53.594  16.250  84.600  1.00  0.00    -0.268 OA
ENDROOT
BRANCH   1  16
HETATM   16  C5  UNL     1      52.602  14.436  80.138  1.00  0.00     0.152 C 
BRANCH  16  17
HETATM   17  C4  UNL     1      51.260  13.955  80.576  1.00  0.00     0.048 C 
BRANCH  17  18
HETATM   18  C3  UNL     1      50.899  12.613  80.005  1.00  0.00     0.234 C 
BRANCH  18  19
HETATM   19  N2  UNL     1      50.590  11.657  81.027  1.00  0.00    -0.073 N 
ATOM     20  H22 UNL     1      49.593  11.678  81.244  1.00  0.00     0.277 HD
ATOM     21  H21 UNL     1      50.969  11.960  81.924  1.00  0.00     0.277 HD
BRANCH  19  22
HETATM   22  C2  UNL     1      51.013  10.309  80.731  1.00  0.00     0.259 C 
BRANCH  22  23
HETATM   23  C1  UNL     1      51.210  10.211  79.210  1.00  0.00     0.257 C 
BRANCH  23  24
HETATM   24  N1  UNL     1      52.368   9.373  78.951  1.00  0.00    -0.078 N 
ATOM     25  H13 UNL     1      52.334   8.931  78.032  1.00  0.00     0.274 HD
ATOM     26  H12 UNL     1      53.221   9.915  78.813  1.00  0.00     0.274 HD
ATOM     27  H11 UNL     1      52.451   8.696  79.708  1.00  0.00     0.274 HD
ENDBRANCH  23  24
ENDBRANCH  22  23
ENDBRANCH  19  22
ENDBRANCH  18  19
ENDBRANCH  17  18
ENDBRANCH  16  17
ENDBRANCH   1  16
BRANCH   7  28
HETATM   28  N5  UNL     1      54.100  12.144  81.481  1.00  0.00    -0.138 N 
ATOM     29  H5  UNL     1      53.774  11.500  82.200  1.00  0.00     0.205 HD
BRANCH  28  30
HETATM   30  N6  UNL     1      54.355  11.658  80.199  1.00  0.00    -0.331 N 
ATOM     31  H62 UNL     1      53.886  12.108  79.413  1.00  0.00     0.177 HD
ATOM     32  H61 UNL     1      54.989  10.875  80.037  1.00  0.00     0.177 HD
ENDBRANCH  28  30
ENDBRANCH   7  28
TORSDOF 9
ENDMDL
MODEL 5
REMARK VINA RESULT: -6.977313077      5.981      8.780
REMARK  9 active torsions:
REMARK  status: ('A' for Active; 'I' for Inactive)
REMARK    1  A    between atoms: N1_1  and  C1_5 
REMARK    2  A    between atoms: C1_5  and  C2_6 
REMARK    3  A    between atoms: C2_6  and  N2_7 
REMARK    4  A    between atoms: N2_7  and  C3_10 
REMARK    5  A    between atoms: C3_10  and  C4_11 
REMARK    6  A    between atoms: C4_11  and  C5_12 
REMARK    7  A    between atoms: C5_12  and  N3_13 
REMARK    8  A    between atoms: C8_19  and  N5_20 
REMARK    9  A    between atoms: N5_20  and  N6_22 
ROOT
HETATM    1  N3  UNL     1      53.031  13.813  82.075  1.00  0.00    -0.146 N 
HETATM    2  C6  UNL     1      52.769  12.420  82.212  1.00  0.00     0.298 A 
HETATM    3  O1  UNL     1      53.013  11.716  83.249  1.00  0.00    -0.267 OA
HETATM    4  C7  UNL     1      52.176  11.989  80.950  1.00  0.00     0.288 A 
HETATM    5  N4  UNL     1      52.135  13.185  80.156  1.00  0.00    -0.179 N 
ATOM      6  H4  UNL     1      51.767  13.217  79.205  1.00  0.00     0.181 HD
HETATM    7  C8  UNL     1      52.608  14.209  80.768  1.00  0.00     0.700 A 
HETATM    8  N7  UNL     1      52.930  11.013  80.221  1.00  0.00    -0.300 N 
ATOM      9  H7  UNL     1      53.937  10.863  80.288  1.00  0.00     0.167 HD
HETATM   10  C9  UNL     1      52.038  10.295  79.392  1.00  0.00     0.325 C 
HETATM   11  O2  UNL     1      52.280   9.592  78.360  1.00  0.00    -0.247 OA
HETATM   12  N8  UNL     1      50.727  10.514  79.959  1.00  0.00    -0.275 N 
ATOM     13  H8  UNL     1      49.852  10.133  79.598  1.00  0.00     0.173 HD
HETATM   14  C10 UNL     1      50.858  11.346  81.097  1.00  0.00     0.285 C 
HETATM   15  O3  UNL     1      50.027  11.484  82.006  1.00  0.00    -0.268 OA
ENDROOT
BRANCH   1  16
HETATM   16  C5  UNL     1      53.620  14.675  83.053  1.00  0.00     0.152 C 
BRANCH  16  17
HETATM   17  C4  UNL     1      54.961  14.260  83.556  1.00  0.00     0.048 C 
BRANCH  17  18
HETATM   18  C3  UNL     1      56.029  14.307  82.499  1.00  0.00     0.234 C 
BRANCH  18  19
HETATM   19  N2  UNL     1      57.170  13.516  82.851  1.00  0.00    -0.073 N 
ATOM     20  H22 UNL     1      57.960  14.116  83.090  1.00  0.00     0.277 HD
ATOM     21  H21 UNL     1      57.550  13.051  82.026  1.00  0.00     0.277 HD
BRANCH  19  22
HETATM   22  C2  UNL     1      56.930  12.557  83.903  1.00  0.00     0.259 C 
BRANCH  22  23
HETATM   23  C1  UNL     1      58.171  11.654  83.996  1.00  0.00     0.257 C 
BRANCH  23  24
HETATM   24  N1  UNL     1      59.345  12.456  83.698  1.00  0.00    -0.078 N 
ATOM     25  H13 UNL     1      59.616  12.405  82.716  1.00  0.00     0.274 HD
ATOM     26  H12 UNL     1      59.156  13.457  83.738  1.00  0.00     0.274 HD
ATOM     27  H11 UNL     1      60.096  12.174  84.327  1.00  0.00     0.274 HD
ENDBRANCH  23  24
ENDBRANCH  22  23
ENDBRANCH  19  22
ENDBRANCH  18  19
ENDBRANCH  17  18
ENDBRANCH  16  17
ENDBRANCH   1  16
BRANCH   7  28
HETATM   28  N5  UNL     1      52.723  15.557  80.275  1.00  0.00    -0.138 N 
ATOM     29  H5  UNL     1      51.913  16.174  80.325  1.00  0.00     0.205 HD
BRANCH  28  30
HETATM   30  N6  UNL     1      53.912  16.042  79.731  1.00  0.00    -0.331 N 
ATOM     31  H62 UNL     1      54.790  15.749  80.159  1.00  0.00     0.177 HD
ATOM     32  H61 UNL     1      53.918  16.670  78.927  1.00  0.00     0.177 HD
ENDBRANCH  28  30
ENDBRANCH   7  28
TORSDOF 9
ENDMDL
