MODEL 1
REMARK VINA RESULT: -7.391322576      0.000      0.000
REMARK  8 active torsions:
REMARK  status: ('A' for Active; 'I' for Inactive)
REMARK    1  A    between atoms: N1_2  and  C2_3 
REMARK    2  A    between atoms: N1_2  and  C6_22 
REMARK    3  A    between atoms: C2_3  and  C3_4 
REMARK    4  A    between atoms: C3_4  and  N2_5 
REMARK       I    between atoms: C4_7  and  N4_9 
REMARK    5  A    between atoms: N4_9  and  N5_11 
REMARK       I    between atoms: N5_11  and  C5_13 
REMARK       I    between atoms: C5_13  and  N7_17 
REMARK    6  A    between atoms: N7_17  and  N8_19 
REMARK    7  A    between atoms: C6_22  and  C7_23 
REMARK    8  A    between atoms: C7_23  and  S1_24 
ROOT
HETATM    1  N2  UNL     1      57.224  13.817  82.870  1.00  0.00    -0.359 N 
ATOM      2  H2  UNL     1      57.231  12.801  82.783  1.00  0.00     0.162 HD
HETATM    3  C4  UNL     1      58.187  14.388  83.505  1.00  0.00     0.203 C 
HETATM    4  N3  UNL     1      58.269  15.811  83.687  1.00  0.00    -0.062 NA
HETATM    5  N4  UNL     1      59.253  13.642  84.065  1.00  0.00    -0.259 N 
ATOM      6  H4  UNL     1      59.436  13.702  85.066  1.00  0.00     0.190 HD
ENDROOT
BRANCH   1   7
HETATM    7  C3  UNL     1      56.150  14.544  82.284  1.00  0.00     0.166 C 
BRANCH   7   8
HETATM    8  C2  UNL     1      54.820  13.894  82.270  1.00  0.00     0.077 C 
BRANCH   8   9
HETATM    9  N1  UNL     1      54.095  13.817  81.079  1.00  0.00    -0.395 N 
HETATM   10  C1  UNL     1      53.342  14.905  80.614  1.00  0.00     0.148 C 
BRANCH   9  11
HETATM   11  C6  UNL     1      53.673  12.504  80.709  1.00  0.00     0.136 C 
BRANCH  11  12
HETATM   12  C7  UNL     1      52.829  11.807  81.742  1.00  0.00     0.159 C 
BRANCH  12  13
HETATM   13  S1  UNL     1      51.143  11.642  81.217  1.00  0.00     0.142 S 
HETATM   14  C8  UNL     1      51.141  10.912  79.603  1.00  0.00     0.161 C 
HETATM   15  O1  UNL     1      50.440  10.723  82.178  1.00  0.00    -0.228 OA
HETATM   16  O2  UNL     1      50.411  12.959  81.229  1.00  0.00    -0.228 OA
ENDBRANCH  12  13
ENDBRANCH  11  12
ENDBRANCH   9  11
ENDBRANCH   8   9
ENDBRANCH   7   8
ENDBRANCH   1   7
BRANCH   5  17
HETATM   17  N5  UNL     1      60.048  12.831  83.273  1.00  0.00    -0.129 N 
HETATM   18  C5  UNL     1      61.381  13.178  82.941  1.00  0.00     0.704 C 
HETATM   19  N6  UNL     1      62.341  12.745  83.675  1.00  0.00    -0.232 N 
HETATM   20  N7  UNL     1      61.596  13.990  81.804  1.00  0.00    -0.138 N 
ATOM     21  H62 UNL     1      62.186  12.159  84.496  1.00  0.00     0.174 HD
ATOM     22  H61 UNL     1      63.301  12.995  83.436  1.00  0.00     0.174 HD
ATOM     23  H7  UNL     1      61.738  14.992  81.928  1.00  0.00     0.205 HD
ATOM     24  H5  UNL     1      59.663  11.957  82.917  1.00  0.00     0.205 HD
BRANCH  20  25
HETATM   25  N8  UNL     1      61.619  13.459  80.522  1.00  0.00    -0.331 N 
ATOM     26  H82 UNL     1      62.423  13.667  79.929  1.00  0.00     0.177 HD
ATOM     27  H81 UNL     1      60.861  12.875  80.169  1.00  0.00     0.177 HD
ENDBRANCH  20  25
ENDBRANCH   5  17
TORSDOF 8
ENDMDL
MODEL 2
REMARK VINA RESULT: -7.335184960      1.417      1.480
REMARK  8 active torsions:
REMARK  status: ('A' for Active; 'I' for Inactive)
REMARK    1  A    between atoms: N1_2  and  C2_3 
REMARK    2  A    between atoms: N1_2  and  C6_22 
REMARK    3  A    between atoms: C2_3  and  C3_4 
REMARK    4  A    between atoms: C3_4  and  N2_5 
REMARK       I    between atoms: C4_7  and  N4_9 
REMARK    5  A    between atoms: N4_9  and  N5_11 
REMARK       I    between atoms: N5_11  and  C5_13 
REMARK       I    between atoms: C5_13  and  N7_17 
REMARK    6  A    between atoms: N7_17  and  N8_19 
REMARK    7  A    between atoms: C6_22  and  C7_23 
REMARK    8  A    between atoms: C7_23  and  S1_24 
ROOT
HETATM    1  N2  UNL     1      57.234  12.349  83.302  1.00  0.00    -0.359 N 
ATOM      2  H2  UNL     1      57.324  11.733  82.494  1.00  0.00     0.162 HD
HETATM    3  C4  UNL     1      58.091  12.244  84.256  1.00  0.00     0.203 C 
HETATM    4  N3  UNL     1      58.049  13.061  85.438  1.00  0.00    -0.062 NA
HETATM    5  N4  UNL     1      59.154  11.310  84.200  1.00  0.00    -0.259 N 
ATOM      6  H4  UNL     1      59.241  10.604  84.931  1.00  0.00     0.190 HD
ENDROOT
BRANCH   1   7
HETATM    7  C3  UNL     1      56.166  13.290  83.325  1.00  0.00     0.166 C 
BRANCH   7   8
HETATM    8  C2  UNL     1      54.802  12.774  83.071  1.00  0.00     0.077 C 
BRANCH   8   9
HETATM    9  N1  UNL     1      54.255  12.851  81.789  1.00  0.00    -0.395 N 
HETATM   10  C1  UNL     1      53.847  14.079  81.247  1.00  0.00     0.148 C 
BRANCH   9  11
HETATM   11  C6  UNL     1      53.597  11.668  81.336  1.00  0.00     0.136 C 
BRANCH  11  12
HETATM   12  C7  UNL     1      52.351  11.317  82.104  1.00  0.00     0.159 C 
BRANCH  12  13
HETATM   13  S1  UNL     1      50.884  11.595  81.147  1.00  0.00     0.142 S 
HETATM   14  C8  UNL     1      51.156  10.939  79.524  1.00  0.00     0.161 C 
HETATM   15  O1  UNL     1      49.750  10.851  81.798  1.00  0.00    -0.228 OA
HETATM   16  O2  UNL     1      50.504  13.052  81.097  1.00  0.00    -0.228 OA
ENDBRANCH  12  13
ENDBRANCH  11  12
ENDBRANCH   9  11
ENDBRANCH   8   9
ENDBRANCH   7   8
ENDBRANCH   1   7
BRANCH   5  17
HETATM   17  N5  UNL     1      60.076  11.341  83.168  1.00  0.00    -0.129 N 
HETATM   18  C5  UNL     1      61.291  12.064  83.265  1.00  0.00     0.704 C 
HETATM   19  N6  UNL     1      62.347  11.460  83.674  1.00  0.00    -0.232 N 
HETATM   20  N7  UNL     1      61.285  13.430  82.900  1.00  0.00    -0.138 N 
ATOM     21  H62 UNL     1      62.351  10.474  83.937  1.00  0.00     0.174 HD
ATOM     22  H61 UNL     1      63.221  11.981  83.743  1.00  0.00     0.174 HD
ATOM     23  H7  UNL     1      61.213  14.139  83.630  1.00  0.00     0.205 HD
ATOM     24  H5  UNL     1      59.876  10.827  82.311  1.00  0.00     0.205 HD
BRANCH  20  25
HETATM   25  N8  UNL     1      61.375  13.831  81.575  1.00  0.00    -0.331 N 
ATOM     26  H82 UNL     1      61.004  13.209  80.858  1.00  0.00     0.177 HD
ATOM     27  H81 UNL     1      61.798  14.722  81.312  1.00  0.00     0.177 HD
ENDBRANCH  20  25
ENDBRANCH   5  17
TORSDOF 8
ENDMDL
MODEL 3
REMARK VINA RESULT: -7.296191146      2.352      3.126
REMARK  8 active torsions:
REMARK  status: ('A' for Active; 'I' for Inactive)
REMARK    1  A    between atoms: N1_2  and  C2_3 
REMARK    2  A    between atoms: N1_2  and  C6_22 
REMARK    3  A    between atoms: C2_3  and  C3_4 
REMARK    4  A    between atoms: C3_4  and  N2_5 
REMARK       I    between atoms: C4_7  and  N4_9 
REMARK    5  A    between atoms: N4_9  and  N5_11 
REMARK       I    between atoms: N5_11  and  C5_13 
REMARK       I    between atoms: C5_13  and  N7_17 
REMARK    6  A    between atoms: N7_17  and  N8_19 
REMARK    7  A    between atoms: C6_22  and  C7_23 
REMARK    8  A    between atoms: C7_23  and  S1_24 
ROOT
HETATM    1  N2  UNL     1      58.826  13.706  83.252  1.00  0.00    -0.359 N 
ATOM      2  H2  UNL     1      58.576  13.061  82.502  1.00  0.00     0.162 HD
HETATM    3  C4  UNL     1      59.790  13.387  84.043  1.00  0.00     0.203 C 
HETATM    4  N3  UNL     1      60.217  14.224  85.131  1.00  0.00    -0.062 NA
HETATM    5  N4  UNL     1      60.513  12.180  83.884  1.00  0.00    -0.259 N 
ATOM      6  H4  UNL     1      60.541  11.508  84.650  1.00  0.00     0.190 HD
ENDROOT
BRANCH   1   7
HETATM    7  C3  UNL     1      58.094  14.919  83.379  1.00  0.00     0.166 C 
BRANCH   7   8
HETATM    8  C2  UNL     1      56.845  15.043  82.593  1.00  0.00     0.077 C 
BRANCH   8   9
HETATM    9  N1  UNL     1      55.739  15.697  83.140  1.00  0.00    -0.395 N 
HETATM   10  C1  UNL     1      55.082  15.190  84.270  1.00  0.00     0.148 C 
BRANCH   9  11
HETATM   11  C6  UNL     1      54.980  16.481  82.220  1.00  0.00     0.136 C 
BRANCH  11  12
HETATM   12  C7  UNL     1      53.542  16.060  82.081  1.00  0.00     0.159 C 
BRANCH  12  13
HETATM   13  S1  UNL     1      53.247  15.206  80.555  1.00  0.00     0.142 S 
HETATM   14  C8  UNL     1      53.548  13.482  80.824  1.00  0.00     0.161 C 
HETATM   15  O1  UNL     1      51.805  15.405  80.177  1.00  0.00    -0.228 OA
HETATM   16  O2  UNL     1      54.091  15.745  79.429  1.00  0.00    -0.228 OA
ENDBRANCH  12  13
ENDBRANCH  11  12
ENDBRANCH   9  11
ENDBRANCH   8   9
ENDBRANCH   7   8
ENDBRANCH   1   7
BRANCH   5  17
HETATM   17  N5  UNL     1      61.182  11.900  82.705  1.00  0.00    -0.129 N 
HETATM   18  C5  UNL     1      62.175  12.763  82.179  1.00  0.00     0.704 C 
HETATM   19  N6  UNL     1      63.406  12.553  82.475  1.00  0.00    -0.232 N 
HETATM   20  N7  UNL     1      61.762  13.823  81.341  1.00  0.00    -0.138 N 
ATOM     21  H62 UNL     1      63.705  11.787  83.080  1.00  0.00     0.174 HD
ATOM     22  H61 UNL     1      64.121  13.174  82.097  1.00  0.00     0.174 HD
ATOM     23  H7  UNL     1      61.658  14.758  81.737  1.00  0.00     0.205 HD
ATOM     24  H5  UNL     1      60.953  11.045  82.199  1.00  0.00     0.205 HD
BRANCH  20  25
HETATM   25  N8  UNL     1      61.493  13.627  79.994  1.00  0.00    -0.331 N 
ATOM     26  H82 UNL     1      60.661  13.092  79.743  1.00  0.00     0.177 HD
ATOM     27  H81 UNL     1      62.100  14.001  79.265  1.00  0.00     0.177 HD
ENDBRANCH  20  25
ENDBRANCH   5  17
TORSDOF 8
ENDMDL
MODEL 4
REMARK VINA RESULT: -7.286226104      2.590      3.382
REMARK  8 active torsions:
REMARK  status: ('A' for Active; 'I' for Inactive)
REMARK    1  A    between atoms: N1_2  and  C2_3 
REMARK    2  A    between atoms: N1_2  and  C6_22 
REMARK    3  A    between atoms: C2_3  and  C3_4 
REMARK    4  A    between atoms: C3_4  and  N2_5 
REMARK       I    between atoms: C4_7  and  N4_9 
REMARK    5  A    between atoms: N4_9  and  N5_11 
REMARK       I    between atoms: N5_11  and  C5_13 
REMARK       I    between atoms: C5_13  and  N7_17 
REMARK    6  A    between atoms: N7_17  and  N8_19 
REMARK    7  A    between atoms: C6_22  and  C7_23 
REMARK    8  A    between atoms: C7_23  and  S1_24 
ROOT
HETATM    1  N2  UNL     1      58.968  13.810  83.252  1.00  0.00    -0.359 N 
ATOM      2  H2  UNL     1      58.685  13.270  82.435  1.00  0.00     0.162 HD
HETATM    3  C4  UNL     1      59.867  13.322  84.032  1.00  0.00     0.203 C 
HETATM    4  N3  UNL     1      60.333  14.001  85.210  1.00  0.00    -0.062 NA
HETATM    5  N4  UNL     1      60.476  12.070  83.772  1.00  0.00    -0.259 N 
ATOM      6  H4  UNL     1      60.412  11.326  84.467  1.00  0.00     0.190 HD
ENDROOT
BRANCH   1   7
HETATM    7  C3  UNL     1      58.352  15.072  83.481  1.00  0.00     0.166 C 
BRANCH   7   8
HETATM    8  C2  UNL     1      57.276  15.480  82.550  1.00  0.00     0.077 C 
BRANCH   8   9
HETATM    9  N1  UNL     1      55.945  15.176  82.845  1.00  0.00    -0.395 N 
HETATM   10  C1  UNL     1      55.502  15.073  84.171  1.00  0.00     0.148 C 
BRANCH   9  11
HETATM   11  C6  UNL     1      55.259  14.418  81.849  1.00  0.00     0.136 C 
BRANCH  11  12
HETATM   12  C7  UNL     1      53.759  14.514  81.918  1.00  0.00     0.159 C 
BRANCH  12  13
HETATM   13  S1  UNL     1      53.143  15.910  81.013  1.00  0.00     0.142 S 
HETATM   14  C8  UNL     1      52.995  17.270  82.139  1.00  0.00     0.161 C 
HETATM   15  O1  UNL     1      54.145  16.256  79.946  1.00  0.00    -0.228 OA
HETATM   16  O2  UNL     1      51.834  15.613  80.330  1.00  0.00    -0.228 OA
ENDBRANCH  12  13
ENDBRANCH  11  12
ENDBRANCH   9  11
ENDBRANCH   8   9
ENDBRANCH   7   8
ENDBRANCH   1   7
BRANCH   5  17
HETATM   17  N5  UNL     1      61.158  11.841  82.589  1.00  0.00    -0.129 N 
HETATM   18  C5  UNL     1      62.153  12.729  82.109  1.00  0.00     0.704 C 
HETATM   19  N6  UNL     1      63.382  12.510  82.409  1.00  0.00    -0.232 N 
HETATM   20  N7  UNL     1      61.744  13.822  81.312  1.00  0.00    -0.138 N 
ATOM     21  H62 UNL     1      63.678  11.721  82.984  1.00  0.00     0.174 HD
ATOM     22  H61 UNL     1      64.098  13.149  82.063  1.00  0.00     0.174 HD
ATOM     23  H7  UNL     1      61.634  14.739  81.745  1.00  0.00     0.205 HD
ATOM     24  H5  UNL     1      60.938  11.007  82.045  1.00  0.00     0.205 HD
BRANCH  20  25
HETATM   25  N8  UNL     1      61.489  13.681  79.956  1.00  0.00    -0.331 N 
ATOM     26  H82 UNL     1      61.868  14.383  79.320  1.00  0.00     0.177 HD
ATOM     27  H81 UNL     1      60.941  12.902  79.591  1.00  0.00     0.177 HD
ENDBRANCH  20  25
ENDBRANCH   5  17
TORSDOF 8
ENDMDL
MODEL 5
REMARK VINA RESULT: -7.227433787      1.901      2.736
REMARK  8 active torsions:
REMARK  status: ('A' for Active; 'I' for Inactive)
REMARK    1  A    between atoms: N1_2  and  C2_3 
REMARK    2  A    between atoms: N1_2  and  C6_22 
REMARK    3  A    between atoms: C2_3  and  C3_4 
REMARK    4  A    between atoms: C3_4  and  N2_5 
REMARK       I    between atoms: C4_7  and  N4_9 
REMARK    5  A    between atoms: N4_9  and  N5_11 
REMARK       I    between atoms: N5_11  and  C5_13 
REMARK       I    between atoms: C5_13  and  N7_17 
REMARK    6  A    between atoms: N7_17  and  N8_19 
REMARK    7  A    between atoms: C6_22  and  C7_23 
REMARK    8  A    between atoms: C7_23  and  S1_24 
ROOT
HETATM    1  N2  UNL     1      55.575  14.238  81.809  1.00  0.00    -0.359 N 
ATOM      2  H2  UNL     1      56.235  13.814  81.157  1.00  0.00     0.162 HD
HETATM    3  C4  UNL     1      55.374  13.664  82.943  1.00  0.00     0.203 C 
HETATM    4  N3  UNL     1      54.463  14.179  83.929  1.00  0.00    -0.062 NA
HETATM    5  N4  UNL     1      56.057  12.478  83.307  1.00  0.00    -0.259 N 
ATOM      6  H4  UNL     1      55.521  11.641  83.536  1.00  0.00     0.190 HD
ENDROOT
BRANCH   1   7
HETATM    7  C3  UNL     1      54.915  15.438  81.425  1.00  0.00     0.166 C 
BRANCH   7   8
HETATM    8  C2  UNL     1      53.878  15.336  80.374  1.00  0.00     0.077 C 
BRANCH   8   9
HETATM    9  N1  UNL     1      52.527  15.309  80.727  1.00  0.00    -0.395 N 
HETATM   10  C1  UNL     1      52.072  15.920  81.905  1.00  0.00     0.148 C 
BRANCH   9  11
HETATM   11  C6  UNL     1      51.789  14.196  80.222  1.00  0.00     0.136 C 
BRANCH  11  12
HETATM   12  C7  UNL     1      51.017  13.435  81.267  1.00  0.00     0.159 C 
BRANCH  12  13
HETATM   13  S1  UNL     1      51.191  11.681  81.070  1.00  0.00     0.142 S 
HETATM   14  C8  UNL     1      52.867  11.251  81.448  1.00  0.00     0.161 C 
HETATM   15  O1  UNL     1      50.273  11.006  82.052  1.00  0.00    -0.228 OA
HETATM   16  O2  UNL     1      50.800  11.221  79.690  1.00  0.00    -0.228 OA
ENDBRANCH  12  13
ENDBRANCH  11  12
ENDBRANCH   9  11
ENDBRANCH   8   9
ENDBRANCH   7   8
ENDBRANCH   1   7
BRANCH   5  17
HETATM   17  N5  UNL     1      57.440  12.439  83.357  1.00  0.00    -0.129 N 
HETATM   18  C5  UNL     1      58.198  13.429  84.029  1.00  0.00     0.704 C 
HETATM   19  N6  UNL     1      58.535  13.235  85.252  1.00  0.00    -0.232 N 
HETATM   20  N7  UNL     1      58.557  14.594  83.314  1.00  0.00    -0.138 N 
ATOM     21  H62 UNL     1      58.276  12.394  85.769  1.00  0.00     0.174 HD
ATOM     22  H61 UNL     1      59.081  13.948  85.736  1.00  0.00     0.174 HD
ATOM     23  H7  UNL     1      58.000  15.441  83.432  1.00  0.00     0.205 HD
ATOM     24  H5  UNL     1      57.929  11.672  82.895  1.00  0.00     0.205 HD
BRANCH  20  25
HETATM   25  N8  UNL     1      59.646  14.617  82.455  1.00  0.00    -0.331 N 
ATOM     26  H82 UNL     1      59.539  14.198  81.531  1.00  0.00     0.177 HD
ATOM     27  H81 UNL     1      60.535  15.039  82.726  1.00  0.00     0.177 HD
ENDBRANCH  20  25
ENDBRANCH   5  17
TORSDOF 8
ENDMDL
