MODEL 1
REMARK VINA RESULT: -7.375036194      0.000      0.000
REMARK  13 active torsions:
REMARK  status: ('A' for Active; 'I' for Inactive)
REMARK    1  A    between atoms: N1_1  and  N2_4 
REMARK    2  A    between atoms: C1_6  and  N3_7 
REMARK    3  A    between atoms: C2_10  and  N5_11 
REMARK    4  A    between atoms: N5_11  and  C3_13 
REMARK    5  A    between atoms: C3_13  and  C4_14 
REMARK    6  A    between atoms: C4_14  and  C5_15 
REMARK    7  A    between atoms: C5_15  and  C6_16 
REMARK    8  A    between atoms: C6_16  and  C7_17 
REMARK    9  A    between atoms: C7_17  and  C8_18 
REMARK   10  A    between atoms: C8_18  and  N6_19 
REMARK   11  A    between atoms: C9_25  and  N8_26 
REMARK   12  A    between atoms: C10_31  and  N10_32 
REMARK   13  A    between atoms: N10_32  and  N11_34 
ROOT
HETATM    1  N3  UNL     1      57.123  14.065  83.468  1.00  0.00    -0.064 N 
HETATM    2  N4  UNL     1      56.210  13.270  82.860  1.00  0.00    -0.109 N 
ATOM      3  H4  UNL     1      56.559  12.474  82.327  1.00  0.00     0.207 HD
HETATM    4  C2  UNL     1      54.855  13.455  82.906  1.00  0.00     0.711 C 
HETATM    5  N7  UNL     1      54.167  14.505  83.392  1.00  0.00    -0.021 N 
ATOM      6  H7  UNL     1      53.152  14.416  83.335  1.00  0.00     0.203 HD
HETATM    7  C9  UNL     1      54.609  15.664  83.947  1.00  0.00     0.705 C 
HETATM    8  N9  UNL     1      55.882  16.063  84.102  1.00  0.00    -0.019 N 
ATOM      9  H9  UNL     1      56.029  16.967  84.551  1.00  0.00     0.203 HD
HETATM   10  C10 UNL     1      57.010  15.371  83.715  1.00  0.00     0.733 C 
ENDROOT
BRANCH   4  11
HETATM   11  N5  UNL     1      54.213  12.492  82.418  1.00  0.00    -0.204 N 
ATOM     12  H5  UNL     1      54.733  11.616  82.378  1.00  0.00     0.183 HD
BRANCH  11  13
HETATM   13  C3  UNL     1      52.900  12.416  81.918  1.00  0.00     0.079 C 
BRANCH  13  14
HETATM   14  C4  UNL     1      52.104  11.245  82.456  1.00  0.00     0.045 C 
BRANCH  14  15
HETATM   15  C5  UNL     1      50.987  10.858  81.505  1.00  0.00     0.005 C 
BRANCH  15  16
HETATM   16  C6  UNL     1      51.154  11.480  80.155  1.00  0.00     0.002 C 
BRANCH  16  17
HETATM   17  C7  UNL     1      51.173  10.464  79.038  1.00  0.00     0.027 C 
BRANCH  17  18
HETATM   18  C8  UNL     1      52.342   9.549  79.225  1.00  0.00     0.229 C 
BRANCH  18  19
HETATM   19  N6  UNL     1      53.601  10.240  79.277  1.00  0.00    -0.079 N 
ATOM     20  H63 UNL     1      53.518  11.177  78.880  1.00  0.00     0.274 HD
ATOM     21  H62 UNL     1      53.841  10.486  80.238  1.00  0.00     0.274 HD
ATOM     22  H61 UNL     1      54.363   9.725  78.834  1.00  0.00     0.274 HD
ENDBRANCH  18  19
ENDBRANCH  17  18
ENDBRANCH  16  17
ENDBRANCH  15  16
ENDBRANCH  14  15
ENDBRANCH  13  14
ENDBRANCH  11  13
ENDBRANCH   4  11
BRANCH   1  23
HETATM   23  C1  UNL     1      58.316  13.455  83.892  1.00  0.00     0.241 C 
HETATM   24  N2  UNL     1      58.509  12.200  83.875  1.00  0.00    -0.300 N 
ATOM     25  H2  UNL     1      58.597  12.003  84.872  1.00  0.00     0.187 HD
BRANCH  24  26
HETATM   26  N1  UNL     1      58.655  11.077  83.399  1.00  0.00    -0.344 N 
ATOM     27  H12 UNL     1      59.470  11.271  82.818  1.00  0.00     0.176 HD
ATOM     28  H11 UNL     1      58.464  10.088  83.232  1.00  0.00     0.176 HD
ENDBRANCH  24  26
ENDBRANCH   1  23
BRANCH   7  29
HETATM   29  N8  UNL     1      53.718  16.480  84.376  1.00  0.00    -0.234 N 
ATOM     30  H82 UNL     1      53.221  17.006  83.656  1.00  0.00     0.174 HD
ATOM     31  H81 UNL     1      53.586  16.533  85.386  1.00  0.00     0.174 HD
ENDBRANCH   7  29
BRANCH  10  32
HETATM   32  N10 UNL     1      58.053  16.073  83.561  1.00  0.00    -0.136 N 
ATOM     33  H10 UNL     1      58.693  16.128  84.353  1.00  0.00     0.205 HD
BRANCH  32  34
HETATM   34  N11 UNL     1      58.404  16.769  82.427  1.00  0.00    -0.331 N 
ATOM     35 2H11 UNL     1      58.032  16.405  81.550  1.00  0.00     0.177 HD
ATOM     36 1H11 UNL     1      58.993  17.601  82.389  1.00  0.00     0.177 HD
ENDBRANCH  32  34
ENDBRANCH  10  32
TORSDOF 13
ENDMDL
MODEL 2
REMARK VINA RESULT: -7.369692769      1.578      2.006
REMARK  13 active torsions:
REMARK  status: ('A' for Active; 'I' for Inactive)
REMARK    1  A    between atoms: N1_1  and  N2_4 
REMARK    2  A    between atoms: C1_6  and  N3_7 
REMARK    3  A    between atoms: C2_10  and  N5_11 
REMARK    4  A    between atoms: N5_11  and  C3_13 
REMARK    5  A    between atoms: C3_13  and  C4_14 
REMARK    6  A    between atoms: C4_14  and  C5_15 
REMARK    7  A    between atoms: C5_15  and  C6_16 
REMARK    8  A    between atoms: C6_16  and  C7_17 
REMARK    9  A    between atoms: C7_17  and  C8_18 
REMARK   10  A    between atoms: C8_18  and  N6_19 
REMARK   11  A    between atoms: C9_25  and  N8_26 
REMARK   12  A    between atoms: C10_31  and  N10_32 
REMARK   13  A    between atoms: N10_32  and  N11_34 
ROOT
HETATM    1  N3  UNL     1      54.988  14.283  83.296  1.00  0.00    -0.064 N 
HETATM    2  N4  UNL     1      54.386  13.939  82.133  1.00  0.00    -0.109 N 
ATOM      3  H4  UNL     1      54.692  13.078  81.681  1.00  0.00     0.207 HD
HETATM    4  C2  UNL     1      53.399  14.660  81.517  1.00  0.00     0.711 C 
HETATM    5  N7  UNL     1      52.947  15.891  81.818  1.00  0.00    -0.021 N 
ATOM      6  H7  UNL     1      52.186  16.225  81.227  1.00  0.00     0.203 HD
HETATM    7  C9  UNL     1      53.344  16.761  82.784  1.00  0.00     0.705 C 
HETATM    8  N9  UNL     1      54.345  16.604  83.665  1.00  0.00    -0.019 N 
ATOM      9  H9  UNL     1      54.496  17.363  84.330  1.00  0.00     0.203 HD
HETATM   10  C10 UNL     1      55.190  15.518  83.759  1.00  0.00     0.733 C 
ENDROOT
BRANCH   4  11
HETATM   11  N5  UNL     1      52.879  14.050  80.552  1.00  0.00    -0.204 N 
ATOM     12  H5  UNL     1      53.548  13.667  79.884  1.00  0.00     0.183 HD
BRANCH  11  13
HETATM   13  C3  UNL     1      51.530  13.804  80.232  1.00  0.00     0.079 C 
BRANCH  13  14
HETATM   14  C4  UNL     1      50.791  12.989  81.273  1.00  0.00     0.045 C 
BRANCH  14  15
HETATM   15  C5  UNL     1      51.190  11.526  81.208  1.00  0.00     0.005 C 
BRANCH  15  16
HETATM   16  C6  UNL     1      50.949  10.934  79.856  1.00  0.00     0.002 C 
BRANCH  16  17
HETATM   17  C7  UNL     1      52.165  10.234  79.296  1.00  0.00     0.027 C 
BRANCH  17  18
HETATM   18  C8  UNL     1      53.345  10.525  80.169  1.00  0.00     0.229 C 
BRANCH  18  19
HETATM   19  N6  UNL     1      54.592  10.531  79.454  1.00  0.00    -0.079 N 
ATOM     20  H63 UNL     1      54.459  10.854  78.495  1.00  0.00     0.274 HD
ATOM     21  H62 UNL     1      55.203  11.273  79.797  1.00  0.00     0.274 HD
ATOM     22  H61 UNL     1      55.071   9.631  79.470  1.00  0.00     0.274 HD
ENDBRANCH  18  19
ENDBRANCH  17  18
ENDBRANCH  16  17
ENDBRANCH  15  16
ENDBRANCH  14  15
ENDBRANCH  13  14
ENDBRANCH  11  13
ENDBRANCH   4  11
BRANCH   1  23
HETATM   23  C1  UNL     1      55.446  13.234  84.112  1.00  0.00     0.241 C 
HETATM   24  N2  UNL     1      56.386  12.446  83.782  1.00  0.00    -0.300 N 
ATOM     25  H2  UNL     1      55.885  11.560  83.718  1.00  0.00     0.187 HD
BRANCH  24  26
HETATM   26  N1  UNL     1      57.526  12.092  83.491  1.00  0.00    -0.344 N 
ATOM     27  H12 UNL     1      57.471  11.131  83.829  1.00  0.00     0.176 HD
ATOM     28  H11 UNL     1      58.476  12.169  83.127  1.00  0.00     0.176 HD
ENDBRANCH  24  26
ENDBRANCH   1  23
BRANCH   7  29
HETATM   29  N8  UNL     1      52.696  17.863  82.876  1.00  0.00    -0.234 N 
ATOM     30  H82 UNL     1      51.868  17.937  82.285  1.00  0.00     0.174 HD
ATOM     31  H81 UNL     1      53.059  18.562  83.525  1.00  0.00     0.174 HD
ENDBRANCH   7  29
BRANCH  10  32
HETATM   32  N10 UNL     1      56.293  15.736  84.342  1.00  0.00    -0.136 N 
ATOM     33  H10 UNL     1      56.303  15.654  85.358  1.00  0.00     0.205 HD
BRANCH  32  34
HETATM   34  N11 UNL     1      57.481  16.073  83.733  1.00  0.00    -0.331 N 
ATOM     35 2H11 UNL     1      57.531  17.017  83.352  1.00  0.00     0.177 HD
ATOM     36 1H11 UNL     1      58.299  15.471  83.633  1.00  0.00     0.177 HD
ENDBRANCH  32  34
ENDBRANCH  10  32
TORSDOF 13
ENDMDL
MODEL 3
REMARK VINA RESULT: -7.250760341      1.198      1.526
REMARK  13 active torsions:
REMARK  status: ('A' for Active; 'I' for Inactive)
REMARK    1  A    between atoms: N1_1  and  N2_4 
REMARK    2  A    between atoms: C1_6  and  N3_7 
REMARK    3  A    between atoms: C2_10  and  N5_11 
REMARK    4  A    between atoms: N5_11  and  C3_13 
REMARK    5  A    between atoms: C3_13  and  C4_14 
REMARK    6  A    between atoms: C4_14  and  C5_15 
REMARK    7  A    between atoms: C5_15  and  C6_16 
REMARK    8  A    between atoms: C6_16  and  C7_17 
REMARK    9  A    between atoms: C7_17  and  C8_18 
REMARK   10  A    between atoms: C8_18  and  N6_19 
REMARK   11  A    between atoms: C9_25  and  N8_26 
REMARK   12  A    between atoms: C10_31  and  N10_32 
REMARK   13  A    between atoms: N10_32  and  N11_34 
ROOT
HETATM    1  N3  UNL     1      57.184  14.178  83.286  1.00  0.00    -0.064 N 
HETATM    2  N4  UNL     1      56.297  13.425  82.592  1.00  0.00    -0.109 N 
ATOM      3  H4  UNL     1      56.671  12.691  81.993  1.00  0.00     0.207 HD
HETATM    4  C2  UNL     1      54.937  13.576  82.635  1.00  0.00     0.711 C 
HETATM    5  N7  UNL     1      54.220  14.561  83.207  1.00  0.00    -0.021 N 
ATOM      6  H7  UNL     1      53.208  14.456  83.127  1.00  0.00     0.203 HD
HETATM    7  C9  UNL     1      54.628  15.672  83.875  1.00  0.00     0.705 C 
HETATM    8  N9  UNL     1      55.890  16.081  84.087  1.00  0.00    -0.019 N 
ATOM      9  H9  UNL     1      56.011  16.942  84.621  1.00  0.00     0.203 HD
HETATM   10  C10 UNL     1      57.038  15.453  83.653  1.00  0.00     0.733 C 
ENDROOT
BRANCH   4  11
HETATM   11  N5  UNL     1      54.324  12.651  82.050  1.00  0.00    -0.204 N 
ATOM     12  H5  UNL     1      54.262  11.783  82.582  1.00  0.00     0.183 HD
BRANCH  11  13
HETATM   13  C3  UNL     1      53.708  12.605  80.784  1.00  0.00     0.079 C 
BRANCH  13  14
HETATM   14  C4  UNL     1      54.077  11.387  79.964  1.00  0.00     0.045 C 
BRANCH  14  15
HETATM   15  C5  UNL     1      53.107  10.247  80.211  1.00  0.00     0.005 C 
BRANCH  15  16
HETATM   16  C6  UNL     1      52.174  10.040  79.060  1.00  0.00     0.002 C 
BRANCH  16  17
HETATM   17  C7  UNL     1      50.749  10.423  79.382  1.00  0.00     0.027 C 
BRANCH  17  18
HETATM   18  C8  UNL     1      50.582  10.489  80.867  1.00  0.00     0.229 C 
BRANCH  18  19
HETATM   19  N6  UNL     1      50.177  11.786  81.336  1.00  0.00    -0.079 N 
ATOM     20  H63 UNL     1      50.272  12.485  80.599  1.00  0.00     0.274 HD
ATOM     21  H62 UNL     1      49.166  11.823  81.473  1.00  0.00     0.274 HD
ATOM     22  H61 UNL     1      50.667  12.082  82.181  1.00  0.00     0.274 HD
ENDBRANCH  18  19
ENDBRANCH  17  18
ENDBRANCH  16  17
ENDBRANCH  15  16
ENDBRANCH  14  15
ENDBRANCH  13  14
ENDBRANCH  11  13
ENDBRANCH   4  11
BRANCH   1  23
HETATM   23  C1  UNL     1      58.385  13.557  83.669  1.00  0.00     0.241 C 
HETATM   24  N2  UNL     1      58.527  12.298  83.761  1.00  0.00    -0.300 N 
ATOM     25  H2  UNL     1      58.693  12.193  84.761  1.00  0.00     0.187 HD
BRANCH  24  26
HETATM   26  N1  UNL     1      58.588  11.129  83.387  1.00  0.00    -0.344 N 
ATOM     27  H12 UNL     1      58.147  11.245  82.475  1.00  0.00     0.176 HD
ATOM     28  H11 UNL     1      58.805  10.133  83.430  1.00  0.00     0.176 HD
ENDBRANCH  24  26
ENDBRANCH   1  23
BRANCH   7  29
HETATM   29  N8  UNL     1      53.714  16.425  84.365  1.00  0.00    -0.234 N 
ATOM     30  H82 UNL     1      52.897  16.567  83.772  1.00  0.00     0.174 HD
ATOM     31  H81 UNL     1      53.881  16.812  85.295  1.00  0.00     0.174 HD
ENDBRANCH   7  29
BRANCH  10  32
HETATM   32  N10 UNL     1      58.067  16.188  83.582  1.00  0.00    -0.136 N 
ATOM     33  H10 UNL     1      58.634  16.271  84.425  1.00  0.00     0.205 HD
BRANCH  32  34
HETATM   34  N11 UNL     1      58.492  16.886  82.474  1.00  0.00    -0.331 N 
ATOM     35 2H11 UNL     1      58.475  17.903  82.558  1.00  0.00     0.177 HD
ATOM     36 1H11 UNL     1      58.815  16.483  81.595  1.00  0.00     0.177 HD
ENDBRANCH  32  34
ENDBRANCH  10  32
TORSDOF 13
ENDMDL
MODEL 4
REMARK VINA RESULT: -7.157619794      2.679      4.410
REMARK  13 active torsions:
REMARK  status: ('A' for Active; 'I' for Inactive)
REMARK    1  A    between atoms: N1_1  and  N2_4 
REMARK    2  A    between atoms: C1_6  and  N3_7 
REMARK    3  A    between atoms: C2_10  and  N5_11 
REMARK    4  A    between atoms: N5_11  and  C3_13 
REMARK    5  A    between atoms: C3_13  and  C4_14 
REMARK    6  A    between atoms: C4_14  and  C5_15 
REMARK    7  A    between atoms: C5_15  and  C6_16 
REMARK    8  A    between atoms: C6_16  and  C7_17 
REMARK    9  A    between atoms: C7_17  and  C8_18 
REMARK   10  A    between atoms: C8_18  and  N6_19 
REMARK   11  A    between atoms: C9_25  and  N8_26 
REMARK   12  A    between atoms: C10_31  and  N10_32 
REMARK   13  A    between atoms: N10_32  and  N11_34 
ROOT
HETATM    1  N3  UNL     1      56.605  13.438  84.782  1.00  0.00    -0.064 N 
HETATM    2  N4  UNL     1      55.650  14.398  84.774  1.00  0.00    -0.109 N 
ATOM      3  H4  UNL     1      54.762  14.183  85.225  1.00  0.00     0.207 HD
HETATM    4  C2  UNL     1      55.788  15.636  84.207  1.00  0.00     0.711 C 
HETATM    5  N7  UNL     1      56.781  16.094  83.423  1.00  0.00    -0.021 N 
ATOM      6  H7  UNL     1      56.680  17.065  83.126  1.00  0.00     0.203 HD
HETATM    7  C9  UNL     1      57.897  15.470  82.963  1.00  0.00     0.705 C 
HETATM    8  N9  UNL     1      58.256  14.190  83.156  1.00  0.00    -0.019 N 
ATOM      9  H9  UNL     1      59.139  13.892  82.741  1.00  0.00     0.203 HD
HETATM   10  C10 UNL     1      57.549  13.238  83.860  1.00  0.00     0.733 C 
ENDROOT
BRANCH   4  11
HETATM   11  N5  UNL     1      54.838  16.409  84.484  1.00  0.00    -0.204 N 
ATOM     12  H5  UNL     1      55.091  17.187  85.092  1.00  0.00     0.183 HD
BRANCH  11  13
HETATM   13  C3  UNL     1      53.484  16.385  84.099  1.00  0.00     0.079 C 
BRANCH  13  14
HETATM   14  C4  UNL     1      53.114  17.449  83.087  1.00  0.00     0.045 C 
BRANCH  14  15
HETATM   15  C5  UNL     1      52.842  16.838  81.725  1.00  0.00     0.005 C 
BRANCH  15  16
HETATM   16  C6  UNL     1      54.094  16.663  80.925  1.00  0.00     0.002 C 
BRANCH  16  17
HETATM   17  C7  UNL     1      54.091  15.397  80.101  1.00  0.00     0.027 C 
BRANCH  17  18
HETATM   18  C8  UNL     1      53.861  14.225  81.002  1.00  0.00     0.229 C 
BRANCH  18  19
HETATM   19  N6  UNL     1      55.070  13.527  81.346  1.00  0.00    -0.079 N 
ATOM     20  H63 UNL     1      55.857  13.872  80.797  1.00  0.00     0.274 HD
ATOM     21  H62 UNL     1      55.387  13.789  82.280  1.00  0.00     0.274 HD
ATOM     22  H61 UNL     1      54.987  12.513  81.264  1.00  0.00     0.274 HD
ENDBRANCH  18  19
ENDBRANCH  17  18
ENDBRANCH  16  17
ENDBRANCH  15  16
ENDBRANCH  14  15
ENDBRANCH  13  14
ENDBRANCH  11  13
ENDBRANCH   4  11
BRANCH   1  23
HETATM   23  C1  UNL     1      56.614  12.557  85.878  1.00  0.00     0.241 C 
HETATM   24  N2  UNL     1      57.224  12.795  86.966  1.00  0.00    -0.300 N 
ATOM     25  H2  UNL     1      57.929  12.057  86.959  1.00  0.00     0.187 HD
BRANCH  24  26
HETATM   26  N1  UNL     1      57.489  13.365  88.021  1.00  0.00    -0.344 N 
ATOM     27  H12 UNL     1      56.680  13.984  88.059  1.00  0.00     0.176 HD
ATOM     28  H11 UNL     1      58.013  13.594  88.867  1.00  0.00     0.176 HD
ENDBRANCH  24  26
ENDBRANCH   1  23
BRANCH   7  29
HETATM   29  N8  UNL     1      58.709  16.171  82.262  1.00  0.00    -0.234 N 
ATOM     30  H82 UNL     1      58.863  15.844  81.309  1.00  0.00     0.174 HD
ATOM     31  H81 UNL     1      59.126  16.986  82.714  1.00  0.00     0.174 HD
ENDBRANCH   7  29
BRANCH  10  32
HETATM   32  N10 UNL     1      57.824  12.035  83.576  1.00  0.00    -0.136 N 
ATOM     33  H10 UNL     1      57.040  11.422  83.357  1.00  0.00     0.205 HD
BRANCH  32  34
HETATM   34  N11 UNL     1      59.082  11.478  83.537  1.00  0.00    -0.331 N 
ATOM     35 2H11 UNL     1      59.836  12.104  83.258  1.00  0.00     0.177 HD
ATOM     36 1H11 UNL     1      59.319  10.510  83.758  1.00  0.00     0.177 HD
ENDBRANCH  32  34
ENDBRANCH  10  32
TORSDOF 13
ENDMDL
MODEL 5
REMARK VINA RESULT: -7.147799875      1.697      2.120
REMARK  13 active torsions:
REMARK  status: ('A' for Active; 'I' for Inactive)
REMARK    1  A    between atoms: N1_1  and  N2_4 
REMARK    2  A    between atoms: C1_6  and  N3_7 
REMARK    3  A    between atoms: C2_10  and  N5_11 
REMARK    4  A    between atoms: N5_11  and  C3_13 
REMARK    5  A    between atoms: C3_13  and  C4_14 
REMARK    6  A    between atoms: C4_14  and  C5_15 
REMARK    7  A    between atoms: C5_15  and  C6_16 
REMARK    8  A    between atoms: C6_16  and  C7_17 
REMARK    9  A    between atoms: C7_17  and  C8_18 
REMARK   10  A    between atoms: C8_18  and  N6_19 
REMARK   11  A    between atoms: C9_25  and  N8_26 
REMARK   12  A    between atoms: C10_31  and  N10_32 
REMARK   13  A    between atoms: N10_32  and  N11_34 
ROOT
HETATM    1  N3  UNL     1      56.414  14.286  82.836  1.00  0.00    -0.064 N 
HETATM    2  N4  UNL     1      55.734  13.540  81.933  1.00  0.00    -0.109 N 
ATOM      3  H4  UNL     1      56.070  12.594  81.756  1.00  0.00     0.207 HD
HETATM    4  C2  UNL     1      54.631  13.959  81.241  1.00  0.00     0.711 C 
HETATM    5  N7  UNL     1      54.102  15.195  81.173  1.00  0.00    -0.021 N 
ATOM      6  H7  UNL     1      53.259  15.270  80.603  1.00  0.00     0.203 HD
HETATM    7  C9  UNL     1      54.511  16.358  81.744  1.00  0.00     0.705 C 
HETATM    8  N9  UNL     1      55.604  16.559  82.498  1.00  0.00    -0.019 N 
ATOM      9  H9  UNL     1      55.751  17.504  82.854  1.00  0.00     0.203 HD
HETATM   10  C10 UNL     1      56.548  15.613  82.840  1.00  0.00     0.733 C 
ENDROOT
BRANCH   4  11
HETATM   11  N5  UNL     1      54.075  13.034  80.600  1.00  0.00    -0.204 N 
ATOM     12  H5  UNL     1      53.754  13.299  79.670  1.00  0.00     0.183 HD
BRANCH  11  13
HETATM   13  C3  UNL     1      53.820  11.693  80.946  1.00  0.00     0.079 C 
BRANCH  13  14
HETATM   14  C4  UNL     1      53.852  10.738  79.772  1.00  0.00     0.045 C 
BRANCH  14  15
HETATM   15  C5  UNL     1      52.585   9.905  79.708  1.00  0.00     0.005 C 
BRANCH  15  16
HETATM   16  C6  UNL     1      51.357  10.752  79.600  1.00  0.00     0.002 C 
BRANCH  16  17
HETATM   17  C7  UNL     1      50.386  10.526  80.735  1.00  0.00     0.027 C 
BRANCH  17  18
HETATM   18  C8  UNL     1      50.585  11.587  81.770  1.00  0.00     0.229 C 
BRANCH  18  19
HETATM   19  N6  UNL     1      50.421  12.920  81.256  1.00  0.00    -0.079 N 
ATOM     20  H63 UNL     1      49.479  13.054  80.887  1.00  0.00     0.274 HD
ATOM     21  H62 UNL     1      50.403  13.602  82.015  1.00  0.00     0.274 HD
ATOM     22  H61 UNL     1      51.122  13.172  80.559  1.00  0.00     0.274 HD
ENDBRANCH  18  19
ENDBRANCH  17  18
ENDBRANCH  16  17
ENDBRANCH  15  16
ENDBRANCH  14  15
ENDBRANCH  13  14
ENDBRANCH  11  13
ENDBRANCH   4  11
BRANCH   1  23
HETATM   23  C1  UNL     1      57.042  13.597  83.889  1.00  0.00     0.241 C 
HETATM   24  N2  UNL     1      57.566  12.447  83.762  1.00  0.00    -0.300 N 
ATOM     25  H2  UNL     1      56.967  11.892  84.372  1.00  0.00     0.187 HD
BRANCH  24  26
HETATM   26  N1  UNL     1      58.349  11.591  83.358  1.00  0.00    -0.344 N 
ATOM     27  H12 UNL     1      59.141  11.825  83.957  1.00  0.00     0.176 HD
ATOM     28  H11 UNL     1      58.686  10.805  82.801  1.00  0.00     0.176 HD
ENDBRANCH  24  26
ENDBRANCH   1  23
BRANCH   7  29
HETATM   29  N8  UNL     1      53.778  17.392  81.548  1.00  0.00    -0.234 N 
ATOM     30  H82 UNL     1      54.063  17.991  80.773  1.00  0.00     0.174 HD
ATOM     31  H81 UNL     1      52.985  17.523  82.176  1.00  0.00     0.174 HD
ENDBRANCH   7  29
BRANCH  10  32
HETATM   32  N10 UNL     1      57.679  16.071  83.179  1.00  0.00    -0.136 N 
ATOM     33  H10 UNL     1      57.977  15.902  84.139  1.00  0.00     0.205 HD
BRANCH  32  34
HETATM   34  N11 UNL     1      58.544  16.777  82.374  1.00  0.00    -0.331 N 
ATOM     35 2H11 UNL     1      59.370  16.268  82.058  1.00  0.00     0.177 HD
ATOM     36 1H11 UNL     1      58.433  17.745  82.072  1.00  0.00     0.177 HD
ENDBRANCH  32  34
ENDBRANCH  10  32
TORSDOF 13
ENDMDL
