MODEL 1
REMARK VINA RESULT: -9.579035472      0.000      0.000
REMARK  13 active torsions:
REMARK  status: ('A' for Active; 'I' for Inactive)
REMARK    1  A    between atoms: N1_1  and  C1_4 
REMARK    2  A    between atoms: N4_12  and  C5_13 
REMARK    3  A    between atoms: C5_13  and  C6_14 
REMARK       I    between atoms: C6_14  and  N5_16 
REMARK       I    between atoms: N5_16  and  C7_18 
REMARK    4  A    between atoms: C7_18  and  C8_20 
REMARK    5  A    between atoms: N6_24  and  C12_25 
REMARK    6  A    between atoms: C12_25  and  C13_26 
REMARK    7  A    between atoms: C13_26  and  C14_28 
REMARK    8  A    between atoms: C17_38  and  N10_39 
REMARK    9  A    between atoms: C19_41  and  O4_42 
REMARK   10  A    between atoms: C20_44  and  O5_45 
REMARK   11  A    between atoms: O5_45  and  S1_46 
REMARK   12  A    between atoms: S1_46  and  N11_47 
REMARK   13  A    between atoms: C21_52  and  O8_53 
ROOT
HETATM    1  C1  UNL     1      14.881  -5.405  -9.400  1.00  0.00     0.679 A 
HETATM    2  N2  UNL     1      14.934  -6.570  -8.746  1.00  0.00    -0.174 N 
ATOM      3  H2  UNL     1      14.479  -6.632  -7.835  1.00  0.00     0.186 HD
HETATM    4  C2  UNL     1      15.553  -7.663  -9.222  1.00  0.00     0.155 A 
HETATM    5  C3  UNL     1      16.166  -7.532 -10.476  1.00  0.00     0.124 A 
HETATM    6  N3  UNL     1      16.726  -8.719 -10.759  1.00  0.00    -0.346 N 
ATOM      7  H3  UNL     1      17.247  -8.951 -11.604  1.00  0.00     0.167 HD
HETATM    8  C4  UNL     1      16.478  -9.545  -9.733  1.00  0.00     0.185 A 
HETATM    9  N4  UNL     1      15.756  -8.915  -8.772  1.00  0.00    -0.318 N 
HETATM   10  C17 UNL     1      16.123  -6.340 -11.166  1.00  0.00     0.165 A 
HETATM   11  N13 UNL     1      15.482  -5.310 -10.607  1.00  0.00    -0.173 N 
ATOM     12  H13 UNL     1      15.444  -4.422 -11.109  1.00  0.00     0.186 HD
ENDROOT
BRANCH   9  13
HETATM   13  C5  UNL     1      15.304  -9.483  -7.504  1.00  0.00     0.234 C 
BRANCH  13  14
HETATM   14  C6  UNL     1      14.376 -10.608  -7.746  1.00  0.00     0.242 C 
HETATM   15  O1  UNL     1      13.221 -10.319  -8.207  1.00  0.00    -0.271 OA
HETATM   16  N5  UNL     1      14.675 -11.973  -7.507  1.00  0.00    -0.294 N 
HETATM   17  C7  UNL     1      15.882 -12.474  -6.976  1.00  0.00     0.258 C 
ATOM     18  H5  UNL     1      13.952 -12.655  -7.740  1.00  0.00     0.171 HD
HETATM   19  O2  UNL     1      16.781 -11.666  -6.711  1.00  0.00    -0.271 OA
BRANCH  17  20
HETATM   20  C8  UNL     1      16.016 -13.929  -6.761  1.00  0.00     0.315 C 
HETATM   21  C9  UNL     1      15.703 -14.289  -5.311  1.00  0.00     0.047 C 
HETATM   22  C10 UNL     1      16.720 -15.352  -4.932  1.00  0.00     0.033 C 
HETATM   23  C11 UNL     1      17.186 -15.793  -6.331  1.00  0.00     0.274 C 
HETATM   24  N6  UNL     1      17.325 -14.459  -6.955  1.00  0.00     0.109 N 
BRANCH  24  25
HETATM   25  C12 UNL     1      17.663 -14.617  -8.361  1.00  0.00     0.358 C 
BRANCH  25  26
HETATM   26  C13 UNL     1      19.098 -14.463  -8.581  1.00  0.00     0.205 C 
HETATM   27  O3  UNL     1      19.965 -15.136  -7.966  1.00  0.00    -0.289 OA
BRANCH  26  28
HETATM   28  C14 UNL     1      19.612 -13.501  -9.547  1.00  0.00     0.112 A 
HETATM   29  C15 UNL     1      19.038 -12.281  -9.833  1.00  0.00     0.140 A 
HETATM   30  N7  UNL     1      19.764 -11.640 -10.764  1.00  0.00    -0.200 N 
HETATM   31  C16 UNL     1      20.802 -12.449 -11.073  1.00  0.00     0.676 A 
ATOM     32  H7  UNL     1      19.569 -10.720 -11.162  1.00  0.00     0.183 HD
HETATM   33  N8  UNL     1      21.713 -12.158 -11.929  1.00  0.00    -0.234 N 
HETATM   34  N9  UNL     1      20.704 -13.567 -10.337  1.00  0.00    -0.187 N 
ATOM     35  H82 UNL     1      21.788 -11.308 -12.488  1.00  0.00     0.174 HD
ATOM     36  H81 UNL     1      22.497 -12.768 -12.161  1.00  0.00     0.174 HD
ATOM     37  H9  UNL     1      21.357 -14.349 -10.370  1.00  0.00     0.184 HD
ENDBRANCH  26  28
ENDBRANCH  25  26
ENDBRANCH  24  25
ENDBRANCH  17  20
ENDBRANCH  13  14
ENDBRANCH   9  13
BRANCH   1  38
HETATM   38  N1  UNL     1      14.278  -4.372  -8.931  1.00  0.00    -0.234 N 
ATOM     39  H12 UNL     1      14.414  -4.132  -7.948  1.00  0.00     0.174 HD
ATOM     40  H11 UNL     1      13.673  -3.781  -9.501  1.00  0.00     0.174 HD
ENDBRANCH   1  38
BRANCH  10  41
HETATM   41  N10 UNL     1      16.756  -6.228 -12.460  1.00  0.00    -0.273 N 
HETATM   42  C18 UNL     1      17.978  -5.513 -12.584  1.00  0.00     0.181 C 
HETATM   43  C19 UNL     1      18.922  -6.059 -13.619  1.00  0.00     0.172 C 
HETATM   44  C20 UNL     1      18.306  -7.104 -14.500  1.00  0.00     0.220 C 
HETATM   45  C21 UNL     1      16.863  -6.655 -14.751  1.00  0.00     0.264 C 
HETATM   46  N12 UNL     1      16.107  -6.804 -13.541  1.00  0.00    -0.102 NA
BRANCH  43  47
HETATM   47  O4  UNL     1      19.400  -4.983 -14.386  1.00  0.00    -0.391 OA
ATOM     48  H4  UNL     1      20.349  -5.004 -14.364  1.00  0.00     0.210 HD
ENDBRANCH  43  47
BRANCH  44  49
HETATM   49  O5  UNL     1      18.234  -8.329 -13.870  1.00  0.00    -0.247 OA
BRANCH  49  50
HETATM   50  S1  UNL     1      19.650  -8.826 -13.148  1.00  0.00     0.356 S 
HETATM   51  O6  UNL     1      19.460  -8.682 -11.659  1.00  0.00    -0.176 OA
HETATM   52  O7  UNL     1      19.793 -10.307 -13.410  1.00  0.00    -0.176 OA
BRANCH  50  53
HETATM   53  N11 UNL     1      21.032  -7.973 -13.635  1.00  0.00    -0.306 N 
ATOM     54 2H11 UNL     1      21.001  -7.282 -14.384  1.00  0.00     0.171 HD
ATOM     55 1H11 UNL     1      21.882  -8.209 -13.122  1.00  0.00     0.171 HD
ENDBRANCH  50  53
ENDBRANCH  49  50
ENDBRANCH  44  49
BRANCH  45  56
HETATM   56  O8  UNL     1      16.349  -7.427 -15.783  1.00  0.00    -0.375 OA
ATOM     57  H8  UNL     1      15.792  -8.094 -15.400  1.00  0.00     0.211 HD
ENDBRANCH  45  56
ENDBRANCH  10  41
TORSDOF 13
ENDMDL
MODEL 2
REMARK VINA RESULT: -8.848666642      1.614      2.459
REMARK  13 active torsions:
REMARK  status: ('A' for Active; 'I' for Inactive)
REMARK    1  A    between atoms: N1_1  and  C1_4 
REMARK    2  A    between atoms: N4_12  and  C5_13 
REMARK    3  A    between atoms: C5_13  and  C6_14 
REMARK       I    between atoms: C6_14  and  N5_16 
REMARK       I    between atoms: N5_16  and  C7_18 
REMARK    4  A    between atoms: C7_18  and  C8_20 
REMARK    5  A    between atoms: N6_24  and  C12_25 
REMARK    6  A    between atoms: C12_25  and  C13_26 
REMARK    7  A    between atoms: C13_26  and  C14_28 
REMARK    8  A    between atoms: C17_38  and  N10_39 
REMARK    9  A    between atoms: C19_41  and  O4_42 
REMARK   10  A    between atoms: C20_44  and  O5_45 
REMARK   11  A    between atoms: O5_45  and  S1_46 
REMARK   12  A    between atoms: S1_46  and  N11_47 
REMARK   13  A    between atoms: C21_52  and  O8_53 
ROOT
HETATM    1  C1  UNL     1      15.211  -5.451  -9.531  1.00  0.00     0.679 A 
HETATM    2  N2  UNL     1      15.151  -6.597  -8.844  1.00  0.00    -0.174 N 
ATOM      3  H2  UNL     1      14.534  -6.640  -8.033  1.00  0.00     0.186 HD
HETATM    4  C2  UNL     1      15.859  -7.693  -9.163  1.00  0.00     0.155 A 
HETATM    5  C3  UNL     1      16.695  -7.587 -10.284  1.00  0.00     0.124 A 
HETATM    6  N3  UNL     1      17.309  -8.774 -10.421  1.00  0.00    -0.346 N 
ATOM      7  H3  UNL     1      17.981  -9.020 -11.147  1.00  0.00     0.167 HD
HETATM    8  C4  UNL     1      16.880  -9.575  -9.436  1.00  0.00     0.185 A 
HETATM    9  N4  UNL     1      15.985  -8.928  -8.646  1.00  0.00    -0.318 N 
HETATM   10  C17 UNL     1      16.770  -6.415 -11.004  1.00  0.00     0.165 A 
HETATM   11  N13 UNL     1      16.027  -5.381 -10.607  1.00  0.00    -0.173 N 
ATOM     12  H13 UNL     1      16.075  -4.507 -11.132  1.00  0.00     0.186 HD
ENDROOT
BRANCH   9  13
HETATM   13  C5  UNL     1      15.309  -9.468  -7.468  1.00  0.00     0.234 C 
BRANCH  13  14
HETATM   14  C6  UNL     1      14.435 -10.598  -7.850  1.00  0.00     0.242 C 
HETATM   15  O1  UNL     1      13.296 -10.310  -8.350  1.00  0.00    -0.271 OA
HETATM   16  N5  UNL     1      14.770 -11.968  -7.704  1.00  0.00    -0.294 N 
HETATM   17  C7  UNL     1      15.964 -12.472  -7.148  1.00  0.00     0.258 C 
ATOM     18  H5  UNL     1      14.085 -12.651  -8.029  1.00  0.00     0.171 HD
HETATM   19  O2  UNL     1      16.819 -11.661  -6.770  1.00  0.00    -0.271 OA
BRANCH  17  20
HETATM   20  C8  UNL     1      16.139 -13.935  -7.041  1.00  0.00     0.315 C 
HETATM   21  C9  UNL     1      15.835 -14.410  -5.623  1.00  0.00     0.047 C 
HETATM   22  C10 UNL     1      16.880 -15.471  -5.321  1.00  0.00     0.033 C 
HETATM   23  C11 UNL     1      17.359 -15.793  -6.748  1.00  0.00     0.274 C 
HETATM   24  N6  UNL     1      17.462 -14.413  -7.271  1.00  0.00     0.109 N 
BRANCH  24  25
HETATM   25  C12 UNL     1      17.804 -14.456  -8.684  1.00  0.00     0.358 C 
BRANCH  25  26
HETATM   26  C13 UNL     1      19.228 -14.206  -8.891  1.00  0.00     0.205 C 
HETATM   27  O3  UNL     1      20.133 -14.817  -8.266  1.00  0.00    -0.289 OA
BRANCH  26  28
HETATM   28  C14 UNL     1      19.683 -13.212  -9.853  1.00  0.00     0.112 A 
HETATM   29  C15 UNL     1      19.137 -11.957 -10.018  1.00  0.00     0.140 A 
HETATM   30  N7  UNL     1      19.793 -11.294 -10.984  1.00  0.00    -0.200 N 
HETATM   31  C16 UNL     1      20.760 -12.123 -11.438  1.00  0.00     0.676 A 
ATOM     32  H7  UNL     1      19.599 -10.347 -11.313  1.00  0.00     0.183 HD
HETATM   33  N8  UNL     1      21.593 -11.820 -12.365  1.00  0.00    -0.234 N 
HETATM   34  N9  UNL     1      20.688 -13.275 -10.753  1.00  0.00    -0.187 N 
ATOM     35  H82 UNL     1      21.648 -10.944 -12.885  1.00  0.00     0.174 HD
ATOM     36  H81 UNL     1      22.323 -12.446 -12.707  1.00  0.00     0.174 HD
ATOM     37  H9  UNL     1      21.301 -14.078 -10.892  1.00  0.00     0.184 HD
ENDBRANCH  26  28
ENDBRANCH  25  26
ENDBRANCH  24  25
ENDBRANCH  17  20
ENDBRANCH  13  14
ENDBRANCH   9  13
BRANCH   1  38
HETATM   38  N1  UNL     1      14.521  -4.414  -9.214  1.00  0.00    -0.234 N 
ATOM     39  H12 UNL     1      13.686  -4.198  -9.758  1.00  0.00     0.174 HD
ATOM     40  H11 UNL     1      14.772  -3.803  -8.437  1.00  0.00     0.174 HD
ENDBRANCH   1  38
BRANCH  10  41
HETATM   41  N10 UNL     1      17.634  -6.330 -12.160  1.00  0.00    -0.273 N 
HETATM   42  C18 UNL     1      17.096  -5.914 -13.408  1.00  0.00     0.181 C 
HETATM   43  C19 UNL     1      18.044  -5.121 -14.266  1.00  0.00     0.172 C 
HETATM   44  C20 UNL     1      19.455  -5.123 -13.760  1.00  0.00     0.220 C 
HETATM   45  C21 UNL     1      19.708  -6.529 -13.208  1.00  0.00     0.264 C 
HETATM   46  N12 UNL     1      18.959  -6.702 -11.996  1.00  0.00    -0.102 NA
BRANCH  43  47
HETATM   47  O4  UNL     1      17.984  -5.634 -15.572  1.00  0.00    -0.391 OA
ATOM     48  H4  UNL     1      17.157  -5.370 -15.956  1.00  0.00     0.210 HD
ENDBRANCH  43  47
BRANCH  44  49
HETATM   49  O5  UNL     1      19.623  -4.249 -12.706  1.00  0.00    -0.247 OA
BRANCH  49  50
HETATM   50  S1  UNL     1      20.834  -3.126 -12.918  1.00  0.00     0.356 S 
HETATM   51  O6  UNL     1      20.283  -2.047 -13.815  1.00  0.00    -0.176 OA
HETATM   52  O7  UNL     1      21.079  -2.470 -11.579  1.00  0.00    -0.176 OA
BRANCH  50  53
HETATM   53  N11 UNL     1      22.269  -3.744 -13.577  1.00  0.00    -0.306 N 
ATOM     54 2H11 UNL     1      22.287  -4.207 -14.485  1.00  0.00     0.171 HD
ATOM     55 1H11 UNL     1      23.096  -3.614 -12.995  1.00  0.00     0.171 HD
ENDBRANCH  50  53
ENDBRANCH  49  50
ENDBRANCH  44  49
BRANCH  45  56
HETATM   56  O8  UNL     1      21.074  -6.666 -12.999  1.00  0.00    -0.375 OA
ATOM     57  H8  UNL     1      21.374  -7.411 -13.505  1.00  0.00     0.211 HD
ENDBRANCH  45  56
ENDBRANCH  10  41
TORSDOF 13
ENDMDL
MODEL 3
REMARK VINA RESULT: -8.651922386      3.504      7.385
REMARK  13 active torsions:
REMARK  status: ('A' for Active; 'I' for Inactive)
REMARK    1  A    between atoms: N1_1  and  C1_4 
REMARK    2  A    between atoms: N4_12  and  C5_13 
REMARK    3  A    between atoms: C5_13  and  C6_14 
REMARK       I    between atoms: C6_14  and  N5_16 
REMARK       I    between atoms: N5_16  and  C7_18 
REMARK    4  A    between atoms: C7_18  and  C8_20 
REMARK    5  A    between atoms: N6_24  and  C12_25 
REMARK    6  A    between atoms: C12_25  and  C13_26 
REMARK    7  A    between atoms: C13_26  and  C14_28 
REMARK    8  A    between atoms: C17_38  and  N10_39 
REMARK    9  A    between atoms: C19_41  and  O4_42 
REMARK   10  A    between atoms: C20_44  and  O5_45 
REMARK   11  A    between atoms: O5_45  and  S1_46 
REMARK   12  A    between atoms: S1_46  and  N11_47 
REMARK   13  A    between atoms: C21_52  and  O8_53 
ROOT
HETATM    1  C1  UNL     1      17.287 -11.164  -9.135  1.00  0.00     0.679 A 
HETATM    2  N2  UNL     1      18.401 -11.717  -9.627  1.00  0.00    -0.174 N 
ATOM      3  H2  UNL     1      18.676 -12.636  -9.281  1.00  0.00     0.186 HD
HETATM    4  C2  UNL     1      19.177 -11.129 -10.553  1.00  0.00     0.155 A 
HETATM    5  C3  UNL     1      18.762  -9.866 -10.999  1.00  0.00     0.124 A 
HETATM    6  N3  UNL     1      19.669  -9.458 -11.901  1.00  0.00    -0.346 N 
ATOM      7  H3  UNL     1      19.650  -8.576 -12.413  1.00  0.00     0.167 HD
HETATM    8  C4  UNL     1      20.601 -10.414 -12.009  1.00  0.00     0.185 A 
HETATM    9  N4  UNL     1      20.319 -11.455 -11.185  1.00  0.00    -0.318 N 
HETATM   10  C17 UNL     1      17.618  -9.279 -10.503  1.00  0.00     0.165 A 
HETATM   11  N13 UNL     1      16.914  -9.945  -9.585  1.00  0.00    -0.173 N 
ATOM     12  H13 UNL     1      16.065  -9.520  -9.210  1.00  0.00     0.186 HD
ENDROOT
BRANCH   9  13
HETATM   13  C5  UNL     1      21.106 -12.675 -11.016  1.00  0.00     0.234 C 
BRANCH  13  14
HETATM   14  C6  UNL     1      21.730 -13.066 -12.298  1.00  0.00     0.242 C 
HETATM   15  O1  UNL     1      21.036 -13.793 -13.085  1.00  0.00    -0.271 OA
HETATM   16  N5  UNL     1      23.033 -12.692 -12.714  1.00  0.00    -0.294 N 
HETATM   17  C7  UNL     1      23.949 -11.920 -11.968  1.00  0.00     0.258 C 
ATOM     18  H5  UNL     1      23.336 -13.009 -13.635  1.00  0.00     0.171 HD
HETATM   19  O2  UNL     1      23.592 -11.504 -10.858  1.00  0.00    -0.271 OA
BRANCH  17  20
HETATM   20  C8  UNL     1      25.283 -11.648 -12.540  1.00  0.00     0.315 C 
HETATM   21  C9  UNL     1      26.365 -12.384 -11.754  1.00  0.00     0.047 C 
HETATM   22  C10 UNL     1      27.528 -11.411 -11.663  1.00  0.00     0.033 C 
HETATM   23  C11 UNL     1      27.149 -10.429 -12.785  1.00  0.00     0.274 C 
HETATM   24  N6  UNL     1      25.707 -10.288 -12.486  1.00  0.00     0.109 N 
BRANCH  24  25
HETATM   25  C12 UNL     1      25.079  -9.465 -13.509  1.00  0.00     0.358 C 
BRANCH  25  26
HETATM   26  C13 UNL     1      24.255  -8.417 -12.912  1.00  0.00     0.205 C 
HETATM   27  O3  UNL     1      24.308  -8.109 -11.693  1.00  0.00    -0.289 OA
BRANCH  26  28
HETATM   28  C14 UNL     1      23.308  -7.657 -13.717  1.00  0.00     0.112 A 
HETATM   29  C15 UNL     1      23.541  -7.198 -14.995  1.00  0.00     0.140 A 
HETATM   30  N7  UNL     1      22.463  -6.539 -15.450  1.00  0.00    -0.200 N 
HETATM   31  C16 UNL     1      21.539  -6.578 -14.464  1.00  0.00     0.676 A 
ATOM     32  H7  UNL     1      22.361  -6.095 -16.363  1.00  0.00     0.183 HD
HETATM   33  N8  UNL     1      20.371  -6.052 -14.549  1.00  0.00    -0.234 N 
HETATM   34  N9  UNL     1      22.054  -7.252 -13.424  1.00  0.00    -0.187 N 
ATOM     35  H82 UNL     1      19.979  -5.540 -15.339  1.00  0.00     0.174 HD
ATOM     36  H81 UNL     1      19.674  -6.082 -13.805  1.00  0.00     0.174 HD
ATOM     37  H9  UNL     1      21.570  -7.431 -12.544  1.00  0.00     0.184 HD
ENDBRANCH  26  28
ENDBRANCH  25  26
ENDBRANCH  24  25
ENDBRANCH  17  20
ENDBRANCH  13  14
ENDBRANCH   9  13
BRANCH   1  38
HETATM   38  N1  UNL     1      16.554 -11.746  -8.255  1.00  0.00    -0.234 N 
ATOM     39  H12 UNL     1      16.924 -12.568  -7.777  1.00  0.00     0.174 HD
ATOM     40  H11 UNL     1      15.620 -11.416  -8.011  1.00  0.00     0.174 HD
ENDBRANCH   1  38
BRANCH  10  41
HETATM   41  N10 UNL     1      17.205  -7.980 -10.981  1.00  0.00    -0.273 N 
HETATM   42  C18 UNL     1      16.592  -7.064 -10.083  1.00  0.00     0.181 C 
HETATM   43  C19 UNL     1      16.907  -5.618 -10.349  1.00  0.00     0.172 C 
HETATM   44  C20 UNL     1      17.608  -5.388 -11.654  1.00  0.00     0.220 C 
HETATM   45  C21 UNL     1      16.984  -6.368 -12.653  1.00  0.00     0.264 C 
HETATM   46  N12 UNL     1      17.399  -7.702 -12.325  1.00  0.00    -0.102 NA
BRANCH  43  47
HETATM   47  O4  UNL     1      15.706  -4.892 -10.297  1.00  0.00    -0.391 OA
ATOM     48  H4  UNL     1      15.865  -4.091  -9.814  1.00  0.00     0.210 HD
ENDBRANCH  43  47
BRANCH  44  49
HETATM   49  O5  UNL     1      18.949  -5.702 -11.578  1.00  0.00    -0.247 OA
BRANCH  49  50
HETATM   50  S1  UNL     1      19.969  -4.388 -11.497  1.00  0.00     0.356 S 
HETATM   51  O6  UNL     1      21.373  -4.909 -11.676  1.00  0.00    -0.176 OA
HETATM   52  O7  UNL     1      19.687  -3.523 -12.703  1.00  0.00    -0.176 OA
BRANCH  50  53
HETATM   53  N11 UNL     1      19.866  -3.498 -10.057  1.00  0.00    -0.306 N 
ATOM     54 2H11 UNL     1      20.625  -3.488  -9.376  1.00  0.00     0.171 HD
ATOM     55 1H11 UNL     1      18.994  -2.983  -9.936  1.00  0.00     0.171 HD
ENDBRANCH  50  53
ENDBRANCH  49  50
ENDBRANCH  44  49
BRANCH  45  56
HETATM   56  O8  UNL     1      17.390  -5.996 -13.927  1.00  0.00    -0.375 OA
ATOM     57  H8  UNL     1      16.616  -5.752 -14.421  1.00  0.00     0.211 HD
ENDBRANCH  45  56
ENDBRANCH  10  41
TORSDOF 13
ENDMDL
MODEL 4
REMARK VINA RESULT: -8.633815967      1.654      2.553
REMARK  13 active torsions:
REMARK  status: ('A' for Active; 'I' for Inactive)
REMARK    1  A    between atoms: N1_1  and  C1_4 
REMARK    2  A    between atoms: N4_12  and  C5_13 
REMARK    3  A    between atoms: C5_13  and  C6_14 
REMARK       I    between atoms: C6_14  and  N5_16 
REMARK       I    between atoms: N5_16  and  C7_18 
REMARK    4  A    between atoms: C7_18  and  C8_20 
REMARK    5  A    between atoms: N6_24  and  C12_25 
REMARK    6  A    between atoms: C12_25  and  C13_26 
REMARK    7  A    between atoms: C13_26  and  C14_28 
REMARK    8  A    between atoms: C17_38  and  N10_39 
REMARK    9  A    between atoms: C19_41  and  O4_42 
REMARK   10  A    between atoms: C20_44  and  O5_45 
REMARK   11  A    between atoms: O5_45  and  S1_46 
REMARK   12  A    between atoms: S1_46  and  N11_47 
REMARK   13  A    between atoms: C21_52  and  O8_53 
ROOT
HETATM    1  C1  UNL     1      15.206  -5.134  -9.414  1.00  0.00     0.679 A 
HETATM    2  N2  UNL     1      15.115  -6.317  -8.797  1.00  0.00    -0.174 N 
ATOM      3  H2  UNL     1      14.452  -6.408  -8.027  1.00  0.00     0.186 HD
HETATM    4  C2  UNL     1      15.848  -7.391  -9.134  1.00  0.00     0.155 A 
HETATM    5  C3  UNL     1      16.747  -7.218 -10.196  1.00  0.00     0.124 A 
HETATM    6  N3  UNL     1      17.377  -8.392 -10.363  1.00  0.00    -0.346 N 
ATOM      7  H3  UNL     1      18.093  -8.595 -11.061  1.00  0.00     0.167 HD
HETATM    8  C4  UNL     1      16.898  -9.249  -9.451  1.00  0.00     0.185 A 
HETATM    9  N4  UNL     1      15.954  -8.652  -8.681  1.00  0.00    -0.318 N 
HETATM   10  C17 UNL     1      16.856  -6.007 -10.845  1.00  0.00     0.165 A 
HETATM   11  N13 UNL     1      16.082  -5.000 -10.434  1.00  0.00    -0.173 N 
ATOM     12  H13 UNL     1      16.155  -4.098 -10.906  1.00  0.00     0.186 HD
ENDROOT
BRANCH   9  13
HETATM   13  C5  UNL     1      15.214  -9.260  -7.576  1.00  0.00     0.234 C 
BRANCH  13  14
HETATM   14  C6  UNL     1      14.398 -10.392  -8.066  1.00  0.00     0.242 C 
HETATM   15  O1  UNL     1      13.307 -10.106  -8.665  1.00  0.00    -0.271 OA
HETATM   16  N5  UNL     1      14.738 -11.761  -7.921  1.00  0.00    -0.294 N 
HETATM   17  C7  UNL     1      15.883 -12.263  -7.267  1.00  0.00     0.258 C 
ATOM     18  H5  UNL     1      14.098 -12.445  -8.326  1.00  0.00     0.171 HD
HETATM   19  O2  UNL     1      16.685 -11.450  -6.790  1.00  0.00    -0.271 OA
BRANCH  17  20
HETATM   20  C8  UNL     1      16.069 -13.725  -7.179  1.00  0.00     0.315 C 
HETATM   21  C9  UNL     1      15.782 -14.219  -5.764  1.00  0.00     0.047 C 
HETATM   22  C10 UNL     1      16.838 -15.275  -5.484  1.00  0.00     0.033 C 
HETATM   23  C11 UNL     1      17.306 -15.577  -6.918  1.00  0.00     0.274 C 
HETATM   24  N6  UNL     1      17.394 -14.191  -7.426  1.00  0.00     0.109 N 
BRANCH  24  25
HETATM   25  C12 UNL     1      17.724 -14.215  -8.842  1.00  0.00     0.358 C 
BRANCH  25  26
HETATM   26  C13 UNL     1      19.158 -14.035  -9.055  1.00  0.00     0.205 C 
HETATM   27  O3  UNL     1      20.032 -14.724  -8.468  1.00  0.00    -0.289 OA
BRANCH  26  28
HETATM   28  C14 UNL     1      19.659 -13.026  -9.978  1.00  0.00     0.112 A 
HETATM   29  C15 UNL     1      19.139 -11.759 -10.128  1.00  0.00     0.140 A 
HETATM   30  N7  UNL     1      19.836 -11.083 -11.056  1.00  0.00    -0.200 N 
HETATM   31  C16 UNL     1      20.803 -11.918 -11.500  1.00  0.00     0.676 A 
ATOM     32  H7  UNL     1      19.669 -10.126 -11.368  1.00  0.00     0.183 HD
HETATM   33  N8  UNL     1      21.670 -11.607 -12.394  1.00  0.00    -0.234 N 
HETATM   34  N9  UNL     1      20.690 -13.085 -10.847  1.00  0.00    -0.187 N 
ATOM     35  H82 UNL     1      21.756 -10.720 -12.890  1.00  0.00     0.174 HD
ATOM     36  H81 UNL     1      22.399 -12.237 -12.728  1.00  0.00     0.174 HD
ATOM     37  H9  UNL     1      21.294 -13.895 -10.987  1.00  0.00     0.184 HD
ENDBRANCH  26  28
ENDBRANCH  25  26
ENDBRANCH  24  25
ENDBRANCH  17  20
ENDBRANCH  13  14
ENDBRANCH   9  13
BRANCH   1  38
HETATM   38  N1  UNL     1      14.490  -4.120  -9.080  1.00  0.00    -0.234 N 
ATOM     39  H12 UNL     1      13.692  -4.268  -8.462  1.00  0.00     0.174 HD
ATOM     40  H11 UNL     1      14.691  -3.174  -9.404  1.00  0.00     0.174 HD
ENDBRANCH   1  38
BRANCH  10  41
HETATM   41  N10 UNL     1      17.784  -5.854 -11.941  1.00  0.00    -0.273 N 
HETATM   42  C18 UNL     1      18.332  -7.008 -12.564  1.00  0.00     0.181 C 
HETATM   43  C19 UNL     1      18.587  -6.862 -14.039  1.00  0.00     0.172 C 
HETATM   44  C20 UNL     1      18.450  -5.454 -14.535  1.00  0.00     0.220 C 
HETATM   45  C21 UNL     1      19.022  -4.556 -13.434  1.00  0.00     0.264 C 
HETATM   46  N12 UNL     1      18.129  -4.563 -12.311  1.00  0.00    -0.102 NA
BRANCH  43  47
HETATM   47  O4  UNL     1      19.871  -7.361 -14.311  1.00  0.00    -0.391 OA
ATOM     48  H4  UNL     1      20.224  -6.881 -15.051  1.00  0.00     0.210 HD
ENDBRANCH  43  47
BRANCH  44  49
HETATM   49  O5  UNL     1      17.129  -5.092 -14.693  1.00  0.00    -0.247 OA
BRANCH  49  50
HETATM   50  S1  UNL     1      16.749  -4.475 -16.193  1.00  0.00     0.356 S 
HETATM   51  O6  UNL     1      15.728  -5.399 -16.805  1.00  0.00    -0.176 OA
HETATM   52  O7  UNL     1      16.042  -3.158 -15.971  1.00  0.00    -0.176 OA
BRANCH  50  53
HETATM   53  N11 UNL     1      18.068  -4.300 -17.243  1.00  0.00    -0.306 N 
ATOM     54 2H11 UNL     1      18.827  -3.647 -17.049  1.00  0.00     0.171 HD
ATOM     55 1H11 UNL     1      18.036  -4.895 -18.071  1.00  0.00     0.171 HD
ENDBRANCH  50  53
ENDBRANCH  49  50
ENDBRANCH  44  49
BRANCH  45  56
HETATM   56  O8  UNL     1      19.183  -3.283 -13.962  1.00  0.00    -0.375 OA
ATOM     57  H8  UNL     1      18.891  -2.657 -13.310  1.00  0.00     0.211 HD
ENDBRANCH  45  56
ENDBRANCH  10  41
TORSDOF 13
ENDMDL
MODEL 5
REMARK VINA RESULT: -8.592368615      5.637      9.151
REMARK  13 active torsions:
REMARK  status: ('A' for Active; 'I' for Inactive)
REMARK    1  A    between atoms: N1_1  and  C1_4 
REMARK    2  A    between atoms: N4_12  and  C5_13 
REMARK    3  A    between atoms: C5_13  and  C6_14 
REMARK       I    between atoms: C6_14  and  N5_16 
REMARK       I    between atoms: N5_16  and  C7_18 
REMARK    4  A    between atoms: C7_18  and  C8_20 
REMARK    5  A    between atoms: N6_24  and  C12_25 
REMARK    6  A    between atoms: C12_25  and  C13_26 
REMARK    7  A    between atoms: C13_26  and  C14_28 
REMARK    8  A    between atoms: C17_38  and  N10_39 
REMARK    9  A    between atoms: C19_41  and  O4_42 
REMARK   10  A    between atoms: C20_44  and  O5_45 
REMARK   11  A    between atoms: O5_45  and  S1_46 
REMARK   12  A    between atoms: S1_46  and  N11_47 
REMARK   13  A    between atoms: C21_52  and  O8_53 
ROOT
HETATM    1  C1  UNL     1      15.556  -4.485 -17.818  1.00  0.00     0.679 A 
HETATM    2  N2  UNL     1      16.201  -5.142 -16.848  1.00  0.00    -0.174 N 
ATOM      3  H2  UNL     1      15.742  -5.949 -16.425  1.00  0.00     0.186 HD
HETATM    4  C2  UNL     1      17.420  -4.797 -16.399  1.00  0.00     0.155 A 
HETATM    5  C3  UNL     1      18.012  -3.681 -17.007  1.00  0.00     0.124 A 
HETATM    6  N3  UNL     1      19.204  -3.505 -16.415  1.00  0.00    -0.346 N 
ATOM      7  H3  UNL     1      19.881  -2.774 -16.635  1.00  0.00     0.167 HD
HETATM    8  C4  UNL     1      19.345  -4.458 -15.485  1.00  0.00     0.185 A 
HETATM    9  N4  UNL     1      18.255  -5.268 -15.456  1.00  0.00    -0.318 N 
HETATM   10  C17 UNL     1      17.363  -2.991 -18.008  1.00  0.00     0.165 A 
HETATM   11  N13 UNL     1      16.154  -3.413 -18.385  1.00  0.00    -0.173 N 
ATOM     12  H13 UNL     1      15.664  -2.910 -19.124  1.00  0.00     0.186 HD
ENDROOT
BRANCH   9  13
HETATM   13  C5  UNL     1      18.037  -6.409 -14.570  1.00  0.00     0.234 C 
BRANCH  13  14
HETATM   14  C6  UNL     1      17.893  -5.953 -13.171  1.00  0.00     0.242 C 
HETATM   15  O1  UNL     1      17.708  -4.704 -12.983  1.00  0.00    -0.271 OA
HETATM   16  N5  UNL     1      17.944  -6.798 -12.033  1.00  0.00    -0.294 N 
HETATM   17  C7  UNL     1      18.167  -8.190 -12.046  1.00  0.00     0.258 C 
ATOM     18  H5  UNL     1      17.806  -6.358 -11.122  1.00  0.00     0.171 HD
HETATM   19  O2  UNL     1      18.311  -8.747 -13.143  1.00  0.00    -0.271 OA
BRANCH  17  20
HETATM   20  C8  UNL     1      18.221  -8.916 -10.761  1.00  0.00     0.315 C 
HETATM   21  C9  UNL     1      18.856 -10.291 -10.946  1.00  0.00     0.047 C 
HETATM   22  C10 UNL     1      18.045 -11.230 -10.069  1.00  0.00     0.033 C 
HETATM   23  C11 UNL     1      17.349 -10.210  -9.151  1.00  0.00     0.274 C 
HETATM   24  N6  UNL     1      16.957  -9.214 -10.172  1.00  0.00     0.109 N 
BRANCH  24  25
HETATM   25  C12 UNL     1      16.358  -8.062  -9.519  1.00  0.00     0.358 C 
BRANCH  25  26
HETATM   26  C13 UNL     1      15.231  -7.543 -10.290  1.00  0.00     0.205 C 
HETATM   27  O3  UNL     1      14.890  -8.008 -11.409  1.00  0.00    -0.289 OA
BRANCH  26  28
HETATM   28  C14 UNL     1      14.426  -6.436  -9.792  1.00  0.00     0.112 A 
HETATM   29  C15 UNL     1      14.926  -5.282  -9.227  1.00  0.00     0.140 A 
HETATM   30  N7  UNL     1      13.917  -4.467  -8.879  1.00  0.00    -0.200 N 
HETATM   31  C16 UNL     1      12.771  -5.097  -9.223  1.00  0.00     0.676 A 
ATOM     32  H7  UNL     1      13.999  -3.549  -8.440  1.00  0.00     0.183 HD
HETATM   33  N8  UNL     1      11.598  -4.609  -9.045  1.00  0.00    -0.234 N 
HETATM   34  N9  UNL     1      13.085  -6.281  -9.772  1.00  0.00    -0.187 N 
ATOM     35  H82 UNL     1      11.359  -3.709  -8.628  1.00  0.00     0.174 HD
ATOM     36  H81 UNL     1      10.734  -5.085  -9.305  1.00  0.00     0.174 HD
ATOM     37  H9  UNL     1      12.411  -6.963 -10.121  1.00  0.00     0.184 HD
ENDBRANCH  26  28
ENDBRANCH  25  26
ENDBRANCH  24  25
ENDBRANCH  17  20
ENDBRANCH  13  14
ENDBRANCH   9  13
BRANCH   1  38
HETATM   38  N1  UNL     1      14.394  -4.835 -18.238  1.00  0.00    -0.234 N 
ATOM     39  H12 UNL     1      14.001  -5.718 -17.910  1.00  0.00     0.174 HD
ATOM     40  H11 UNL     1      13.846  -4.264 -18.882  1.00  0.00     0.174 HD
ENDBRANCH   1  38
BRANCH  10  41
HETATM   41  N10 UNL     1      17.994  -1.847 -18.626  1.00  0.00    -0.273 N 
HETATM   42  C18 UNL     1      18.545  -1.969 -19.931  1.00  0.00     0.181 C 
HETATM   43  C19 UNL     1      18.443  -0.727 -20.773  1.00  0.00     0.172 C 
HETATM   44  C20 UNL     1      18.004   0.483 -20.005  1.00  0.00     0.220 C 
HETATM   45  C21 UNL     1      18.674   0.384 -18.631  1.00  0.00     0.264 C 
HETATM   46  N12 UNL     1      18.063  -0.678 -17.885  1.00  0.00    -0.102 NA
BRANCH  43  47
HETATM   47  O4  UNL     1      19.692  -0.505 -21.376  1.00  0.00    -0.391 OA
ATOM     48  H4  UNL     1      20.349  -0.469 -20.692  1.00  0.00     0.210 HD
ENDBRANCH  43  47
BRANCH  44  49
HETATM   49  O5  UNL     1      16.643   0.482 -19.781  1.00  0.00    -0.247 OA
BRANCH  49  50
HETATM   50  S1  UNL     1      15.847   1.843 -20.317  1.00  0.00     0.356 S 
HETATM   51  O6  UNL     1      15.776   1.750 -21.820  1.00  0.00    -0.176 OA
HETATM   52  O7  UNL     1      14.421   1.753 -19.825  1.00  0.00    -0.176 OA
BRANCH  50  53
HETATM   53  N11 UNL     1      16.566   3.311 -19.865  1.00  0.00    -0.306 N 
ATOM     54 2H11 UNL     1      17.193   3.817 -20.491  1.00  0.00     0.171 HD
ATOM     55 1H11 UNL     1      16.321   3.636 -18.930  1.00  0.00     0.171 HD
ENDBRANCH  50  53
ENDBRANCH  49  50
ENDBRANCH  44  49
BRANCH  45  56
HETATM   56  O8  UNL     1      18.534   1.612 -17.999  1.00  0.00    -0.375 OA
ATOM     57  H8  UNL     1      19.091   1.609 -17.229  1.00  0.00     0.211 HD
ENDBRANCH  45  56
ENDBRANCH  10  41
TORSDOF 13
ENDMDL
