MODEL 1
REMARK VINA RESULT: -9.069715260      0.000      0.000
REMARK  12 active torsions:
REMARK  status: ('A' for Active; 'I' for Inactive)
REMARK    1  A    between atoms: C3_8  and  O1_9 
REMARK    2  A    between atoms: C3_8  and  C4_11 
REMARK    3  A    between atoms: C4_11  and  O2_12 
REMARK    4  A    between atoms: O2_12  and  S1_13 
REMARK    5  A    between atoms: S1_13  and  N3_16 
REMARK    6  A    between atoms: N3_16  and  C5_18 
REMARK    7  A    between atoms: C5_18  and  N4_19 
REMARK    8  A    between atoms: C10_26  and  C11_27 
REMARK    9  A    between atoms: C15_35  and  O6_36 
REMARK   10  A    between atoms: C16_38  and  C17_39 
REMARK   11  A    between atoms: C19_44  and  C20_46 
REMARK   12  A    between atoms: C22_50  and  O11_51 
ROOT
HETATM    1  N1  UNL     1      16.555  -6.495 -16.198  1.00  0.00    -0.365 N 
ATOM      2  H11 UNL     1      16.816  -6.612 -17.177  1.00  0.00     0.159 HD
ATOM      3  H12 UNL     1      15.578  -6.779 -16.129  1.00  0.00     0.159 HD
HETATM    4  C1  UNL     1      17.264  -6.076 -15.193  1.00  0.00     0.216 C 
HETATM    5  N2  UNL     1      16.902  -5.913 -13.836  1.00  0.00    -0.343 N 
ATOM      6  H2  UNL     1      15.985  -6.130 -13.447  1.00  0.00     0.163 HD
HETATM    7  C2  UNL     1      18.019  -5.396 -13.080  1.00  0.00     0.189 C 
HETATM    8  C3  UNL     1      18.666  -6.562 -12.372  1.00  0.00     0.124 C 
HETATM    9  C13 UNL     1      20.044  -6.303 -11.993  1.00  0.00     0.021 C 
HETATM   10  C14 UNL     1      20.837  -5.483 -12.664  1.00  0.00    -0.037 C 
HETATM   11  C15 UNL     1      22.265  -5.298 -12.161  1.00  0.00     0.167 C 
HETATM   12  C16 UNL     1      23.006  -4.443 -13.146  1.00  0.00     0.181 C 
HETATM   13  C18 UNL     1      22.224  -3.206 -13.433  1.00  0.00     0.193 C 
HETATM   14  O8  UNL     1      22.638  -2.098 -13.238  1.00  0.00    -0.293 OA
HETATM   15  C19 UNL     1      20.843  -3.355 -13.994  1.00  0.00     0.263 C 
HETATM   16  F1  UNL     1      20.069  -2.471 -13.246  1.00  0.00    -0.222 F 
HETATM   17  C21 UNL     1      20.355  -4.787 -13.860  1.00  0.00     0.141 C 
HETATM   18  C22 UNL     1      18.909  -4.851 -14.162  1.00  0.00     0.206 C 
HETATM   19  O12 UNL     1      18.606  -5.686 -15.288  1.00  0.00    -0.281 OA
ENDROOT
BRANCH   8  20
HETATM   20  O1  UNL     1      18.638  -7.680 -13.237  1.00  0.00    -0.381 OA
ATOM     21  H1  UNL     1      18.874  -7.390 -14.110  1.00  0.00     0.211 HD
ENDBRANCH   8  20
BRANCH   8  22
HETATM   22  C4  UNL     1      17.887  -6.983 -11.145  1.00  0.00     0.236 C 
BRANCH  22  23
HETATM   23  O2  UNL     1      17.008  -7.962 -11.560  1.00  0.00    -0.256 OA
BRANCH  23  24
HETATM   24  S1  UNL     1      15.405  -7.603 -11.390  1.00  0.00     0.359 S 
HETATM   25  O3  UNL     1      14.675  -7.960 -12.651  1.00  0.00    -0.176 OA
HETATM   26  O4  UNL     1      15.320  -6.102 -11.144  1.00  0.00    -0.176 OA
BRANCH  24  27
HETATM   27  N3  UNL     1      14.707  -8.395 -10.057  1.00  0.00    -0.280 N 
ATOM     28  H3  UNL     1      13.784  -8.828 -10.096  1.00  0.00     0.176 HD
BRANCH  27  29
HETATM   29  C5  UNL     1      15.518  -8.408  -8.871  1.00  0.00     0.268 C 
BRANCH  29  30
HETATM   30  N4  UNL     1      15.877  -9.747  -8.460  1.00  0.00    -0.310 N 
HETATM   31  C6  UNL     1      15.260 -10.422  -7.479  1.00  0.00     0.186 A 
HETATM   32  N5  UNL     1      15.861 -11.613  -7.384  1.00  0.00    -0.349 N 
HETATM   33  C7  UNL     1      16.846 -11.683  -8.295  1.00  0.00     0.078 A 
ATOM     34  H5  UNL     1      15.612 -12.350  -6.725  1.00  0.00     0.166 HD
HETATM   35  C8  UNL     1      17.772 -12.640  -8.647  1.00  0.00     0.036 A 
HETATM   36  C12 UNL     1      16.872 -10.486  -9.001  1.00  0.00     0.137 A 
HETATM   37  C9  UNL     1      18.686 -12.415  -9.657  1.00  0.00     0.037 A 
HETATM   38  C10 UNL     1      18.690 -11.220 -10.341  1.00  0.00     0.099 A 
HETATM   39  N7  UNL     1      17.775 -10.299  -9.980  1.00  0.00    -0.336 N 
ATOM     40  H7  UNL     1      17.767  -9.409 -10.478  1.00  0.00     0.168 HD
BRANCH  38  41
HETATM   41  C11 UNL     1      19.656 -10.979 -11.410  1.00  0.00     0.281 C 
HETATM   42  N6  UNL     1      20.092 -11.998 -12.291  1.00  0.00    -0.056 NA
HETATM   43  O5  UNL     1      20.121  -9.824 -11.559  1.00  0.00    -0.269 OA
ENDBRANCH  38  41
ENDBRANCH  29  30
ENDBRANCH  27  29
ENDBRANCH  24  27
ENDBRANCH  23  24
ENDBRANCH  22  23
ENDBRANCH   8  22
BRANCH  18  44
HETATM   44  O11 UNL     1      18.393  -3.598 -14.491  1.00  0.00    -0.363 OA
ATOM     45  H11 UNL     1      18.755  -2.989 -13.858  1.00  0.00     0.213 HD
ENDBRANCH  18  44
BRANCH  11  46
HETATM   46  O6  UNL     1      22.130  -4.684 -10.918  1.00  0.00    -0.390 OA
ATOM     47  H6  UNL     1      22.009  -5.399 -10.304  1.00  0.00     0.210 HD
ENDBRANCH  11  46
BRANCH  15  48
HETATM   48  C20 UNL     1      20.841  -3.002 -15.432  1.00  0.00     0.223 C 
HETATM   49  O9  UNL     1      20.331  -1.926 -15.799  1.00  0.00    -0.645 OA
HETATM   50  O10 UNL     1      21.392  -3.835 -16.397  1.00  0.00    -0.645 OA
ENDBRANCH  15  48
BRANCH  12  51
HETATM   51  C17 UNL     1      24.375  -4.154 -12.728  1.00  0.00     0.245 C 
HETATM   52  N8  UNL     1      24.757  -3.870 -11.385  1.00  0.00    -0.061 NA
HETATM   53  O7  UNL     1      25.307  -4.146 -13.578  1.00  0.00    -0.276 OA
ENDBRANCH  12  51
TORSDOF 12
ENDMDL
MODEL 2
REMARK VINA RESULT: -8.997964885      1.211      1.416
REMARK  12 active torsions:
REMARK  status: ('A' for Active; 'I' for Inactive)
REMARK    1  A    between atoms: C3_8  and  O1_9 
REMARK    2  A    between atoms: C3_8  and  C4_11 
REMARK    3  A    between atoms: C4_11  and  O2_12 
REMARK    4  A    between atoms: O2_12  and  S1_13 
REMARK    5  A    between atoms: S1_13  and  N3_16 
REMARK    6  A    between atoms: N3_16  and  C5_18 
REMARK    7  A    between atoms: C5_18  and  N4_19 
REMARK    8  A    between atoms: C10_26  and  C11_27 
REMARK    9  A    between atoms: C15_35  and  O6_36 
REMARK   10  A    between atoms: C16_38  and  C17_39 
REMARK   11  A    between atoms: C19_44  and  C20_46 
REMARK   12  A    between atoms: C22_50  and  O11_51 
ROOT
HETATM    1  N1  UNL     1      16.227  -8.296 -15.709  1.00  0.00    -0.365 N 
ATOM      2  H11 UNL     1      16.653  -8.564 -16.596  1.00  0.00     0.159 HD
ATOM      3  H12 UNL     1      15.326  -8.773 -15.671  1.00  0.00     0.159 HD
HETATM    4  C1  UNL     1      16.678  -7.518 -14.771  1.00  0.00     0.216 C 
HETATM    5  N2  UNL     1      16.088  -7.147 -13.541  1.00  0.00    -0.343 N 
ATOM      6  H2  UNL     1      15.182  -7.475 -13.206  1.00  0.00     0.163 HD
HETATM    7  C2  UNL     1      16.953  -6.237 -12.827  1.00  0.00     0.189 C 
HETATM    8  C3  UNL     1      17.700  -7.042 -11.790  1.00  0.00     0.124 C 
HETATM    9  C13 UNL     1      18.925  -6.401 -11.348  1.00  0.00     0.021 C 
HETATM   10  C14 UNL     1      19.636  -5.590 -12.117  1.00  0.00    -0.037 C 
HETATM   11  C15 UNL     1      20.905  -4.980 -11.532  1.00  0.00     0.167 C 
HETATM   12  C16 UNL     1      21.606  -4.217 -12.617  1.00  0.00     0.181 C 
HETATM   13  C18 UNL     1      20.650  -3.284 -13.279  1.00  0.00     0.193 C 
HETATM   14  O8  UNL     1      20.805  -2.095 -13.323  1.00  0.00    -0.293 OA
HETATM   15  C19 UNL     1      19.428  -3.861 -13.923  1.00  0.00     0.263 C 
HETATM   16  F1  UNL     1      18.391  -3.034 -13.501  1.00  0.00    -0.222 F 
HETATM   17  C21 UNL     1      19.216  -5.301 -13.490  1.00  0.00     0.141 C 
HETATM   18  C22 UNL     1      17.873  -5.756 -13.913  1.00  0.00     0.206 C 
HETATM   19  O12 UNL     1      17.916  -6.864 -14.822  1.00  0.00    -0.281 OA
ENDROOT
BRANCH   8  20
HETATM   20  O1  UNL     1      18.024  -8.299 -12.349  1.00  0.00    -0.381 OA
ATOM     21  H1  UNL     1      18.283  -8.166 -13.254  1.00  0.00     0.211 HD
ENDBRANCH   8  20
BRANCH   8  22
HETATM   22  C4  UNL     1      16.840  -7.348 -10.582  1.00  0.00     0.236 C 
BRANCH  22  23
HETATM   23  O2  UNL     1      15.701  -6.580 -10.712  1.00  0.00    -0.256 OA
BRANCH  23  24
HETATM   24  S1  UNL     1      14.270  -7.396 -10.592  1.00  0.00     0.359 S 
HETATM   25  O3  UNL     1      13.876  -7.915 -11.944  1.00  0.00    -0.176 OA
HETATM   26  O4  UNL     1      13.238  -6.391 -10.097  1.00  0.00    -0.176 OA
BRANCH  24  27
HETATM   27  N3  UNL     1      14.348  -8.669  -9.468  1.00  0.00    -0.280 N 
ATOM     28  H3  UNL     1      13.591  -9.343  -9.347  1.00  0.00     0.176 HD
BRANCH  27  29
HETATM   29  C5  UNL     1      15.562  -8.724  -8.703  1.00  0.00     0.268 C 
BRANCH  29  30
HETATM   30  N4  UNL     1      15.930 -10.075  -8.342  1.00  0.00    -0.310 N 
HETATM   31  C6  UNL     1      15.317 -10.791  -7.388  1.00  0.00     0.186 A 
HETATM   32  N5  UNL     1      15.926 -11.980  -7.339  1.00  0.00    -0.349 N 
HETATM   33  C7  UNL     1      16.911 -12.010  -8.251  1.00  0.00     0.078 A 
ATOM     34  H5  UNL     1      15.682 -12.744  -6.708  1.00  0.00     0.166 HD
HETATM   35  C8  UNL     1      17.843 -12.947  -8.640  1.00  0.00     0.036 A 
HETATM   36  C12 UNL     1      16.930 -10.787  -8.911  1.00  0.00     0.137 A 
HETATM   37  C9  UNL     1      18.756 -12.678  -9.641  1.00  0.00     0.037 A 
HETATM   38  C10 UNL     1      18.752 -11.458 -10.279  1.00  0.00     0.099 A 
HETATM   39  N7  UNL     1      17.831 -10.557  -9.883  1.00  0.00    -0.336 N 
ATOM     40  H7  UNL     1      17.817  -9.649 -10.347  1.00  0.00     0.168 HD
BRANCH  38  41
HETATM   41  C11 UNL     1      19.715 -11.169 -11.338  1.00  0.00     0.281 C 
HETATM   42  N6  UNL     1      20.101 -12.131 -12.303  1.00  0.00    -0.056 NA
HETATM   43  O5  UNL     1      20.225 -10.025 -11.401  1.00  0.00    -0.269 OA
ENDBRANCH  38  41
ENDBRANCH  29  30
ENDBRANCH  27  29
ENDBRANCH  24  27
ENDBRANCH  23  24
ENDBRANCH  22  23
ENDBRANCH   8  22
BRANCH  18  44
HETATM   44  O11 UNL     1      17.179  -4.756 -14.593  1.00  0.00    -0.363 OA
ATOM     45  H11 UNL     1      16.265  -4.863 -14.356  1.00  0.00     0.213 HD
ENDBRANCH  18  44
BRANCH  11  46
HETATM   46  O6  UNL     1      20.464  -4.155 -10.499  1.00  0.00    -0.390 OA
ATOM     47  H6  UNL     1      21.187  -4.126  -9.884  1.00  0.00     0.210 HD
ENDBRANCH  11  46
BRANCH  15  48
HETATM   48  C20 UNL     1      19.577  -3.843 -15.397  1.00  0.00     0.223 C 
HETATM   49  O9  UNL     1      20.555  -4.410 -15.922  1.00  0.00    -0.645 OA
HETATM   50  O10 UNL     1      18.658  -3.210 -16.223  1.00  0.00    -0.645 OA
ENDBRANCH  15  48
BRANCH  12  51
HETATM   51  C17 UNL     1      22.812  -3.541 -12.145  1.00  0.00     0.245 C 
HETATM   52  N8  UNL     1      22.908  -2.856 -10.899  1.00  0.00    -0.061 NA
HETATM   53  O7  UNL     1      23.854  -3.540 -12.855  1.00  0.00    -0.276 OA
ENDBRANCH  12  51
TORSDOF 12
ENDMDL
MODEL 3
REMARK VINA RESULT: -8.873774894      4.083      8.817
REMARK  12 active torsions:
REMARK  status: ('A' for Active; 'I' for Inactive)
REMARK    1  A    between atoms: C3_8  and  O1_9 
REMARK    2  A    between atoms: C3_8  and  C4_11 
REMARK    3  A    between atoms: C4_11  and  O2_12 
REMARK    4  A    between atoms: O2_12  and  S1_13 
REMARK    5  A    between atoms: S1_13  and  N3_16 
REMARK    6  A    between atoms: N3_16  and  C5_18 
REMARK    7  A    between atoms: C5_18  and  N4_19 
REMARK    8  A    between atoms: C10_26  and  C11_27 
REMARK    9  A    between atoms: C15_35  and  O6_36 
REMARK   10  A    between atoms: C16_38  and  C17_39 
REMARK   11  A    between atoms: C19_44  and  C20_46 
REMARK   12  A    between atoms: C22_50  and  O11_51 
ROOT
HETATM    1  N1  UNL     1      20.804  -5.675 -15.171  1.00  0.00    -0.365 N 
ATOM      2  H11 UNL     1      20.332  -5.740 -16.072  1.00  0.00     0.159 HD
ATOM      3  H12 UNL     1      21.799  -5.587 -15.378  1.00  0.00     0.159 HD
HETATM    4  C1  UNL     1      20.310  -5.692 -13.970  1.00  0.00     0.216 C 
HETATM    5  N2  UNL     1      20.966  -5.601 -12.721  1.00  0.00    -0.343 N 
ATOM      6  H2  UNL     1      21.972  -5.491 -12.596  1.00  0.00     0.163 HD
HETATM    7  C2  UNL     1      20.005  -5.687 -11.645  1.00  0.00     0.189 C 
HETATM    8  C3  UNL     1      19.727  -4.280 -11.172  1.00  0.00     0.124 C 
HETATM    9  C13 UNL     1      18.462  -4.156 -10.470  1.00  0.00     0.021 C 
HETATM   10  C14 UNL     1      17.418  -4.932 -10.719  1.00  0.00    -0.037 C 
HETATM   11  C15 UNL     1      16.146  -4.698  -9.911  1.00  0.00     0.167 C 
HETATM   12  C16 UNL     1      15.070  -5.592 -10.455  1.00  0.00     0.181 C 
HETATM   13  C18 UNL     1      15.570  -6.994 -10.539  1.00  0.00     0.193 C 
HETATM   14  O8  UNL     1      15.059  -7.916  -9.968  1.00  0.00    -0.293 OA
HETATM   15  C19 UNL     1      16.777  -7.266 -11.382  1.00  0.00     0.263 C 
HETATM   16  F1  UNL     1      17.574  -8.088 -10.589  1.00  0.00    -0.222 F 
HETATM   17  C21 UNL     1      17.486  -5.972 -11.747  1.00  0.00     0.141 C 
HETATM   18  C22 UNL     1      18.808  -6.278 -12.336  1.00  0.00     0.206 C 
HETATM   19  O12 UNL     1      18.944  -5.811 -13.685  1.00  0.00    -0.281 OA
ENDROOT
BRANCH   8  20
HETATM   20  O1  UNL     1      19.704  -3.427 -12.299  1.00  0.00    -0.381 OA
ATOM     21  H1  UNL     1      20.371  -3.719 -12.909  1.00  0.00     0.211 HD
ENDBRANCH   8  20
BRANCH   8  22
HETATM   22  C4  UNL     1      20.836  -3.750 -10.288  1.00  0.00     0.236 C 
BRANCH  22  23
HETATM   23  O2  UNL     1      21.212  -2.536 -10.824  1.00  0.00    -0.256 OA
BRANCH  23  24
HETATM   24  S1  UNL     1      21.968  -1.499  -9.784  1.00  0.00     0.359 S 
HETATM   25  O3  UNL     1      20.948  -0.848  -8.896  1.00  0.00    -0.176 OA
HETATM   26  O4  UNL     1      22.657  -0.448 -10.645  1.00  0.00    -0.176 OA
BRANCH  24  27
HETATM   27  N3  UNL     1      23.156  -2.277  -8.850  1.00  0.00    -0.280 N 
ATOM     28  H3  UNL     1      22.974  -2.627  -7.909  1.00  0.00     0.176 HD
BRANCH  27  29
HETATM   29  C5  UNL     1      24.436  -2.404  -9.488  1.00  0.00     0.268 C 
BRANCH  29  30
HETATM   30  N4  UNL     1      24.963  -3.749  -9.413  1.00  0.00    -0.310 N 
HETATM   31  C6  UNL     1      24.476  -4.786 -10.112  1.00  0.00     0.186 A 
HETATM   32  N5  UNL     1      25.209  -5.856  -9.786  1.00  0.00    -0.349 N 
HETATM   33  C7  UNL     1      26.144  -5.495  -8.892  1.00  0.00     0.078 A 
ATOM     34  H5  UNL     1      25.078  -6.797 -10.156  1.00  0.00     0.166 HD
HETATM   35  C8  UNL     1      27.149  -6.156  -8.222  1.00  0.00     0.036 A 
HETATM   36  C12 UNL     1      26.001  -4.136  -8.638  1.00  0.00     0.137 A 
HETATM   37  C9  UNL     1      27.976  -5.494  -7.336  1.00  0.00     0.037 A 
HETATM   38  C10 UNL     1      27.814  -4.147  -7.103  1.00  0.00     0.099 A 
HETATM   39  N7  UNL     1      26.824  -3.521  -7.770  1.00  0.00    -0.336 N 
ATOM     40  H7  UNL     1      26.693  -2.522  -7.608  1.00  0.00     0.168 HD
BRANCH  38  41
HETATM   41  C11 UNL     1      28.687  -3.444  -6.168  1.00  0.00     0.281 C 
HETATM   42  N6  UNL     1      30.099  -3.493  -6.255  1.00  0.00    -0.056 NA
HETATM   43  O5  UNL     1      28.171  -2.766  -5.246  1.00  0.00    -0.269 OA
ENDBRANCH  38  41
ENDBRANCH  29  30
ENDBRANCH  27  29
ENDBRANCH  24  27
ENDBRANCH  23  24
ENDBRANCH  22  23
ENDBRANCH   8  22
BRANCH  18  44
HETATM   44  O11 UNL     1      19.040  -7.651 -12.403  1.00  0.00    -0.363 OA
ATOM     45  H11 UNL     1      19.540  -7.795 -13.197  1.00  0.00     0.213 HD
ENDBRANCH  18  44
BRANCH  11  46
HETATM   46  O6  UNL     1      16.490  -5.017  -8.599  1.00  0.00    -0.390 OA
ATOM     47  H6  UNL     1      15.931  -4.470  -8.059  1.00  0.00     0.210 HD
ENDBRANCH  11  46
BRANCH  15  48
HETATM   48  C20 UNL     1      16.376  -7.939 -12.638  1.00  0.00     0.223 C 
HETATM   49  O9  UNL     1      16.531  -9.171 -12.750  1.00  0.00    -0.645 OA
HETATM   50  O10 UNL     1      15.829  -7.243 -13.707  1.00  0.00    -0.645 OA
ENDBRANCH  15  48
BRANCH  12  51
HETATM   51  C17 UNL     1      13.818  -5.488  -9.710  1.00  0.00     0.245 C 
HETATM   52  N8  UNL     1      13.644  -4.681  -8.548  1.00  0.00    -0.061 NA
HETATM   53  O7  UNL     1      12.804  -6.137 -10.086  1.00  0.00    -0.276 OA
ENDBRANCH  12  51
TORSDOF 12
ENDMDL
MODEL 4
REMARK VINA RESULT: -8.848824109      2.340      3.292
REMARK  12 active torsions:
REMARK  status: ('A' for Active; 'I' for Inactive)
REMARK    1  A    between atoms: C3_8  and  O1_9 
REMARK    2  A    between atoms: C3_8  and  C4_11 
REMARK    3  A    between atoms: C4_11  and  O2_12 
REMARK    4  A    between atoms: O2_12  and  S1_13 
REMARK    5  A    between atoms: S1_13  and  N3_16 
REMARK    6  A    between atoms: N3_16  and  C5_18 
REMARK    7  A    between atoms: C5_18  and  N4_19 
REMARK    8  A    between atoms: C10_26  and  C11_27 
REMARK    9  A    between atoms: C15_35  and  O6_36 
REMARK   10  A    between atoms: C16_38  and  C17_39 
REMARK   11  A    between atoms: C19_44  and  C20_46 
REMARK   12  A    between atoms: C22_50  and  O11_51 
ROOT
HETATM    1  N1  UNL     1      15.781  -8.309 -15.968  1.00  0.00    -0.365 N 
ATOM      2  H11 UNL     1      16.065  -8.423 -16.940  1.00  0.00     0.159 HD
ATOM      3  H12 UNL     1      14.892  -8.799 -15.872  1.00  0.00     0.159 HD
HETATM    4  C1  UNL     1      16.376  -7.684 -14.996  1.00  0.00     0.216 C 
HETATM    5  N2  UNL     1      15.983  -7.525 -13.648  1.00  0.00    -0.343 N 
ATOM      6  H2  UNL     1      15.135  -7.917 -13.237  1.00  0.00     0.163 HD
HETATM    7  C2  UNL     1      16.954  -6.728 -12.935  1.00  0.00     0.189 C 
HETATM    8  C3  UNL     1      17.842  -7.677 -12.166  1.00  0.00     0.124 C 
HETATM    9  C13 UNL     1      19.126  -7.096 -11.816  1.00  0.00     0.021 C 
HETATM   10  C14 UNL     1      19.719  -6.161 -12.543  1.00  0.00    -0.037 C 
HETATM   11  C15 UNL     1      21.068  -5.634 -12.066  1.00  0.00     0.167 C 
HETATM   12  C16 UNL     1      21.603  -4.695 -13.108  1.00  0.00     0.181 C 
HETATM   13  C18 UNL     1      20.567  -3.683 -13.458  1.00  0.00     0.193 C 
HETATM   14  O8  UNL     1      20.723  -2.501 -13.333  1.00  0.00    -0.293 OA
HETATM   15  C19 UNL     1      19.256  -4.168 -13.996  1.00  0.00     0.263 C 
HETATM   16  F1  UNL     1      18.302  -3.436 -13.294  1.00  0.00    -0.222 F 
HETATM   17  C21 UNL     1      19.098  -5.663 -13.773  1.00  0.00     0.141 C 
HETATM   18  C22 UNL     1      17.703  -6.064 -14.056  1.00  0.00     0.206 C 
HETATM   19  O12 UNL     1      17.598  -7.011 -15.128  1.00  0.00    -0.281 OA
ENDROOT
BRANCH   8  20
HETATM   20  O1  UNL     1      18.067  -8.823 -12.963  1.00  0.00    -0.381 OA
ATOM     21  H1  UNL     1      18.946  -8.772 -13.320  1.00  0.00     0.211 HD
ENDBRANCH   8  20
BRANCH   8  22
HETATM   22  C4  UNL     1      17.172  -8.187 -10.908  1.00  0.00     0.236 C 
BRANCH  22  23
HETATM   23  O2  UNL     1      15.813  -8.096 -11.128  1.00  0.00    -0.256 OA
BRANCH  23  24
HETATM   24  S1  UNL     1      14.885  -7.864  -9.782  1.00  0.00     0.359 S 
HETATM   25  O3  UNL     1      13.592  -7.208 -10.173  1.00  0.00    -0.176 OA
HETATM   26  O4  UNL     1      15.678  -6.947  -8.860  1.00  0.00    -0.176 OA
BRANCH  24  27
HETATM   27  N3  UNL     1      14.584  -9.316  -8.950  1.00  0.00    -0.280 N 
ATOM     28  H3  UNL     1      13.801  -9.929  -9.179  1.00  0.00     0.176 HD
BRANCH  27  29
HETATM   29  C5  UNL     1      15.517  -9.613  -7.900  1.00  0.00     0.268 C 
BRANCH  29  30
HETATM   30  N4  UNL     1      16.338 -10.766  -8.197  1.00  0.00    -0.310 N 
HETATM   31  C6  UNL     1      17.351 -10.760  -9.076  1.00  0.00     0.186 A 
HETATM   32  N5  UNL     1      17.870 -11.993  -9.083  1.00  0.00    -0.349 N 
HETATM   33  C7  UNL     1      17.189 -12.764  -8.220  1.00  0.00     0.078 A 
ATOM     34  H5  UNL     1      18.657 -12.300  -9.654  1.00  0.00     0.166 HD
HETATM   35  C8  UNL     1      17.273 -14.080  -7.822  1.00  0.00     0.036 A 
HETATM   36  C12 UNL     1      16.194 -11.988  -7.636  1.00  0.00     0.137 A 
HETATM   37  C9  UNL     1      16.404 -14.602  -6.885  1.00  0.00     0.037 A 
HETATM   38  C10 UNL     1      15.427 -13.812  -6.322  1.00  0.00     0.099 A 
HETATM   39  N7  UNL     1      15.364 -12.528  -6.725  1.00  0.00    -0.336 N 
ATOM     40  H7  UNL     1      14.646 -11.931  -6.316  1.00  0.00     0.168 HD
BRANCH  38  41
HETATM   41  C11 UNL     1      14.507 -14.361  -5.329  1.00  0.00     0.281 C 
HETATM   42  N6  UNL     1      13.897 -15.631  -5.472  1.00  0.00    -0.056 NA
HETATM   43  O5  UNL     1      14.241 -13.684  -4.307  1.00  0.00    -0.269 OA
ENDBRANCH  38  41
ENDBRANCH  29  30
ENDBRANCH  27  29
ENDBRANCH  24  27
ENDBRANCH  23  24
ENDBRANCH  22  23
ENDBRANCH   8  22
BRANCH  18  44
HETATM   44  O11 UNL     1      16.923  -4.979 -14.453  1.00  0.00    -0.363 OA
ATOM     45  H11 UNL     1      17.168  -4.794 -15.351  1.00  0.00     0.213 HD
ENDBRANCH  18  44
BRANCH  11  46
HETATM   46  O6  UNL     1      20.796  -4.992 -10.860  1.00  0.00    -0.390 OA
ATOM     47  H6  UNL     1      21.397  -5.381 -10.235  1.00  0.00     0.210 HD
ENDBRANCH  11  46
BRANCH  15  48
HETATM   48  C20 UNL     1      19.180  -3.911 -15.452  1.00  0.00     0.223 C 
HETATM   49  O9  UNL     1      20.164  -4.169 -16.173  1.00  0.00    -0.645 OA
HETATM   50  O10 UNL     1      18.041  -3.389 -16.051  1.00  0.00    -0.645 OA
ENDBRANCH  15  48
BRANCH  12  51
HETATM   51  C17 UNL     1      22.873  -4.085 -12.721  1.00  0.00     0.245 C 
HETATM   52  N8  UNL     1      23.192  -3.680 -11.392  1.00  0.00    -0.061 NA
HETATM   53  O7  UNL     1      23.768  -3.887 -13.586  1.00  0.00    -0.276 OA
ENDBRANCH  12  51
TORSDOF 12
ENDMDL
MODEL 5
REMARK VINA RESULT: -8.789850531      1.531      1.842
REMARK  12 active torsions:
REMARK  status: ('A' for Active; 'I' for Inactive)
REMARK    1  A    between atoms: C3_8  and  O1_9 
REMARK    2  A    between atoms: C3_8  and  C4_11 
REMARK    3  A    between atoms: C4_11  and  O2_12 
REMARK    4  A    between atoms: O2_12  and  S1_13 
REMARK    5  A    between atoms: S1_13  and  N3_16 
REMARK    6  A    between atoms: N3_16  and  C5_18 
REMARK    7  A    between atoms: C5_18  and  N4_19 
REMARK    8  A    between atoms: C10_26  and  C11_27 
REMARK    9  A    between atoms: C15_35  and  O6_36 
REMARK   10  A    between atoms: C16_38  and  C17_39 
REMARK   11  A    between atoms: C19_44  and  C20_46 
REMARK   12  A    between atoms: C22_50  and  O11_51 
ROOT
HETATM    1  N1  UNL     1      15.823  -8.280 -16.187  1.00  0.00    -0.365 N 
ATOM      2  H11 UNL     1      16.153  -8.386 -17.145  1.00  0.00     0.159 HD
ATOM      3  H12 UNL     1      14.926  -8.765 -16.139  1.00  0.00     0.159 HD
HETATM    4  C1  UNL     1      16.374  -7.670 -15.181  1.00  0.00     0.216 C 
HETATM    5  N2  UNL     1      15.917  -7.522 -13.851  1.00  0.00    -0.343 N 
ATOM      6  H2  UNL     1      15.047  -7.911 -13.486  1.00  0.00     0.163 HD
HETATM    7  C2  UNL     1      16.857  -6.739 -13.084  1.00  0.00     0.189 C 
HETATM    8  C3  UNL     1      17.701  -7.702 -12.283  1.00  0.00     0.124 C 
HETATM    9  C13 UNL     1      18.970  -7.134 -11.865  1.00  0.00     0.021 C 
HETATM   10  C14 UNL     1      19.604  -6.197 -12.553  1.00  0.00    -0.037 C 
HETATM   11  C15 UNL     1      20.932  -5.684 -12.005  1.00  0.00     0.167 C 
HETATM   12  C16 UNL     1      21.523  -4.738 -13.009  1.00  0.00     0.181 C 
HETATM   13  C18 UNL     1      20.512  -3.715 -13.399  1.00  0.00     0.193 C 
HETATM   14  O8  UNL     1      20.670  -2.535 -13.254  1.00  0.00    -0.293 OA
HETATM   15  C19 UNL     1      19.225  -4.185 -14.004  1.00  0.00     0.263 C 
HETATM   16  F1  UNL     1      18.243  -3.453 -13.341  1.00  0.00    -0.222 F 
HETATM   17  C21 UNL     1      19.047  -5.681 -13.805  1.00  0.00     0.141 C 
HETATM   18  C22 UNL     1      17.665  -6.069 -14.160  1.00  0.00     0.206 C 
HETATM   19  O12 UNL     1      17.605  -7.004 -15.246  1.00  0.00    -0.281 OA
ENDROOT
BRANCH   8  20
HETATM   20  O1  UNL     1      17.956  -8.842 -13.080  1.00  0.00    -0.381 OA
ATOM     21  H1  UNL     1      18.873  -9.074 -12.986  1.00  0.00     0.211 HD
ENDBRANCH   8  20
BRANCH   8  22
HETATM   22  C4  UNL     1      16.967  -8.220 -11.064  1.00  0.00     0.236 C 
BRANCH  22  23
HETATM   23  O2  UNL     1      15.632  -7.941 -11.268  1.00  0.00    -0.256 OA
BRANCH  23  24
HETATM   24  S1  UNL     1      14.744  -7.659  -9.904  1.00  0.00     0.359 S 
HETATM   25  O3  UNL     1      13.487  -6.924 -10.268  1.00  0.00    -0.176 OA
HETATM   26  O4  UNL     1      15.609  -6.796  -8.994  1.00  0.00    -0.176 OA
BRANCH  24  27
HETATM   27  N3  UNL     1      14.372  -9.093  -9.071  1.00  0.00    -0.280 N 
ATOM     28  H3  UNL     1      13.584  -9.689  -9.327  1.00  0.00     0.176 HD
BRANCH  27  29
HETATM   29  C5  UNL     1      15.251  -9.402  -7.979  1.00  0.00     0.268 C 
BRANCH  29  30
HETATM   30  N4  UNL     1      15.424 -10.825  -7.790  1.00  0.00    -0.310 N 
HETATM   31  C6  UNL     1      14.623 -11.584  -7.027  1.00  0.00     0.186 A 
HETATM   32  N5  UNL     1      15.089 -12.836  -7.094  1.00  0.00    -0.349 N 
HETATM   33  C7  UNL     1      16.171 -12.861  -7.890  1.00  0.00     0.078 A 
ATOM     34  H5  UNL     1      14.688 -13.642  -6.616  1.00  0.00     0.166 HD
HETATM   35  C8  UNL     1      17.037 -13.845  -8.314  1.00  0.00     0.036 A 
HETATM   36  C12 UNL     1      16.403 -11.571  -8.351  1.00  0.00     0.137 A 
HETATM   37  C9  UNL     1      18.090 -13.556  -9.160  1.00  0.00     0.037 A 
HETATM   38  C10 UNL     1      18.298 -12.269  -9.601  1.00  0.00     0.099 A 
HETATM   39  N7  UNL     1      17.437 -11.323  -9.174  1.00  0.00    -0.336 N 
ATOM     40  H7  UNL     1      17.579 -10.365  -9.494  1.00  0.00     0.168 HD
BRANCH  38  41
HETATM   41  C11 UNL     1      19.410 -11.960 -10.496  1.00  0.00     0.281 C 
HETATM   42  N6  UNL     1      19.472 -10.767 -11.255  1.00  0.00    -0.056 NA
HETATM   43  O5  UNL     1      20.352 -12.782 -10.601  1.00  0.00    -0.269 OA
ENDBRANCH  38  41
ENDBRANCH  29  30
ENDBRANCH  27  29
ENDBRANCH  24  27
ENDBRANCH  23  24
ENDBRANCH  22  23
ENDBRANCH   8  22
BRANCH  18  44
HETATM   44  O11 UNL     1      16.912  -4.975 -14.583  1.00  0.00    -0.363 OA
ATOM     45  H11 UNL     1      16.125  -5.333 -14.976  1.00  0.00     0.213 HD
ENDBRANCH  18  44
BRANCH  11  46
HETATM   46  O6  UNL     1      20.606  -5.053 -10.807  1.00  0.00    -0.390 OA
ATOM     47  H6  UNL     1      21.378  -4.549 -10.577  1.00  0.00     0.210 HD
ENDBRANCH  11  46
BRANCH  15  48
HETATM   48  C20 UNL     1      19.222  -3.913 -15.460  1.00  0.00     0.223 C 
HETATM   49  O9  UNL     1      20.227  -4.198 -16.140  1.00  0.00    -0.645 OA
HETATM   50  O10 UNL     1      18.129  -3.345 -16.101  1.00  0.00    -0.645 OA
ENDBRANCH  15  48
BRANCH  12  51
HETATM   51  C17 UNL     1      22.777  -4.142 -12.555  1.00  0.00     0.245 C 
HETATM   52  N8  UNL     1      23.788  -3.647 -13.428  1.00  0.00    -0.061 NA
HETATM   53  O7  UNL     1      23.017  -4.040 -11.321  1.00  0.00    -0.276 OA
ENDBRANCH  12  51
TORSDOF 12
ENDMDL
