MODEL 1
REMARK VINA RESULT: -7.245963824      0.000      0.000
REMARK  6 active torsions:
REMARK  status: ('A' for Active; 'I' for Inactive)
REMARK    1  A    between atoms: N1_2  and  C2_5 
REMARK    2  A    between atoms: C2_5  and  C3_6 
REMARK    3  A    between atoms: C3_6  and  S1_7 
REMARK    4  A    between atoms: S1_7  and  N2_8 
REMARK    5  A    between atoms: S1_7  and  C4_12 
REMARK    6  A    between atoms: C8_23  and  N6_24 
REMARK       I    between atoms: N6_24  and  C9_26 
ROOT
HETATM    1  C4  UNL     1       4.192  19.849   3.115  1.00  0.00     0.122 A 
HETATM    2  C5  UNL     1       3.300  19.093   3.769  1.00  0.00     0.117 A 
HETATM    3  N3  UNL     1       2.174  19.688   4.278  1.00  0.00    -0.345 N 
ATOM      4  H3  UNL     1       1.476  19.139   4.780  1.00  0.00     0.167 HD
HETATM    5  C6  UNL     1       2.009  21.008   4.101  1.00  0.00     0.202 A 
HETATM    6  C7  UNL     1       0.879  21.638   4.605  1.00  0.00     0.305 A 
HETATM    7  O2  UNL     1       0.057  20.924   5.210  1.00  0.00    -0.263 OA
HETATM    8  N4  UNL     1       0.728  22.962   4.419  1.00  0.00    -0.249 N 
ATOM      9  H4  UNL     1      -0.106  23.416   4.792  1.00  0.00     0.191 HD
HETATM   10  N5  UNL     1       1.615  23.698   3.773  1.00  0.00    -0.128 N 
ATOM     11  H5  UNL     1       1.472  24.700   3.649  1.00  0.00     0.205 HD
HETATM   12  C8  UNL     1       2.709  23.091   3.285  1.00  0.00     0.710 A 
HETATM   13  N9  UNL     1       2.904  21.762   3.446  1.00  0.00    -0.087 N 
HETATM   14  C10 UNL     1       4.024  21.166   2.941  1.00  0.00     0.289 A 
HETATM   15  O3  UNL     1       4.814  21.913   2.347  1.00  0.00    -0.265 OA
ENDROOT
BRANCH   1  16
HETATM   16  S1  UNL     1       5.825  19.028   2.309  1.00  0.00     0.058 S 
HETATM   17  O1  UNL     1       4.673  18.999   0.779  1.00  0.00    -0.245 OA
BRANCH  16  18
HETATM   18  C3  UNL     1       5.957  17.198   2.217  1.00  0.00     0.150 C 
BRANCH  18  19
HETATM   19  C2  UNL     1       7.243  16.673   2.888  1.00  0.00     0.245 C 
BRANCH  19  20
HETATM   20  N1  UNL     1       8.404  17.364   2.383  1.00  0.00    -0.078 N 
HETATM   21  C1  UNL     1       8.591  16.952   1.005  1.00  0.00     0.267 C 
ATOM     22  H12 UNL     1       9.235  17.220   2.958  1.00  0.00     0.276 HD
ATOM     23  H11 UNL     1       8.342  18.376   2.490  1.00  0.00     0.276 HD
ENDBRANCH  19  20
ENDBRANCH  18  19
ENDBRANCH  16  18
BRANCH  16  24
HETATM   24  N2  UNL     1       6.837  20.189   1.251  1.00  0.00    -0.356 N 
ATOM     25  H22 UNL     1       7.763  19.871   0.963  1.00  0.00     0.166 HD
ATOM     26  H21 UNL     1       6.509  21.108   0.953  1.00  0.00     0.166 HD
ENDBRANCH  16  24
ENDBRANCH   1  16
BRANCH  12  27
HETATM   27  N6  UNL     1       3.599  23.777   2.647  1.00  0.00    -0.162 N 
HETATM   28  C9  UNL     1       4.040  25.050   3.055  1.00  0.00     0.200 C 
HETATM   29  N7  UNL     1       3.318  26.091   2.798  1.00  0.00    -0.373 N 
HETATM   30  N8  UNL     1       5.258  25.262   3.746  1.00  0.00    -0.063 NA
ATOM     31  H72 UNL     1       2.441  25.938   2.301  1.00  0.00     0.158 HD
ATOM     32  H71 UNL     1       3.638  27.013   3.094  1.00  0.00     0.158 HD
ATOM     33  H6  UNL     1       4.004  23.374   1.802  1.00  0.00     0.187 HD
ENDBRANCH  12  27
TORSDOF 6
ENDMDL
MODEL 2
REMARK VINA RESULT: -6.994417003      2.355      3.930
REMARK  6 active torsions:
REMARK  status: ('A' for Active; 'I' for Inactive)
REMARK    1  A    between atoms: N1_2  and  C2_5 
REMARK    2  A    between atoms: C2_5  and  C3_6 
REMARK    3  A    between atoms: C3_6  and  S1_7 
REMARK    4  A    between atoms: S1_7  and  N2_8 
REMARK    5  A    between atoms: S1_7  and  C4_12 
REMARK    6  A    between atoms: C8_23  and  N6_24 
REMARK       I    between atoms: N6_24  and  C9_26 
ROOT
HETATM    1  C4  UNL     1       4.735  20.588   2.623  1.00  0.00     0.122 A 
HETATM    2  C5  UNL     1       5.540  21.490   2.046  1.00  0.00     0.117 A 
HETATM    3  N3  UNL     1       5.543  22.777   2.522  1.00  0.00    -0.345 N 
ATOM      4  H3  UNL     1       6.144  23.486   2.103  1.00  0.00     0.167 HD
HETATM    5  C6  UNL     1       4.736  23.083   3.550  1.00  0.00     0.202 A 
HETATM    6  C7  UNL     1       4.717  24.377   4.052  1.00  0.00     0.305 A 
HETATM    7  O2  UNL     1       5.470  25.206   3.507  1.00  0.00    -0.263 OA
HETATM    8  N4  UNL     1       3.903  24.669   5.083  1.00  0.00    -0.249 N 
ATOM      9  H4  UNL     1       3.896  25.622   5.446  1.00  0.00     0.191 HD
HETATM   10  N5  UNL     1       3.112  23.772   5.644  1.00  0.00    -0.128 N 
ATOM     11  H5  UNL     1       2.506  24.023   6.425  1.00  0.00     0.205 HD
HETATM   12  C8  UNL     1       3.129  22.519   5.159  1.00  0.00     0.710 A 
HETATM   13  N9  UNL     1       3.931  22.179   4.125  1.00  0.00    -0.087 N 
HETATM   14  C10 UNL     1       3.932  20.899   3.649  1.00  0.00     0.289 A 
HETATM   15  O3  UNL     1       3.167  20.108   4.220  1.00  0.00    -0.265 OA
ENDROOT
BRANCH   1  16
HETATM   16  S1  UNL     1       4.727  18.689   2.005  1.00  0.00     0.058 S 
HETATM   17  O1  UNL     1       6.175  18.605   3.256  1.00  0.00    -0.245 OA
BRANCH  16  18
HETATM   18  C3  UNL     1       5.879  18.174   0.671  1.00  0.00     0.150 C 
BRANCH  18  19
HETATM   19  C2  UNL     1       7.335  18.062   1.168  1.00  0.00     0.245 C 
BRANCH  19  20
HETATM   20  N1  UNL     1       8.089  19.240   0.815  1.00  0.00    -0.078 N 
HETATM   21  C1  UNL     1       8.848  18.930  -0.382  1.00  0.00     0.267 C 
ATOM     22  H12 UNL     1       8.673  19.583   1.579  1.00  0.00     0.276 HD
ATOM     23  H11 UNL     1       7.506  20.070   0.712  1.00  0.00     0.276 HD
ENDBRANCH  19  20
ENDBRANCH  18  19
ENDBRANCH  16  18
BRANCH  16  24
HETATM   24  N2  UNL     1       3.923  17.490   3.192  1.00  0.00    -0.356 N 
ATOM     25  H22 UNL     1       4.459  17.219   4.017  1.00  0.00     0.166 HD
ATOM     26  H21 UNL     1       2.990  17.102   3.053  1.00  0.00     0.166 HD
ENDBRANCH  16  24
ENDBRANCH   1  16
BRANCH  12  27
HETATM   27  N6  UNL     1       2.370  21.613   5.682  1.00  0.00    -0.162 N 
HETATM   28  C9  UNL     1       2.387  21.278   7.050  1.00  0.00     0.200 C 
HETATM   29  N7  UNL     1       3.316  20.505   7.508  1.00  0.00    -0.373 N 
HETATM   30  N8  UNL     1       1.422  21.749   7.973  1.00  0.00    -0.063 NA
ATOM     31  H72 UNL     1       4.011  20.166   6.843  1.00  0.00     0.158 HD
ATOM     32  H71 UNL     1       3.328  20.263   8.499  1.00  0.00     0.158 HD
ATOM     33  H6  UNL     1       1.723  21.114   5.071  1.00  0.00     0.187 HD
ENDBRANCH  12  27
TORSDOF 6
ENDMDL
MODEL 3
REMARK VINA RESULT: -6.921940386      2.142      3.835
REMARK  6 active torsions:
REMARK  status: ('A' for Active; 'I' for Inactive)
REMARK    1  A    between atoms: N1_2  and  C2_5 
REMARK    2  A    between atoms: C2_5  and  C3_6 
REMARK    3  A    between atoms: C3_6  and  S1_7 
REMARK    4  A    between atoms: S1_7  and  N2_8 
REMARK    5  A    between atoms: S1_7  and  C4_12 
REMARK    6  A    between atoms: C8_23  and  N6_24 
REMARK       I    between atoms: N6_24  and  C9_26 
ROOT
HETATM    1  C4  UNL     1       4.872  20.512   2.215  1.00  0.00     0.122 A 
HETATM    2  C5  UNL     1       5.623  21.567   1.871  1.00  0.00     0.117 A 
HETATM    3  N3  UNL     1       5.179  22.827   2.187  1.00  0.00    -0.345 N 
ATOM      4  H3  UNL     1       5.728  23.650   1.938  1.00  0.00     0.167 HD
HETATM    5  C6  UNL     1       4.008  22.953   2.829  1.00  0.00     0.202 A 
HETATM    6  C7  UNL     1       3.534  24.215   3.161  1.00  0.00     0.305 A 
HETATM    7  O2  UNL     1       4.240  25.188   2.836  1.00  0.00    -0.263 OA
HETATM    8  N4  UNL     1       2.358  24.326   3.805  1.00  0.00    -0.249 N 
ATOM      9  H4  UNL     1       2.018  25.256   4.046  1.00  0.00     0.191 HD
HETATM   10  N5  UNL     1       1.625  23.278   4.140  1.00  0.00    -0.128 N 
ATOM     11  H5  UNL     1       0.738  23.394   4.628  1.00  0.00     0.205 HD
HETATM   12  C8  UNL     1       2.082  22.056   3.819  1.00  0.00     0.710 A 
HETATM   13  N9  UNL     1       3.259  21.895   3.172  1.00  0.00    -0.087 N 
HETATM   14  C10 UNL     1       3.704  20.643   2.857  1.00  0.00     0.289 A 
HETATM   15  O3  UNL     1       2.970  19.705   3.199  1.00  0.00    -0.265 OA
ENDROOT
BRANCH   1  16
HETATM   16  S1  UNL     1       5.493  18.654   1.827  1.00  0.00     0.058 S 
HETATM   17  O1  UNL     1       5.826  18.707   3.713  1.00  0.00    -0.245 OA
BRANCH  16  18
HETATM   18  C3  UNL     1       7.281  18.345   1.542  1.00  0.00     0.150 C 
BRANCH  18  19
HETATM   19  C2  UNL     1       7.803  19.068   0.284  1.00  0.00     0.245 C 
BRANCH  19  20
HETATM   20  N1  UNL     1       9.079  18.531  -0.123  1.00  0.00    -0.078 N 
HETATM   21  C1  UNL     1       9.587  19.375  -1.188  1.00  0.00     0.267 C 
ATOM     22  H12 UNL     1       9.031  17.546  -0.385  1.00  0.00     0.276 HD
ATOM     23  H11 UNL     1       9.734  18.432   0.652  1.00  0.00     0.276 HD
ENDBRANCH  19  20
ENDBRANCH  18  19
ENDBRANCH  16  18
BRANCH  16  24
HETATM   24  N2  UNL     1       4.279  17.315   2.302  1.00  0.00    -0.356 N 
ATOM     25  H22 UNL     1       4.113  16.572   1.623  1.00  0.00     0.166 HD
ATOM     26  H21 UNL     1       3.785  17.294   3.195  1.00  0.00     0.166 HD
ENDBRANCH  16  24
ENDBRANCH   1  16
BRANCH  12  27
HETATM   27  N6  UNL     1       1.395  21.007   4.129  1.00  0.00    -0.162 N 
HETATM   28  C9  UNL     1       0.580  20.920   5.274  1.00  0.00     0.200 C 
HETATM   29  N7  UNL     1       1.116  20.686   6.426  1.00  0.00    -0.373 N 
HETATM   30  N8  UNL     1      -0.827  21.079   5.235  1.00  0.00    -0.063 NA
ATOM     31  H72 UNL     1       2.129  20.572   6.454  1.00  0.00     0.158 HD
ATOM     32  H71 UNL     1       0.526  20.624   7.255  1.00  0.00     0.158 HD
ATOM     33  H6  UNL     1       1.446  20.196   3.511  1.00  0.00     0.187 HD
ENDBRANCH  12  27
TORSDOF 6
ENDMDL
MODEL 4
REMARK VINA RESULT: -6.915618316      1.319      1.425
REMARK  6 active torsions:
REMARK  status: ('A' for Active; 'I' for Inactive)
REMARK    1  A    between atoms: N1_2  and  C2_5 
REMARK    2  A    between atoms: C2_5  and  C3_6 
REMARK    3  A    between atoms: C3_6  and  S1_7 
REMARK    4  A    between atoms: S1_7  and  N2_8 
REMARK    5  A    between atoms: S1_7  and  C4_12 
REMARK    6  A    between atoms: C8_23  and  N6_24 
REMARK       I    between atoms: N6_24  and  C9_26 
ROOT
HETATM    1  C4  UNL     1       3.892  19.640   2.670  1.00  0.00     0.122 A 
HETATM    2  C5  UNL     1       2.969  18.911   3.311  1.00  0.00     0.117 A 
HETATM    3  N3  UNL     1       1.959  19.559   3.976  1.00  0.00    -0.345 N 
ATOM      4  H3  UNL     1       1.242  19.032   4.474  1.00  0.00     0.167 HD
HETATM    5  C6  UNL     1       1.935  20.901   3.959  1.00  0.00     0.202 A 
HETATM    6  C7  UNL     1       0.925  21.583   4.624  1.00  0.00     0.305 A 
HETATM    7  O2  UNL     1       0.073  20.894   5.217  1.00  0.00    -0.263 OA
HETATM    8  N4  UNL     1       0.914  22.928   4.598  1.00  0.00    -0.249 N 
ATOM      9  H4  UNL     1       0.168  23.420   5.088  1.00  0.00     0.191 HD
HETATM   10  N5  UNL     1       1.831  23.637   3.962  1.00  0.00    -0.128 N 
ATOM     11  H5  UNL     1       1.796  24.656   3.961  1.00  0.00     0.205 HD
HETATM   12  C8  UNL     1       2.809  22.979   3.319  1.00  0.00     0.710 A 
HETATM   13  N9  UNL     1       2.860  21.627   3.317  1.00  0.00    -0.087 N 
HETATM   14  C10 UNL     1       3.864  20.979   2.655  1.00  0.00     0.289 A 
HETATM   15  O3  UNL     1       4.690  21.703   2.081  1.00  0.00    -0.265 OA
ENDROOT
BRANCH   1  16
HETATM   16  S1  UNL     1       5.356  18.751   1.642  1.00  0.00     0.058 S 
HETATM   17  O1  UNL     1       6.078  18.597   3.409  1.00  0.00    -0.245 OA
BRANCH  16  18
HETATM   18  C3  UNL     1       6.830  19.730   1.149  1.00  0.00     0.150 C 
BRANCH  18  19
HETATM   19  C2  UNL     1       7.872  18.875   0.399  1.00  0.00     0.245 C 
BRANCH  19  20
HETATM   20  N1  UNL     1       8.478  17.911   1.285  1.00  0.00    -0.078 N 
HETATM   21  C1  UNL     1       9.319  17.047   0.479  1.00  0.00     0.267 C 
ATOM     22  H12 UNL     1       7.795  17.396   1.841  1.00  0.00     0.276 HD
ATOM     23  H11 UNL     1       8.980  18.344   2.060  1.00  0.00     0.276 HD
ENDBRANCH  19  20
ENDBRANCH  18  19
ENDBRANCH  16  18
BRANCH  16  24
HETATM   24  N2  UNL     1       5.339  16.884   1.724  1.00  0.00    -0.356 N 
ATOM     25  H22 UNL     1       4.871  16.387   0.966  1.00  0.00     0.166 HD
ATOM     26  H21 UNL     1       5.769  16.350   2.479  1.00  0.00     0.166 HD
ENDBRANCH  16  24
ENDBRANCH   1  16
BRANCH  12  27
HETATM   27  N6  UNL     1       3.723  23.637   2.685  1.00  0.00    -0.162 N 
HETATM   28  C9  UNL     1       4.122  24.943   3.029  1.00  0.00     0.200 C 
HETATM   29  N7  UNL     1       3.400  25.950   2.663  1.00  0.00    -0.373 N 
HETATM   30  N8  UNL     1       5.296  25.223   3.771  1.00  0.00    -0.063 NA
ATOM     31  H72 UNL     1       2.555  25.748   2.130  1.00  0.00     0.158 HD
ATOM     32  H71 UNL     1       3.689  26.896   2.913  1.00  0.00     0.158 HD
ATOM     33  H6  UNL     1       4.181  23.185   1.893  1.00  0.00     0.187 HD
ENDBRANCH  12  27
TORSDOF 6
ENDMDL
MODEL 5
REMARK VINA RESULT: -6.912347382      2.955      5.570
REMARK  6 active torsions:
REMARK  status: ('A' for Active; 'I' for Inactive)
REMARK    1  A    between atoms: N1_2  and  C2_5 
REMARK    2  A    between atoms: C2_5  and  C3_6 
REMARK    3  A    between atoms: C3_6  and  S1_7 
REMARK    4  A    between atoms: S1_7  and  N2_8 
REMARK    5  A    between atoms: S1_7  and  C4_12 
REMARK    6  A    between atoms: C8_23  and  N6_24 
REMARK       I    between atoms: N6_24  and  C9_26 
ROOT
HETATM    1  C4  UNL     1       4.430  17.561   1.867  1.00  0.00     0.122 A 
HETATM    2  C5  UNL     1       5.441  16.781   1.459  1.00  0.00     0.117 A 
HETATM    3  N3  UNL     1       6.612  17.371   1.056  1.00  0.00    -0.345 N 
ATOM      4  H3  UNL     1       7.399  16.805   0.740  1.00  0.00     0.167 HD
HETATM    5  C6  UNL     1       6.700  18.710   1.086  1.00  0.00     0.202 A 
HETATM    6  C7  UNL     1       7.872  19.335   0.684  1.00  0.00     0.305 A 
HETATM    7  O2  UNL     1       8.805  18.600   0.307  1.00  0.00    -0.263 OA
HETATM    8  N4  UNL     1       7.946  20.678   0.719  1.00  0.00    -0.249 N 
ATOM      9  H4  UNL     1       8.811  21.129   0.423  1.00  0.00     0.191 HD
HETATM   10  N5  UNL     1       6.942  21.438   1.123  1.00  0.00    -0.128 N 
ATOM     11  H5  UNL     1       7.028  22.454   1.138  1.00  0.00     0.205 HD
HETATM   12  C8  UNL     1       5.807  20.835   1.512  1.00  0.00     0.710 A 
HETATM   13  N9  UNL     1       5.687  19.487   1.495  1.00  0.00    -0.087 N 
HETATM   14  C10 UNL     1       4.523  18.896   1.895  1.00  0.00     0.289 A 
HETATM   15  O3  UNL     1       3.623  19.666   2.261  1.00  0.00    -0.265 OA
ENDROOT
BRANCH   1  16
HETATM   16  S1  UNL     1       2.721  16.754   2.513  1.00  0.00     0.058 S 
HETATM   17  O1  UNL     1       2.923  15.785   0.874  1.00  0.00    -0.245 OA
BRANCH  16  18
HETATM   18  C3  UNL     1       1.124  17.421   1.897  1.00  0.00     0.150 C 
BRANCH  18  19
HETATM   19  C2  UNL     1       1.029  17.375   0.358  1.00  0.00     0.245 C 
BRANCH  19  20
HETATM   20  N1  UNL     1       1.651  18.537  -0.229  1.00  0.00    -0.078 N 
HETATM   21  C1  UNL     1       2.114  18.163  -1.552  1.00  0.00     0.267 C 
ATOM     22  H12 UNL     1       2.390  18.930   0.355  1.00  0.00     0.276 HD
ATOM     23  H11 UNL     1       1.040  19.353  -0.238  1.00  0.00     0.276 HD
ENDBRANCH  19  20
ENDBRANCH  18  19
ENDBRANCH  16  18
BRANCH  16  24
HETATM   24  N2  UNL     1       2.903  15.060   3.281  1.00  0.00    -0.356 N 
ATOM     25  H22 UNL     1       2.050  14.517   3.422  1.00  0.00     0.166 HD
ATOM     26  H21 UNL     1       3.800  14.662   3.559  1.00  0.00     0.166 HD
ENDBRANCH  16  24
ENDBRANCH   1  16
BRANCH  12  27
HETATM   27  N6  UNL     1       4.803  21.543   1.914  1.00  0.00    -0.162 N 
HETATM   28  C9  UNL     1       4.875  22.460   2.981  1.00  0.00     0.200 C 
HETATM   29  N7  UNL     1       4.826  22.030   4.198  1.00  0.00    -0.373 N 
HETATM   30  N8  UNL     1       5.001  23.858   2.792  1.00  0.00    -0.063 NA
ATOM     31  H72 UNL     1       4.735  21.023   4.334  1.00  0.00     0.158 HD
ATOM     32  H71 UNL     1       4.878  22.694   4.971  1.00  0.00     0.158 HD
ATOM     33  H6  UNL     1       3.911  21.432   1.432  1.00  0.00     0.187 HD
ENDBRANCH  12  27
TORSDOF 6
ENDMDL
