MODEL 1
REMARK VINA RESULT: -7.672619638      0.000      0.000
REMARK  6 active torsions:
REMARK  status: ('A' for Active; 'I' for Inactive)
REMARK    1  A    between atoms: N1_2  and  C2_3 
REMARK    2  A    between atoms: N1_2  and  C4_6 
REMARK    3  A    between atoms: C2_3  and  C3_4 
REMARK    4  A    between atoms: C7_9  and  C8_10 
REMARK    5  A    between atoms: C8_10  and  C9_11 
REMARK    6  A    between atoms: C16_23  and  O2_24 
ROOT
HETATM    1  C9  UNL     1      34.293   5.813 -48.421  1.00  0.00     0.066 C 
HETATM    2  C10 UNL     1      35.243   6.989 -48.361  1.00  0.00     0.033 C 
HETATM    3  C11 UNL     1      34.261   5.288 -49.793  1.00  0.00     0.033 C 
HETATM    4  C12 UNL     1      32.927   6.528 -48.323  1.00  0.00     0.070 C 
HETATM    5  N2  UNL     1      31.902   7.066 -48.227  1.00  0.00    -0.196 NA
ENDROOT
BRANCH   1   6
HETATM    6  C8  UNL     1      34.356   4.898 -47.239  1.00  0.00     0.104 C 
HETATM    7  C13 UNL     1      33.206   3.954 -47.474  1.00  0.00     0.138 C 
HETATM    8  N3  UNL     1      31.934   4.200 -47.285  1.00  0.00    -0.382 N 
HETATM    9  O1  UNL     1      33.711   2.773 -47.925  1.00  0.00    -0.294 OA
ATOM     10  H32 UNL     1      31.556   5.085 -46.947  1.00  0.00     0.158 HD
ATOM     11  H31 UNL     1      31.155   3.561 -47.444  1.00  0.00     0.158 HD
HETATM   12  C14 UNL     1      35.090   2.786 -47.878  1.00  0.00     0.110 A 
HETATM   13  C15 UNL     1      35.516   3.990 -47.403  1.00  0.00     0.034 A 
HETATM   14  C23 UNL     1      35.970   1.759 -48.228  1.00  0.00     0.090 A 
HETATM   15  C16 UNL     1      36.886   4.247 -47.233  1.00  0.00     0.087 A 
HETATM   16  C17 UNL     1      37.749   3.228 -47.579  1.00  0.00     0.009 A 
HETATM   17  C18 UNL     1      39.115   3.382 -47.452  1.00  0.00     0.015 A 
HETATM   18  C22 UNL     1      37.316   2.003 -48.069  1.00  0.00     0.000 A 
HETATM   19  C19 UNL     1      40.016   2.380 -47.792  1.00  0.00     0.001 A 
HETATM   20  C20 UNL     1      39.569   1.178 -48.273  1.00  0.00     0.001 A 
HETATM   21  C21 UNL     1      38.210   1.010 -48.405  1.00  0.00     0.014 A 
HETATM   22  C24 UNL     1      35.459   0.535 -48.721  1.00  0.00     0.103 C 
HETATM   23  N4  UNL     1      35.053  -0.486 -49.124  1.00  0.00    -0.191 NA
BRANCH   6  24
HETATM   24  C7  UNL     1      34.255   5.489 -45.920  1.00  0.00    -0.032 A 
HETATM   25  C6  UNL     1      34.331   6.813 -45.635  1.00  0.00     0.011 A 
HETATM   26  C5  UNL     1      34.229   7.297 -44.322  1.00  0.00     0.033 A 
HETATM   27  C4  UNL     1      34.047   6.409 -43.291  1.00  0.00     0.069 A 
HETATM   28  C26 UNL     1      33.968   5.057 -43.580  1.00  0.00     0.143 A 
HETATM   29  C25 UNL     1      34.067   4.582 -44.859  1.00  0.00     0.053 A 
HETATM   30  F2  UNL     1      33.786   4.186 -42.529  1.00  0.00    -0.204 F 
BRANCH  27  31
HETATM   31  N1  UNL     1      33.935   6.902 -41.962  1.00  0.00    -0.380 N 
HETATM   32  C1  UNL     1      35.156   7.342 -41.310  1.00  0.00     0.150 C 
BRANCH  31  33
HETATM   33  C2  UNL     1      32.732   7.017 -41.201  1.00  0.00     0.154 C 
BRANCH  33  34
HETATM   34  C3  UNL     1      31.564   7.622 -41.899  1.00  0.00     0.241 C 
HETATM   35  F1  UNL     1      31.979   8.903 -42.300  1.00  0.00    -0.254 F 
ENDBRANCH  33  34
ENDBRANCH  31  33
ENDBRANCH  27  31
ENDBRANCH   6  24
BRANCH  15  36
HETATM   36  O2  UNL     1      37.330   5.455 -46.742  1.00  0.00    -0.359 OA
ATOM     37  H2  UNL     1      37.717   6.107 -47.315  1.00  0.00     0.217 HD
ENDBRANCH  15  36
ENDBRANCH   1   6
TORSDOF 6
ENDMDL
MODEL 2
REMARK VINA RESULT: -7.599537095      0.902      1.341
REMARK  6 active torsions:
REMARK  status: ('A' for Active; 'I' for Inactive)
REMARK    1  A    between atoms: N1_2  and  C2_3 
REMARK    2  A    between atoms: N1_2  and  C4_6 
REMARK    3  A    between atoms: C2_3  and  C3_4 
REMARK    4  A    between atoms: C7_9  and  C8_10 
REMARK    5  A    between atoms: C8_10  and  C9_11 
REMARK    6  A    between atoms: C16_23  and  O2_24 
ROOT
HETATM    1  C9  UNL     1      34.281   5.830 -48.453  1.00  0.00     0.066 C 
HETATM    2  C10 UNL     1      35.234   7.002 -48.382  1.00  0.00     0.033 C 
HETATM    3  C11 UNL     1      34.259   5.308 -49.827  1.00  0.00     0.033 C 
HETATM    4  C12 UNL     1      32.917   6.549 -48.364  1.00  0.00     0.070 C 
HETATM    5  N2  UNL     1      31.893   7.090 -48.276  1.00  0.00    -0.196 NA
ENDROOT
BRANCH   1   6
HETATM    6  C8  UNL     1      34.331   4.911 -47.273  1.00  0.00     0.104 C 
HETATM    7  C13 UNL     1      33.187   3.964 -47.527  1.00  0.00     0.138 C 
HETATM    8  N3  UNL     1      31.913   4.205 -47.354  1.00  0.00    -0.382 N 
HETATM    9  O1  UNL     1      33.704   2.786 -47.974  1.00  0.00    -0.294 OA
ATOM     10  H32 UNL     1      31.526   5.087 -47.019  1.00  0.00     0.158 HD
ATOM     11  H31 UNL     1      31.138   3.564 -47.526  1.00  0.00     0.158 HD
HETATM   12  C14 UNL     1      35.081   2.803 -47.908  1.00  0.00     0.110 A 
HETATM   13  C15 UNL     1      35.496   4.007 -47.423  1.00  0.00     0.034 A 
HETATM   14  C23 UNL     1      35.970   1.781 -48.249  1.00  0.00     0.090 A 
HETATM   15  C16 UNL     1      36.863   4.269 -47.235  1.00  0.00     0.087 A 
HETATM   16  C17 UNL     1      37.734   3.254 -47.572  1.00  0.00     0.009 A 
HETATM   17  C18 UNL     1      39.097   3.412 -47.426  1.00  0.00     0.015 A 
HETATM   18  C22 UNL     1      37.312   2.029 -48.071  1.00  0.00     0.000 A 
HETATM   19  C19 UNL     1      40.007   2.414 -47.756  1.00  0.00     0.001 A 
HETATM   20  C20 UNL     1      39.570   1.212 -48.247  1.00  0.00     0.001 A 
HETATM   21  C21 UNL     1      38.214   1.040 -48.398  1.00  0.00     0.014 A 
HETATM   22  C24 UNL     1      35.469   0.557 -48.753  1.00  0.00     0.103 C 
HETATM   23  N4  UNL     1      35.073  -0.464 -49.164  1.00  0.00    -0.191 NA
BRANCH   6  24
HETATM   24  C7  UNL     1      34.210   5.498 -45.953  1.00  0.00    -0.032 A 
HETATM   25  C6  UNL     1      34.245   6.823 -45.667  1.00  0.00     0.011 A 
HETATM   26  C5  UNL     1      34.126   7.303 -44.354  1.00  0.00     0.033 A 
HETATM   27  C4  UNL     1      33.970   6.409 -43.324  1.00  0.00     0.069 A 
HETATM   28  C26 UNL     1      33.933   5.055 -43.614  1.00  0.00     0.143 A 
HETATM   29  C25 UNL     1      34.048   4.585 -44.893  1.00  0.00     0.053 A 
HETATM   30  F2  UNL     1      33.776   4.178 -42.564  1.00  0.00    -0.204 F 
BRANCH  27  31
HETATM   31  N1  UNL     1      33.841   6.897 -41.995  1.00  0.00    -0.380 N 
HETATM   32  C1  UNL     1      32.561   7.472 -41.620  1.00  0.00     0.150 C 
BRANCH  31  33
HETATM   33  C2  UNL     1      34.846   6.870 -40.982  1.00  0.00     0.154 C 
BRANCH  33  34
HETATM   34  C3  UNL     1      34.604   5.951 -39.835  1.00  0.00     0.241 C 
HETATM   35  F1  UNL     1      35.405   4.821 -40.075  1.00  0.00    -0.254 F 
ENDBRANCH  33  34
ENDBRANCH  31  33
ENDBRANCH  27  31
ENDBRANCH   6  24
BRANCH  15  36
HETATM   36  O2  UNL     1      37.296   5.477 -46.734  1.00  0.00    -0.359 OA
ATOM     37  H2  UNL     1      37.375   5.622 -45.798  1.00  0.00     0.217 HD
ENDBRANCH  15  36
ENDBRANCH   1   6
TORSDOF 6
ENDMDL
MODEL 3
REMARK VINA RESULT: -7.316489478      0.913      1.222
REMARK  6 active torsions:
REMARK  status: ('A' for Active; 'I' for Inactive)
REMARK    1  A    between atoms: N1_2  and  C2_3 
REMARK    2  A    between atoms: N1_2  and  C4_6 
REMARK    3  A    between atoms: C2_3  and  C3_4 
REMARK    4  A    between atoms: C7_9  and  C8_10 
REMARK    5  A    between atoms: C8_10  and  C9_11 
REMARK    6  A    between atoms: C16_23  and  O2_24 
ROOT
HETATM    1  C9  UNL     1      34.294   5.292 -48.295  1.00  0.00     0.066 C 
HETATM    2  C10 UNL     1      35.115   6.558 -48.193  1.00  0.00     0.033 C 
HETATM    3  C11 UNL     1      34.302   4.822 -49.687  1.00  0.00     0.033 C 
HETATM    4  C12 UNL     1      32.861   5.855 -48.158  1.00  0.00     0.070 C 
HETATM    5  N2  UNL     1      31.786   6.277 -48.034  1.00  0.00    -0.196 NA
ENDROOT
BRANCH   1   6
HETATM    6  C8  UNL     1      34.465   4.342 -47.152  1.00  0.00     0.104 C 
HETATM    7  C13 UNL     1      33.428   3.284 -47.426  1.00  0.00     0.138 C 
HETATM    8  N3  UNL     1      32.138   3.376 -47.227  1.00  0.00    -0.382 N 
HETATM    9  O1  UNL     1      34.063   2.188 -47.926  1.00  0.00    -0.294 OA
ATOM     10  H32 UNL     1      31.663   4.198 -46.853  1.00  0.00     0.158 HD
ATOM     11  H31 UNL     1      31.436   2.660 -47.413  1.00  0.00     0.158 HD
HETATM   12  C14 UNL     1      35.431   2.355 -47.878  1.00  0.00     0.110 A 
HETATM   13  C15 UNL     1      35.720   3.579 -47.353  1.00  0.00     0.034 A 
HETATM   14  C23 UNL     1      36.421   1.451 -48.270  1.00  0.00     0.090 A 
HETATM   15  C16 UNL     1      37.053   3.983 -47.173  1.00  0.00     0.087 A 
HETATM   16  C17 UNL     1      38.024   3.084 -47.561  1.00  0.00     0.009 A 
HETATM   17  C18 UNL     1      39.364   3.386 -47.427  1.00  0.00     0.015 A 
HETATM   18  C22 UNL     1      37.731   1.839 -48.101  1.00  0.00     0.000 A 
HETATM   19  C19 UNL     1      40.372   2.508 -47.808  1.00  0.00     0.001 A 
HETATM   20  C20 UNL     1      40.061   1.284 -48.339  1.00  0.00     0.001 A 
HETATM   21  C21 UNL     1      38.730   0.969 -48.477  1.00  0.00     0.014 A 
HETATM   22  C24 UNL     1      36.049   0.198 -48.814  1.00  0.00     0.103 C 
HETATM   23  N4  UNL     1      35.761  -0.845 -49.258  1.00  0.00    -0.191 NA
BRANCH   6  24
HETATM   24  C7  UNL     1      34.304   4.863 -45.809  1.00  0.00    -0.032 A 
HETATM   25  C6  UNL     1      34.051   4.128 -44.697  1.00  0.00     0.011 A 
HETATM   26  C5  UNL     1      33.902   4.720 -43.434  1.00  0.00     0.033 A 
HETATM   27  C4  UNL     1      34.015   6.083 -43.313  1.00  0.00     0.069 A 
HETATM   28  C26 UNL     1      34.274   6.835 -44.448  1.00  0.00     0.143 A 
HETATM   29  C25 UNL     1      34.419   6.260 -45.680  1.00  0.00     0.053 A 
HETATM   30  F2  UNL     1      34.382   8.200 -44.302  1.00  0.00    -0.204 F 
BRANCH  27  31
HETATM   31  N1  UNL     1      33.873   6.681 -42.032  1.00  0.00    -0.380 N 
HETATM   32  C1  UNL     1      35.089   7.100 -41.355  1.00  0.00     0.150 C 
BRANCH  31  33
HETATM   33  C2  UNL     1      32.647   6.921 -41.340  1.00  0.00     0.154 C 
BRANCH  33  34
HETATM   34  C3  UNL     1      31.575   7.606 -42.114  1.00  0.00     0.241 C 
HETATM   35  F1  UNL     1      32.030   8.920 -42.317  1.00  0.00    -0.254 F 
ENDBRANCH  33  34
ENDBRANCH  31  33
ENDBRANCH  27  31
ENDBRANCH   6  24
BRANCH  15  36
HETATM   36  O2  UNL     1      37.359   5.213 -46.632  1.00  0.00    -0.359 OA
ATOM     37  H2  UNL     1      36.963   6.009 -46.965  1.00  0.00     0.217 HD
ENDBRANCH  15  36
ENDBRANCH   1   6
TORSDOF 6
ENDMDL
MODEL 4
REMARK VINA RESULT: -7.311100096      2.478      4.213
REMARK  6 active torsions:
REMARK  status: ('A' for Active; 'I' for Inactive)
REMARK    1  A    between atoms: N1_2  and  C2_3 
REMARK    2  A    between atoms: N1_2  and  C4_6 
REMARK    3  A    between atoms: C2_3  and  C3_4 
REMARK    4  A    between atoms: C7_9  and  C8_10 
REMARK    5  A    between atoms: C8_10  and  C9_11 
REMARK    6  A    between atoms: C16_23  and  O2_24 
ROOT
HETATM    1  C9  UNL     1      36.506   1.474 -50.112  1.00  0.00     0.066 C 
HETATM    2  C10 UNL     1      37.318   2.552 -50.796  1.00  0.00     0.033 C 
HETATM    3  C11 UNL     1      36.684   0.205 -50.831  1.00  0.00     0.033 C 
HETATM    4  C12 UNL     1      35.072   1.875 -50.525  1.00  0.00     0.070 C 
HETATM    5  N2  UNL     1      33.993   2.190 -50.820  1.00  0.00    -0.196 NA
ENDROOT
BRANCH   1   6
HETATM    6  C8  UNL     1      36.525   1.531 -48.616  1.00  0.00     0.104 C 
HETATM    7  C13 UNL     1      35.551   0.453 -48.220  1.00  0.00     0.138 C 
HETATM    8  N3  UNL     1      34.245   0.519 -48.259  1.00  0.00    -0.382 N 
HETATM    9  O1  UNL     1      36.264  -0.630 -47.801  1.00  0.00    -0.294 OA
ATOM     10  H32 UNL     1      33.711   1.329 -48.573  1.00  0.00     0.158 HD
ATOM     11  H31 UNL     1      33.584  -0.211 -47.990  1.00  0.00     0.158 HD
HETATM   12  C14 UNL     1      37.609  -0.332 -47.742  1.00  0.00     0.110 A 
HETATM   13  C15 UNL     1      37.805   0.958 -48.137  1.00  0.00     0.034 A 
HETATM   14  C23 UNL     1      38.655  -1.163 -47.336  1.00  0.00     0.090 A 
HETATM   15  C16 UNL     1      39.094   1.516 -48.141  1.00  0.00     0.087 A 
HETATM   16  C17 UNL     1      40.121   0.689 -47.737  1.00  0.00     0.009 A 
HETATM   17  C18 UNL     1      41.425   1.141 -47.707  1.00  0.00     0.015 A 
HETATM   18  C22 UNL     1      39.923  -0.627 -47.340  1.00  0.00     0.000 A 
HETATM   19  C19 UNL     1      42.487   0.339 -47.308  1.00  0.00     0.001 A 
HETATM   20  C20 UNL     1      42.271  -0.957 -46.921  1.00  0.00     0.001 A 
HETATM   21  C21 UNL     1      40.976  -1.421 -46.944  1.00  0.00     0.014 A 
HETATM   22  C24 UNL     1      38.380  -2.495 -46.945  1.00  0.00     0.103 C 
HETATM   23  N4  UNL     1      38.170  -3.597 -46.610  1.00  0.00    -0.191 NA
BRANCH   6  24
HETATM   24  C7  UNL     1      36.169   2.784 -47.982  1.00  0.00    -0.032 A 
HETATM   25  C6  UNL     1      36.171   4.004 -48.576  1.00  0.00     0.011 A 
HETATM   26  C5  UNL     1      35.816   5.169 -47.880  1.00  0.00     0.033 A 
HETATM   27  C4  UNL     1      35.456   5.079 -46.558  1.00  0.00     0.069 A 
HETATM   28  C26 UNL     1      35.452   3.834 -45.950  1.00  0.00     0.143 A 
HETATM   29  C25 UNL     1      35.797   2.696 -46.627  1.00  0.00     0.053 A 
HETATM   30  F2  UNL     1      35.087   3.769 -44.624  1.00  0.00    -0.204 F 
BRANCH  27  31
HETATM   31  N1  UNL     1      35.087   6.259 -45.857  1.00  0.00    -0.380 N 
HETATM   32  C1  UNL     1      35.296   7.527 -46.533  1.00  0.00     0.150 C 
BRANCH  31  33
HETATM   33  C2  UNL     1      34.521   6.323 -44.548  1.00  0.00     0.154 C 
BRANCH  33  34
HETATM   34  C3  UNL     1      34.294   7.686 -43.992  1.00  0.00     0.241 C 
HETATM   35  F1  UNL     1      34.944   7.705 -42.747  1.00  0.00    -0.254 F 
ENDBRANCH  33  34
ENDBRANCH  31  33
ENDBRANCH  27  31
ENDBRANCH   6  24
BRANCH  15  36
HETATM   36  O2  UNL     1      39.305   2.822 -48.525  1.00  0.00    -0.359 OA
ATOM     37  H2  UNL     1      39.559   3.038 -49.416  1.00  0.00     0.217 HD
ENDBRANCH  15  36
ENDBRANCH   1   6
TORSDOF 6
ENDMDL
MODEL 5
REMARK VINA RESULT: -7.291704295      1.639      2.153
REMARK  6 active torsions:
REMARK  status: ('A' for Active; 'I' for Inactive)
REMARK    1  A    between atoms: N1_2  and  C2_3 
REMARK    2  A    between atoms: N1_2  and  C4_6 
REMARK    3  A    between atoms: C2_3  and  C3_4 
REMARK    4  A    between atoms: C7_9  and  C8_10 
REMARK    5  A    between atoms: C8_10  and  C9_11 
REMARK    6  A    between atoms: C16_23  and  O2_24 
ROOT
HETATM    1  C9  UNL     1      34.336   6.857 -47.740  1.00  0.00     0.066 C 
HETATM    2  C10 UNL     1      35.341   7.826 -47.157  1.00  0.00     0.033 C 
HETATM    3  C11 UNL     1      34.378   6.940 -49.206  1.00  0.00     0.033 C 
HETATM    4  C12 UNL     1      33.007   7.576 -47.419  1.00  0.00     0.070 C 
HETATM    5  N2  UNL     1      32.008   8.108 -47.158  1.00  0.00    -0.196 NA
ENDROOT
BRANCH   1   6
HETATM    6  C8  UNL     1      34.260   5.537 -47.038  1.00  0.00     0.104 C 
HETATM    7  C13 UNL     1      33.014   4.915 -47.611  1.00  0.00     0.138 C 
HETATM    8  N3  UNL     1      31.776   5.209 -47.307  1.00  0.00    -0.382 N 
HETATM    9  O1  UNL     1      33.390   3.971 -48.518  1.00  0.00    -0.294 OA
ATOM     10  H32 UNL     1      31.495   5.916 -46.627  1.00  0.00     0.158 HD
ATOM     11  H31 UNL     1      30.932   4.787 -47.694  1.00  0.00     0.158 HD
HETATM   12  C14 UNL     1      34.759   3.802 -48.503  1.00  0.00     0.110 A 
HETATM   13  C15 UNL     1      35.310   4.646 -47.587  1.00  0.00     0.034 A 
HETATM   14  C23 UNL     1      35.522   2.913 -49.264  1.00  0.00     0.090 A 
HETATM   15  C16 UNL     1      36.697   4.649 -47.361  1.00  0.00     0.087 A 
HETATM   16  C17 UNL     1      37.443   3.768 -48.115  1.00  0.00     0.009 A 
HETATM   17  C18 UNL     1      38.813   3.695 -47.969  1.00  0.00     0.015 A 
HETATM   18  C22 UNL     1      36.882   2.910 -49.052  1.00  0.00     0.000 A 
HETATM   19  C19 UNL     1      39.600   2.821 -48.711  1.00  0.00     0.001 A 
HETATM   20  C20 UNL     1      39.028   1.983 -49.631  1.00  0.00     0.001 A 
HETATM   21  C21 UNL     1      37.662   2.045 -49.786  1.00  0.00     0.014 A 
HETATM   22  C24 UNL     1      34.884   2.067 -50.203  1.00  0.00     0.103 C 
HETATM   23  N4  UNL     1      34.373   1.355 -50.977  1.00  0.00    -0.191 NA
BRANCH   6  24
HETATM   24  C7  UNL     1      34.195   5.544 -45.590  1.00  0.00    -0.032 A 
HETATM   25  C6  UNL     1      33.862   4.489 -44.805  1.00  0.00     0.011 A 
HETATM   26  C5  UNL     1      33.818   4.589 -43.406  1.00  0.00     0.033 A 
HETATM   27  C4  UNL     1      34.119   5.788 -42.809  1.00  0.00     0.069 A 
HETATM   28  C26 UNL     1      34.460   6.866 -43.609  1.00  0.00     0.143 A 
HETATM   29  C25 UNL     1      34.504   6.771 -44.972  1.00  0.00     0.053 A 
HETATM   30  F2  UNL     1      34.758   8.058 -42.987  1.00  0.00    -0.204 F 
BRANCH  27  31
HETATM   31  N1  UNL     1      34.083   5.885 -41.391  1.00  0.00    -0.380 N 
HETATM   32  C1  UNL     1      32.965   6.601 -40.801  1.00  0.00     0.150 C 
BRANCH  31  33
HETATM   33  C2  UNL     1      35.038   5.339 -40.481  1.00  0.00     0.154 C 
BRANCH  33  34
HETATM   34  C3  UNL     1      34.513   4.896 -39.159  1.00  0.00     0.241 C 
HETATM   35  F1  UNL     1      35.018   5.811 -38.221  1.00  0.00    -0.254 F 
ENDBRANCH  33  34
ENDBRANCH  31  33
ENDBRANCH  27  31
ENDBRANCH   6  24
BRANCH  15  36
HETATM   36  O2  UNL     1      37.266   5.490 -46.429  1.00  0.00    -0.359 OA
ATOM     37  H2  UNL     1      37.231   5.290 -45.500  1.00  0.00     0.217 HD
ENDBRANCH  15  36
ENDBRANCH   1   6
TORSDOF 6
ENDMDL
