MODEL 1
REMARK VINA RESULT: -9.670641527      0.000      0.000
REMARK  6 active torsions:
REMARK  status: ('A' for Active; 'I' for Inactive)
REMARK    1  A    between atoms: C4_4  and  C5_5 
REMARK    2  A    between atoms: C6_9  and  C7_10 
REMARK    3  A    between atoms: C13_19  and  N4_20 
REMARK    4  A    between atoms: N4_20  and  C14_22 
REMARK    5  A    between atoms: C14_22  and  C15_23 
REMARK    6  A    between atoms: C21_32  and  O2_33 
ROOT
HETATM    1  C1  UNL     1      35.904   1.312 -38.393  1.00  0.00     0.010 C 
HETATM    2  C2  UNL     1      36.903   0.591 -39.317  1.00  0.00    -0.015 C 
HETATM    3  C3  UNL     1      37.976  -0.057 -38.550  1.00  0.00     0.016 C 
HETATM    4  C4  UNL     1      38.072  -1.555 -38.590  1.00  0.00     0.056 C 
HETATM    5  C11 UNL     1      38.968  -2.071 -39.661  1.00  0.00     0.014 C 
HETATM    6  C12 UNL     1      38.948  -1.225 -40.909  1.00  0.00     0.028 C 
HETATM    7  C13 UNL     1      37.688  -1.552 -41.732  1.00  0.00     0.105 C 
HETATM    8  C21 UNL     1      36.851  -0.316 -41.662  1.00  0.00     0.140 C 
HETATM    9  C22 UNL     1      36.142  -0.207 -40.292  1.00  0.00     0.038 C 
ENDROOT
BRANCH   4  10
HETATM   10  C5  UNL     1      38.758  -1.942 -37.291  1.00  0.00     0.108 A 
HETATM   11  N1  UNL     1      39.333  -1.098 -36.420  1.00  0.00    -0.247 N 
HETATM   12  O1  UNL     1      39.822  -1.809 -35.420  1.00  0.00    -0.222 OA
ATOM     13  H1  UNL     1      39.383  -0.084 -36.514  1.00  0.00     0.196 HD
HETATM   14  C6  UNL     1      39.578  -3.066 -35.618  1.00  0.00     0.155 A 
HETATM   15  N3  UNL     1      38.912  -3.153 -36.787  1.00  0.00    -0.326 N 
ATOM     16  H3  UNL     1      38.579  -4.017 -37.215  1.00  0.00     0.169 HD
BRANCH  14  17
HETATM   17  C7  UNL     1      39.948  -4.216 -34.745  1.00  0.00     0.119 C 
HETATM   18  C8  UNL     1      38.707  -4.608 -33.904  1.00  0.00     0.286 C 
HETATM   19  N2  UNL     1      38.288  -5.363 -35.061  1.00  0.00     0.085 N 
HETATM   20  C9  UNL     1      37.619  -6.579 -34.692  1.00  0.00     0.309 C 
HETATM   21  C10 UNL     1      39.716  -5.555 -35.347  1.00  0.00     0.286 C 
ENDBRANCH  14  17
ENDBRANCH   4  10
BRANCH   7  22
HETATM   22  N4  UNL     1      38.016  -1.914 -43.052  1.00  0.00    -0.411 N 
ATOM     23  H4  UNL     1      37.579  -1.454 -43.851  1.00  0.00     0.154 HD
BRANCH  22  24
HETATM   24  C14 UNL     1      38.975  -2.938 -43.231  1.00  0.00     0.158 C 
BRANCH  24  25
HETATM   25  C15 UNL     1      38.287  -4.259 -43.411  1.00  0.00     0.021 A 
HETATM   26  C16 UNL     1      37.955  -4.602 -44.699  1.00  0.00     0.045 A 
HETATM   27 CL1  UNL     1      38.421  -3.662 -46.110  1.00  0.00    -0.084 Cl
HETATM   28  C17 UNL     1      37.248  -5.758 -44.913  1.00  0.00     0.026 A 
HETATM   29  C18 UNL     1      36.849  -6.602 -43.895  1.00  0.00     0.029 A 
HETATM   30  C19 UNL     1      37.187  -6.244 -42.614  1.00  0.00     0.073 A 
HETATM   31 CL2  UNL     1      36.666  -7.264 -41.286  1.00  0.00    -0.081 Cl
HETATM   32  C20 UNL     1      37.908  -5.070 -42.384  1.00  0.00     0.147 A 
HETATM   33  F1  UNL     1      38.231  -4.764 -41.086  1.00  0.00    -0.204 F 
ENDBRANCH  24  25
ENDBRANCH  22  24
ENDBRANCH   7  22
BRANCH   8  34
HETATM   34  O2  UNL     1      37.650   0.832 -41.793  1.00  0.00    -0.394 OA
ATOM     35  H2  UNL     1      37.317   1.396 -42.482  1.00  0.00     0.210 HD
ENDBRANCH   8  34
TORSDOF 6
ENDMDL
MODEL 2
REMARK VINA RESULT: -9.652127678      3.012      7.676
REMARK  6 active torsions:
REMARK  status: ('A' for Active; 'I' for Inactive)
REMARK    1  A    between atoms: C4_4  and  C5_5 
REMARK    2  A    between atoms: C6_9  and  C7_10 
REMARK    3  A    between atoms: C13_19  and  N4_20 
REMARK    4  A    between atoms: N4_20  and  C14_22 
REMARK    5  A    between atoms: C14_22  and  C15_23 
REMARK    6  A    between atoms: C21_32  and  O2_33 
ROOT
HETATM    1  C1  UNL     1      40.276   1.392 -39.585  1.00  0.00     0.010 C 
HETATM    2  C2  UNL     1      39.701   0.047 -39.103  1.00  0.00    -0.015 C 
HETATM    3  C3  UNL     1      38.815  -0.553 -40.110  1.00  0.00     0.016 C 
HETATM    4  C4  UNL     1      39.229  -1.855 -40.734  1.00  0.00     0.056 C 
HETATM    5  C11 UNL     1      38.701  -3.053 -40.026  1.00  0.00     0.014 C 
HETATM    6  C12 UNL     1      38.599  -2.864 -38.534  1.00  0.00     0.028 C 
HETATM    7  C13 UNL     1      39.990  -3.036 -37.898  1.00  0.00     0.105 C 
HETATM    8  C21 UNL     1      40.353  -1.677 -37.392  1.00  0.00     0.140 C 
HETATM    9  C22 UNL     1      40.803  -0.759 -38.552  1.00  0.00     0.038 C 
ENDROOT
BRANCH   4  10
HETATM   10  C5  UNL     1      38.549  -1.876 -42.092  1.00  0.00     0.108 A 
HETATM   11  N1  UNL     1      37.550  -1.072 -42.487  1.00  0.00    -0.247 N 
HETATM   12  O1  UNL     1      37.226  -1.396 -43.726  1.00  0.00    -0.222 OA
ATOM     13  H1  UNL     1      37.116  -0.338 -41.928  1.00  0.00     0.196 HD
HETATM   14  C6  UNL     1      37.981  -2.367 -44.134  1.00  0.00     0.155 A 
HETATM   15  N3  UNL     1      38.810  -2.670 -43.115  1.00  0.00    -0.326 N 
ATOM     16  H3  UNL     1      39.526  -3.397 -43.130  1.00  0.00     0.169 HD
BRANCH  14  17
HETATM   17  C7  UNL     1      37.961  -3.042 -45.463  1.00  0.00     0.119 C 
HETATM   18  C8  UNL     1      38.077  -1.956 -46.562  1.00  0.00     0.286 C 
HETATM   19  N2  UNL     1      39.501  -2.017 -46.329  1.00  0.00     0.085 N 
HETATM   20  C9  UNL     1      40.249  -1.835 -47.541  1.00  0.00     0.309 C 
HETATM   21  C10 UNL     1      39.297  -3.431 -45.984  1.00  0.00     0.286 C 
ENDBRANCH  14  17
ENDBRANCH   4  10
BRANCH   7  22
HETATM   22  N4  UNL     1      39.974  -4.009 -36.881  1.00  0.00    -0.411 N 
ATOM     23  H4  UNL     1      40.808  -4.213 -36.330  1.00  0.00     0.154 HD
BRANCH  22  24
HETATM   24  C14 UNL     1      38.758  -4.694 -36.650  1.00  0.00     0.158 C 
BRANCH  24  25
HETATM   25  C15 UNL     1      39.036  -6.121 -36.280  1.00  0.00     0.021 A 
HETATM   26  C16 UNL     1      39.266  -6.987 -37.321  1.00  0.00     0.045 A 
HETATM   27 CL1  UNL     1      39.394  -6.482 -39.000  1.00  0.00    -0.084 Cl
HETATM   28  C17 UNL     1      39.440  -8.320 -37.044  1.00  0.00     0.026 A 
HETATM   29  C18 UNL     1      39.397  -8.841 -35.767  1.00  0.00     0.029 A 
HETATM   30  C19 UNL     1      39.164  -7.963 -34.737  1.00  0.00     0.073 A 
HETATM   31 CL2  UNL     1      39.059  -8.586 -33.101  1.00  0.00    -0.081 Cl
HETATM   32  C20 UNL     1      38.987  -6.604 -35.006  1.00  0.00     0.147 A 
HETATM   33  F1  UNL     1      38.769  -5.766 -33.942  1.00  0.00    -0.204 F 
ENDBRANCH  24  25
ENDBRANCH  22  24
ENDBRANCH   7  22
BRANCH   8  34
HETATM   34  O2  UNL     1      39.242  -1.056 -36.797  1.00  0.00    -0.394 OA
ATOM     35  H2  UNL     1      39.383  -0.938 -35.865  1.00  0.00     0.210 HD
ENDBRANCH   8  34
TORSDOF 6
ENDMDL
MODEL 3
REMARK VINA RESULT: -9.376659894      3.245      7.884
REMARK  6 active torsions:
REMARK  status: ('A' for Active; 'I' for Inactive)
REMARK    1  A    between atoms: C4_4  and  C5_5 
REMARK    2  A    between atoms: C6_9  and  C7_10 
REMARK    3  A    between atoms: C13_19  and  N4_20 
REMARK    4  A    between atoms: N4_20  and  C14_22 
REMARK    5  A    between atoms: C14_22  and  C15_23 
REMARK    6  A    between atoms: C21_32  and  O2_33 
ROOT
HETATM    1  C1  UNL     1      40.277   1.359 -39.650  1.00  0.00     0.010 C 
HETATM    2  C2  UNL     1      39.690   0.015 -39.182  1.00  0.00    -0.015 C 
HETATM    3  C3  UNL     1      38.797  -0.565 -40.195  1.00  0.00     0.016 C 
HETATM    4  C4  UNL     1      39.198  -1.864 -40.835  1.00  0.00     0.056 C 
HETATM    5  C11 UNL     1      38.659  -3.065 -40.141  1.00  0.00     0.014 C 
HETATM    6  C12 UNL     1      38.560  -2.892 -38.646  1.00  0.00     0.028 C 
HETATM    7  C13 UNL     1      39.950  -3.085 -38.013  1.00  0.00     0.105 C 
HETATM    8  C21 UNL     1      40.326  -1.735 -37.492  1.00  0.00     0.140 C 
HETATM    9  C22 UNL     1      40.784  -0.808 -38.642  1.00  0.00     0.038 C 
ENDROOT
BRANCH   4  10
HETATM   10  C5  UNL     1      38.517  -1.862 -42.193  1.00  0.00     0.108 A 
HETATM   11  N1  UNL     1      37.503  -1.067 -42.567  1.00  0.00    -0.247 N 
HETATM   12  O1  UNL     1      37.183  -1.365 -43.813  1.00  0.00    -0.222 OA
ATOM     13  H1  UNL     1      37.057  -0.355 -41.989  1.00  0.00     0.196 HD
HETATM   14  C6  UNL     1      37.955  -2.312 -44.246  1.00  0.00     0.155 A 
HETATM   15  N3  UNL     1      38.791  -2.625 -43.235  1.00  0.00    -0.326 N 
ATOM     16  H3  UNL     1      39.519  -3.338 -43.270  1.00  0.00     0.169 HD
BRANCH  14  17
HETATM   17  C7  UNL     1      37.945  -2.953 -45.591  1.00  0.00     0.119 C 
HETATM   18  C8  UNL     1      38.203  -1.855 -46.655  1.00  0.00     0.286 C 
HETATM   19  N2  UNL     1      39.604  -2.038 -46.358  1.00  0.00     0.085 N 
HETATM   20  C9  UNL     1      40.422  -1.891 -47.529  1.00  0.00     0.309 C 
HETATM   21  C10 UNL     1      39.270  -3.438 -46.060  1.00  0.00     0.286 C 
ENDBRANCH  14  17
ENDBRANCH   4  10
BRANCH   7  22
HETATM   22  N4  UNL     1      39.925  -4.069 -37.008  1.00  0.00    -0.411 N 
ATOM     23  H4  UNL     1      40.780  -4.365 -36.535  1.00  0.00     0.154 HD
BRANCH  22  24
HETATM   24  C14 UNL     1      38.672  -4.635 -36.677  1.00  0.00     0.158 C 
BRANCH  24  25
HETATM   25  C15 UNL     1      38.866  -5.988 -36.061  1.00  0.00     0.021 A 
HETATM   26  C16 UNL     1      38.880  -6.036 -34.688  1.00  0.00     0.045 A 
HETATM   27 CL1  UNL     1      38.540  -4.651 -33.660  1.00  0.00    -0.084 Cl
HETATM   28  C17 UNL     1      39.140  -7.234 -34.072  1.00  0.00     0.026 A 
HETATM   29  C18 UNL     1      39.391  -8.403 -34.762  1.00  0.00     0.029 A 
HETATM   30  C19 UNL     1      39.375  -8.339 -36.134  1.00  0.00     0.073 A 
HETATM   31 CL2  UNL     1      39.729  -9.790 -37.053  1.00  0.00    -0.081 Cl
HETATM   32  C20 UNL     1      39.110  -7.125 -36.772  1.00  0.00     0.147 A 
HETATM   33  F1  UNL     1      39.094  -7.115 -38.144  1.00  0.00    -0.204 F 
ENDBRANCH  24  25
ENDBRANCH  22  24
ENDBRANCH   7  22
BRANCH   8  34
HETATM   34  O2  UNL     1      39.222  -1.111 -36.889  1.00  0.00    -0.394 OA
ATOM     35  H2  UNL     1      39.107  -0.231 -37.227  1.00  0.00     0.210 HD
ENDBRANCH   8  34
TORSDOF 6
ENDMDL
MODEL 4
REMARK VINA RESULT: -9.304089861      1.462      2.416
REMARK  6 active torsions:
REMARK  status: ('A' for Active; 'I' for Inactive)
REMARK    1  A    between atoms: C4_4  and  C5_5 
REMARK    2  A    between atoms: C6_9  and  C7_10 
REMARK    3  A    between atoms: C13_19  and  N4_20 
REMARK    4  A    between atoms: N4_20  and  C14_22 
REMARK    5  A    between atoms: C14_22  and  C15_23 
REMARK    6  A    between atoms: C21_32  and  O2_33 
ROOT
HETATM    1  C1  UNL     1      36.368   1.741 -38.253  1.00  0.00     0.010 C 
HETATM    2  C2  UNL     1      37.112   0.844 -39.260  1.00  0.00    -0.015 C 
HETATM    3  C3  UNL     1      38.137   0.026 -38.598  1.00  0.00     0.016 C 
HETATM    4  C4  UNL     1      37.965  -1.466 -38.600  1.00  0.00     0.056 C 
HETATM    5  C11 UNL     1      38.627  -2.144 -39.748  1.00  0.00     0.014 C 
HETATM    6  C12 UNL     1      38.611  -1.323 -41.012  1.00  0.00     0.028 C 
HETATM    7  C13 UNL     1      37.228  -1.431 -41.678  1.00  0.00     0.105 C 
HETATM    8  C21 UNL     1      36.633  -0.066 -41.555  1.00  0.00     0.140 C 
HETATM    9  C22 UNL     1      36.117   0.183 -40.119  1.00  0.00     0.038 C 
ENDROOT
BRANCH   4  10
HETATM   10  C5  UNL     1      38.718  -1.953 -37.375  1.00  0.00     0.108 A 
HETATM   11  N1  UNL     1      39.285  -1.179 -36.436  1.00  0.00    -0.247 N 
HETATM   12  O1  UNL     1      39.846  -1.966 -35.536  1.00  0.00    -0.222 OA
ATOM     13  H1  UNL     1      39.282  -0.159 -36.421  1.00  0.00     0.196 HD
HETATM   14  C6  UNL     1      39.654  -3.206 -35.861  1.00  0.00     0.155 A 
HETATM   15  N3  UNL     1      38.948  -3.201 -37.010  1.00  0.00    -0.326 N 
ATOM     16  H3  UNL     1      38.641  -4.031 -37.518  1.00  0.00     0.169 HD
BRANCH  14  17
HETATM   17  C7  UNL     1      40.112  -4.421 -35.131  1.00  0.00     0.119 C 
HETATM   18  C8  UNL     1      39.108  -4.709 -33.986  1.00  0.00     0.286 C 
HETATM   19  N2  UNL     1      38.308  -5.369 -34.990  1.00  0.00     0.085 N 
HETATM   20  C9  UNL     1      37.629  -6.519 -34.461  1.00  0.00     0.309 C 
HETATM   21  C10 UNL     1      39.575  -5.703 -35.657  1.00  0.00     0.286 C 
ENDBRANCH  14  17
ENDBRANCH   4  10
BRANCH   7  22
HETATM   22  N4  UNL     1      37.333  -1.861 -43.015  1.00  0.00    -0.411 N 
ATOM     23  H4  UNL     1      37.565  -1.207 -43.763  1.00  0.00     0.154 HD
BRANCH  22  24
HETATM   24  C14 UNL     1      37.106  -3.231 -43.282  1.00  0.00     0.158 C 
BRANCH  24  25
HETATM   25  C15 UNL     1      38.323  -3.840 -43.911  1.00  0.00     0.021 A 
HETATM   26  C16 UNL     1      38.670  -5.095 -43.475  1.00  0.00     0.045 A 
HETATM   27 CL1  UNL     1      37.697  -6.045 -42.361  1.00  0.00    -0.084 Cl
HETATM   28  C17 UNL     1      39.824  -5.664 -43.953  1.00  0.00     0.026 A 
HETATM   29  C18 UNL     1      40.660  -5.039 -44.857  1.00  0.00     0.029 A 
HETATM   30  C19 UNL     1      40.300  -3.784 -45.281  1.00  0.00     0.073 A 
HETATM   31 CL2  UNL     1      41.352  -2.934 -46.397  1.00  0.00    -0.081 Cl
HETATM   32  C20 UNL     1      39.127  -3.195 -44.802  1.00  0.00     0.147 A 
HETATM   33  F1  UNL     1      38.805  -1.945 -45.267  1.00  0.00    -0.204 F 
ENDBRANCH  24  25
ENDBRANCH  22  24
ENDBRANCH   7  22
BRANCH   8  34
HETATM   34  O2  UNL     1      37.599   0.921 -41.810  1.00  0.00    -0.394 OA
ATOM     35  H2  UNL     1      38.007   1.209 -41.002  1.00  0.00     0.210 HD
ENDBRANCH   8  34
TORSDOF 6
ENDMDL
MODEL 5
REMARK VINA RESULT: -9.290244071      2.768      7.420
REMARK  6 active torsions:
REMARK  status: ('A' for Active; 'I' for Inactive)
REMARK    1  A    between atoms: C4_4  and  C5_5 
REMARK    2  A    between atoms: C6_9  and  C7_10 
REMARK    3  A    between atoms: C13_19  and  N4_20 
REMARK    4  A    between atoms: N4_20  and  C14_22 
REMARK    5  A    between atoms: C14_22  and  C15_23 
REMARK    6  A    between atoms: C21_32  and  O2_33 
ROOT
HETATM    1  C1  UNL     1      40.408   1.424 -39.704  1.00  0.00     0.010 C 
HETATM    2  C2  UNL     1      39.774   0.125 -39.173  1.00  0.00    -0.015 C 
HETATM    3  C3  UNL     1      38.862  -0.471 -40.158  1.00  0.00     0.016 C 
HETATM    4  C4  UNL     1      39.216  -1.812 -40.733  1.00  0.00     0.056 C 
HETATM    5  C11 UNL     1      38.636  -2.959 -39.982  1.00  0.00     0.014 C 
HETATM    6  C12 UNL     1      38.543  -2.711 -38.498  1.00  0.00     0.028 C 
HETATM    7  C13 UNL     1      39.926  -2.921 -37.855  1.00  0.00     0.105 C 
HETATM    8  C21 UNL     1      40.349  -1.562 -37.399  1.00  0.00     0.140 C 
HETATM    9  C22 UNL     1      40.839  -0.708 -38.591  1.00  0.00     0.038 C 
ENDROOT
BRANCH   4  10
HETATM   10  C5  UNL     1      38.536  -1.853 -42.090  1.00  0.00     0.108 A 
HETATM   11  N1  UNL     1      37.537  -1.054 -42.497  1.00  0.00    -0.247 N 
HETATM   12  O1  UNL     1      37.212  -1.396 -43.731  1.00  0.00    -0.222 OA
ATOM     13  H1  UNL     1      37.104  -0.311 -41.949  1.00  0.00     0.196 HD
HETATM   14  C6  UNL     1      37.966  -2.374 -44.125  1.00  0.00     0.155 A 
HETATM   15  N3  UNL     1      38.795  -2.662 -43.101  1.00  0.00    -0.326 N 
ATOM     16  H3  UNL     1      39.510  -3.390 -43.107  1.00  0.00     0.169 HD
BRANCH  14  17
HETATM   17  C7  UNL     1      37.944  -3.068 -45.443  1.00  0.00     0.119 C 
HETATM   18  C8  UNL     1      38.075  -2.000 -46.558  1.00  0.00     0.286 C 
HETATM   19  N2  UNL     1      39.497  -2.071 -46.319  1.00  0.00     0.085 N 
HETATM   20  C9  UNL     1      40.251  -1.915 -47.531  1.00  0.00     0.309 C 
HETATM   21  C10 UNL     1      39.278  -3.478 -45.954  1.00  0.00     0.286 C 
ENDBRANCH  14  17
ENDBRANCH   4  10
BRANCH   7  22
HETATM   22  N4  UNL     1      39.867  -3.855 -36.803  1.00  0.00    -0.411 N 
ATOM     23  H4  UNL     1      39.713  -3.557 -35.839  1.00  0.00     0.154 HD
BRANCH  22  24
HETATM   24  C14 UNL     1      40.028  -5.221 -37.131  1.00  0.00     0.158 C 
BRANCH  24  25
HETATM   25  C15 UNL     1      38.715  -5.935 -37.012  1.00  0.00     0.021 A 
HETATM   26  C16 UNL     1      38.258  -6.160 -35.736  1.00  0.00     0.045 A 
HETATM   27 CL1  UNL     1      39.044  -5.535 -34.293  1.00  0.00    -0.084 Cl
HETATM   28  C17 UNL     1      37.105  -6.885 -35.566  1.00  0.00     0.026 A 
HETATM   29  C18 UNL     1      36.374  -7.404 -36.617  1.00  0.00     0.029 A 
HETATM   30  C19 UNL     1      36.846  -7.173 -37.885  1.00  0.00     0.073 A 
HETATM   31 CL2  UNL     1      35.973  -7.848 -39.248  1.00  0.00    -0.081 Cl
HETATM   32  C20 UNL     1      38.017  -6.435 -38.070  1.00  0.00     0.147 A 
HETATM   33  F1  UNL     1      38.440  -6.221 -39.358  1.00  0.00    -0.204 F 
ENDBRANCH  24  25
ENDBRANCH  22  24
ENDBRANCH   7  22
BRANCH   8  34
HETATM   34  O2  UNL     1      39.268  -0.871 -36.828  1.00  0.00    -0.394 OA
ATOM     35  H2  UNL     1      39.188  -0.002 -37.204  1.00  0.00     0.210 HD
ENDBRANCH   8  34
TORSDOF 6
ENDMDL
