MODEL 1
REMARK VINA RESULT: -7.841290607      0.000      0.000
REMARK  6 active torsions:
REMARK  status: ('A' for Active; 'I' for Inactive)
REMARK    1  A    between atoms: O1_2  and  C2_3 
REMARK    2  A    between atoms: C4_5  and  C5_6 
REMARK    3  A    between atoms: N2_13  and  C8_14 
REMARK    4  A    between atoms: C12_19  and  C13_20 
REMARK    5  A    between atoms: C13_20  and  N3_21 
REMARK    6  A    between atoms: C20_31  and  O3_32 
ROOT
HETATM    1  C5  UNL     1      38.729  -2.148 -42.034  1.00  0.00     0.036 C 
HETATM    2  C6  UNL     1      38.427  -3.332 -42.476  1.00  0.00     0.077 C 
HETATM    3  S1  UNL     1      38.191  -3.698 -44.253  1.00  0.00    -0.048 SA
HETATM    4  C7  UNL     1      37.185  -5.152 -43.958  1.00  0.00     0.153 C 
HETATM    5  N1  UNL     1      36.348  -5.620 -44.788  1.00  0.00    -0.379 N 
ATOM      6  H11 UNL     1      35.775  -6.447 -44.620  1.00  0.00     0.158 HD
ATOM      7  H12 UNL     1      36.077  -5.312 -45.722  1.00  0.00     0.158 HD
HETATM    8  N2  UNL     1      37.558  -5.576 -42.669  1.00  0.00    -0.256 N 
HETATM    9  C17 UNL     1      38.212  -4.631 -41.881  1.00  0.00     0.271 C 
HETATM   10  O2  UNL     1      38.614  -4.883 -40.685  1.00  0.00    -0.266 OA
ENDROOT
BRANCH   1  11
HETATM   11  C4  UNL     1      38.939  -1.706 -40.687  1.00  0.00    -0.030 A 
HETATM   12  C3  UNL     1      37.908  -1.568 -39.797  1.00  0.00     0.051 A 
HETATM   13  C2  UNL     1      38.122  -1.151 -38.482  1.00  0.00     0.103 A 
HETATM   14  C20 UNL     1      39.405  -0.869 -38.056  1.00  0.00     0.121 A 
HETATM   15  C19 UNL     1      40.461  -1.004 -38.945  1.00  0.00     0.070 A 
HETATM   16  C18 UNL     1      40.214  -1.420 -40.247  1.00  0.00     0.038 A 
HETATM   17 CL3  UNL     1      42.119  -0.656 -38.451  1.00  0.00    -0.081 Cl
BRANCH  13  18
HETATM   18  O1  UNL     1      37.066  -1.020 -37.606  1.00  0.00    -0.353 OA
HETATM   19  C1  UNL     1      35.889  -0.384 -38.047  1.00  0.00     0.210 C 
ENDBRANCH  13  18
BRANCH  14  20
HETATM   20  O3  UNL     1      39.664  -0.456 -36.773  1.00  0.00    -0.356 OA
ATOM     21  H3  UNL     1      40.458  -0.710 -36.318  1.00  0.00     0.218 HD
ENDBRANCH  14  20
ENDBRANCH   1  11
BRANCH   8  22
HETATM   22  C8  UNL     1      37.252  -6.920 -42.217  1.00  0.00     0.068 A 
HETATM   23  C9  UNL     1      36.347  -7.083 -41.181  1.00  0.00     0.056 A 
HETATM   24  C10 UNL     1      36.035  -8.342 -40.726  1.00  0.00     0.036 A 
HETATM   25 CL1  UNL     1      34.905  -8.615 -39.424  1.00  0.00    -0.084 Cl
HETATM   26  C11 UNL     1      36.663  -9.422 -41.348  1.00  0.00     0.034 A 
HETATM   27  C12 UNL     1      37.563  -9.293 -42.375  1.00  0.00    -0.004 A 
HETATM   28  C16 UNL     1      37.855  -8.005 -42.811  1.00  0.00     0.069 A 
HETATM   29 CL2  UNL     1      38.979  -7.776 -44.102  1.00  0.00    -0.081 Cl
BRANCH  27  30
HETATM   30  C13 UNL     1      38.253 -10.392 -43.047  1.00  0.00     0.311 C 
BRANCH  30  31
HETATM   31  N3  UNL     1      37.614 -10.860 -44.255  1.00  0.00     0.084 N 
HETATM   32  C14 UNL     1      36.833 -12.070 -43.958  1.00  0.00     0.309 C 
HETATM   33  C15 UNL     1      38.615 -11.317 -45.222  1.00  0.00     0.309 C 
ENDBRANCH  30  31
ENDBRANCH  27  30
ENDBRANCH   8  22
TORSDOF 6
ENDMDL
MODEL 2
REMARK VINA RESULT: -7.821114653      4.050      6.445
REMARK  6 active torsions:
REMARK  status: ('A' for Active; 'I' for Inactive)
REMARK    1  A    between atoms: O1_2  and  C2_3 
REMARK    2  A    between atoms: C4_5  and  C5_6 
REMARK    3  A    between atoms: N2_13  and  C8_14 
REMARK    4  A    between atoms: C12_19  and  C13_20 
REMARK    5  A    between atoms: C13_20  and  N3_21 
REMARK    6  A    between atoms: C20_31  and  O3_32 
ROOT
HETATM    1  C5  UNL     1      38.426  -3.359 -40.601  1.00  0.00     0.036 C 
HETATM    2  C6  UNL     1      38.572  -3.684 -41.850  1.00  0.00     0.077 C 
HETATM    3  S1  UNL     1      38.458  -5.410 -42.447  1.00  0.00    -0.048 SA
HETATM    4  C7  UNL     1      39.415  -5.102 -43.931  1.00  0.00     0.153 C 
HETATM    5  N1  UNL     1      40.057  -5.994 -44.563  1.00  0.00    -0.379 N 
ATOM      6  H11 UNL     1      40.602  -5.819 -45.408  1.00  0.00     0.158 HD
ATOM      7  H12 UNL     1      40.170  -6.994 -44.394  1.00  0.00     0.158 HD
HETATM    8  N2  UNL     1      39.259  -3.722 -44.164  1.00  0.00    -0.256 N 
HETATM    9  C17 UNL     1      38.816  -2.967 -43.080  1.00  0.00     0.271 C 
HETATM   10  O2  UNL     1      38.626  -1.697 -43.151  1.00  0.00    -0.266 OA
ENDROOT
BRANCH   1  11
HETATM   11  C4  UNL     1      38.491  -2.068 -39.982  1.00  0.00    -0.030 A 
HETATM   12  C3  UNL     1      39.682  -1.442 -39.729  1.00  0.00     0.051 A 
HETATM   13  C2  UNL     1      39.738  -0.177 -39.141  1.00  0.00     0.103 A 
HETATM   14  C20 UNL     1      38.566   0.470 -38.801  1.00  0.00     0.121 A 
HETATM   15  C19 UNL     1      37.351  -0.150 -39.051  1.00  0.00     0.070 A 
HETATM   16  C18 UNL     1      37.330  -1.409 -39.638  1.00  0.00     0.038 A 
HETATM   17 CL3  UNL     1      35.825   0.633 -38.638  1.00  0.00    -0.081 Cl
BRANCH  13  18
HETATM   18  O1  UNL     1      40.950   0.431 -38.896  1.00  0.00    -0.353 OA
HETATM   19  C1  UNL     1      42.043  -0.364 -38.497  1.00  0.00     0.210 C 
ENDBRANCH  13  18
BRANCH  14  20
HETATM   20  O3  UNL     1      38.572   1.714 -38.221  1.00  0.00    -0.356 OA
ATOM     21  H3  UNL     1      38.287   2.486 -38.695  1.00  0.00     0.218 HD
ENDBRANCH  14  20
ENDBRANCH   1  11
BRANCH   8  22
HETATM   22  C8  UNL     1      39.563  -3.155 -45.464  1.00  0.00     0.068 A 
HETATM   23  C9  UNL     1      40.671  -2.332 -45.586  1.00  0.00     0.056 A 
HETATM   24  C10 UNL     1      40.988  -1.775 -46.802  1.00  0.00     0.036 A 
HETATM   25 CL1  UNL     1      42.368  -0.729 -47.023  1.00  0.00    -0.084 Cl
HETATM   26  C11 UNL     1      40.155  -2.075 -47.881  1.00  0.00     0.034 A 
HETATM   27  C12 UNL     1      39.053  -2.886 -47.792  1.00  0.00    -0.004 A 
HETATM   28  C16 UNL     1      38.761  -3.433 -46.546  1.00  0.00     0.069 A 
HETATM   29 CL2  UNL     1      37.387  -4.463 -46.368  1.00  0.00    -0.081 Cl
BRANCH  27  30
HETATM   30  C13 UNL     1      38.146  -3.217 -48.889  1.00  0.00     0.311 C 
BRANCH  30  31
HETATM   31  N3  UNL     1      37.708  -2.086 -49.674  1.00  0.00     0.084 N 
HETATM   32  C14 UNL     1      36.769  -1.277 -48.882  1.00  0.00     0.309 C 
HETATM   33  C15 UNL     1      36.909  -2.533 -50.817  1.00  0.00     0.309 C 
ENDBRANCH  30  31
ENDBRANCH  27  30
ENDBRANCH   8  22
TORSDOF 6
ENDMDL
MODEL 3
REMARK VINA RESULT: -7.571991516      1.229      1.992
REMARK  6 active torsions:
REMARK  status: ('A' for Active; 'I' for Inactive)
REMARK    1  A    between atoms: O1_2  and  C2_3 
REMARK    2  A    between atoms: C4_5  and  C5_6 
REMARK    3  A    between atoms: N2_13  and  C8_14 
REMARK    4  A    between atoms: C12_19  and  C13_20 
REMARK    5  A    between atoms: C13_20  and  N3_21 
REMARK    6  A    between atoms: C20_31  and  O3_32 
ROOT
HETATM    1  C5  UNL     1      38.699  -2.111 -41.863  1.00  0.00     0.036 C 
HETATM    2  C6  UNL     1      38.411  -3.275 -42.363  1.00  0.00     0.077 C 
HETATM    3  S1  UNL     1      38.210  -3.561 -44.159  1.00  0.00    -0.048 SA
HETATM    4  C7  UNL     1      37.204  -5.030 -43.948  1.00  0.00     0.153 C 
HETATM    5  N1  UNL     1      36.384  -5.463 -44.814  1.00  0.00    -0.379 N 
ATOM      6  H11 UNL     1      35.812  -6.299 -44.694  1.00  0.00     0.158 HD
ATOM      7  H12 UNL     1      36.130  -5.114 -45.739  1.00  0.00     0.158 HD
HETATM    8  N2  UNL     1      37.554  -5.510 -42.673  1.00  0.00    -0.256 N 
HETATM    9  C17 UNL     1      38.189  -4.599 -41.831  1.00  0.00     0.271 C 
HETATM   10  O2  UNL     1      38.569  -4.903 -40.641  1.00  0.00    -0.266 OA
ENDROOT
BRANCH   1  11
HETATM   11  C4  UNL     1      38.883  -1.728 -40.494  1.00  0.00    -0.030 A 
HETATM   12  C3  UNL     1      40.126  -1.596 -39.936  1.00  0.00     0.051 A 
HETATM   13  C2  UNL     1      40.299  -1.208 -38.607  1.00  0.00     0.103 A 
HETATM   14  C20 UNL     1      39.192  -0.947 -37.823  1.00  0.00     0.121 A 
HETATM   15  C19 UNL     1      37.925  -1.076 -38.372  1.00  0.00     0.070 A 
HETATM   16  C18 UNL     1      37.788  -1.464 -39.699  1.00  0.00     0.038 A 
HETATM   17 CL3  UNL     1      36.478  -0.754 -37.415  1.00  0.00    -0.081 Cl
BRANCH  13  18
HETATM   18  O1  UNL     1      41.562  -1.083 -38.069  1.00  0.00    -0.353 OA
HETATM   19  C1  UNL     1      42.367   0.003 -38.467  1.00  0.00     0.210 C 
ENDBRANCH  13  18
BRANCH  14  20
HETATM   20  O3  UNL     1      39.313  -0.562 -36.511  1.00  0.00    -0.356 OA
ATOM     21  H3  UNL     1      40.158  -0.363 -36.125  1.00  0.00     0.218 HD
ENDBRANCH  14  20
ENDBRANCH   1  11
BRANCH   8  22
HETATM   22  C8  UNL     1      37.245  -6.874 -42.287  1.00  0.00     0.068 A 
HETATM   23  C9  UNL     1      36.319  -7.086 -41.279  1.00  0.00     0.056 A 
HETATM   24  C10 UNL     1      36.004  -8.365 -40.887  1.00  0.00     0.036 A 
HETATM   25 CL1  UNL     1      34.848  -8.700 -39.622  1.00  0.00    -0.084 Cl
HETATM   26  C11 UNL     1      36.649  -9.414 -41.542  1.00  0.00     0.034 A 
HETATM   27  C12 UNL     1      37.569  -9.237 -42.544  1.00  0.00    -0.004 A 
HETATM   28  C16 UNL     1      37.865  -7.929 -42.916  1.00  0.00     0.069 A 
HETATM   29 CL2  UNL     1      39.014  -7.640 -44.172  1.00  0.00    -0.081 Cl
BRANCH  27  30
HETATM   30  C13 UNL     1      38.278 -10.302 -43.249  1.00  0.00     0.311 C 
BRANCH  30  31
HETATM   31  N3  UNL     1      37.582 -10.837 -44.397  1.00  0.00     0.084 N 
HETATM   32  C14 UNL     1      36.898 -12.083 -44.017  1.00  0.00     0.309 C 
HETATM   33  C15 UNL     1      38.535 -11.258 -45.426  1.00  0.00     0.309 C 
ENDBRANCH  30  31
ENDBRANCH  27  30
ENDBRANCH   8  22
TORSDOF 6
ENDMDL
MODEL 4
REMARK VINA RESULT: -7.460068982      4.588      5.836
REMARK  6 active torsions:
REMARK  status: ('A' for Active; 'I' for Inactive)
REMARK    1  A    between atoms: O1_2  and  C2_3 
REMARK    2  A    between atoms: C4_5  and  C5_6 
REMARK    3  A    between atoms: N2_13  and  C8_14 
REMARK    4  A    between atoms: C12_19  and  C13_20 
REMARK    5  A    between atoms: C13_20  and  N3_21 
REMARK    6  A    between atoms: C20_31  and  O3_32 
ROOT
HETATM    1  C5  UNL     1      38.738  -3.194 -35.608  1.00  0.00     0.036 C 
HETATM    2  C6  UNL     1      38.447  -4.444 -35.412  1.00  0.00     0.077 C 
HETATM    3  S1  UNL     1      38.164  -5.148 -33.747  1.00  0.00    -0.048 SA
HETATM    4  C7  UNL     1      38.540  -6.828 -34.246  1.00  0.00     0.153 C 
HETATM    5  N1  UNL     1      38.938  -7.735 -33.453  1.00  0.00    -0.379 N 
ATOM      6  H11 UNL     1      39.152  -8.691 -33.738  1.00  0.00     0.158 HD
ATOM      7  H12 UNL     1      39.121  -7.724 -32.450  1.00  0.00     0.158 HD
HETATM    8  N2  UNL     1      38.288  -6.843 -35.630  1.00  0.00    -0.256 N 
HETATM    9  C17 UNL     1      38.236  -5.598 -36.254  1.00  0.00     0.271 C 
HETATM   10  O2  UNL     1      38.009  -5.463 -37.513  1.00  0.00    -0.266 OA
ENDROOT
BRANCH   1  11
HETATM   11  C4  UNL     1      38.990  -2.500 -36.836  1.00  0.00    -0.030 A 
HETATM   12  C3  UNL     1      37.991  -2.210 -37.726  1.00  0.00     0.051 A 
HETATM   13  C2  UNL     1      38.240  -1.520 -38.914  1.00  0.00     0.103 A 
HETATM   14  C20 UNL     1      39.527  -1.112 -39.209  1.00  0.00     0.121 A 
HETATM   15  C19 UNL     1      40.551  -1.398 -38.318  1.00  0.00     0.070 A 
HETATM   16  C18 UNL     1      40.269  -2.087 -37.145  1.00  0.00     0.038 A 
HETATM   17 CL3  UNL     1      42.211  -0.901 -38.647  1.00  0.00    -0.081 Cl
BRANCH  13  18
HETATM   18  O1  UNL     1      37.216  -1.240 -39.793  1.00  0.00    -0.353 OA
HETATM   19  C1  UNL     1      36.135  -0.453 -39.351  1.00  0.00     0.210 C 
ENDBRANCH  13  18
BRANCH  14  20
HETATM   20  O3  UNL     1      39.820  -0.431 -40.364  1.00  0.00    -0.356 OA
ATOM     21  H3  UNL     1      40.691  -0.445 -40.743  1.00  0.00     0.218 HD
ENDBRANCH  14  20
ENDBRANCH   1  11
BRANCH   8  22
HETATM   22  C8  UNL     1      38.111  -8.099 -36.335  1.00  0.00     0.068 A 
HETATM   23  C9  UNL     1      39.220  -8.900 -36.553  1.00  0.00     0.056 A 
HETATM   24  C10 UNL     1      39.090 -10.095 -37.219  1.00  0.00     0.036 A 
HETATM   25 CL1  UNL     1      40.447 -11.149 -37.528  1.00  0.00    -0.084 Cl
HETATM   26  C11 UNL     1      37.812 -10.452 -37.653  1.00  0.00     0.034 A 
HETATM   27  C12 UNL     1      36.695  -9.681 -37.451  1.00  0.00    -0.004 A 
HETATM   28  C16 UNL     1      36.863  -8.477 -36.774  1.00  0.00     0.069 A 
HETATM   29 CL2  UNL     1      35.496  -7.463 -36.487  1.00  0.00    -0.081 Cl
BRANCH  27  30
HETATM   30  C13 UNL     1      35.342 -10.007 -37.897  1.00  0.00     0.311 C 
BRANCH  30  31
HETATM   31  N3  UNL     1      35.232 -10.347 -39.297  1.00  0.00     0.084 N 
HETATM   32  C14 UNL     1      35.243  -9.115 -40.101  1.00  0.00     0.309 C 
HETATM   33  C15 UNL     1      33.924 -10.941 -39.580  1.00  0.00     0.309 C 
ENDBRANCH  30  31
ENDBRANCH  27  30
ENDBRANCH   8  22
TORSDOF 6
ENDMDL
MODEL 5
REMARK VINA RESULT: -7.455461012      4.735      6.806
REMARK  6 active torsions:
REMARK  status: ('A' for Active; 'I' for Inactive)
REMARK    1  A    between atoms: O1_2  and  C2_3 
REMARK    2  A    between atoms: C4_5  and  C5_6 
REMARK    3  A    between atoms: N2_13  and  C8_14 
REMARK    4  A    between atoms: C12_19  and  C13_20 
REMARK    5  A    between atoms: C13_20  and  N3_21 
REMARK    6  A    between atoms: C20_31  and  O3_32 
ROOT
HETATM    1  C5  UNL     1      36.817  -6.789 -42.369  1.00  0.00     0.036 C 
HETATM    2  C6  UNL     1      36.947  -7.180 -41.137  1.00  0.00     0.077 C 
HETATM    3  S1  UNL     1      35.959  -8.542 -40.419  1.00  0.00    -0.048 SA
HETATM    4  C7  UNL     1      36.174  -7.987 -38.728  1.00  0.00     0.153 C 
HETATM    5  N1  UNL     1      35.378  -8.264 -37.780  1.00  0.00    -0.379 N 
ATOM      6  H11 UNL     1      35.501  -7.947 -36.818  1.00  0.00     0.158 HD
ATOM      7  H12 UNL     1      34.518  -8.810 -37.757  1.00  0.00     0.158 HD
HETATM    8  N2  UNL     1      37.362  -7.232 -38.759  1.00  0.00    -0.256 N 
HETATM    9  C17 UNL     1      37.779  -6.803 -40.018  1.00  0.00     0.271 C 
HETATM   10  O2  UNL     1      38.848  -6.110 -40.195  1.00  0.00    -0.266 OA
ENDROOT
BRANCH   1  11
HETATM   11  C4  UNL     1      37.506  -5.746 -43.070  1.00  0.00    -0.030 A 
HETATM   12  C3  UNL     1      36.938  -4.519 -43.289  1.00  0.00     0.051 A 
HETATM   13  C2  UNL     1      37.620  -3.502 -43.959  1.00  0.00     0.103 A 
HETATM   14  C20 UNL     1      38.904  -3.728 -44.418  1.00  0.00     0.121 A 
HETATM   15  C19 UNL     1      39.493  -4.965 -44.205  1.00  0.00     0.070 A 
HETATM   16  C18 UNL     1      38.787  -5.956 -43.534  1.00  0.00     0.038 A 
HETATM   17 CL3  UNL     1      41.129  -5.305 -44.769  1.00  0.00    -0.081 Cl
BRANCH  13  18
HETATM   18  O1  UNL     1      37.026  -2.276 -44.167  1.00  0.00    -0.353 OA
HETATM   19  C1  UNL     1      36.825  -1.421 -43.065  1.00  0.00     0.210 C 
ENDBRANCH  13  18
BRANCH  14  20
HETATM   20  O3  UNL     1      39.612  -2.758 -45.082  1.00  0.00    -0.356 OA
ATOM     21  H3  UNL     1      40.560  -2.713 -45.034  1.00  0.00     0.218 HD
ENDBRANCH  14  20
ENDBRANCH   1  11
BRANCH   8  22
HETATM   22  C8  UNL     1      38.075  -6.927 -37.533  1.00  0.00     0.068 A 
HETATM   23  C9  UNL     1      38.058  -5.626 -37.061  1.00  0.00     0.056 A 
HETATM   24  C10 UNL     1      38.724  -5.301 -35.903  1.00  0.00     0.036 A 
HETATM   25 CL1  UNL     1      38.742  -3.680 -35.255  1.00  0.00    -0.084 Cl
HETATM   26  C11 UNL     1      39.404  -6.327 -35.245  1.00  0.00     0.034 A 
HETATM   27  C12 UNL     1      39.439  -7.625 -35.688  1.00  0.00    -0.004 A 
HETATM   28  C16 UNL     1      38.754  -7.919 -36.862  1.00  0.00     0.069 A 
HETATM   29 CL2  UNL     1      38.759  -9.534 -37.471  1.00  0.00    -0.081 Cl
BRANCH  27  30
HETATM   30  C13 UNL     1      40.146  -8.727 -35.040  1.00  0.00     0.311 C 
BRANCH  30  31
HETATM   31  N3  UNL     1      39.297  -9.659 -34.334  1.00  0.00     0.084 N 
HETATM   32  C14 UNL     1      38.927  -9.091 -33.029  1.00  0.00     0.309 C 
HETATM   33  C15 UNL     1      40.041 -10.873 -33.991  1.00  0.00     0.309 C 
ENDBRANCH  30  31
ENDBRANCH  27  30
ENDBRANCH   8  22
TORSDOF 6
ENDMDL
