MODEL 1
REMARK VINA RESULT: -8.557252204      0.000      0.000
REMARK  6 active torsions:
REMARK  status: ('A' for Active; 'I' for Inactive)
REMARK    1  A    between atoms: C2_2  and  C3_4 
REMARK    2  A    between atoms: C4_7  and  N2_8 
REMARK    3  A    between atoms: N2_8  and  C5_10 
REMARK    4  A    between atoms: C9_15  and  S1_16 
REMARK    5  A    between atoms: S1_16  and  C10_19 
REMARK    6  A    between atoms: C14_25  and  C15_26 
ROOT
HETATM    1  C3  UNL     1      39.398  -2.734 -45.987  1.00  0.00     0.124 A 
HETATM    2  N1  UNL     1      39.430  -3.486 -44.833  1.00  0.00    -0.186 N 
ATOM      3  H1  UNL     1      40.251  -3.974 -44.475  1.00  0.00     0.184 HD
HETATM    4  C4  UNL     1      38.233  -3.481 -44.256  1.00  0.00     0.683 A 
HETATM    5  N3  UNL     1      37.449  -2.731 -45.043  1.00  0.00    -0.187 N 
ATOM      6  H3  UNL     1      36.464  -2.543 -44.855  1.00  0.00     0.184 HD
HETATM    7  C14 UNL     1      38.113  -2.255 -46.107  1.00  0.00     0.110 A 
ENDROOT
BRANCH   4   8
HETATM    8  N2  UNL     1      37.911  -4.083 -43.164  1.00  0.00    -0.192 N 
ATOM      9  H2  UNL     1      37.421  -4.976 -43.223  1.00  0.00     0.184 HD
BRANCH   8  10
HETATM   10  C5  UNL     1      38.212  -3.554 -41.878  1.00  0.00     0.050 A 
HETATM   11  C6  UNL     1      38.674  -4.443 -40.910  1.00  0.00     0.032 A 
HETATM   12  C7  UNL     1      38.970  -3.965 -39.667  1.00  0.00     0.028 A 
HETATM   13  C8  UNL     1      38.807  -2.607 -39.383  1.00  0.00     0.055 A 
HETATM   14 CL1  UNL     1      39.157  -2.165 -37.732  1.00  0.00    -0.083 Cl
HETATM   15  C9  UNL     1      38.363  -1.708 -40.291  1.00  0.00     0.083 A 
HETATM   16  C13 UNL     1      38.065  -2.224 -41.562  1.00  0.00     0.055 A 
BRANCH  15  17
HETATM   17  S1  UNL     1      38.201  -0.013 -40.044  1.00  0.00     0.180 S 
HETATM   18  O2  UNL     1      37.921   0.661 -41.388  1.00  0.00    -0.222 OA
HETATM   19  O3  UNL     1      39.571   0.544 -39.652  1.00  0.00    -0.222 OA
BRANCH  17  20
HETATM   20  C10 UNL     1      37.070   0.517 -38.830  1.00  0.00     0.105 C 
HETATM   21  C11 UNL     1      36.648   2.004 -39.149  1.00  0.00     0.026 C 
HETATM   22  C12 UNL     1      35.772  -0.221 -38.881  1.00  0.00     0.026 C 
ENDBRANCH  17  20
ENDBRANCH  15  17
ENDBRANCH   8  10
ENDBRANCH   4   8
BRANCH   1  23
HETATM   23  C2  UNL     1      40.564  -2.559 -46.829  1.00  0.00     0.174 C 
HETATM   24  C1  UNL     1      41.793  -1.893 -46.233  1.00  0.00     0.098 C 
HETATM   25  O1  UNL     1      40.695  -2.893 -48.014  1.00  0.00    -0.291 OA
ENDBRANCH   1  23
BRANCH   7  26
HETATM   26  C15 UNL     1      37.577  -1.408 -47.163  1.00  0.00     0.110 A 
HETATM   27  N4  UNL     1      37.223  -0.092 -47.107  1.00  0.00    -0.256 N 
HETATM   28  O4  UNL     1      36.783   0.335 -48.239  1.00  0.00    -0.223 OA
ATOM     29  H4  UNL     1      37.298   0.485 -46.268  1.00  0.00     0.195 HD
HETATM   30  C16 UNL     1      36.802  -0.616 -49.121  1.00  0.00     0.192 A 
HETATM   31 CL2  UNL     1      36.327  -0.606 -50.800  1.00  0.00    -0.052 Cl
HETATM   32  C17 UNL     1      37.308  -1.758 -48.468  1.00  0.00     0.112 A 
HETATM   33 CL3  UNL     1      37.533  -3.313 -49.219  1.00  0.00    -0.078 Cl
ENDBRANCH   7  26
TORSDOF 6
ENDMDL
MODEL 2
REMARK VINA RESULT: -8.422502933      1.758      2.048
REMARK  6 active torsions:
REMARK  status: ('A' for Active; 'I' for Inactive)
REMARK    1  A    between atoms: C2_2  and  C3_4 
REMARK    2  A    between atoms: C4_7  and  N2_8 
REMARK    3  A    between atoms: N2_8  and  C5_10 
REMARK    4  A    between atoms: C9_15  and  S1_16 
REMARK    5  A    between atoms: S1_16  and  C10_19 
REMARK    6  A    between atoms: C14_25  and  C15_26 
ROOT
HETATM    1  C3  UNL     1      38.992  -1.769 -46.834  1.00  0.00     0.124 A 
HETATM    2  N1  UNL     1      38.618  -2.290 -45.615  1.00  0.00    -0.186 N 
ATOM      3  H1  UNL     1      39.200  -2.889 -45.029  1.00  0.00     0.184 HD
HETATM    4  C4  UNL     1      37.384  -1.897 -45.314  1.00  0.00     0.683 A 
HETATM    5  N3  UNL     1      36.982  -1.132 -46.339  1.00  0.00    -0.187 N 
ATOM      6  H3  UNL     1      36.067  -0.685 -46.393  1.00  0.00     0.184 HD
HETATM    7  C14 UNL     1      37.925  -1.026 -47.287  1.00  0.00     0.110 A 
ENDROOT
BRANCH   4   8
HETATM    8  N2  UNL     1      36.726  -2.200 -44.249  1.00  0.00    -0.192 N 
ATOM      9  H2  UNL     1      35.725  -2.382 -44.328  1.00  0.00     0.184 HD
BRANCH   8  10
HETATM   10  C5  UNL     1      37.337  -2.292 -42.968  1.00  0.00     0.050 A 
HETATM   11  C6  UNL     1      37.755  -3.552 -42.545  1.00  0.00     0.032 A 
HETATM   12  C7  UNL     1      38.343  -3.672 -41.321  1.00  0.00     0.028 A 
HETATM   13  C8  UNL     1      38.518  -2.545 -40.515  1.00  0.00     0.055 A 
HETATM   14 CL1  UNL     1      39.219  -2.873 -38.952  1.00  0.00    -0.083 Cl
HETATM   15  C9  UNL     1      38.131  -1.303 -40.885  1.00  0.00     0.083 A 
HETATM   16  C13 UNL     1      37.527  -1.205 -42.149  1.00  0.00     0.055 A 
BRANCH  15  17
HETATM   17  S1  UNL     1      38.371   0.145 -39.986  1.00  0.00     0.180 S 
HETATM   18  O2  UNL     1      38.439   1.327 -40.954  1.00  0.00    -0.222 OA
HETATM   19  O3  UNL     1      39.777   0.103 -39.384  1.00  0.00    -0.222 OA
BRANCH  17  20
HETATM   20  C10 UNL     1      37.268   0.470 -38.678  1.00  0.00     0.105 C 
HETATM   21  C11 UNL     1      36.688   1.926 -38.857  1.00  0.00     0.026 C 
HETATM   22  C12 UNL     1      36.045  -0.388 -38.721  1.00  0.00     0.026 C 
ENDBRANCH  17  20
ENDBRANCH  15  17
ENDBRANCH   8  10
ENDBRANCH   4   8
BRANCH   1  23
HETATM   23  C2  UNL     1      40.290  -2.031 -47.421  1.00  0.00     0.174 C 
HETATM   24  C1  UNL     1      41.456  -1.140 -47.025  1.00  0.00     0.098 C 
HETATM   25  O1  UNL     1      40.586  -2.918 -48.233  1.00  0.00    -0.291 OA
ENDBRANCH   1  23
BRANCH   7  26
HETATM   26  C15 UNL     1      37.831  -0.277 -48.532  1.00  0.00     0.110 A 
HETATM   27  N4  UNL     1      37.106  -0.567 -49.651  1.00  0.00    -0.256 N 
HETATM   28  O4  UNL     1      37.264   0.324 -50.568  1.00  0.00    -0.223 OA
ATOM     29  H4  UNL     1      36.510  -1.389 -49.749  1.00  0.00     0.195 HD
HETATM   30  C16 UNL     1      38.074   1.252 -50.164  1.00  0.00     0.192 A 
HETATM   31 CL2  UNL     1      38.642   2.687 -50.980  1.00  0.00    -0.052 Cl
HETATM   32  C17 UNL     1      38.464   0.902 -48.856  1.00  0.00     0.112 A 
HETATM   33 CL3  UNL     1      39.555   1.829 -47.863  1.00  0.00    -0.078 Cl
ENDBRANCH   7  26
TORSDOF 6
ENDMDL
MODEL 3
REMARK VINA RESULT: -8.343579100      2.229      3.049
REMARK  6 active torsions:
REMARK  status: ('A' for Active; 'I' for Inactive)
REMARK    1  A    between atoms: C2_2  and  C3_4 
REMARK    2  A    between atoms: C4_7  and  N2_8 
REMARK    3  A    between atoms: N2_8  and  C5_10 
REMARK    4  A    between atoms: C9_15  and  S1_16 
REMARK    5  A    between atoms: S1_16  and  C10_19 
REMARK    6  A    between atoms: C14_25  and  C15_26 
ROOT
HETATM    1  C3  UNL     1      38.815  -2.006 -46.414  1.00  0.00     0.124 A 
HETATM    2  N1  UNL     1      38.492  -2.418 -45.140  1.00  0.00    -0.186 N 
ATOM      3  H1  UNL     1      39.087  -2.988 -44.539  1.00  0.00     0.184 HD
HETATM    4  C4  UNL     1      37.288  -1.962 -44.809  1.00  0.00     0.683 A 
HETATM    5  N3  UNL     1      36.853  -1.267 -45.870  1.00  0.00    -0.187 N 
ATOM      6  H3  UNL     1      35.950  -0.795 -45.912  1.00  0.00     0.184 HD
HETATM    7  C14 UNL     1      37.747  -1.265 -46.870  1.00  0.00     0.110 A 
ENDROOT
BRANCH   4   8
HETATM    8  N2  UNL     1      36.679  -2.161 -43.691  1.00  0.00    -0.192 N 
ATOM      9  H2  UNL     1      35.905  -2.825 -43.667  1.00  0.00     0.184 HD
BRANCH   8  10
HETATM   10  C5  UNL     1      37.040  -1.491 -42.490  1.00  0.00     0.050 A 
HETATM   11  C6  UNL     1      36.597  -0.180 -42.327  1.00  0.00     0.032 A 
HETATM   12  C7  UNL     1      36.929   0.488 -41.186  1.00  0.00     0.028 A 
HETATM   13  C8  UNL     1      37.700  -0.141 -40.205  1.00  0.00     0.055 A 
HETATM   14 CL1  UNL     1      38.100   0.869 -38.840  1.00  0.00    -0.083 Cl
HETATM   15  C9  UNL     1      38.150  -1.411 -40.319  1.00  0.00     0.083 A 
HETATM   16  C13 UNL     1      37.796  -2.078 -41.503  1.00  0.00     0.055 A 
BRANCH  15  17
HETATM   17  S1  UNL     1      39.043  -2.281 -39.133  1.00  0.00     0.180 S 
HETATM   18  O2  UNL     1      40.461  -1.713 -39.060  1.00  0.00    -0.222 OA
HETATM   19  O3  UNL     1      39.263  -3.703 -39.652  1.00  0.00    -0.222 OA
BRANCH  17  20
HETATM   20  C10 UNL     1      38.342  -2.422 -37.545  1.00  0.00     0.105 C 
HETATM   21  C11 UNL     1      38.422  -3.931 -37.091  1.00  0.00     0.026 C 
HETATM   22  C12 UNL     1      39.132  -1.711 -36.495  1.00  0.00     0.026 C 
ENDBRANCH  17  20
ENDBRANCH  15  17
ENDBRANCH   8  10
ENDBRANCH   4   8
BRANCH   1  23
HETATM   23  C2  UNL     1      40.072  -2.354 -47.044  1.00  0.00     0.174 C 
HETATM   24  C1  UNL     1      41.346  -2.250 -46.222  1.00  0.00     0.098 C 
HETATM   25  O1  UNL     1      40.252  -2.740 -48.207  1.00  0.00    -0.291 OA
ENDBRANCH   1  23
BRANCH   7  26
HETATM   26  C15 UNL     1      37.609  -0.613 -48.164  1.00  0.00     0.110 A 
HETATM   27  N4  UNL     1      36.716  -0.875 -49.162  1.00  0.00    -0.256 N 
HETATM   28  O4  UNL     1      36.885  -0.096 -50.173  1.00  0.00    -0.223 OA
ATOM     29  H4  UNL     1      36.001  -1.601 -49.113  1.00  0.00     0.195 HD
HETATM   30  C16 UNL     1      37.864   0.726 -49.953  1.00  0.00     0.192 A 
HETATM   31 CL2  UNL     1      38.527   1.986 -50.963  1.00  0.00    -0.052 Cl
HETATM   32  C17 UNL     1      38.359   0.426 -48.668  1.00  0.00     0.112 A 
HETATM   33 CL3  UNL     1      39.686   1.249 -47.897  1.00  0.00    -0.078 Cl
ENDBRANCH   7  26
TORSDOF 6
ENDMDL
MODEL 4
REMARK VINA RESULT: -8.210196752      2.137      2.954
REMARK  6 active torsions:
REMARK  status: ('A' for Active; 'I' for Inactive)
REMARK    1  A    between atoms: C2_2  and  C3_4 
REMARK    2  A    between atoms: C4_7  and  N2_8 
REMARK    3  A    between atoms: N2_8  and  C5_10 
REMARK    4  A    between atoms: C9_15  and  S1_16 
REMARK    5  A    between atoms: S1_16  and  C10_19 
REMARK    6  A    between atoms: C14_25  and  C15_26 
ROOT
HETATM    1  C3  UNL     1      39.230  -2.467 -45.961  1.00  0.00     0.124 A 
HETATM    2  N1  UNL     1      38.807  -2.625 -44.659  1.00  0.00    -0.186 N 
ATOM      3  H1  UNL     1      39.394  -2.942 -43.886  1.00  0.00     0.184 HD
HETATM    4  C4  UNL     1      37.522  -2.301 -44.558  1.00  0.00     0.683 A 
HETATM    5  N3  UNL     1      37.136  -1.943 -45.790  1.00  0.00    -0.187 N 
ATOM      6  H3  UNL     1      36.190  -1.641 -46.026  1.00  0.00     0.184 HD
HETATM    7  C14 UNL     1      38.139  -2.027 -46.676  1.00  0.00     0.110 A 
ENDROOT
BRANCH   4   8
HETATM    8  N2  UNL     1      36.810  -2.334 -43.484  1.00  0.00    -0.192 N 
ATOM      9  H2  UNL     1      35.964  -2.903 -43.476  1.00  0.00     0.184 HD
BRANCH   8  10
HETATM   10  C5  UNL     1      37.156  -1.609 -42.311  1.00  0.00     0.050 A 
HETATM   11  C6  UNL     1      36.716  -0.290 -42.218  1.00  0.00     0.032 A 
HETATM   12  C7  UNL     1      37.033   0.431 -41.105  1.00  0.00     0.028 A 
HETATM   13  C8  UNL     1      37.785  -0.153 -40.083  1.00  0.00     0.055 A 
HETATM   14 CL1  UNL     1      38.169   0.919 -38.761  1.00  0.00    -0.083 Cl
HETATM   15  C9  UNL     1      38.232  -1.429 -40.129  1.00  0.00     0.083 A 
HETATM   16  C13 UNL     1      37.894  -2.150 -41.285  1.00  0.00     0.055 A 
BRANCH  15  17
HETATM   17  S1  UNL     1      39.103  -2.245 -38.889  1.00  0.00     0.180 S 
HETATM   18  O2  UNL     1      40.496  -1.626 -38.768  1.00  0.00    -0.222 OA
HETATM   19  O3  UNL     1      39.393  -3.668 -39.369  1.00  0.00    -0.222 OA
BRANCH  17  20
HETATM   20  C10 UNL     1      38.340  -2.380 -37.329  1.00  0.00     0.105 C 
HETATM   21  C11 UNL     1      38.314  -3.901 -36.911  1.00  0.00     0.026 C 
HETATM   22  C12 UNL     1      39.134  -1.742 -36.236  1.00  0.00     0.026 C 
ENDBRANCH  17  20
ENDBRANCH  15  17
ENDBRANCH   8  10
ENDBRANCH   4   8
BRANCH   1  23
HETATM   23  C2  UNL     1      40.591  -2.747 -46.371  1.00  0.00     0.174 C 
HETATM   24  C1  UNL     1      41.696  -2.639 -45.333  1.00  0.00     0.098 C 
HETATM   25  O1  UNL     1      40.986  -3.074 -47.498  1.00  0.00    -0.291 OA
ENDBRANCH   1  23
BRANCH   7  26
HETATM   26  C15 UNL     1      38.078  -1.716 -48.097  1.00  0.00     0.110 A 
HETATM   27  N4  UNL     1      38.368  -2.519 -49.161  1.00  0.00    -0.256 N 
HETATM   28  O4  UNL     1      38.202  -1.908 -50.282  1.00  0.00    -0.223 OA
ATOM     29  H4  UNL     1      38.679  -3.487 -49.078  1.00  0.00     0.195 HD
HETATM   30  C16 UNL     1      37.800  -0.691 -50.080  1.00  0.00     0.192 A 
HETATM   31 CL2  UNL     1      37.421   0.575 -51.220  1.00  0.00    -0.052 Cl
HETATM   32  C17 UNL     1      37.708  -0.526 -48.684  1.00  0.00     0.112 A 
HETATM   33 CL3  UNL     1      37.209   0.940 -47.888  1.00  0.00    -0.078 Cl
ENDBRANCH   7  26
TORSDOF 6
ENDMDL
MODEL 5
REMARK VINA RESULT: -8.204679464      1.431      1.748
REMARK  6 active torsions:
REMARK  status: ('A' for Active; 'I' for Inactive)
REMARK    1  A    between atoms: C2_2  and  C3_4 
REMARK    2  A    between atoms: C4_7  and  N2_8 
REMARK    3  A    between atoms: N2_8  and  C5_10 
REMARK    4  A    between atoms: C9_15  and  S1_16 
REMARK    5  A    between atoms: S1_16  and  C10_19 
REMARK    6  A    between atoms: C14_25  and  C15_26 
ROOT
HETATM    1  C3  UNL     1      39.394  -2.998 -45.924  1.00  0.00     0.124 A 
HETATM    2  N1  UNL     1      39.399  -3.872 -44.859  1.00  0.00    -0.186 N 
ATOM      3  H1  UNL     1      40.215  -4.385 -44.525  1.00  0.00     0.184 HD
HETATM    4  C4  UNL     1      38.182  -3.948 -44.331  1.00  0.00     0.683 A 
HETATM    5  N3  UNL     1      37.412  -3.128 -45.059  1.00  0.00    -0.187 N 
ATOM      6  H3  UNL     1      36.418  -2.977 -44.889  1.00  0.00     0.184 HD
HETATM    7  C14 UNL     1      38.105  -2.528 -46.039  1.00  0.00     0.110 A 
ENDROOT
BRANCH   4   8
HETATM    8  N2  UNL     1      37.833  -4.671 -43.323  1.00  0.00    -0.192 N 
ATOM      9  H2  UNL     1      37.215  -5.467 -43.483  1.00  0.00     0.184 HD
BRANCH   8  10
HETATM   10  C5  UNL     1      38.273  -4.406 -41.997  1.00  0.00     0.050 A 
HETATM   11  C6  UNL     1      38.674  -5.493 -41.224  1.00  0.00     0.032 A 
HETATM   12  C7  UNL     1      39.101  -5.269 -39.948  1.00  0.00     0.028 A 
HETATM   13  C8  UNL     1      39.130  -3.969 -39.437  1.00  0.00     0.055 A 
HETATM   14 CL1  UNL     1      39.629  -3.857 -37.770  1.00  0.00    -0.083 Cl
HETATM   15  C9  UNL     1      38.752  -2.885 -40.151  1.00  0.00     0.083 A 
HETATM   16  C13 UNL     1      38.316  -3.141 -41.461  1.00  0.00     0.055 A 
BRANCH  15  17
HETATM   17  S1  UNL     1      38.822  -1.248 -39.624  1.00  0.00     0.180 S 
HETATM   18  O2  UNL     1      38.178  -1.142 -38.241  1.00  0.00    -0.222 OA
HETATM   19  O3  UNL     1      37.886  -0.423 -40.510  1.00  0.00    -0.222 OA
BRANCH  17  20
HETATM   20  C10 UNL     1      40.375  -0.461 -39.654  1.00  0.00     0.105 C 
HETATM   21  C11 UNL     1      40.153   1.098 -39.556  1.00  0.00     0.026 C 
HETATM   22  C12 UNL     1      41.203  -0.761 -38.446  1.00  0.00     0.026 C 
ENDBRANCH  17  20
ENDBRANCH  15  17
ENDBRANCH   8  10
ENDBRANCH   4   8
BRANCH   1  23
HETATM   23  C2  UNL     1      40.586  -2.714 -46.697  1.00  0.00     0.174 C 
HETATM   24  C1  UNL     1      41.811  -2.188 -45.970  1.00  0.00     0.098 C 
HETATM   25  O1  UNL     1      40.742  -2.850 -47.918  1.00  0.00    -0.291 OA
ENDBRANCH   1  23
BRANCH   7  26
HETATM   26  C15 UNL     1      37.591  -1.578 -47.016  1.00  0.00     0.110 A 
HETATM   27  N4  UNL     1      37.218  -0.279 -46.831  1.00  0.00    -0.256 N 
HETATM   28  O4  UNL     1      36.809   0.263 -47.925  1.00  0.00    -0.223 OA
ATOM     29  H4  UNL     1      37.259   0.205 -45.933  1.00  0.00     0.195 HD
HETATM   30  C16 UNL     1      36.869  -0.588 -48.902  1.00  0.00     0.192 A 
HETATM   31 CL2  UNL     1      36.447  -0.403 -50.586  1.00  0.00    -0.052 Cl
HETATM   32  C17 UNL     1      37.368  -1.788 -48.359  1.00  0.00     0.112 A 
HETATM   33 CL3  UNL     1      37.638  -3.252 -49.264  1.00  0.00    -0.078 Cl
ENDBRANCH   7  26
TORSDOF 6
ENDMDL
