MODEL 1
REMARK VINA RESULT: -8.380962736      0.000      0.000
REMARK  7 active torsions:
REMARK  status: ('A' for Active; 'I' for Inactive)
REMARK    1  A    between atoms: C6_6  and  C8_8 
REMARK    2  A    between atoms: C8_8  and  O1_9 
REMARK    3  A    between atoms: O1_9  and  C9_10 
REMARK    4  A    between atoms: C9_10  and  C10_12 
REMARK    5  A    between atoms: C10_12  and  C11_13 
REMARK    6  A    between atoms: C11_13  and  C12_14 
REMARK    7  A    between atoms: C15_19  and  O4_20 
ROOT
HETATM    1  C1  UNL     1      39.937  -6.428 -41.173  1.00  0.00     0.027 C 
HETATM    2  C2  UNL     1      38.544  -6.093 -40.723  1.00  0.00     0.026 A 
HETATM    3  C3  UNL     1      38.553  -4.575 -40.499  1.00  0.00     0.021 C 
HETATM    4  C4  UNL     1      38.756  -3.773 -41.714  1.00  0.00     0.008 C 
HETATM    5  C5  UNL     1      38.566  -4.436 -43.041  1.00  0.00     0.012 C 
HETATM    6  C6  UNL     1      38.561  -3.523 -44.209  1.00  0.00    -0.017 C 
HETATM    7  C7  UNL     1      39.980  -2.908 -44.257  1.00  0.00     0.018 C 
HETATM    8  C13 UNL     1      38.436  -4.376 -45.470  1.00  0.00     0.014 C 
HETATM    9  C14 UNL     1      38.641  -5.834 -45.241  1.00  0.00     0.034 C 
HETATM   10  C15 UNL     1      37.775  -6.457 -44.176  1.00  0.00     0.132 C 
HETATM   11  C16 UNL     1      37.498  -5.502 -43.044  1.00  0.00     0.028 C 
HETATM   12  C17 UNL     1      36.107  -4.941 -43.345  1.00  0.00     0.025 C 
HETATM   13  C18 UNL     1      37.482  -6.243 -41.736  1.00  0.00     0.028 A 
HETATM   14  N1  UNL     1      36.426  -6.970 -41.575  1.00  0.00    -0.306 N 
ATOM     15  H1  UNL     1      35.756  -7.010 -42.342  1.00  0.00     0.186 HD
HETATM   16  N2  UNL     1      36.138  -7.706 -40.423  1.00  0.00    -0.300 N 
ATOM     17  H2  UNL     1      35.297  -8.276 -40.332  1.00  0.00     0.187 HD
HETATM   18  C19 UNL     1      37.110  -7.600 -39.385  1.00  0.00     0.055 A 
HETATM   19  C20 UNL     1      36.902  -8.286 -38.181  1.00  0.00     0.034 A 
HETATM   20  C21 UNL     1      37.791  -8.211 -37.132  1.00  0.00     0.044 A 
HETATM   21  C22 UNL     1      38.911  -7.429 -37.299  1.00  0.00     0.117 A 
HETATM   22  F1  UNL     1      39.830  -7.314 -36.297  1.00  0.00    -0.206 F 
HETATM   23  C23 UNL     1      39.187  -6.726 -38.447  1.00  0.00     0.053 A 
HETATM   24  C24 UNL     1      38.244  -6.840 -39.485  1.00  0.00    -0.013 A 
ENDROOT
BRANCH   6  25
HETATM   25  C8  UNL     1      37.649  -2.396 -44.308  1.00  0.00     0.188 C 
BRANCH  25  26
HETATM   26  O1  UNL     1      37.194  -2.351 -45.682  1.00  0.00    -0.321 OA
BRANCH  26  27
HETATM   27  C9  UNL     1      37.305  -1.212 -46.435  1.00  0.00     0.259 C 
HETATM   28  O2  UNL     1      36.749  -0.166 -45.996  1.00  0.00    -0.265 OA
BRANCH  27  29
HETATM   29  C10 UNL     1      38.054  -1.250 -47.707  1.00  0.00     0.119 C 
BRANCH  29  30
HETATM   30  C11 UNL     1      39.415  -0.585 -47.612  1.00  0.00     0.106 C 
BRANCH  30  31
HETATM   31  C12 UNL     1      40.498  -1.612 -47.527  1.00  0.00     0.219 C 
HETATM   32  O3  UNL     1      40.350  -2.703 -48.092  1.00  0.00    -0.280 OA
HETATM   33 CL1  UNL     1      41.979  -1.337 -46.658  1.00  0.00    -0.044 Cl
ENDBRANCH  30  31
ENDBRANCH  29  30
ENDBRANCH  27  29
ENDBRANCH  26  27
ENDBRANCH  25  26
ENDBRANCH   6  25
BRANCH  10  34
HETATM   34  O4  UNL     1      36.576  -6.956 -44.718  1.00  0.00    -0.394 OA
ATOM     35  H4  UNL     1      36.584  -7.904 -44.761  1.00  0.00     0.210 HD
ENDBRANCH  10  34
TORSDOF 7
ENDMDL
MODEL 2
REMARK VINA RESULT: -8.275071201      2.789      3.840
REMARK  7 active torsions:
REMARK  status: ('A' for Active; 'I' for Inactive)
REMARK    1  A    between atoms: C6_6  and  C8_8 
REMARK    2  A    between atoms: C8_8  and  O1_9 
REMARK    3  A    between atoms: O1_9  and  C9_10 
REMARK    4  A    between atoms: C9_10  and  C10_12 
REMARK    5  A    between atoms: C10_12  and  C11_13 
REMARK    6  A    between atoms: C11_13  and  C12_14 
REMARK    7  A    between atoms: C15_19  and  O4_20 
ROOT
HETATM    1  C1  UNL     1      39.936  -6.426 -41.243  1.00  0.00     0.027 C 
HETATM    2  C2  UNL     1      38.528  -6.198 -40.776  1.00  0.00     0.026 A 
HETATM    3  C3  UNL     1      38.444  -4.695 -40.482  1.00  0.00     0.021 C 
HETATM    4  C4  UNL     1      38.592  -3.827 -41.659  1.00  0.00     0.008 C 
HETATM    5  C5  UNL     1      38.438  -4.438 -43.015  1.00  0.00     0.012 C 
HETATM    6  C6  UNL     1      38.373  -3.474 -44.139  1.00  0.00    -0.017 C 
HETATM    7  C7  UNL     1      39.751  -2.771 -44.161  1.00  0.00     0.018 C 
HETATM    8  C13 UNL     1      38.295  -4.273 -45.438  1.00  0.00     0.014 C 
HETATM    9  C14 UNL     1      38.590  -5.725 -45.278  1.00  0.00     0.034 C 
HETATM   10  C15 UNL     1      37.768  -6.449 -44.242  1.00  0.00     0.132 C 
HETATM   11  C16 UNL     1      37.438  -5.566 -43.066  1.00  0.00     0.028 C 
HETATM   12  C17 UNL     1      36.013  -5.079 -43.340  1.00  0.00     0.025 C 
HETATM   13  C18 UNL     1      37.472  -6.366 -41.794  1.00  0.00     0.028 A 
HETATM   14  N1  UNL     1      36.464  -7.164 -41.666  1.00  0.00    -0.306 N 
ATOM     15  H1  UNL     1      35.794  -7.209 -42.433  1.00  0.00     0.186 HD
HETATM   16  N2  UNL     1      36.226  -7.968 -40.549  1.00  0.00    -0.300 N 
ATOM     17  H2  UNL     1      35.422  -8.593 -40.484  1.00  0.00     0.187 HD
HETATM   18  C19 UNL     1      37.194  -7.851 -39.508  1.00  0.00     0.055 A 
HETATM   19  C20 UNL     1      37.033  -8.603 -38.337  1.00  0.00     0.034 A 
HETATM   20  C21 UNL     1      37.920  -8.522 -37.287  1.00  0.00     0.044 A 
HETATM   21  C22 UNL     1      38.989  -7.667 -37.418  1.00  0.00     0.117 A 
HETATM   22  F1  UNL     1      39.904  -7.541 -36.414  1.00  0.00    -0.206 F 
HETATM   23  C23 UNL     1      39.216  -6.896 -38.533  1.00  0.00     0.053 A 
HETATM   24  C24 UNL     1      38.279  -7.019 -39.574  1.00  0.00    -0.013 A 
ENDROOT
BRANCH   6  25
HETATM   25  C8  UNL     1      37.393  -2.402 -44.185  1.00  0.00     0.188 C 
BRANCH  25  26
HETATM   26  O1  UNL     1      37.864  -1.371 -43.283  1.00  0.00    -0.321 OA
BRANCH  26  27
HETATM   27  C9  UNL     1      36.997  -0.655 -42.500  1.00  0.00     0.259 C 
HETATM   28  O2  UNL     1      36.396   0.319 -43.035  1.00  0.00    -0.265 OA
BRANCH  27  29
HETATM   29  C10 UNL     1      36.805  -1.040 -41.087  1.00  0.00     0.119 C 
BRANCH  29  30
HETATM   30  C11 UNL     1      36.611   0.156 -40.171  1.00  0.00     0.106 C 
BRANCH  30  31
HETATM   31  C12 UNL     1      36.107  -0.282 -38.834  1.00  0.00     0.219 C 
HETATM   32  O3  UNL     1      34.966   0.038 -38.476  1.00  0.00    -0.280 OA
HETATM   33 CL1  UNL     1      37.067  -1.236 -37.741  1.00  0.00    -0.044 Cl
ENDBRANCH  30  31
ENDBRANCH  29  30
ENDBRANCH  27  29
ENDBRANCH  26  27
ENDBRANCH  25  26
ENDBRANCH   6  25
BRANCH  10  34
HETATM   34  O4  UNL     1      36.600  -6.995 -44.805  1.00  0.00    -0.394 OA
ATOM     35  H4  UNL     1      36.582  -7.940 -44.715  1.00  0.00     0.210 HD
ENDBRANCH  10  34
TORSDOF 7
ENDMDL
MODEL 3
REMARK VINA RESULT: -8.040442287      2.671      3.734
REMARK  7 active torsions:
REMARK  status: ('A' for Active; 'I' for Inactive)
REMARK    1  A    between atoms: C6_6  and  C8_8 
REMARK    2  A    between atoms: C8_8  and  O1_9 
REMARK    3  A    between atoms: O1_9  and  C9_10 
REMARK    4  A    between atoms: C9_10  and  C10_12 
REMARK    5  A    between atoms: C10_12  and  C11_13 
REMARK    6  A    between atoms: C11_13  and  C12_14 
REMARK    7  A    between atoms: C15_19  and  O4_20 
ROOT
HETATM    1  C1  UNL     1      40.244  -6.465 -39.290  1.00  0.00     0.027 C 
HETATM    2  C2  UNL     1      38.848  -6.007 -38.980  1.00  0.00     0.026 A 
HETATM    3  C3  UNL     1      38.685  -4.685 -39.741  1.00  0.00     0.021 C 
HETATM    4  C4  UNL     1      38.720  -4.808 -41.205  1.00  0.00     0.008 C 
HETATM    5  C5  UNL     1      38.540  -6.164 -41.808  1.00  0.00     0.012 C 
HETATM    6  C6  UNL     1      38.359  -6.183 -43.279  1.00  0.00    -0.017 C 
HETATM    7  C7  UNL     1      39.688  -5.649 -43.865  1.00  0.00     0.018 C 
HETATM    8  C13 UNL     1      38.268  -7.642 -43.722  1.00  0.00     0.014 C 
HETATM    9  C14 UNL     1      38.662  -8.622 -42.670  1.00  0.00     0.034 C 
HETATM   10  C15 UNL     1      37.938  -8.495 -41.354  1.00  0.00     0.132 C 
HETATM   11  C16 UNL     1      37.610  -7.060 -41.027  1.00  0.00     0.028 C 
HETATM   12  C17 UNL     1      36.147  -6.896 -41.441  1.00  0.00     0.025 C 
HETATM   13  C18 UNL     1      37.757  -6.821 -39.550  1.00  0.00     0.028 A 
HETATM   14  N1  UNL     1      36.808  -7.351 -38.851  1.00  0.00    -0.306 N 
ATOM     15  H1  UNL     1      36.106  -7.901 -39.344  1.00  0.00     0.186 HD
HETATM   16  N2  UNL     1      36.676  -7.221 -37.467  1.00  0.00    -0.300 N 
ATOM     17  H2  UNL     1      35.917  -7.659 -36.945  1.00  0.00     0.187 HD
HETATM   18  C19 UNL     1      37.684  -6.431 -36.839  1.00  0.00     0.055 A 
HETATM   19  C20 UNL     1      37.628  -6.226 -35.454  1.00  0.00     0.034 A 
HETATM   20  C21 UNL     1      38.558  -5.458 -34.789  1.00  0.00     0.044 A 
HETATM   21  C22 UNL     1      39.563  -4.887 -35.534  1.00  0.00     0.117 A 
HETATM   22  F1  UNL     1      40.516  -4.116 -34.934  1.00  0.00    -0.206 F 
HETATM   23  C23 UNL     1      39.687  -5.040 -36.894  1.00  0.00     0.053 A 
HETATM   24  C24 UNL     1      38.710  -5.834 -37.520  1.00  0.00    -0.013 A 
ENDROOT
BRANCH   6  25
HETATM   25  C8  UNL     1      37.312  -5.423 -43.941  1.00  0.00     0.188 C 
BRANCH  25  26
HETATM   26  O1  UNL     1      37.963  -4.311 -44.602  1.00  0.00    -0.321 OA
BRANCH  26  27
HETATM   27  C9  UNL     1      37.462  -3.038 -44.521  1.00  0.00     0.259 C 
HETATM   28  O2  UNL     1      37.613  -2.287 -45.526  1.00  0.00    -0.265 OA
BRANCH  27  29
HETATM   29  C10 UNL     1      36.782  -2.600 -43.286  1.00  0.00     0.119 C 
BRANCH  29  30
HETATM   30  C11 UNL     1      37.632  -1.666 -42.443  1.00  0.00     0.106 C 
BRANCH  30  31
HETATM   31  C12 UNL     1      36.801  -0.554 -41.889  1.00  0.00     0.219 C 
HETATM   32  O3  UNL     1      36.403   0.345 -42.640  1.00  0.00    -0.280 OA
HETATM   33 CL1  UNL     1      36.362  -0.466 -40.208  1.00  0.00    -0.044 Cl
ENDBRANCH  30  31
ENDBRANCH  29  30
ENDBRANCH  27  29
ENDBRANCH  26  27
ENDBRANCH  25  26
ENDBRANCH   6  25
BRANCH  10  34
HETATM   34  O4  UNL     1      36.780  -9.294 -41.326  1.00  0.00    -0.394 OA
ATOM     35  H4  UNL     1      36.434  -9.370 -40.445  1.00  0.00     0.210 HD
ENDBRANCH  10  34
TORSDOF 7
ENDMDL
MODEL 4
REMARK VINA RESULT: -7.957185382      5.464      8.364
REMARK  7 active torsions:
REMARK  status: ('A' for Active; 'I' for Inactive)
REMARK    1  A    between atoms: C6_6  and  C8_8 
REMARK    2  A    between atoms: C8_8  and  O1_9 
REMARK    3  A    between atoms: O1_9  and  C9_10 
REMARK    4  A    between atoms: C9_10  and  C10_12 
REMARK    5  A    between atoms: C10_12  and  C11_13 
REMARK    6  A    between atoms: C11_13  and  C12_14 
REMARK    7  A    between atoms: C15_19  and  O4_20 
ROOT
HETATM    1  C1  UNL     1      34.981  -9.090 -36.663  1.00  0.00     0.027 C 
HETATM    2  C2  UNL     1      35.937  -9.113 -37.820  1.00  0.00     0.026 A 
HETATM    3  C3  UNL     1      36.262  -7.640 -38.096  1.00  0.00     0.021 C 
HETATM    4  C4  UNL     1      36.994  -6.957 -37.021  1.00  0.00     0.008 C 
HETATM    5  C5  UNL     1      37.659  -7.793 -35.974  1.00  0.00     0.012 C 
HETATM    6  C6  UNL     1      38.563  -7.057 -35.058  1.00  0.00    -0.017 C 
HETATM    7  C7  UNL     1      37.653  -6.076 -34.281  1.00  0.00     0.018 C 
HETATM    8  C13 UNL     1      39.085  -8.048 -34.019  1.00  0.00     0.014 C 
HETATM    9  C14 UNL     1      38.366  -9.353 -34.008  1.00  0.00     0.034 C 
HETATM   10  C15 UNL     1      38.291 -10.070 -35.332  1.00  0.00     0.132 C 
HETATM   11  C16 UNL     1      38.186  -9.109 -36.488  1.00  0.00     0.028 C 
HETATM   12  C17 UNL     1      39.612  -9.003 -37.031  1.00  0.00     0.025 C 
HETATM   13  C18 UNL     1      37.275  -9.671 -37.544  1.00  0.00     0.028 A 
HETATM   14  N1  UNL     1      37.804 -10.644 -38.210  1.00  0.00    -0.306 N 
ATOM     15  H1  UNL     1      38.734 -10.958 -37.932  1.00  0.00     0.186 HD
HETATM   16  N2  UNL     1      37.193 -11.295 -39.283  1.00  0.00    -0.300 N 
ATOM     17  H2  UNL     1      37.638 -12.065 -39.783  1.00  0.00     0.187 HD
HETATM   18  C19 UNL     1      35.900 -10.802 -39.627  1.00  0.00     0.055 A 
HETATM   19  C20 UNL     1      35.213 -11.377 -40.704  1.00  0.00     0.034 A 
HETATM   20  C21 UNL     1      33.970 -10.935 -41.100  1.00  0.00     0.044 A 
HETATM   21  C22 UNL     1      33.409  -9.894 -40.398  1.00  0.00     0.117 A 
HETATM   22  F1  UNL     1      32.180  -9.410 -40.740  1.00  0.00    -0.206 F 
HETATM   23  C23 UNL     1      34.018  -9.276 -39.332  1.00  0.00     0.053 A 
HETATM   24  C24 UNL     1      35.286  -9.769 -38.972  1.00  0.00    -0.013 A 
ENDROOT
BRANCH   6  25
HETATM   25  C8  UNL     1      39.672  -6.253 -35.543  1.00  0.00     0.188 C 
BRANCH  25  26
HETATM   26  O1  UNL     1      39.415  -4.892 -35.117  1.00  0.00    -0.321 OA
BRANCH  26  27
HETATM   27  C9  UNL     1      39.709  -3.823 -35.921  1.00  0.00     0.259 C 
HETATM   28  O2  UNL     1      39.614  -2.669 -35.414  1.00  0.00    -0.265 OA
BRANCH  27  29
HETATM   29  C10 UNL     1      40.115  -4.055 -37.322  1.00  0.00     0.119 C 
BRANCH  29  30
HETATM   30  C11 UNL     1      39.003  -3.766 -38.314  1.00  0.00     0.106 C 
BRANCH  30  31
HETATM   31  C12 UNL     1      39.105  -4.673 -39.498  1.00  0.00     0.219 C 
HETATM   32  O3  UNL     1      38.706  -4.283 -40.602  1.00  0.00    -0.280 OA
HETATM   33 CL1  UNL     1      39.770  -6.277 -39.390  1.00  0.00    -0.044 Cl
ENDBRANCH  30  31
ENDBRANCH  29  30
ENDBRANCH  27  29
ENDBRANCH  26  27
ENDBRANCH  25  26
ENDBRANCH   6  25
BRANCH  10  34
HETATM   34  O4  UNL     1      39.379 -10.945 -35.503  1.00  0.00    -0.394 OA
ATOM     35  H4  UNL     1      39.555 -11.437 -34.710  1.00  0.00     0.210 HD
ENDBRANCH  10  34
TORSDOF 7
ENDMDL
MODEL 5
REMARK VINA RESULT: -7.946063749      1.067      1.418
REMARK  7 active torsions:
REMARK  status: ('A' for Active; 'I' for Inactive)
REMARK    1  A    between atoms: C6_6  and  C8_8 
REMARK    2  A    between atoms: C8_8  and  O1_9 
REMARK    3  A    between atoms: O1_9  and  C9_10 
REMARK    4  A    between atoms: C9_10  and  C10_12 
REMARK    5  A    between atoms: C10_12  and  C11_13 
REMARK    6  A    between atoms: C11_13  and  C12_14 
REMARK    7  A    between atoms: C15_19  and  O4_20 
ROOT
HETATM    1  C1  UNL     1      39.936  -6.438 -41.277  1.00  0.00     0.027 C 
HETATM    2  C2  UNL     1      38.552  -6.082 -40.815  1.00  0.00     0.026 A 
HETATM    3  C3  UNL     1      38.584  -4.564 -40.598  1.00  0.00     0.021 C 
HETATM    4  C4  UNL     1      38.784  -3.770 -41.817  1.00  0.00     0.008 C 
HETATM    5  C5  UNL     1      38.573  -4.436 -43.140  1.00  0.00     0.012 C 
HETATM    6  C6  UNL     1      38.569  -3.527 -44.312  1.00  0.00    -0.017 C 
HETATM    7  C7  UNL     1      39.995  -2.931 -44.377  1.00  0.00     0.018 C 
HETATM    8  C13 UNL     1      38.420  -4.383 -45.568  1.00  0.00     0.014 C 
HETATM    9  C14 UNL     1      38.608  -5.843 -45.335  1.00  0.00     0.034 C 
HETATM   10  C15 UNL     1      37.744  -6.450 -44.259  1.00  0.00     0.132 C 
HETATM   11  C16 UNL     1      37.491  -5.487 -43.128  1.00  0.00     0.028 C 
HETATM   12  C17 UNL     1      36.105  -4.909 -43.418  1.00  0.00     0.025 C 
HETATM   13  C18 UNL     1      37.478  -6.222 -41.817  1.00  0.00     0.028 A 
HETATM   14  N1  UNL     1      36.415  -6.935 -41.642  1.00  0.00    -0.306 N 
ATOM     15  H1  UNL     1      35.736  -6.969 -42.403  1.00  0.00     0.186 HD
HETATM   16  N2  UNL     1      36.129  -7.662 -40.485  1.00  0.00    -0.300 N 
ATOM     17  H2  UNL     1      35.281  -8.221 -40.383  1.00  0.00     0.187 HD
HETATM   18  C19 UNL     1      37.112  -7.565 -39.457  1.00  0.00     0.055 A 
HETATM   19  C20 UNL     1      36.907  -8.243 -38.248  1.00  0.00     0.034 A 
HETATM   20  C21 UNL     1      37.807  -8.175 -37.208  1.00  0.00     0.044 A 
HETATM   21  C22 UNL     1      38.935  -7.409 -37.389  1.00  0.00     0.117 A 
HETATM   22  F1  UNL     1      39.866  -7.302 -36.397  1.00  0.00    -0.206 F 
HETATM   23  C23 UNL     1      39.209  -6.715 -38.543  1.00  0.00     0.053 A 
HETATM   24  C24 UNL     1      38.255  -6.820 -39.571  1.00  0.00    -0.013 A 
ENDROOT
BRANCH   6  25
HETATM   25  C8  UNL     1      37.670  -2.389 -44.406  1.00  0.00     0.188 C 
BRANCH  25  26
HETATM   26  O1  UNL     1      37.330  -2.245 -45.807  1.00  0.00    -0.321 OA
BRANCH  26  27
HETATM   27  C9  UNL     1      37.398  -1.031 -46.438  1.00  0.00     0.259 C 
HETATM   28  O2  UNL     1      36.501  -0.182 -46.167  1.00  0.00    -0.265 OA
BRANCH  27  29
HETATM   29  C10 UNL     1      38.492  -0.766 -47.394  1.00  0.00     0.119 C 
BRANCH  29  30
HETATM   30  C11 UNL     1      38.199   0.401 -48.319  1.00  0.00     0.106 C 
BRANCH  30  31
HETATM   31  C12 UNL     1      38.888   1.638 -47.840  1.00  0.00     0.219 C 
HETATM   32  O3  UNL     1      38.258   2.469 -47.173  1.00  0.00    -0.280 OA
HETATM   33 CL1  UNL     1      40.561   1.967 -48.183  1.00  0.00    -0.044 Cl
ENDBRANCH  30  31
ENDBRANCH  29  30
ENDBRANCH  27  29
ENDBRANCH  26  27
ENDBRANCH  25  26
ENDBRANCH   6  25
BRANCH  10  34
HETATM   34  O4  UNL     1      36.534  -6.936 -44.787  1.00  0.00    -0.394 OA
ATOM     35  H4  UNL     1      35.805  -6.374 -44.553  1.00  0.00     0.210 HD
ENDBRANCH  10  34
TORSDOF 7
ENDMDL
