MODEL 1
REMARK VINA RESULT: -7.019295186      0.000      0.000
REMARK  6 active torsions:
REMARK  status: ('A' for Active; 'I' for Inactive)
REMARK    1  A    between atoms: C2_2  and  C3_3 
REMARK    2  A    between atoms: C3_3  and  C4_4 
REMARK    3  A    between atoms: C15_18  and  C16_19 
REMARK    4  A    between atoms: C19_23  and  N2_24 
REMARK       I    between atoms: N2_24  and  C20_26 
REMARK    5  A    between atoms: C20_26  and  C21_28 
REMARK    6  A    between atoms: C22_29  and  C23_30 
ROOT
HETATM    1  C4  UNL     1      -1.384  17.285  18.961  1.00  0.00     0.044 C 
HETATM    2  C5  UNL     1      -2.580  17.664  19.797  1.00  0.00    -0.058 C 
HETATM    3  C6  UNL     1      -3.021  18.870  19.772  1.00  0.00     0.019 C 
HETATM    4  C7  UNL     1      -3.245  16.578  20.591  1.00  0.00    -0.066 C 
HETATM    5  C8  UNL     1      -4.324  17.077  21.451  1.00  0.00     0.062 C 
HETATM    6  C9  UNL     1      -5.650  17.348  20.769  1.00  0.00    -0.017 C 
HETATM    7  C10 UNL     1      -6.546  16.496  20.198  1.00  0.00    -0.048 A 
HETATM    8  C11 UNL     1      -7.428  15.457  19.618  1.00  0.00     0.128 A 
HETATM    9  N1  UNL     1      -6.886  14.554  18.559  1.00  0.00    -0.351 N 
ATOM     10  H1  UNL     1      -7.531  13.986  18.009  1.00  0.00     0.163 HD
HETATM   11  C12 UNL     1      -5.463  14.466  18.297  1.00  0.00     0.223 C 
HETATM   12  O1  UNL     1      -5.007  13.916  17.308  1.00  0.00    -0.273 OA
HETATM   13  C13 UNL     1      -4.720  15.105  19.347  1.00  0.00     0.087 C 
HETATM   14  C14 UNL     1      -5.402  14.474  20.520  1.00  0.00     0.032 C 
HETATM   15  C15 UNL     1      -6.735  15.077  20.791  1.00  0.00     0.019 A 
HETATM   16  C17 UNL     1      -3.381  15.309  19.777  1.00  0.00     0.030 C 
HETATM   17  C18 UNL     1      -2.370  15.126  18.724  1.00  0.00     0.035 C 
HETATM   18  C19 UNL     1      -1.973  16.354  17.937  1.00  0.00     0.094 C 
ENDROOT
BRANCH  18  19
HETATM   19  N2  UNL     1      -1.091  15.997  16.865  1.00  0.00    -0.345 N 
HETATM   20  C20 UNL     1      -1.444  15.361  15.677  1.00  0.00     0.297 C 
HETATM   21  O2  UNL     1      -2.642  15.051  15.486  1.00  0.00    -0.258 OA
ATOM     22  H2  UNL     1      -0.106  16.234  16.983  1.00  0.00     0.163 HD
BRANCH  20  23
HETATM   23  C21 UNL     1      -0.464  15.062  14.688  1.00  0.00    -0.001 C 
HETATM   24  C22 UNL     1       0.366  14.795  13.852  1.00  0.00    -0.069 C 
BRANCH  24  25
HETATM   25  C23 UNL     1       1.344  14.482  12.847  1.00  0.00     0.060 C 
HETATM   26  C24 UNL     1       2.551  15.001  12.828  1.00  0.00    -0.022 C 
HETATM   27  C25 UNL     1       3.021  15.974  13.860  1.00  0.00     0.036 C 
ENDBRANCH  24  25
ENDBRANCH  20  23
ENDBRANCH  18  19
BRANCH   1  28
HETATM   28  C3  UNL     1      -0.612  18.425  18.499  1.00  0.00     0.037 C 
BRANCH  28  29
HETATM   29  C2  UNL     1       0.696  18.671  19.156  1.00  0.00    -0.036 C 
HETATM   30  C1  UNL     1       0.936  18.764  20.430  1.00  0.00     0.007 C 
ENDBRANCH  28  29
ENDBRANCH   1  28
BRANCH  15  31
HETATM   31  C16 UNL     1      -7.362  14.947  22.151  1.00  0.00     0.101 C 
HETATM   32 BR1  UNL     1      -7.254  13.075  22.624  1.00  0.00    -0.095 Br
ENDBRANCH  15  31
TORSDOF 6
ENDMDL
MODEL 2
REMARK VINA RESULT: -6.360176869      3.932      6.857
REMARK  6 active torsions:
REMARK  status: ('A' for Active; 'I' for Inactive)
REMARK    1  A    between atoms: C2_2  and  C3_3 
REMARK    2  A    between atoms: C3_3  and  C4_4 
REMARK    3  A    between atoms: C15_18  and  C16_19 
REMARK    4  A    between atoms: C19_23  and  N2_24 
REMARK       I    between atoms: N2_24  and  C20_26 
REMARK    5  A    between atoms: C20_26  and  C21_28 
REMARK    6  A    between atoms: C22_29  and  C23_30 
ROOT
HETATM    1  C4  UNL     1      -7.558  13.711  21.949  1.00  0.00     0.044 C 
HETATM    2  C5  UNL     1      -9.058  13.614  22.060  1.00  0.00    -0.058 C 
HETATM    3  C6  UNL     1      -9.736  14.626  22.468  1.00  0.00     0.019 C 
HETATM    4  C7  UNL     1      -9.706  12.332  21.627  1.00  0.00    -0.066 C 
HETATM    5  C8  UNL     1     -11.150  12.305  21.881  1.00  0.00     0.062 C 
HETATM    6  C9  UNL     1     -12.017  13.044  20.882  1.00  0.00    -0.017 C 
HETATM    7  C10 UNL     1     -12.278  12.786  19.571  1.00  0.00    -0.048 A 
HETATM    8  C11 UNL     1     -12.474  12.384  18.159  1.00  0.00     0.128 A 
HETATM    9  N1  UNL     1     -11.282  12.254  17.269  1.00  0.00    -0.351 N 
ATOM     10  H1  UNL     1     -11.416  12.188  16.260  1.00  0.00     0.163 HD
HETATM   11  C12 UNL     1      -9.937  12.219  17.810  1.00  0.00     0.223 C 
HETATM   12  O1  UNL     1      -8.942  12.336  17.112  1.00  0.00    -0.273 OA
HETATM   13  C13 UNL     1      -9.973  12.033  19.233  1.00  0.00     0.087 C 
HETATM   14  C14 UNL     1     -10.933  10.886  19.285  1.00  0.00     0.032 C 
HETATM   15  C15 UNL     1     -12.342  11.318  19.079  1.00  0.00     0.019 A 
HETATM   16  C17 UNL     1      -9.102  11.822  20.335  1.00  0.00     0.030 C 
HETATM   17  C18 UNL     1      -7.707  12.222  20.093  1.00  0.00     0.035 C 
HETATM   18  C19 UNL     1      -7.327  13.636  20.465  1.00  0.00     0.094 C 
ENDROOT
BRANCH  18  19
HETATM   19  N2  UNL     1      -5.985  13.920  20.046  1.00  0.00    -0.345 N 
HETATM   20  C20 UNL     1      -5.577  14.293  18.768  1.00  0.00     0.297 C 
HETATM   21  O2  UNL     1      -6.435  14.404  17.864  1.00  0.00    -0.258 OA
ATOM     22  H2  UNL     1      -5.257  13.841  20.756  1.00  0.00     0.163 HD
BRANCH  20  23
HETATM   23  C21 UNL     1      -4.205  14.548  18.483  1.00  0.00    -0.001 C 
HETATM   24  C22 UNL     1      -3.045  14.777  18.237  1.00  0.00    -0.069 C 
BRANCH  24  25
HETATM   25  C23 UNL     1      -1.661  15.049  17.960  1.00  0.00     0.060 C 
HETATM   26  C24 UNL     1      -1.193  15.244  16.748  1.00  0.00    -0.022 C 
HETATM   27  C25 UNL     1      -2.065  15.201  15.536  1.00  0.00     0.036 C 
ENDBRANCH  24  25
ENDBRANCH  20  23
ENDBRANCH  18  19
BRANCH   1  28
HETATM   28  C3  UNL     1      -6.991  14.829  22.684  1.00  0.00     0.037 C 
BRANCH  28  29
HETATM   29  C2  UNL     1      -6.381  14.534  24.004  1.00  0.00    -0.036 C 
HETATM   30  C1  UNL     1      -6.402  13.407  24.651  1.00  0.00     0.007 C 
ENDBRANCH  28  29
ENDBRANCH   1  28
BRANCH  15  31
HETATM   31  C16 UNL     1     -13.475  10.452  19.555  1.00  0.00     0.101 C 
HETATM   32 BR1  UNL     1     -12.674   9.011  20.564  1.00  0.00    -0.095 Br
ENDBRANCH  15  31
TORSDOF 6
ENDMDL
MODEL 3
REMARK VINA RESULT: -6.150913239      1.104      1.370
REMARK  6 active torsions:
REMARK  status: ('A' for Active; 'I' for Inactive)
REMARK    1  A    between atoms: C2_2  and  C3_3 
REMARK    2  A    between atoms: C3_3  and  C4_4 
REMARK    3  A    between atoms: C15_18  and  C16_19 
REMARK    4  A    between atoms: C19_23  and  N2_24 
REMARK       I    between atoms: N2_24  and  C20_26 
REMARK    5  A    between atoms: C20_26  and  C21_28 
REMARK    6  A    between atoms: C22_29  and  C23_30 
ROOT
HETATM    1  C4  UNL     1      -1.900  18.113  19.239  1.00  0.00     0.044 C 
HETATM    2  C5  UNL     1      -3.152  18.494  19.988  1.00  0.00    -0.058 C 
HETATM    3  C6  UNL     1      -3.735  19.609  19.732  1.00  0.00     0.019 C 
HETATM    4  C7  UNL     1      -3.698  17.507  20.977  1.00  0.00    -0.066 C 
HETATM    5  C8  UNL     1      -4.849  18.024  21.726  1.00  0.00     0.062 C 
HETATM    6  C9  UNL     1      -6.181  17.993  21.007  1.00  0.00    -0.017 C 
HETATM    7  C10 UNL     1      -6.954  16.944  20.612  1.00  0.00    -0.048 A 
HETATM    8  C11 UNL     1      -7.690  15.712  20.244  1.00  0.00     0.128 A 
HETATM    9  N1  UNL     1      -7.019  14.697  19.379  1.00  0.00    -0.351 N 
ATOM     10  H1  UNL     1      -7.578  13.959  18.950  1.00  0.00     0.163 HD
HETATM   11  C12 UNL     1      -5.590  14.737  19.137  1.00  0.00     0.223 C 
HETATM   12  O1  UNL     1      -5.049  14.068  18.271  1.00  0.00    -0.273 OA
HETATM   13  C13 UNL     1      -4.954  15.652  20.043  1.00  0.00     0.087 C 
HETATM   14  C14 UNL     1      -5.581  15.178  21.316  1.00  0.00     0.032 C 
HETATM   15  C15 UNL     1      -6.983  15.652  21.468  1.00  0.00     0.019 A 
HETATM   16  C17 UNL     1      -3.660  16.098  20.423  1.00  0.00     0.030 C 
HETATM   17  C18 UNL     1      -2.610  15.844  19.424  1.00  0.00     0.035 C 
HETATM   18  C19 UNL     1      -2.348  16.937  18.415  1.00  0.00     0.094 C 
ENDROOT
BRANCH  18  19
HETATM   19  N2  UNL     1      -1.405  16.494  17.430  1.00  0.00    -0.345 N 
HETATM   20  C20 UNL     1      -1.641  15.572  16.413  1.00  0.00     0.297 C 
HETATM   21  O2  UNL     1      -2.775  15.053  16.313  1.00  0.00    -0.258 OA
ATOM     22  H2  UNL     1      -0.469  16.894  17.479  1.00  0.00     0.163 HD
BRANCH  20  23
HETATM   23  C21 UNL     1      -0.611  15.216  15.496  1.00  0.00    -0.001 C 
HETATM   24  C22 UNL     1       0.261  14.927  14.711  1.00  0.00    -0.069 C 
BRANCH  24  25
HETATM   25  C23 UNL     1       1.308  14.583  13.790  1.00  0.00     0.060 C 
HETATM   26  C24 UNL     1       1.119  13.830  12.730  1.00  0.00    -0.022 C 
HETATM   27  C25 UNL     1      -0.217  13.256  12.383  1.00  0.00     0.036 C 
ENDBRANCH  24  25
ENDBRANCH  20  23
ENDBRANCH  18  19
BRANCH   1  28
HETATM   28  C3  UNL     1      -1.262  19.230  18.565  1.00  0.00     0.037 C 
BRANCH  28  29
HETATM   29  C2  UNL     1       0.160  19.499  18.894  1.00  0.00    -0.036 C 
HETATM   30  C1  UNL     1       1.062  18.640  19.267  1.00  0.00     0.007 C 
ENDBRANCH  28  29
ENDBRANCH   1  28
BRANCH  15  31
HETATM   31  C16 UNL     1      -7.620  15.709  22.828  1.00  0.00     0.101 C 
HETATM   32 BR1  UNL     1      -6.221  15.306  24.101  1.00  0.00    -0.095 Br
ENDBRANCH  15  31
TORSDOF 6
ENDMDL
MODEL 4
REMARK VINA RESULT: -6.089018631      4.206      7.357
REMARK  6 active torsions:
REMARK  status: ('A' for Active; 'I' for Inactive)
REMARK    1  A    between atoms: C2_2  and  C3_3 
REMARK    2  A    between atoms: C3_3  and  C4_4 
REMARK    3  A    between atoms: C15_18  and  C16_19 
REMARK    4  A    between atoms: C19_23  and  N2_24 
REMARK       I    between atoms: N2_24  and  C20_26 
REMARK    5  A    between atoms: C20_26  and  C21_28 
REMARK    6  A    between atoms: C22_29  and  C23_30 
ROOT
HETATM    1  C4  UNL     1      -7.696  12.048  20.712  1.00  0.00     0.044 C 
HETATM    2  C5  UNL     1      -9.116  12.181  21.200  1.00  0.00    -0.058 C 
HETATM    3  C6  UNL     1      -9.344  12.470  22.431  1.00  0.00     0.019 C 
HETATM    4  C7  UNL     1     -10.216  12.019  20.193  1.00  0.00    -0.066 C 
HETATM    5  C8  UNL     1     -11.553  12.055  20.794  1.00  0.00     0.062 C 
HETATM    6  C9  UNL     1     -12.099  13.429  21.123  1.00  0.00    -0.017 C 
HETATM    7  C10 UNL     1     -12.475  14.455  20.310  1.00  0.00    -0.048 A 
HETATM    8  C11 UNL     1     -12.848  15.481  19.308  1.00  0.00     0.128 A 
HETATM    9  N1  UNL     1     -11.821  15.948  18.330  1.00  0.00    -0.351 N 
ATOM     10  H1  UNL     1     -11.998  16.791  17.784  1.00  0.00     0.163 HD
HETATM   11  C12 UNL     1     -10.577  15.227  18.140  1.00  0.00     0.223 C 
HETATM   12  O1  UNL     1      -9.632  15.693  17.523  1.00  0.00    -0.273 OA
HETATM   13  C13 UNL     1     -10.642  13.938  18.770  1.00  0.00     0.087 C 
HETATM   14  C14 UNL     1     -11.966  13.493  18.232  1.00  0.00     0.032 C 
HETATM   15  C15 UNL     1     -13.108  14.143  18.930  1.00  0.00     0.019 A 
HETATM   16  C17 UNL     1      -9.888  12.742  18.903  1.00  0.00     0.030 C 
HETATM   17  C18 UNL     1      -8.453  12.893  18.614  1.00  0.00     0.035 C 
HETATM   18  C19 UNL     1      -7.552  13.221  19.781  1.00  0.00     0.094 C 
ENDROOT
BRANCH  18  19
HETATM   19  N2  UNL     1      -6.215  13.471  19.327  1.00  0.00    -0.345 N 
HETATM   20  C20 UNL     1      -5.517  14.672  19.428  1.00  0.00     0.297 C 
HETATM   21  O2  UNL     1      -6.075  15.657  19.962  1.00  0.00    -0.258 OA
ATOM     22  H2  UNL     1      -5.727  12.692  18.885  1.00  0.00     0.163 HD
BRANCH  20  23
HETATM   23  C21 UNL     1      -4.187  14.789  18.933  1.00  0.00    -0.001 C 
HETATM   24  C22 UNL     1      -3.060  14.901  18.510  1.00  0.00    -0.069 C 
BRANCH  24  25
HETATM   25  C23 UNL     1      -1.715  15.032  18.023  1.00  0.00     0.060 C 
HETATM   26  C24 UNL     1      -1.416  15.116  16.745  1.00  0.00    -0.022 C 
HETATM   27  C25 UNL     1      -2.457  15.082  15.674  1.00  0.00     0.036 C 
ENDBRANCH  24  25
ENDBRANCH  20  23
ENDBRANCH  18  19
BRANCH   1  28
HETATM   28  C3  UNL     1      -6.725  11.887  21.781  1.00  0.00     0.037 C 
BRANCH  28  29
HETATM   29  C2  UNL     1      -6.311  10.502  22.119  1.00  0.00    -0.036 C 
HETATM   30  C1  UNL     1      -6.992   9.409  21.946  1.00  0.00     0.007 C 
ENDBRANCH  28  29
ENDBRANCH   1  28
BRANCH  15  31
HETATM   31  C16 UNL     1     -14.473  13.513  18.895  1.00  0.00     0.101 C 
HETATM   32 BR1  UNL     1     -14.263  11.809  18.005  1.00  0.00    -0.095 Br
ENDBRANCH  15  31
TORSDOF 6
ENDMDL
MODEL 5
REMARK VINA RESULT: -5.980358828      3.090      5.594
REMARK  6 active torsions:
REMARK  status: ('A' for Active; 'I' for Inactive)
REMARK    1  A    between atoms: C2_2  and  C3_3 
REMARK    2  A    between atoms: C3_3  and  C4_4 
REMARK    3  A    between atoms: C15_18  and  C16_19 
REMARK    4  A    between atoms: C19_23  and  N2_24 
REMARK       I    between atoms: N2_24  and  C20_26 
REMARK    5  A    between atoms: C20_26  and  C21_28 
REMARK    6  A    between atoms: C22_29  and  C23_30 
ROOT
HETATM    1  C4  UNL     1      -2.442  16.251  18.490  1.00  0.00     0.044 C 
HETATM    2  C5  UNL     1      -2.768  17.005  19.754  1.00  0.00    -0.058 C 
HETATM    3  C6  UNL     1      -2.804  16.383  20.877  1.00  0.00     0.019 C 
HETATM    4  C7  UNL     1      -2.986  18.485  19.644  1.00  0.00    -0.066 C 
HETATM    5  C8  UNL     1      -3.406  19.098  20.909  1.00  0.00     0.062 C 
HETATM    6  C9  UNL     1      -2.308  19.366  21.917  1.00  0.00    -0.017 C 
HETATM    7  C10 UNL     1      -1.262  20.237  21.882  1.00  0.00    -0.048 A 
HETATM    8  C11 UNL     1      -0.177  21.231  21.709  1.00  0.00     0.128 A 
HETATM    9  N1  UNL     1       0.721  21.126  20.521  1.00  0.00    -0.351 N 
ATOM     10  H1  UNL     1       1.588  21.663  20.501  1.00  0.00     0.163 HD
HETATM   11  C12 UNL     1       0.386  20.277  19.394  1.00  0.00     0.223 C 
HETATM   12  O1  UNL     1       1.188  19.997  18.518  1.00  0.00    -0.273 OA
HETATM   13  C13 UNL     1      -0.981  19.843  19.482  1.00  0.00     0.087 C 
HETATM   14  C14 UNL     1      -1.618  21.169  19.759  1.00  0.00     0.032 C 
HETATM   15  C15 UNL     1      -1.430  21.603  21.170  1.00  0.00     0.019 A 
HETATM   16  C17 UNL     1      -1.954  19.125  18.738  1.00  0.00     0.030 C 
HETATM   17  C18 UNL     1      -1.397  18.244  17.699  1.00  0.00     0.035 C 
HETATM   18  C19 UNL     1      -1.104  16.817  18.099  1.00  0.00     0.094 C 
ENDROOT
BRANCH  18  19
HETATM   19  N2  UNL     1      -0.442  16.124  17.032  1.00  0.00    -0.345 N 
HETATM   20  C20 UNL     1      -1.021  15.692  15.841  1.00  0.00     0.297 C 
HETATM   21  O2  UNL     1      -2.237  15.909  15.641  1.00  0.00    -0.258 OA
ATOM     22  H2  UNL     1       0.550  15.928  17.158  1.00  0.00     0.163 HD
BRANCH  20  23
HETATM   23  C21 UNL     1      -0.247  15.011  14.857  1.00  0.00    -0.001 C 
HETATM   24  C22 UNL     1       0.415  14.446  14.020  1.00  0.00    -0.069 C 
BRANCH  24  25
HETATM   25  C23 UNL     1       1.209  13.765  13.035  1.00  0.00     0.060 C 
HETATM   26  C24 UNL     1       2.408  14.166  12.673  1.00  0.00    -0.022 C 
HETATM   27  C25 UNL     1       3.059  15.377  13.257  1.00  0.00     0.036 C 
ENDBRANCH  24  25
ENDBRANCH  20  23
ENDBRANCH  18  19
BRANCH   1  28
HETATM   28  C3  UNL     1      -2.574  14.810  18.621  1.00  0.00     0.037 C 
BRANCH  28  29
HETATM   29  C2  UNL     1      -3.869  14.208  18.215  1.00  0.00    -0.036 C 
HETATM   30  C1  UNL     1      -4.908  13.987  18.965  1.00  0.00     0.007 C 
ENDBRANCH  28  29
ENDBRANCH   1  28
BRANCH  15  31
HETATM   31  C16 UNL     1      -2.357  22.619  21.778  1.00  0.00     0.101 C 
HETATM   32 BR1  UNL     1      -3.776  22.899  20.496  1.00  0.00    -0.095 Br
ENDBRANCH  15  31
TORSDOF 6
ENDMDL
