MODEL 1
REMARK VINA RESULT: -6.848435863      0.000      0.000
REMARK  6 active torsions:
REMARK  status: ('A' for Active; 'I' for Inactive)
REMARK    1  A    between atoms: C9_16  and  C10_17 
REMARK    2  A    between atoms: C10_17  and  C11_18 
REMARK    3  A    between atoms: C11_18  and  C12_19 
REMARK    4  A    between atoms: N3_22  and  C15_23 
REMARK    5  A    between atoms: C15_23  and  C16_24 
REMARK    6  A    between atoms: C17_25  and  C18_26 
ROOT
HETATM    1  C1  UNL     1     -10.382  16.777  17.830  1.00  0.00     0.089 C 
HETATM    2  C2  UNL     1      -9.967  15.373  18.064  1.00  0.00     0.076 C 
HETATM    3  N1  UNL     1     -10.592  14.424  17.451  1.00  0.00    -0.316 N 
ATOM      4  H1  UNL     1     -11.345  14.727  16.834  1.00  0.00     0.170 HD
HETATM    5  C3  UNL     1     -10.383  13.011  17.508  1.00  0.00     0.241 C 
HETATM    6  O1  UNL     1     -11.368  12.283  17.224  1.00  0.00    -0.271 OA
HETATM    7  C4  UNL     1      -9.099  12.403  17.875  1.00  0.00     0.181 C 
HETATM    8 CL1  UNL     1      -9.308  10.623  17.719  1.00  0.00    -0.115 Cl
HETATM    9  C5  UNL     1      -8.562  12.682  19.207  1.00  0.00     0.045 C 
HETATM   10  C6  UNL     1      -9.436  11.940  20.249  1.00  0.00     0.024 C 
HETATM   11  C7  UNL     1      -8.829  12.556  21.502  1.00  0.00     0.084 C 
HETATM   12  C8  UNL     1      -7.352  12.306  21.434  1.00  0.00     0.222 C 
HETATM   13  O2  UNL     1      -6.789  11.230  21.625  1.00  0.00    -0.273 OA
HETATM   14  N2  UNL     1      -6.537  13.479  21.110  1.00  0.00    -0.354 N 
ATOM     15  H2  UNL     1      -5.721  13.715  21.675  1.00  0.00     0.163 HD
HETATM   16  C9  UNL     1      -6.902  14.288  19.988  1.00  0.00     0.113 C 
HETATM   17  C24 UNL     1      -8.430  14.040  19.724  1.00  0.00     0.061 C 
HETATM   18  N4  UNL     1      -8.876  15.150  18.978  1.00  0.00    -0.368 N 
ATOM     19  H4  UNL     1      -8.297  15.979  19.116  1.00  0.00     0.161 HD
HETATM   20  C25 UNL     1      -8.982  14.029  21.159  1.00  0.00     0.025 C 
HETATM   21  C26 UNL     1     -10.375  14.506  21.272  1.00  0.00     0.013 C 
ENDROOT
BRANCH  16  22
HETATM   22  C10 UNL     1      -6.136  14.153  18.770  1.00  0.00     0.032 C 
BRANCH  22  23
HETATM   23  C11 UNL     1      -4.712  13.830  18.805  1.00  0.00     0.041 C 
BRANCH  23  24
HETATM   24  C12 UNL     1      -3.712  14.888  18.743  1.00  0.00    -0.056 A 
HETATM   25  C13 UNL     1      -2.678  14.953  17.815  1.00  0.00     0.024 A 
HETATM   26  C14 UNL     1      -1.783  15.999  17.842  1.00  0.00     0.092 A 
HETATM   27  N3  UNL     1      -1.861  16.986  18.744  1.00  0.00    -0.356 N 
HETATM   28  C22 UNL     1      -2.849  16.943  19.644  1.00  0.00     0.092 A 
HETATM   29  C23 UNL     1      -3.775  15.925  19.670  1.00  0.00     0.024 A 
BRANCH  27  30
HETATM   30  C15 UNL     1      -0.919  18.065  18.751  1.00  0.00     0.221 C 
BRANCH  30  31
HETATM   31  C16 UNL     1      -1.512  19.276  18.138  1.00  0.00    -0.086 C 
HETATM   32  C17 UNL     1      -2.005  20.251  17.628  1.00  0.00    -0.096 C 
BRANCH  32  33
HETATM   33  C18 UNL     1      -2.618  21.413  17.005  1.00  0.00     0.013 C 
HETATM   34  C19 UNL     1      -3.169  22.359  18.071  1.00  0.00     0.028 C 
HETATM   35  C20 UNL     1      -1.632  22.129  16.116  1.00  0.00     0.028 C 
HETATM   36  C21 UNL     1      -3.802  21.016  16.125  1.00  0.00     0.028 C 
ENDBRANCH  32  33
ENDBRANCH  30  31
ENDBRANCH  27  30
ENDBRANCH  23  24
ENDBRANCH  22  23
ENDBRANCH  16  22
TORSDOF 6
ENDMDL
MODEL 2
REMARK VINA RESULT: -6.819178747      5.981     10.707
REMARK  6 active torsions:
REMARK  status: ('A' for Active; 'I' for Inactive)
REMARK    1  A    between atoms: C9_16  and  C10_17 
REMARK    2  A    between atoms: C10_17  and  C11_18 
REMARK    3  A    between atoms: C11_18  and  C12_19 
REMARK    4  A    between atoms: N3_22  and  C15_23 
REMARK    5  A    between atoms: C15_23  and  C16_24 
REMARK    6  A    between atoms: C17_25  and  C18_26 
ROOT
HETATM    1  C1  UNL     1     -10.095  15.998  17.441  1.00  0.00     0.089 C 
HETATM    2  C2  UNL     1     -10.660  14.737  17.981  1.00  0.00     0.076 C 
HETATM    3  N1  UNL     1     -11.744  14.785  18.681  1.00  0.00    -0.316 N 
ATOM      4  H1  UNL     1     -12.137  15.717  18.811  1.00  0.00     0.170 HD
HETATM    5  C3  UNL     1     -12.474  13.724  19.300  1.00  0.00     0.241 C 
HETATM    6  O1  UNL     1     -13.189  14.034  20.288  1.00  0.00    -0.271 OA
HETATM    7  C4  UNL     1     -12.420  12.333  18.837  1.00  0.00     0.181 C 
HETATM    8 CL1  UNL     1     -13.563  11.401  19.867  1.00  0.00    -0.115 Cl
HETATM    9  C5  UNL     1     -11.126  11.650  18.862  1.00  0.00     0.045 C 
HETATM   10  C6  UNL     1     -10.747  11.381  20.341  1.00  0.00     0.024 C 
HETATM   11  C7  UNL     1      -9.324  10.895  20.102  1.00  0.00     0.084 C 
HETATM   12  C8  UNL     1      -9.413   9.764  19.122  1.00  0.00     0.222 C 
HETATM   13  O2  UNL     1      -9.818   8.628  19.361  1.00  0.00    -0.273 OA
HETATM   14  N2  UNL     1      -8.962  10.079  17.765  1.00  0.00    -0.354 N 
ATOM     15  H2  UNL     1      -8.304   9.467  17.282  1.00  0.00     0.163 HD
HETATM   16  C9  UNL     1      -9.459  11.259  17.126  1.00  0.00     0.113 C 
HETATM   17  C24 UNL     1      -9.927  12.232  18.267  1.00  0.00     0.061 C 
HETATM   18  N4  UNL     1      -9.952  13.517  17.688  1.00  0.00    -0.368 N 
ATOM     19  H4  UNL     1      -9.331  13.602  16.883  1.00  0.00     0.161 HD
HETATM   20  C25 UNL     1      -8.792  12.063  19.288  1.00  0.00     0.025 C 
HETATM   21  C26 UNL     1      -8.532  13.265  20.106  1.00  0.00     0.013 C 
ENDROOT
BRANCH  16  22
HETATM   22  C10 UNL     1     -10.483  11.109  16.118  1.00  0.00     0.032 C 
BRANCH  22  23
HETATM   23  C11 UNL     1     -10.884   9.790  15.638  1.00  0.00     0.041 C 
BRANCH  23  24
HETATM   24  C12 UNL     1     -11.552   9.642  14.351  1.00  0.00    -0.056 A 
HETATM   25  C13 UNL     1     -11.211   8.708  13.379  1.00  0.00     0.024 A 
HETATM   26  C14 UNL     1     -11.907   8.651  12.193  1.00  0.00     0.092 A 
HETATM   27  N3  UNL     1     -12.928   9.474  11.921  1.00  0.00    -0.356 N 
HETATM   28  C22 UNL     1     -13.273  10.379  12.844  1.00  0.00     0.092 A 
HETATM   29  C23 UNL     1     -12.616  10.486  14.048  1.00  0.00     0.024 A 
BRANCH  27  30
HETATM   30  C15 UNL     1     -13.639   9.395  10.680  1.00  0.00     0.221 C 
BRANCH  30  31
HETATM   31  C16 UNL     1     -12.931   8.503   9.732  1.00  0.00    -0.086 C 
HETATM   32  C17 UNL     1     -12.346   7.792   8.954  1.00  0.00    -0.096 C 
BRANCH  32  33
HETATM   33  C18 UNL     1     -11.625   6.951   8.012  1.00  0.00     0.013 C 
HETATM   34  C19 UNL     1     -12.429   6.788   6.723  1.00  0.00     0.028 C 
HETATM   35  C20 UNL     1     -10.259   7.520   7.720  1.00  0.00     0.028 C 
HETATM   36  C21 UNL     1     -11.410   5.545   8.569  1.00  0.00     0.028 C 
ENDBRANCH  32  33
ENDBRANCH  30  31
ENDBRANCH  27  30
ENDBRANCH  23  24
ENDBRANCH  22  23
ENDBRANCH  16  22
TORSDOF 6
ENDMDL
MODEL 3
REMARK VINA RESULT: -6.747763409      1.822      2.312
REMARK  6 active torsions:
REMARK  status: ('A' for Active; 'I' for Inactive)
REMARK    1  A    between atoms: C9_16  and  C10_17 
REMARK    2  A    between atoms: C10_17  and  C11_18 
REMARK    3  A    between atoms: C11_18  and  C12_19 
REMARK    4  A    between atoms: N3_22  and  C15_23 
REMARK    5  A    between atoms: C15_23  and  C16_24 
REMARK    6  A    between atoms: C17_25  and  C18_26 
ROOT
HETATM    1  C1  UNL     1      -6.834  17.977  21.778  1.00  0.00     0.089 C 
HETATM    2  C2  UNL     1      -7.546  16.985  20.938  1.00  0.00     0.076 C 
HETATM    3  N1  UNL     1      -8.595  17.356  20.283  1.00  0.00    -0.316 N 
ATOM      4  H1  UNL     1      -8.858  18.334  20.400  1.00  0.00     0.170 HD
HETATM    5  C3  UNL     1      -9.442  16.597  19.418  1.00  0.00     0.241 C 
HETATM    6  O1  UNL     1     -10.623  17.010  19.280  1.00  0.00    -0.271 OA
HETATM    7  C4  UNL     1      -8.996  15.393  18.707  1.00  0.00     0.181 C 
HETATM    8 CL1  UNL     1     -10.376  14.854  17.688  1.00  0.00    -0.115 Cl
HETATM    9  C5  UNL     1      -8.546  14.252  19.504  1.00  0.00     0.045 C 
HETATM   10  C6  UNL     1      -9.782  13.625  20.197  1.00  0.00     0.024 C 
HETATM   11  C7  UNL     1      -9.040  12.650  21.099  1.00  0.00     0.084 C 
HETATM   12  C8  UNL     1      -8.164  11.819  20.210  1.00  0.00     0.222 C 
HETATM   13  O2  UNL     1      -8.538  10.922  19.457  1.00  0.00    -0.273 OA
HETATM   14  N2  UNL     1      -6.735  12.134  20.273  1.00  0.00    -0.354 N 
ATOM     15  H2  UNL     1      -6.046  11.392  20.399  1.00  0.00     0.163 HD
HETATM   16  C9  UNL     1      -6.320  13.498  20.155  1.00  0.00     0.113 C 
HETATM   17  C24 UNL     1      -7.550  14.386  20.563  1.00  0.00     0.061 C 
HETATM   18  N4  UNL     1      -7.017  15.645  20.906  1.00  0.00    -0.368 N 
ATOM     19  H4  UNL     1      -6.040  15.597  21.196  1.00  0.00     0.161 HD
HETATM   20  C25 UNL     1      -8.083  13.615  21.780  1.00  0.00     0.025 C 
HETATM   21  C26 UNL     1      -8.746  14.466  22.790  1.00  0.00     0.013 C 
ENDROOT
BRANCH  16  22
HETATM   22  C10 UNL     1      -5.758  13.934  18.897  1.00  0.00     0.032 C 
BRANCH  22  23
HETATM   23  C11 UNL     1      -4.337  13.769  18.607  1.00  0.00     0.041 C 
BRANCH  23  24
HETATM   24  C12 UNL     1      -3.446  14.923  18.597  1.00  0.00    -0.056 A 
HETATM   25  C13 UNL     1      -2.383  15.100  17.717  1.00  0.00     0.024 A 
HETATM   26  C14 UNL     1      -1.599  16.229  17.791  1.00  0.00     0.092 A 
HETATM   27  N3  UNL     1      -1.815  17.194  18.694  1.00  0.00    -0.356 N 
HETATM   28  C22 UNL     1      -2.834  17.043  19.549  1.00  0.00     0.092 A 
HETATM   29  C23 UNL     1      -3.653  15.938  19.526  1.00  0.00     0.024 A 
BRANCH  27  30
HETATM   30  C15 UNL     1      -0.987  18.361  18.751  1.00  0.00     0.221 C 
BRANCH  30  31
HETATM   31  C16 UNL     1      -1.660  19.508  18.096  1.00  0.00    -0.086 C 
HETATM   32  C17 UNL     1      -2.200  20.436  17.548  1.00  0.00    -0.096 C 
BRANCH  32  33
HETATM   33  C18 UNL     1      -2.847  21.544  16.866  1.00  0.00     0.013 C 
HETATM   34  C19 UNL     1      -3.361  22.564  17.881  1.00  0.00     0.028 C 
HETATM   35  C20 UNL     1      -1.904  22.197  15.886  1.00  0.00     0.028 C 
HETATM   36  C21 UNL     1      -4.062  21.076  16.068  1.00  0.00     0.028 C 
ENDBRANCH  32  33
ENDBRANCH  30  31
ENDBRANCH  27  30
ENDBRANCH  23  24
ENDBRANCH  22  23
ENDBRANCH  16  22
TORSDOF 6
ENDMDL
MODEL 4
REMARK VINA RESULT: -6.600845187      2.351      3.471
REMARK  6 active torsions:
REMARK  status: ('A' for Active; 'I' for Inactive)
REMARK    1  A    between atoms: C9_16  and  C10_17 
REMARK    2  A    between atoms: C10_17  and  C11_18 
REMARK    3  A    between atoms: C11_18  and  C12_19 
REMARK    4  A    between atoms: N3_22  and  C15_23 
REMARK    5  A    between atoms: C15_23  and  C16_24 
REMARK    6  A    between atoms: C17_25  and  C18_26 
ROOT
HETATM    1  C1  UNL     1      -4.840  16.560  23.359  1.00  0.00     0.089 C 
HETATM    2  C2  UNL     1      -5.948  16.336  22.399  1.00  0.00     0.076 C 
HETATM    3  N1  UNL     1      -6.803  17.283  22.197  1.00  0.00    -0.316 N 
ATOM      4  H1  UNL     1      -6.641  18.136  22.732  1.00  0.00     0.170 HD
HETATM    5  C3  UNL     1      -7.941  17.311  21.335  1.00  0.00     0.241 C 
HETATM    6  O1  UNL     1      -8.863  18.109  21.643  1.00  0.00    -0.271 OA
HETATM    7  C4  UNL     1      -8.067  16.468  20.140  1.00  0.00     0.181 C 
HETATM    8 CL1  UNL     1      -9.615  16.924  19.347  1.00  0.00    -0.115 Cl
HETATM    9  C5  UNL     1      -8.058  15.016  20.319  1.00  0.00     0.045 C 
HETATM   10  C6  UNL     1      -9.391  14.602  20.994  1.00  0.00     0.024 C 
HETATM   11  C7  UNL     1      -9.041  13.145  21.262  1.00  0.00     0.084 C 
HETATM   12  C8  UNL     1      -8.637  12.549  19.947  1.00  0.00     0.222 C 
HETATM   13  O2  UNL     1      -9.392  12.254  19.022  1.00  0.00    -0.273 OA
HETATM   14  N2  UNL     1      -7.201  12.307  19.787  1.00  0.00    -0.354 N 
ATOM     15  H2  UNL     1      -6.861  11.403  19.460  1.00  0.00     0.163 HD
HETATM   16  C9  UNL     1      -6.283  13.359  20.098  1.00  0.00     0.113 C 
HETATM   17  C24 UNL     1      -7.021  14.332  21.086  1.00  0.00     0.061 C 
HETATM   18  N4  UNL     1      -6.005  15.056  21.742  1.00  0.00    -0.368 N 
ATOM     19  H4  UNL     1      -5.112  14.562  21.755  1.00  0.00     0.161 HD
HETATM   20  C25 UNL     1      -7.733  13.334  22.011  1.00  0.00     0.025 C 
HETATM   21  C26 UNL     1      -7.925  13.823  23.392  1.00  0.00     0.013 C 
ENDROOT
BRANCH  16  22
HETATM   22  C10 UNL     1      -5.683  14.087  19.003  1.00  0.00     0.032 C 
BRANCH  22  23
HETATM   23  C11 UNL     1      -4.287  13.877  18.632  1.00  0.00     0.041 C 
BRANCH  23  24
HETATM   24  C12 UNL     1      -3.354  14.996  18.598  1.00  0.00    -0.056 A 
HETATM   25  C13 UNL     1      -2.288  15.119  17.713  1.00  0.00     0.024 A 
HETATM   26  C14 UNL     1      -1.464  16.219  17.764  1.00  0.00     0.092 A 
HETATM   27  N3  UNL     1      -1.640  17.207  18.650  1.00  0.00    -0.356 N 
HETATM   28  C22 UNL     1      -2.661  17.109  19.511  1.00  0.00     0.092 A 
HETATM   29  C23 UNL     1      -3.520  16.034  19.510  1.00  0.00     0.024 A 
BRANCH  27  30
HETATM   30  C15 UNL     1      -0.770  18.344  18.684  1.00  0.00     0.221 C 
BRANCH  30  31
HETATM   31  C16 UNL     1      -1.427  19.520  18.066  1.00  0.00    -0.086 C 
HETATM   32  C17 UNL     1      -1.970  20.465  17.551  1.00  0.00    -0.096 C 
BRANCH  32  33
HETATM   33  C18 UNL     1      -2.641  21.590  16.921  1.00  0.00     0.013 C 
HETATM   34  C19 UNL     1      -3.827  21.103  16.090  1.00  0.00     0.028 C 
HETATM   35  C20 UNL     1      -3.090  22.594  17.952  1.00  0.00     0.028 C 
HETATM   36  C21 UNL     1      -1.712  22.327  15.959  1.00  0.00     0.028 C 
ENDBRANCH  32  33
ENDBRANCH  30  31
ENDBRANCH  27  30
ENDBRANCH  23  24
ENDBRANCH  22  23
ENDBRANCH  16  22
TORSDOF 6
ENDMDL
MODEL 5
REMARK VINA RESULT: -6.524597001      2.079      2.998
REMARK  6 active torsions:
REMARK  status: ('A' for Active; 'I' for Inactive)
REMARK    1  A    between atoms: C9_16  and  C10_17 
REMARK    2  A    between atoms: C10_17  and  C11_18 
REMARK    3  A    between atoms: C11_18  and  C12_19 
REMARK    4  A    between atoms: N3_22  and  C15_23 
REMARK    5  A    between atoms: C15_23  and  C16_24 
REMARK    6  A    between atoms: C17_25  and  C18_26 
ROOT
HETATM    1  C1  UNL     1      -9.161  15.752  23.541  1.00  0.00     0.089 C 
HETATM    2  C2  UNL     1      -9.400  15.699  22.078  1.00  0.00     0.076 C 
HETATM    3  N1  UNL     1     -10.055  16.657  21.514  1.00  0.00    -0.316 N 
ATOM      4  H1  UNL     1     -10.367  17.398  22.141  1.00  0.00     0.170 HD
HETATM    5  C3  UNL     1     -10.409  16.833  20.140  1.00  0.00     0.241 C 
HETATM    6  O1  UNL     1     -11.414  17.551  19.904  1.00  0.00    -0.271 OA
HETATM    7  C4  UNL     1      -9.662  16.224  19.034  1.00  0.00     0.181 C 
HETATM    8 CL1  UNL     1     -10.429  16.803  17.513  1.00  0.00    -0.115 Cl
HETATM    9  C5  UNL     1      -9.586  14.764  18.977  1.00  0.00     0.045 C 
HETATM   10  C6  UNL     1     -10.986  14.219  18.594  1.00  0.00     0.024 C 
HETATM   11  C7  UNL     1     -10.699  12.741  18.820  1.00  0.00     0.084 C 
HETATM   12  C8  UNL     1      -9.498  12.402  17.989  1.00  0.00     0.222 C 
HETATM   13  O2  UNL     1      -9.474  12.275  16.767  1.00  0.00    -0.273 OA
HETATM   14  N2  UNL     1      -8.255  12.209  18.740  1.00  0.00    -0.354 N 
ATOM     15  H2  UNL     1      -7.676  11.384  18.581  1.00  0.00     0.163 HD
HETATM   16  C9  UNL     1      -7.866  13.195  19.701  1.00  0.00     0.113 C 
HETATM   17  C24 UNL     1      -9.171  13.961  20.123  1.00  0.00     0.061 C 
HETATM   18  N4  UNL     1      -8.878  14.561  21.364  1.00  0.00    -0.368 N 
ATOM     19  H4  UNL     1      -8.132  14.083  21.870  1.00  0.00     0.161 HD
HETATM   20  C25 UNL     1     -10.171  12.801  20.244  1.00  0.00     0.025 C 
HETATM   21  C26 UNL     1     -11.235  13.025  21.244  1.00  0.00     0.013 C 
ENDROOT
BRANCH  16  22
HETATM   22  C10 UNL     1      -6.814  14.118  19.343  1.00  0.00     0.032 C 
BRANCH  22  23
HETATM   23  C11 UNL     1      -5.407  13.742  19.458  1.00  0.00     0.041 C 
BRANCH  23  24
HETATM   24  C12 UNL     1      -4.358  14.728  19.235  1.00  0.00    -0.056 A 
HETATM   25  C13 UNL     1      -3.371  14.634  18.259  1.00  0.00     0.024 A 
HETATM   26  C14 UNL     1      -2.422  15.622  18.130  1.00  0.00     0.092 A 
HETATM   27  N3  UNL     1      -2.401  16.704  18.920  1.00  0.00    -0.356 N 
HETATM   28  C22 UNL     1      -3.343  16.815  19.864  1.00  0.00     0.092 A 
HETATM   29  C23 UNL     1      -4.318  15.860  20.043  1.00  0.00     0.024 A 
BRANCH  27  30
HETATM   30  C15 UNL     1      -1.405  17.721  18.766  1.00  0.00     0.221 C 
BRANCH  30  31
HETATM   31  C16 UNL     1      -2.009  18.962  18.227  1.00  0.00    -0.086 C 
HETATM   32  C17 UNL     1      -2.517  19.963  17.788  1.00  0.00    -0.096 C 
BRANCH  32  33
HETATM   33  C18 UNL     1      -3.151  21.162  17.265  1.00  0.00     0.013 C 
HETATM   34  C19 UNL     1      -4.364  21.535  18.115  1.00  0.00     0.028 C 
HETATM   35  C20 UNL     1      -2.170  22.307  17.205  1.00  0.00     0.028 C 
HETATM   36  C21 UNL     1      -3.668  20.946  15.844  1.00  0.00     0.028 C 
ENDBRANCH  32  33
ENDBRANCH  30  31
ENDBRANCH  27  30
ENDBRANCH  23  24
ENDBRANCH  22  23
ENDBRANCH  16  22
TORSDOF 6
ENDMDL
