MODEL 1
REMARK VINA RESULT: -6.055950665      0.000      0.000
REMARK  4 active torsions:
REMARK  status: ('A' for Active; 'I' for Inactive)
REMARK    1  A    between atoms: C2_2  and  C3_3 
REMARK    2  A    between atoms: C3_3  and  C4_4 
REMARK    3  A    between atoms: C4_4  and  N1_5 
REMARK    4  A    between atoms: C19_31  and  C21_33 
ROOT
HETATM    1  N1  UNL     1      -6.140  14.470  19.899  1.00  0.00    -0.281 N 
HETATM    2  C5  UNL     1      -4.832  14.510  19.296  1.00  0.00     0.334 C 
HETATM    3  O1  UNL     1      -4.497  13.560  18.555  1.00  0.00    -0.246 OA
HETATM    4  N2  UNL     1      -3.776  15.481  19.388  1.00  0.00    -0.278 N 
HETATM    5  C6  UNL     1      -2.663  15.623  18.553  1.00  0.00     0.136 A 
HETATM    6  N3  UNL     1      -2.051  15.145  17.461  1.00  0.00    -0.283 N 
ATOM      7  H3  UNL     1      -2.391  14.372  16.889  1.00  0.00     0.188 HD
HETATM    8  N4  UNL     1      -0.932  15.830  17.234  1.00  0.00    -0.284 N 
ATOM      9  H4  UNL     1      -0.286  15.662  16.463  1.00  0.00     0.188 HD
HETATM   10  C7  UNL     1      -0.783  16.776  18.175  1.00  0.00     0.123 A 
HETATM   11  N5  UNL     1       0.156  17.636  18.310  1.00  0.00    -0.384 N 
ATOM     12  H51 UNL     1       0.269  18.355  19.025  1.00  0.00     0.157 HD
ATOM     13  H52 UNL     1       0.961  17.726  17.690  1.00  0.00     0.157 HD
HETATM   14  C8  UNL     1      -1.889  16.652  19.027  1.00  0.00     0.034 A 
HETATM   15  C9  UNL     1      -2.483  17.238  20.226  1.00  0.00     0.072 A 
HETATM   16  C10 UNL     1      -3.756  16.508  20.456  1.00  0.00     0.101 A 
HETATM   17  C11 UNL     1      -4.984  17.283  20.229  1.00  0.00     0.032 C 
HETATM   18  C12 UNL     1      -6.259  16.848  20.917  1.00  0.00     0.060 C 
HETATM   19  C13 UNL     1      -6.914  15.644  20.255  1.00  0.00     0.028 C 
HETATM   20  C14 UNL     1      -8.059  15.812  19.788  1.00  0.00    -0.021 C 
HETATM   21  C15 UNL     1      -8.680  14.903  18.800  1.00  0.00     0.014 C 
HETATM   22  C16 UNL     1      -9.819  15.160  18.135  1.00  0.00     0.052 C 
HETATM   23  C17 UNL     1     -10.514  16.413  18.370  1.00  0.00     0.165 C 
HETATM   24  O2  UNL     1     -11.674  16.604  17.999  1.00  0.00    -0.292 OA
HETATM   25  C18 UNL     1      -9.682  17.451  19.105  1.00  0.00     0.148 C 
HETATM   26 BR1  UNL     1     -10.555  19.031  19.559  1.00  0.00    -0.081 Br
HETATM   27  C19 UNL     1      -9.150  16.706  20.329  1.00  0.00     0.022 C 
HETATM   28  C20 UNL     1      -9.013  17.570  21.484  1.00  0.00     0.026 C 
ENDROOT
BRANCH   1  29
HETATM   29  C4  UNL     1      -6.578  13.220  20.380  1.00  0.00     0.078 C 
BRANCH  29  30
HETATM   30  C3  UNL     1      -7.069  12.715  21.637  1.00  0.00     0.071 C 
BRANCH  30  31
HETATM   31  C2  UNL     1      -8.512  12.650  21.898  1.00  0.00    -0.032 C 
HETATM   32  C1  UNL     1      -9.335  12.084  21.033  1.00  0.00     0.007 C 
ENDBRANCH  30  31
ENDBRANCH  29  30
ENDBRANCH   1  29
BRANCH  27  33
HETATM   33  C21 UNL     1     -10.317  15.779  20.719  1.00  0.00    -0.021 C 
HETATM   34  C22 UNL     1     -10.781  15.606  21.902  1.00  0.00     0.008 C 
ENDBRANCH  27  33
TORSDOF 4
ENDMDL
MODEL 2
REMARK VINA RESULT: -5.838328814      2.986      4.850
REMARK  4 active torsions:
REMARK  status: ('A' for Active; 'I' for Inactive)
REMARK    1  A    between atoms: C2_2  and  C3_3 
REMARK    2  A    between atoms: C3_3  and  C4_4 
REMARK    3  A    between atoms: C4_4  and  N1_5 
REMARK    4  A    between atoms: C19_31  and  C21_33 
ROOT
HETATM    1  N1  UNL     1      -6.067  15.764  21.169  1.00  0.00    -0.281 N 
HETATM    2  C5  UNL     1      -4.856  16.184  20.510  1.00  0.00     0.334 C 
HETATM    3  O1  UNL     1      -4.289  17.217  20.927  1.00  0.00    -0.246 OA
HETATM    4  N2  UNL     1      -4.135  15.618  19.402  1.00  0.00    -0.278 N 
HETATM    5  C6  UNL     1      -2.821  15.886  19.004  1.00  0.00     0.136 A 
HETATM    6  N3  UNL     1      -1.713  16.580  19.297  1.00  0.00    -0.283 N 
ATOM      7  H3  UNL     1      -1.611  17.216  20.089  1.00  0.00     0.188 HD
HETATM    8  N4  UNL     1      -0.765  16.317  18.401  1.00  0.00    -0.284 N 
ATOM      9  H4  UNL     1       0.172  16.719  18.401  1.00  0.00     0.188 HD
HETATM   10  C7  UNL     1      -1.230  15.442  17.495  1.00  0.00     0.123 A 
HETATM   11  N5  UNL     1      -0.633  14.941  16.479  1.00  0.00    -0.384 N 
ATOM     12  H51 UNL     1      -0.987  14.276  15.791  1.00  0.00     0.157 HD
ATOM     13  H52 UNL     1       0.327  15.147  16.204  1.00  0.00     0.157 HD
HETATM   14  C8  UNL     1      -2.550  15.159  17.874  1.00  0.00     0.034 A 
HETATM   15  C9  UNL     1      -3.711  14.365  17.476  1.00  0.00     0.072 A 
HETATM   16  C10 UNL     1      -4.755  14.620  18.500  1.00  0.00     0.101 A 
HETATM   17  C11 UNL     1      -5.069  13.488  19.384  1.00  0.00     0.032 C 
HETATM   18  C12 UNL     1      -6.418  13.447  20.066  1.00  0.00     0.060 C 
HETATM   19  C13 UNL     1      -6.513  14.386  21.260  1.00  0.00     0.028 C 
HETATM   20  C14 UNL     1      -6.724  13.862  22.373  1.00  0.00    -0.021 C 
HETATM   21  C15 UNL     1      -6.471  14.547  23.660  1.00  0.00     0.014 C 
HETATM   22  C16 UNL     1      -6.499  13.948  24.862  1.00  0.00     0.052 C 
HETATM   23  C17 UNL     1      -6.786  12.528  24.945  1.00  0.00     0.165 C 
HETATM   24  O2  UNL     1      -7.078  11.974  26.007  1.00  0.00    -0.292 OA
HETATM   25  C18 UNL     1      -6.692  11.801  23.613  1.00  0.00     0.148 C 
HETATM   26 BR1  UNL     1      -7.180  10.006  23.622  1.00  0.00    -0.081 Br
HETATM   27  C19 UNL     1      -7.556  12.636  22.668  1.00  0.00     0.022 C 
HETATM   28  C20 UNL     1      -8.219  11.827  21.667  1.00  0.00     0.026 C 
ENDROOT
BRANCH   1  29
HETATM   29  C4  UNL     1      -6.974  16.777  21.534  1.00  0.00     0.078 C 
BRANCH  29  30
HETATM   30  C3  UNL     1      -8.373  17.038  21.305  1.00  0.00     0.071 C 
BRANCH  30  31
HETATM   31  C2  UNL     1      -9.019  16.584  20.067  1.00  0.00    -0.032 C 
HETATM   32  C1  UNL     1      -9.744  15.480  20.043  1.00  0.00     0.007 C 
ENDBRANCH  30  31
ENDBRANCH  29  30
ENDBRANCH   1  29
BRANCH  27  33
HETATM   33  C21 UNL     1      -8.716  13.106  23.567  1.00  0.00    -0.021 C 
HETATM   34  C22 UNL     1      -9.904  13.393  23.177  1.00  0.00     0.008 C 
ENDBRANCH  27  33
TORSDOF 4
ENDMDL
MODEL 3
REMARK VINA RESULT: -5.721573271      6.873     10.085
REMARK  4 active torsions:
REMARK  status: ('A' for Active; 'I' for Inactive)
REMARK    1  A    between atoms: C2_2  and  C3_3 
REMARK    2  A    between atoms: C3_3  and  C4_4 
REMARK    3  A    between atoms: C4_4  and  N1_5 
REMARK    4  A    between atoms: C19_31  and  C21_33 
ROOT
HETATM    1  N1  UNL     1     -11.420  10.972  16.564  1.00  0.00    -0.281 N 
HETATM    2  C5  UNL     1     -11.269  10.511  15.208  1.00  0.00     0.334 C 
HETATM    3  O1  UNL     1     -10.607  11.218  14.417  1.00  0.00    -0.246 OA
HETATM    4  N2  UNL     1     -11.762   9.333  14.546  1.00  0.00    -0.278 N 
HETATM    5  C6  UNL     1     -11.337   8.788  13.331  1.00  0.00     0.136 A 
HETATM    6  N3  UNL     1     -10.465   8.920  12.321  1.00  0.00    -0.283 N 
ATOM      7  H3  UNL     1      -9.760   9.654  12.248  1.00  0.00     0.188 HD
HETATM    8  N4  UNL     1     -10.656   7.950  11.430  1.00  0.00    -0.284 N 
ATOM      9  H4  UNL     1     -10.120   7.828  10.571  1.00  0.00     0.188 HD
HETATM   10  C7  UNL     1     -11.661   7.157  11.834  1.00  0.00     0.123 A 
HETATM   11  N5  UNL     1     -12.149   6.121  11.260  1.00  0.00    -0.384 N 
ATOM     12  H51 UNL     1     -12.913   5.518  11.568  1.00  0.00     0.157 HD
ATOM     13  H52 UNL     1     -11.826   5.736  10.373  1.00  0.00     0.157 HD
HETATM   14  C8  UNL     1     -12.105   7.686  13.054  1.00  0.00     0.034 A 
HETATM   15  C9  UNL     1     -13.092   7.463  14.108  1.00  0.00     0.072 A 
HETATM   16  C10 UNL     1     -12.852   8.515  15.127  1.00  0.00     0.101 A 
HETATM   17  C11 UNL     1     -12.302   8.046  16.407  1.00  0.00     0.032 C 
HETATM   18  C12 UNL     1     -12.516   8.889  17.646  1.00  0.00     0.060 C 
HETATM   19  C13 UNL     1     -11.595  10.100  17.710  1.00  0.00     0.028 C 
HETATM   20  C14 UNL     1     -10.802  10.152  18.672  1.00  0.00    -0.021 C 
HETATM   21  C15 UNL     1      -9.605  11.022  18.697  1.00  0.00     0.014 C 
HETATM   22  C16 UNL     1      -8.632  10.956  19.622  1.00  0.00     0.052 C 
HETATM   23  C17 UNL     1      -8.723   9.970  20.683  1.00  0.00     0.165 C 
HETATM   24  O2  UNL     1      -8.017  10.020  21.693  1.00  0.00    -0.292 OA
HETATM   25  C18 UNL     1      -9.757   8.886  20.431  1.00  0.00     0.148 C 
HETATM   26 BR1  UNL     1     -10.022   7.666  21.811  1.00  0.00    -0.081 Br
HETATM   27  C19 UNL     1     -11.030   9.656  20.081  1.00  0.00     0.022 C 
HETATM   28  C20 UNL     1     -12.227   8.978  20.533  1.00  0.00     0.026 C 
ENDROOT
BRANCH   1  29
HETATM   29  C4  UNL     1     -11.646  12.350  16.744  1.00  0.00     0.078 C 
BRANCH  29  30
HETATM   30  C3  UNL     1     -12.548  13.152  17.531  1.00  0.00     0.071 C 
BRANCH  30  31
HETATM   31  C2  UNL     1     -12.060  13.879  18.709  1.00  0.00    -0.032 C 
HETATM   32  C1  UNL     1     -10.867  14.447  18.712  1.00  0.00     0.007 C 
ENDBRANCH  30  31
ENDBRANCH  29  30
ENDBRANCH   1  29
BRANCH  27  33
HETATM   33  C21 UNL     1     -10.961  10.895  20.994  1.00  0.00    -0.021 C 
HETATM   34  C22 UNL     1     -11.954  11.460  21.577  1.00  0.00     0.008 C 
ENDBRANCH  27  33
TORSDOF 4
ENDMDL
MODEL 4
REMARK VINA RESULT: -5.391969851      2.422      3.738
REMARK  4 active torsions:
REMARK  status: ('A' for Active; 'I' for Inactive)
REMARK    1  A    between atoms: C2_2  and  C3_3 
REMARK    2  A    between atoms: C3_3  and  C4_4 
REMARK    3  A    between atoms: C4_4  and  N1_5 
REMARK    4  A    between atoms: C19_31  and  C21_33 
ROOT
HETATM    1  N1  UNL     1      -9.865  15.306  19.628  1.00  0.00    -0.281 N 
HETATM    2  C5  UNL     1      -8.675  14.725  19.060  1.00  0.00     0.334 C 
HETATM    3  O1  UNL     1      -8.813  13.844  18.183  1.00  0.00    -0.246 OA
HETATM    4  N2  UNL     1      -7.283  14.968  19.324  1.00  0.00    -0.278 N 
HETATM    5  C6  UNL     1      -6.183  14.605  18.541  1.00  0.00     0.136 A 
HETATM    6  N3  UNL     1      -5.805  14.018  17.396  1.00  0.00    -0.283 N 
ATOM      7  H3  UNL     1      -6.440  13.622  16.703  1.00  0.00     0.188 HD
HETATM    8  N4  UNL     1      -4.477  14.029  17.301  1.00  0.00    -0.284 N 
ATOM      9  H4  UNL     1      -3.941  13.644  16.523  1.00  0.00     0.188 HD
HETATM   10  C7  UNL     1      -3.951  14.624  18.383  1.00  0.00     0.123 A 
HETATM   11  N5  UNL     1      -2.720  14.831  18.669  1.00  0.00    -0.384 N 
ATOM     12  H51 UNL     1      -2.321  15.283  19.492  1.00  0.00     0.157 HD
ATOM     13  H52 UNL     1      -1.929  14.559  18.085  1.00  0.00     0.157 HD
HETATM   14  C8  UNL     1      -5.038  14.998  19.185  1.00  0.00     0.034 A 
HETATM   15  C9  UNL     1      -5.355  15.651  20.453  1.00  0.00     0.072 A 
HETATM   16  C10 UNL     1      -6.837  15.683  20.542  1.00  0.00     0.101 A 
HETATM   17  C11 UNL     1      -7.453  17.012  20.421  1.00  0.00     0.032 C 
HETATM   18  C12 UNL     1      -8.828  17.236  21.010  1.00  0.00     0.060 C 
HETATM   19  C13 UNL     1      -9.946  16.656  20.154  1.00  0.00     0.028 C 
HETATM   20  C14 UNL     1     -10.783  17.462  19.701  1.00  0.00    -0.021 C 
HETATM   21  C15 UNL     1     -11.686  17.154  18.570  1.00  0.00     0.014 C 
HETATM   22  C16 UNL     1     -12.453  18.057  17.936  1.00  0.00     0.052 C 
HETATM   23  C17 UNL     1     -12.413  19.446  18.356  1.00  0.00     0.165 C 
HETATM   24  O2  UNL     1     -13.262  20.268  18.001  1.00  0.00    -0.292 OA
HETATM   25  C18 UNL     1     -11.240  19.783  19.262  1.00  0.00     0.148 C 
HETATM   26 BR1  UNL     1     -11.203  21.513  19.947  1.00  0.00    -0.081 Br
HETATM   27  C19 UNL     1     -11.297  18.721  20.360  1.00  0.00     0.022 C 
HETATM   28  C20 UNL     1     -10.845  19.227  21.640  1.00  0.00     0.026 C 
ENDROOT
BRANCH   1  29
HETATM   29  C4  UNL     1     -10.934  14.429  19.895  1.00  0.00     0.078 C 
BRANCH  29  30
HETATM   30  C3  UNL     1     -11.723  14.090  21.053  1.00  0.00     0.071 C 
BRANCH  30  31
HETATM   31  C2  UNL     1     -12.968  14.812  21.340  1.00  0.00    -0.032 C 
HETATM   32  C1  UNL     1     -13.932  14.891  20.440  1.00  0.00     0.007 C 
ENDBRANCH  30  31
ENDBRANCH  29  30
ENDBRANCH   1  29
BRANCH  27  33
HETATM   33  C21 UNL     1     -12.807  18.512  20.577  1.00  0.00    -0.021 C 
HETATM   34  C22 UNL     1     -13.417  18.526  21.705  1.00  0.00     0.008 C 
ENDBRANCH  27  33
TORSDOF 4
ENDMDL
MODEL 5
REMARK VINA RESULT: -5.294233998      1.104      1.265
REMARK  4 active torsions:
REMARK  status: ('A' for Active; 'I' for Inactive)
REMARK    1  A    between atoms: C2_2  and  C3_3 
REMARK    2  A    between atoms: C3_3  and  C4_4 
REMARK    3  A    between atoms: C4_4  and  N1_5 
REMARK    4  A    between atoms: C19_31  and  C21_33 
ROOT
HETATM    1  N1  UNL     1      -6.465  15.074  20.357  1.00  0.00    -0.281 N 
HETATM    2  C5  UNL     1      -5.217  14.849  19.672  1.00  0.00     0.334 C 
HETATM    3  O1  UNL     1      -5.079  13.780  19.039  1.00  0.00    -0.246 OA
HETATM    4  N2  UNL     1      -4.030  15.656  19.575  1.00  0.00    -0.278 N 
HETATM    5  C6  UNL     1      -2.980  15.532  18.660  1.00  0.00     0.136 A 
HETATM    6  N3  UNL     1      -2.531  14.844  17.601  1.00  0.00    -0.283 N 
ATOM      7  H3  UNL     1      -3.021  14.070  17.154  1.00  0.00     0.188 HD
HETATM    8  N4  UNL     1      -1.349  15.323  17.220  1.00  0.00    -0.284 N 
ATOM      9  H4  UNL     1      -0.797  14.972  16.437  1.00  0.00     0.188 HD
HETATM   10  C7  UNL     1      -0.993  16.339  18.022  1.00  0.00     0.123 A 
HETATM   11  N5  UNL     1       0.065  17.060  17.988  1.00  0.00    -0.384 N 
ATOM     12  H51 UNL     1       0.335  17.832  18.598  1.00  0.00     0.157 HD
ATOM     13  H52 UNL     1       0.823  16.956  17.312  1.00  0.00     0.157 HD
HETATM   14  C8  UNL     1      -2.034  16.482  18.950  1.00  0.00     0.034 A 
HETATM   15  C9  UNL     1      -2.441  17.285  20.101  1.00  0.00     0.072 A 
HETATM   16  C10 UNL     1      -3.780  16.784  20.500  1.00  0.00     0.101 A 
HETATM   17  C11 UNL     1      -4.902  17.702  20.254  1.00  0.00     0.032 C 
HETATM   18  C12 UNL     1      -6.166  17.546  21.071  1.00  0.00     0.060 C 
HETATM   19  C13 UNL     1      -7.035  16.384  20.610  1.00  0.00     0.028 C 
HETATM   20  C14 UNL     1      -8.178  16.666  20.198  1.00  0.00    -0.021 C 
HETATM   21  C15 UNL     1      -8.999  15.751  19.374  1.00  0.00     0.014 C 
HETATM   22  C16 UNL     1     -10.140  16.096  18.755  1.00  0.00     0.052 C 
HETATM   23  C17 UNL     1     -10.631  17.458  18.871  1.00  0.00     0.165 C 
HETATM   24  O2  UNL     1     -11.779  17.775  18.553  1.00  0.00    -0.292 OA
HETATM   25  C18 UNL     1      -9.605  18.438  19.416  1.00  0.00     0.148 C 
HETATM   26 BR1  UNL     1     -10.208  20.172  19.720  1.00  0.00    -0.081 Br
HETATM   27  C19 UNL     1      -9.086  17.770  20.689  1.00  0.00     0.022 C 
HETATM   28  C20 UNL     1      -8.736  18.731  21.714  1.00  0.00     0.026 C 
ENDROOT
BRANCH   1  29
HETATM   29  C4  UNL     1      -7.033  13.969  21.019  1.00  0.00     0.078 C 
BRANCH  29  30
HETATM   30  C3  UNL     1      -6.947  13.405  22.342  1.00  0.00     0.071 C 
BRANCH  30  31
HETATM   31  C2  UNL     1      -7.078  14.264  23.525  1.00  0.00    -0.032 C 
HETATM   32  C1  UNL     1      -8.189  14.942  23.754  1.00  0.00     0.007 C 
ENDBRANCH  30  31
ENDBRANCH  29  30
ENDBRANCH   1  29
BRANCH  27  33
HETATM   33  C21 UNL     1     -10.336  17.079  21.265  1.00  0.00    -0.021 C 
HETATM   34  C22 UNL     1     -10.810  17.238  22.447  1.00  0.00     0.008 C 
ENDBRANCH  27  33
TORSDOF 4
ENDMDL
