MODEL 1
REMARK VINA RESULT: -6.390109837      0.000      0.000
REMARK  9 active torsions:
REMARK  status: ('A' for Active; 'I' for Inactive)
REMARK       I    between atoms: C2_4  and  N2_5 
REMARK       I    between atoms: C2_4  and  N7_31 
REMARK    1  A    between atoms: N2_5  and  C3_7 
REMARK    2  A    between atoms: C3_7  and  C4_8 
REMARK    3  A    between atoms: C4_8  and  N3_9 
REMARK    4  A    between atoms: N3_9  and  C5_10 
REMARK    5  A    between atoms: C5_10  and  N4_12 
REMARK    6  A    between atoms: C8_15  and  N5_16 
REMARK    7  A    between atoms: N5_16  and  C9_18 
REMARK    8  A    between atoms: C9_18  and  N6_20 
REMARK    9  A    between atoms: N6_20  and  C10_22 
ROOT
HETATM    1  N4  UNL     1      -7.700  14.786  19.191  1.00  0.00    -0.344 N 
HETATM    2  C6  UNL     1      -6.479  14.288  18.685  1.00  0.00     0.128 C 
HETATM    3  C7  UNL     1      -5.372  14.374  19.748  1.00  0.00     0.048 C 
HETATM    4  C8  UNL     1      -5.297  15.794  20.162  1.00  0.00     0.126 C 
HETATM    5  C15 UNL     1      -6.549  16.233  20.855  1.00  0.00     0.136 C 
HETATM    6  C16 UNL     1      -6.687  17.766  20.773  1.00  0.00     0.055 C 
HETATM    7  F1  UNL     1      -6.454  15.927  22.233  1.00  0.00    -0.239 F 
HETATM    8  C17 UNL     1      -7.799  15.670  20.291  1.00  0.00     0.171 C 
ENDROOT
BRANCH   1   9
HETATM    9  C5  UNL     1      -8.962  14.410  18.550  1.00  0.00     0.246 C 
HETATM   10  S1  UNL     1     -10.038  15.656  18.299  1.00  0.00    -0.025 SA
BRANCH   9  11
HETATM   11  N3  UNL     1      -9.147  13.159  18.271  1.00  0.00    -0.392 NA
BRANCH  11  12
HETATM   12  C4  UNL     1      -9.328  12.039  18.028  1.00  0.00     0.178 C 
BRANCH  12  13
HETATM   13  C3  UNL     1     -10.456  11.609  17.080  1.00  0.00     0.197 C 
BRANCH  13  14
HETATM   14  N2  UNL     1      -9.959  10.367  16.548  1.00  0.00    -0.221 N 
HETATM   15  C2  UNL     1     -10.941   9.449  16.024  1.00  0.00     0.671 C 
HETATM   16  N1  UNL     1     -11.370   8.622  16.873  1.00  0.00    -0.231 N 
HETATM   17  N7  UNL     1     -11.287   9.614  14.681  1.00  0.00    -0.218 N 
HETATM   18  C1  UNL     1     -12.334   7.579  16.740  1.00  0.00     0.165 C 
ATOM     19  H1  UNL     1     -10.962   8.713  17.804  1.00  0.00     0.177 HD
HETATM   20  C18 UNL     1     -11.149   8.548  13.672  1.00  0.00     0.141 C 
HETATM   21  C22 UNL     1     -11.773  10.874  14.143  1.00  0.00     0.141 C 
HETATM   22  C19 UNL     1     -12.491   8.303  13.059  1.00  0.00     0.020 C 
HETATM   23  C20 UNL     1     -13.002   9.623  12.476  1.00  0.00     0.003 C 
HETATM   24  C21 UNL     1     -13.192  10.575  13.658  1.00  0.00     0.020 C 
ATOM     25  H2  UNL     1      -8.963  10.147  16.542  1.00  0.00     0.178 HD
ENDBRANCH  13  14
ENDBRANCH  12  13
ENDBRANCH  11  12
ENDBRANCH   9  11
ENDBRANCH   1   9
BRANCH   4  26
HETATM   26  N5  UNL     1      -4.094  16.198  20.792  1.00  0.00    -0.359 N 
ATOM     27  H5  UNL     1      -3.973  15.934  21.770  1.00  0.00     0.162 HD
BRANCH  26  28
HETATM   28  C9  UNL     1      -3.062  16.921  20.202  1.00  0.00     0.168 C 
HETATM   29  S2  UNL     1      -2.958  18.551  20.292  1.00  0.00    -0.041 SA
BRANCH  28  30
HETATM   30  N6  UNL     1      -2.045  16.271  19.500  1.00  0.00    -0.363 N 
ATOM     31  H6  UNL     1      -1.294  15.842  20.041  1.00  0.00     0.162 HD
BRANCH  30  32
HETATM   32  C10 UNL     1      -1.985  16.166  18.084  1.00  0.00     0.083 C 
HETATM   33  C11 UNL     1      -0.651  16.054  17.437  1.00  0.00     0.025 C 
HETATM   34  C12 UNL     1      -0.984  15.454  16.075  1.00  0.00     0.002 C 
HETATM   35  C13 UNL     1      -2.449  15.024  16.149  1.00  0.00     0.002 C 
HETATM   36  C14 UNL     1      -2.613  14.821  17.630  1.00  0.00     0.025 C 
ENDBRANCH  30  32
ENDBRANCH  28  30
ENDBRANCH  26  28
ENDBRANCH   4  26
TORSDOF 9
ENDMDL
MODEL 2
REMARK VINA RESULT: -6.292329270      3.080      4.934
REMARK  9 active torsions:
REMARK  status: ('A' for Active; 'I' for Inactive)
REMARK       I    between atoms: C2_4  and  N2_5 
REMARK       I    between atoms: C2_4  and  N7_31 
REMARK    1  A    between atoms: N2_5  and  C3_7 
REMARK    2  A    between atoms: C3_7  and  C4_8 
REMARK    3  A    between atoms: C4_8  and  N3_9 
REMARK    4  A    between atoms: N3_9  and  C5_10 
REMARK    5  A    between atoms: C5_10  and  N4_12 
REMARK    6  A    between atoms: C8_15  and  N5_16 
REMARK    7  A    between atoms: N5_16  and  C9_18 
REMARK    8  A    between atoms: C9_18  and  N6_20 
REMARK    9  A    between atoms: N6_20  and  C10_22 
ROOT
HETATM    1  N4  UNL     1      -7.804  15.037  19.209  1.00  0.00    -0.344 N 
HETATM    2  C6  UNL     1      -6.616  14.474  18.692  1.00  0.00     0.128 C 
HETATM    3  C7  UNL     1      -5.510  14.457  19.759  1.00  0.00     0.048 C 
HETATM    4  C8  UNL     1      -5.344  15.857  20.214  1.00  0.00     0.126 C 
HETATM    5  C15 UNL     1      -6.567  16.357  20.917  1.00  0.00     0.136 C 
HETATM    6  C16 UNL     1      -6.603  17.898  20.878  1.00  0.00     0.055 C 
HETATM    7  F1  UNL     1      -6.497  16.007  22.285  1.00  0.00    -0.239 F 
HETATM    8  C17 UNL     1      -7.849  15.894  20.334  1.00  0.00     0.171 C 
ENDROOT
BRANCH   1   9
HETATM    9  C5  UNL     1      -9.085  14.763  18.555  1.00  0.00     0.246 C 
HETATM   10  S1  UNL     1     -10.088  16.079  18.362  1.00  0.00    -0.025 SA
BRANCH   9  11
HETATM   11  N3  UNL     1      -9.342  13.539  18.222  1.00  0.00    -0.392 NA
BRANCH  11  12
HETATM   12  C4  UNL     1      -9.586  12.441  17.933  1.00  0.00     0.178 C 
BRANCH  12  13
HETATM   13  C3  UNL     1      -9.556  11.323  18.985  1.00  0.00     0.197 C 
BRANCH  13  14
HETATM   14  N2  UNL     1      -8.191  11.363  19.442  1.00  0.00    -0.221 N 
HETATM   15  C2  UNL     1      -7.985  11.299  20.868  1.00  0.00     0.671 C 
HETATM   16  N1  UNL     1      -7.940  12.427  21.428  1.00  0.00    -0.231 N 
HETATM   17  N7  UNL     1      -7.886  10.020  21.421  1.00  0.00    -0.218 N 
HETATM   18  C1  UNL     1      -7.759  12.768  22.802  1.00  0.00     0.165 C 
ATOM     19  H1  UNL     1      -8.049  13.222  20.799  1.00  0.00     0.177 HD
HETATM   20  C18 UNL     1      -6.717   9.558  22.193  1.00  0.00     0.141 C 
HETATM   21  C22 UNL     1      -8.911   9.004  21.245  1.00  0.00     0.141 C 
HETATM   22  C19 UNL     1      -7.186   9.133  23.548  1.00  0.00     0.020 C 
HETATM   23  C20 UNL     1      -8.255   8.053  23.369  1.00  0.00     0.003 C 
HETATM   24  C21 UNL     1      -9.431   8.719  22.655  1.00  0.00     0.020 C 
ATOM     25  H2  UNL     1      -7.410  11.433  18.790  1.00  0.00     0.178 HD
ENDBRANCH  13  14
ENDBRANCH  12  13
ENDBRANCH  11  12
ENDBRANCH   9  11
ENDBRANCH   1   9
BRANCH   4  26
HETATM   26  N5  UNL     1      -4.119  16.163  20.857  1.00  0.00    -0.359 N 
ATOM     27  H5  UNL     1      -4.013  15.848  21.822  1.00  0.00     0.162 HD
BRANCH  26  28
HETATM   28  C9  UNL     1      -3.048  16.852  20.298  1.00  0.00     0.168 C 
HETATM   29  S2  UNL     1      -2.851  18.467  20.461  1.00  0.00    -0.041 SA
BRANCH  28  30
HETATM   30  N6  UNL     1      -2.071  16.177  19.563  1.00  0.00    -0.363 N 
ATOM     31  H6  UNL     1      -1.331  15.702  20.080  1.00  0.00     0.162 HD
BRANCH  30  32
HETATM   32  C10 UNL     1      -2.036  16.108  18.144  1.00  0.00     0.083 C 
HETATM   33  C11 UNL     1      -0.717  15.962  17.473  1.00  0.00     0.025 C 
HETATM   34  C12 UNL     1      -1.093  15.412  16.101  1.00  0.00     0.002 C 
HETATM   35  C13 UNL     1      -2.572  15.038  16.187  1.00  0.00     0.002 C 
HETATM   36  C14 UNL     1      -2.722  14.801  17.664  1.00  0.00     0.025 C 
ENDBRANCH  30  32
ENDBRANCH  28  30
ENDBRANCH  26  28
ENDBRANCH   4  26
TORSDOF 9
ENDMDL
MODEL 3
REMARK VINA RESULT: -6.254386012      0.947      1.917
REMARK  9 active torsions:
REMARK  status: ('A' for Active; 'I' for Inactive)
REMARK       I    between atoms: C2_4  and  N2_5 
REMARK       I    between atoms: C2_4  and  N7_31 
REMARK    1  A    between atoms: N2_5  and  C3_7 
REMARK    2  A    between atoms: C3_7  and  C4_8 
REMARK    3  A    between atoms: C4_8  and  N3_9 
REMARK    4  A    between atoms: N3_9  and  C5_10 
REMARK    5  A    between atoms: C5_10  and  N4_12 
REMARK    6  A    between atoms: C8_15  and  N5_16 
REMARK    7  A    between atoms: N5_16  and  C9_18 
REMARK    8  A    between atoms: C9_18  and  N6_20 
REMARK    9  A    between atoms: N6_20  and  C10_22 
ROOT
HETATM    1  N4  UNL     1      -7.850  15.000  19.155  1.00  0.00    -0.344 N 
HETATM    2  C6  UNL     1      -6.678  14.416  18.624  1.00  0.00     0.128 C 
HETATM    3  C7  UNL     1      -5.553  14.403  19.671  1.00  0.00     0.048 C 
HETATM    4  C8  UNL     1      -5.363  15.808  20.100  1.00  0.00     0.126 C 
HETATM    5  C15 UNL     1      -6.567  16.333  20.817  1.00  0.00     0.136 C 
HETATM    6  C16 UNL     1      -6.587  17.873  20.754  1.00  0.00     0.055 C 
HETATM    7  F1  UNL     1      -6.475  16.003  22.190  1.00  0.00    -0.239 F 
HETATM    8  C17 UNL     1      -7.865  15.875  20.266  1.00  0.00     0.171 C 
ENDROOT
BRANCH   1   9
HETATM    9  C5  UNL     1      -9.146  14.730  18.529  1.00  0.00     0.246 C 
HETATM   10  S1  UNL     1     -10.059  16.074  18.162  1.00  0.00    -0.025 SA
BRANCH   9  11
HETATM   11  N3  UNL     1      -9.483  13.493  18.350  1.00  0.00    -0.392 NA
BRANCH  11  12
HETATM   12  C4  UNL     1      -9.792  12.383  18.206  1.00  0.00     0.178 C 
BRANCH  12  13
HETATM   13  C3  UNL     1      -9.539  11.659  16.877  1.00  0.00     0.197 C 
BRANCH  13  14
HETATM   14  N2  UNL     1     -10.757  11.906  16.151  1.00  0.00    -0.221 N 
HETATM   15  C2  UNL     1     -11.311  10.793  15.419  1.00  0.00     0.671 C 
HETATM   16  N1  UNL     1     -10.912  10.718  14.226  1.00  0.00    -0.231 N 
HETATM   17  N7  UNL     1     -12.179   9.959  16.127  1.00  0.00    -0.218 N 
HETATM   18  C1  UNL     1     -11.225   9.770  13.207  1.00  0.00     0.165 C 
ATOM     19  H1  UNL     1     -10.262  11.453  13.944  1.00  0.00     0.177 HD
HETATM   20  C18 UNL     1     -13.568   9.693  15.709  1.00  0.00     0.141 C 
HETATM   21  C22 UNL     1     -11.806   9.311  17.374  1.00  0.00     0.141 C 
HETATM   22  C19 UNL     1     -13.731   8.217  15.531  1.00  0.00     0.020 C 
HETATM   23  C20 UNL     1     -13.355   7.529  16.845  1.00  0.00     0.003 C 
HETATM   24  C21 UNL     1     -11.870   7.813  17.074  1.00  0.00     0.020 C 
ATOM     25  H2  UNL     1     -11.205  12.822  16.153  1.00  0.00     0.178 HD
ENDBRANCH  13  14
ENDBRANCH  12  13
ENDBRANCH  11  12
ENDBRANCH   9  11
ENDBRANCH   1   9
BRANCH   4  26
HETATM   26  N5  UNL     1      -4.123  16.111  20.715  1.00  0.00    -0.359 N 
ATOM     27  H5  UNL     1      -4.011  15.833  21.691  1.00  0.00     0.162 HD
BRANCH  26  28
HETATM   28  C9  UNL     1      -3.044  16.751  20.115  1.00  0.00     0.168 C 
HETATM   29  S2  UNL     1      -2.801  18.366  20.220  1.00  0.00    -0.041 SA
BRANCH  28  30
HETATM   30  N6  UNL     1      -2.097  16.026  19.388  1.00  0.00    -0.363 N 
ATOM     31  H6  UNL     1      -1.428  15.461  19.911  1.00  0.00     0.162 HD
BRANCH  30  32
HETATM   32  C10 UNL     1      -2.002  16.022  17.970  1.00  0.00     0.083 C 
HETATM   33  C11 UNL     1      -0.664  15.835  17.349  1.00  0.00     0.025 C 
HETATM   34  C12 UNL     1      -1.007  15.372  15.937  1.00  0.00     0.002 C 
HETATM   35  C13 UNL     1      -2.507  15.078  15.941  1.00  0.00     0.002 C 
HETATM   36  C14 UNL     1      -2.735  14.781  17.397  1.00  0.00     0.025 C 
ENDBRANCH  30  32
ENDBRANCH  28  30
ENDBRANCH  26  28
ENDBRANCH   4  26
TORSDOF 9
ENDMDL
MODEL 4
REMARK VINA RESULT: -6.196500496      2.806      4.539
REMARK  9 active torsions:
REMARK  status: ('A' for Active; 'I' for Inactive)
REMARK       I    between atoms: C2_4  and  N2_5 
REMARK       I    between atoms: C2_4  and  N7_31 
REMARK    1  A    between atoms: N2_5  and  C3_7 
REMARK    2  A    between atoms: C3_7  and  C4_8 
REMARK    3  A    between atoms: C4_8  and  N3_9 
REMARK    4  A    between atoms: N3_9  and  C5_10 
REMARK    5  A    between atoms: C5_10  and  N4_12 
REMARK    6  A    between atoms: C8_15  and  N5_16 
REMARK    7  A    between atoms: N5_16  and  C9_18 
REMARK    8  A    between atoms: C9_18  and  N6_20 
REMARK    9  A    between atoms: N6_20  and  C10_22 
ROOT
HETATM    1  N4  UNL     1      -7.878  14.992  19.152  1.00  0.00    -0.344 N 
HETATM    2  C6  UNL     1      -6.799  14.382  18.475  1.00  0.00     0.128 C 
HETATM    3  C7  UNL     1      -5.593  14.211  19.412  1.00  0.00     0.048 C 
HETATM    4  C8  UNL     1      -5.270  15.559  19.931  1.00  0.00     0.126 C 
HETATM    5  C15 UNL     1      -6.369  16.098  20.792  1.00  0.00     0.136 C 
HETATM    6  C16 UNL     1      -6.287  17.635  20.851  1.00  0.00     0.055 C 
HETATM    7  F1  UNL     1      -6.186  15.649  22.121  1.00  0.00    -0.239 F 
HETATM    8  C17 UNL     1      -7.738  15.770  20.325  1.00  0.00     0.171 C 
ENDROOT
BRANCH   1   9
HETATM    9  C5  UNL     1      -9.238  14.857  18.625  1.00  0.00     0.246 C 
HETATM   10  S1  UNL     1     -10.225  16.182  18.842  1.00  0.00    -0.025 SA
BRANCH   9  11
HETATM   11  N3  UNL     1      -9.564  13.730  18.079  1.00  0.00    -0.392 NA
BRANCH  11  12
HETATM   12  C4  UNL     1      -9.868  12.716  17.602  1.00  0.00     0.178 C 
BRANCH  12  13
HETATM   13  C3  UNL     1      -9.035  11.450  17.841  1.00  0.00     0.197 C 
BRANCH  13  14
HETATM   14  N2  UNL     1      -9.839  10.722  18.787  1.00  0.00    -0.221 N 
HETATM   15  C2  UNL     1      -9.131   9.933  19.765  1.00  0.00     0.671 C 
HETATM   16  N1  UNL     1      -8.924   8.742  19.408  1.00  0.00    -0.231 N 
HETATM   17  N7  UNL     1      -8.762  10.591  20.941  1.00  0.00    -0.218 N 
HETATM   18  C1  UNL     1      -8.262   7.676  20.087  1.00  0.00     0.165 C 
ATOM     19  H1  UNL     1      -9.289   8.502  18.485  1.00  0.00     0.177 HD
HETATM   20  C18 UNL     1      -9.177  10.145  22.284  1.00  0.00     0.141 C 
HETATM   21  C22 UNL     1      -7.971  11.811  20.945  1.00  0.00     0.141 C 
HETATM   22  C19 UNL     1      -7.947   9.897  23.098  1.00  0.00     0.020 C 
HETATM   23  C20 UNL     1      -7.116  11.182  23.119  1.00  0.00     0.003 C 
HETATM   24  C21 UNL     1      -6.680  11.441  21.677  1.00  0.00     0.020 C 
ATOM     25  H2  UNL     1     -10.858  10.762  18.767  1.00  0.00     0.178 HD
ENDBRANCH  13  14
ENDBRANCH  12  13
ENDBRANCH  11  12
ENDBRANCH   9  11
ENDBRANCH   1   9
BRANCH   4  26
HETATM   26  N5  UNL     1      -3.964  15.731  20.455  1.00  0.00    -0.359 N 
ATOM     27  H5  UNL     1      -3.803  15.408  21.409  1.00  0.00     0.162 HD
BRANCH  26  28
HETATM   28  C9  UNL     1      -2.881  16.297  19.790  1.00  0.00     0.168 C 
HETATM   29  S2  UNL     1      -2.747  17.905  19.524  1.00  0.00    -0.041 SA
BRANCH  28  30
HETATM   30  N6  UNL     1      -1.836  15.500  19.319  1.00  0.00    -0.363 N 
ATOM     31  H6  UNL     1      -1.116  15.218  19.985  1.00  0.00     0.162 HD
BRANCH  30  32
HETATM   32  C10 UNL     1      -1.706  15.054  17.976  1.00  0.00     0.083 C 
HETATM   33  C11 UNL     1      -2.914  15.050  17.109  1.00  0.00     0.025 C 
HETATM   34  C12 UNL     1      -2.324  15.035  15.704  1.00  0.00     0.002 C 
HETATM   35  C13 UNL     1      -0.828  15.300  15.871  1.00  0.00     0.002 C 
HETATM   36  C14 UNL     1      -0.814  16.042  17.179  1.00  0.00     0.025 C 
ENDBRANCH  30  32
ENDBRANCH  28  30
ENDBRANCH  26  28
ENDBRANCH   4  26
TORSDOF 9
ENDMDL
MODEL 5
REMARK VINA RESULT: -6.145779547      2.876      3.888
REMARK  9 active torsions:
REMARK  status: ('A' for Active; 'I' for Inactive)
REMARK       I    between atoms: C2_4  and  N2_5 
REMARK       I    between atoms: C2_4  and  N7_31 
REMARK    1  A    between atoms: N2_5  and  C3_7 
REMARK    2  A    between atoms: C3_7  and  C4_8 
REMARK    3  A    between atoms: C4_8  and  N3_9 
REMARK    4  A    between atoms: N3_9  and  C5_10 
REMARK    5  A    between atoms: C5_10  and  N4_12 
REMARK    6  A    between atoms: C8_15  and  N5_16 
REMARK    7  A    between atoms: N5_16  and  C9_18 
REMARK    8  A    between atoms: C9_18  and  N6_20 
REMARK    9  A    between atoms: N6_20  and  C10_22 
ROOT
HETATM    1  N4  UNL     1      -7.435  14.635  19.093  1.00  0.00    -0.344 N 
HETATM    2  C6  UNL     1      -6.311  14.265  18.323  1.00  0.00     0.128 C 
HETATM    3  C7  UNL     1      -5.041  14.239  19.188  1.00  0.00     0.048 C 
HETATM    4  C8  UNL     1      -4.917  15.584  19.793  1.00  0.00     0.126 C 
HETATM    5  C15 UNL     1      -6.040  15.868  20.742  1.00  0.00     0.136 C 
HETATM    6  C16 UNL     1      -6.211  17.390  20.915  1.00  0.00     0.055 C 
HETATM    7  F1  UNL     1      -5.707  15.368  22.023  1.00  0.00    -0.239 F 
HETATM    8  C17 UNL     1      -7.359  15.344  20.315  1.00  0.00     0.171 C 
ENDROOT
BRANCH   1   9
HETATM    9  C5  UNL     1      -8.782  14.306  18.621  1.00  0.00     0.246 C 
HETATM   10  S1  UNL     1      -9.890  15.548  18.691  1.00  0.00    -0.025 SA
BRANCH   9  11
HETATM   11  N3  UNL     1      -9.005  13.092  18.231  1.00  0.00    -0.392 NA
BRANCH  11  12
HETATM   12  C4  UNL     1      -9.219  12.008  17.873  1.00  0.00     0.178 C 
BRANCH  12  13
HETATM   13  C3  UNL     1      -9.695  10.931  18.856  1.00  0.00     0.197 C 
BRANCH  13  14
HETATM   14  N2  UNL     1      -8.700   9.902  18.696  1.00  0.00    -0.221 N 
HETATM   15  C2  UNL     1      -8.530   8.990  19.801  1.00  0.00     0.671 C 
HETATM   16  N1  UNL     1      -7.656   9.354  20.632  1.00  0.00    -0.231 N 
HETATM   17  N7  UNL     1      -9.356   7.864  19.805  1.00  0.00    -0.218 N 
HETATM   18  C1  UNL     1      -7.214   8.731  21.838  1.00  0.00     0.165 C 
ATOM     19  H1  UNL     1      -7.190  10.233  20.408  1.00  0.00     0.177 HD
HETATM   20  C18 UNL     1      -8.842   6.482  19.826  1.00  0.00     0.141 C 
HETATM   21  C22 UNL     1     -10.806   7.950  19.740  1.00  0.00     0.141 C 
HETATM   22  C19 UNL     1      -9.402   5.789  21.028  1.00  0.00     0.020 C 
HETATM   23  C20 UNL     1     -10.929   5.864  20.957  1.00  0.00     0.003 C 
HETATM   24  C21 UNL     1     -11.297   7.345  21.055  1.00  0.00     0.020 C 
ATOM     25  H2  UNL     1      -8.144   9.823  17.845  1.00  0.00     0.178 HD
ENDBRANCH  13  14
ENDBRANCH  12  13
ENDBRANCH  11  12
ENDBRANCH   9  11
ENDBRANCH   1   9
BRANCH   4  26
HETATM   26  N5  UNL     1      -3.631  15.940  20.268  1.00  0.00    -0.359 N 
ATOM     27  H5  UNL     1      -3.425  15.731  21.245  1.00  0.00     0.162 HD
BRANCH  26  28
HETATM   28  C9  UNL     1      -2.621  16.547  19.527  1.00  0.00     0.168 C 
HETATM   29  S2  UNL     1      -2.400  18.167  19.491  1.00  0.00    -0.041 SA
BRANCH  28  30
HETATM   30  N6  UNL     1      -1.731  15.781  18.772  1.00  0.00    -0.363 N 
ATOM     31  H6  UNL     1      -1.145  15.108  19.267  1.00  0.00     0.162 HD
BRANCH  30  32
HETATM   32  C10 UNL     1      -1.584  15.874  17.361  1.00  0.00     0.083 C 
HETATM   33  C11 UNL     1      -0.315  15.403  16.747  1.00  0.00     0.025 C 
HETATM   34  C12 UNL     1      -0.708  15.167  15.293  1.00  0.00     0.002 C 
HETATM   35  C13 UNL     1      -2.233  15.268  15.246  1.00  0.00     0.002 C 
HETATM   36  C14 UNL     1      -2.586  14.916  16.665  1.00  0.00     0.025 C 
ENDBRANCH  30  32
ENDBRANCH  28  30
ENDBRANCH  26  28
ENDBRANCH   4  26
TORSDOF 9
ENDMDL
