MODEL 1
REMARK VINA RESULT: -6.608065541      0.000      0.000
REMARK  9 active torsions:
REMARK  status: ('A' for Active; 'I' for Inactive)
REMARK    1  A    between atoms: C2_2  and  C3_3 
REMARK    2  A    between atoms: C3_3  and  C4_4 
REMARK    3  A    between atoms: C4_4  and  C5_5 
REMARK    4  A    between atoms: C8_10  and  C9_11 
REMARK    5  A    between atoms: C9_11  and  C10_12 
REMARK    6  A    between atoms: C10_12  and  N4_18 
REMARK    7  A    between atoms: N2_13  and  N3_15 
REMARK    8  A    between atoms: N4_18  and  C11_20 
REMARK    9  A    between atoms: C20_30  and  C22_32 
ROOT
HETATM    1  C10 UNL     1      -0.648  17.964  19.151  1.00  0.00     0.118 C 
HETATM    2  N2  UNL     1       0.499  18.053  18.747  1.00  0.00    -0.292 N 
ATOM      3  H2  UNL     1       0.764  17.168  18.315  1.00  0.00     0.188 HD
ENDROOT
BRANCH   1   4
HETATM    4  C9  UNL     1      -1.317  16.651  18.921  1.00  0.00     0.081 C 
BRANCH   4   5
HETATM    5  C8  UNL     1      -1.521  16.048  17.808  1.00  0.00     0.059 A 
HETATM    6  C6  UNL     1      -2.601  15.194  17.580  1.00  0.00     0.034 A 
HETATM    7  N1  UNL     1      -2.489  14.777  16.311  1.00  0.00    -0.344 N 
HETATM    8  C7  UNL     1      -3.683  14.781  18.534  1.00  0.00     0.070 C 
HETATM    9  C5  UNL     1      -1.417  15.299  15.710  1.00  0.00     0.102 A 
ATOM     10  H1  UNL     1      -3.143  14.138  15.859  1.00  0.00     0.167 HD
HETATM   11  N5  UNL     1      -0.831  16.088  16.666  1.00  0.00    -0.341 N 
ATOM     12  H5  UNL     1       0.019  16.633  16.524  1.00  0.00     0.167 HD
BRANCH   9  13
HETATM   13  C4  UNL     1      -1.001  15.118  14.471  1.00  0.00     0.022 C 
BRANCH  13  14
HETATM   14  C3  UNL     1       0.446  15.022  14.211  1.00  0.00     0.030 C 
BRANCH  14  15
HETATM   15  C2  UNL     1       0.742  14.323  12.900  1.00  0.00    -0.001 C 
HETATM   16  C1  UNL     1       2.159  13.843  12.820  1.00  0.00     0.005 C 
ENDBRANCH  14  15
ENDBRANCH  13  14
ENDBRANCH   9  13
ENDBRANCH   4   5
ENDBRANCH   1   4
BRANCH   1  17
HETATM   17  N4  UNL     1      -1.458  18.939  19.805  1.00  0.00    -0.365 N 
ATOM     18  H4  UNL     1      -1.500  18.858  20.821  1.00  0.00     0.162 HD
BRANCH  17  19
HETATM   19  C11 UNL     1      -2.212  20.000  19.253  1.00  0.00     0.041 C 
HETATM   20  C12 UNL     1      -1.375  21.261  19.295  1.00  0.00     0.036 C 
HETATM   21  C13 UNL     1      -2.215  22.478  18.977  1.00  0.00    -0.010 C 
HETATM   22  C14 UNL     1      -2.544  22.345  17.482  1.00  0.00     0.014 C 
HETATM   23  C19 UNL     1      -3.521  22.515  19.686  1.00  0.00     0.026 C 
HETATM   24  C15 UNL     1      -3.311  21.043  17.315  1.00  0.00    -0.040 C 
HETATM   25  C16 UNL     1      -3.620  20.947  15.814  1.00  0.00     0.015 C 
HETATM   26  C17 UNL     1      -4.632  21.081  18.034  1.00  0.00     0.031 C 
HETATM   27  C24 UNL     1      -2.537  19.831  17.782  1.00  0.00     0.041 C 
HETATM   28  C18 UNL     1      -4.335  21.229  19.487  1.00  0.00     0.029 C 
HETATM   29 BR1  UNL     1      -5.981  21.515  20.444  1.00  0.00    -0.085 Br
HETATM   30  C20 UNL     1      -3.508  20.120  20.070  1.00  0.00    -0.002 C 
HETATM   31  C21 UNL     1      -3.185  20.493  21.493  1.00  0.00     0.019 C 
BRANCH  30  32
HETATM   32  C22 UNL     1      -4.147  18.772  20.045  1.00  0.00     0.009 C 
HETATM   33  C23 UNL     1      -4.495  18.160  21.351  1.00  0.00     0.006 C 
ENDBRANCH  30  32
ENDBRANCH  17  19
ENDBRANCH   1  17
BRANCH   2  34
HETATM   34  N3  UNL     1       1.537  18.897  18.667  1.00  0.00    -0.344 N 
ATOM     35  H32 UNL     1       1.739  19.030  17.677  1.00  0.00     0.176 HD
ATOM     36  H31 UNL     1       2.182  19.443  19.239  1.00  0.00     0.176 HD
ENDBRANCH   2  34
TORSDOF 9
ENDMDL
MODEL 2
REMARK VINA RESULT: -6.368598605      5.698      8.185
REMARK  9 active torsions:
REMARK  status: ('A' for Active; 'I' for Inactive)
REMARK    1  A    between atoms: C2_2  and  C3_3 
REMARK    2  A    between atoms: C3_3  and  C4_4 
REMARK    3  A    between atoms: C4_4  and  C5_5 
REMARK    4  A    between atoms: C8_10  and  C9_11 
REMARK    5  A    between atoms: C9_11  and  C10_12 
REMARK    6  A    between atoms: C10_12  and  N4_18 
REMARK    7  A    between atoms: N2_13  and  N3_15 
REMARK    8  A    between atoms: N4_18  and  C11_20 
REMARK    9  A    between atoms: C20_30  and  C22_32 
ROOT
HETATM    1  C10 UNL     1      -6.489  13.562  19.503  1.00  0.00     0.118 C 
HETATM    2  N2  UNL     1      -5.892  12.841  20.285  1.00  0.00    -0.292 N 
ATOM      3  H2  UNL     1      -5.031  13.307  20.568  1.00  0.00     0.188 HD
ENDROOT
BRANCH   1   4
HETATM    4  C9  UNL     1      -5.827  14.860  19.182  1.00  0.00     0.081 C 
BRANCH   4   5
HETATM    5  C8  UNL     1      -4.579  15.093  19.011  1.00  0.00     0.059 A 
HETATM    6  C6  UNL     1      -3.818  15.891  19.866  1.00  0.00     0.034 A 
HETATM    7  N1  UNL     1      -2.569  15.881  19.379  1.00  0.00    -0.344 N 
HETATM    8  C7  UNL     1      -4.264  16.643  21.086  1.00  0.00     0.070 C 
HETATM    9  C5  UNL     1      -2.474  15.137  18.274  1.00  0.00     0.102 A 
ATOM     10  H1  UNL     1      -1.787  16.381  19.801  1.00  0.00     0.167 HD
HETATM   11  N5  UNL     1      -3.742  14.658  18.066  1.00  0.00    -0.341 N 
ATOM     12  H5  UNL     1      -4.009  14.049  17.293  1.00  0.00     0.167 HD
BRANCH   9  13
HETATM   13  C4  UNL     1      -1.407  14.897  17.536  1.00  0.00     0.022 C 
BRANCH  13  14
HETATM   14  C3  UNL     1      -1.140  15.753  16.367  1.00  0.00     0.030 C 
BRANCH  14  15
HETATM   15  C2  UNL     1      -1.529  15.076  15.068  1.00  0.00    -0.001 C 
HETATM   16  C1  UNL     1      -0.396  15.038  14.088  1.00  0.00     0.005 C 
ENDBRANCH  14  15
ENDBRANCH  13  14
ENDBRANCH   9  13
ENDBRANCH   4   5
ENDBRANCH   1   4
BRANCH   1  17
HETATM   17  N4  UNL     1      -7.740  13.355  18.851  1.00  0.00    -0.365 N 
ATOM     18  H4  UNL     1      -7.706  12.758  18.024  1.00  0.00     0.162 HD
BRANCH  17  19
HETATM   19  C11 UNL     1      -9.021  13.855  19.181  1.00  0.00     0.041 C 
HETATM   20  C12 UNL     1      -9.020  14.262  20.639  1.00  0.00     0.036 C 
HETATM   21  C13 UNL     1     -10.426  14.544  21.121  1.00  0.00    -0.010 C 
HETATM   22  C14 UNL     1     -10.829  15.845  20.412  1.00  0.00     0.014 C 
HETATM   23  C19 UNL     1     -11.425  13.522  20.710  1.00  0.00     0.026 C 
HETATM   24  C15 UNL     1     -10.766  15.568  18.918  1.00  0.00    -0.040 C 
HETATM   25  C16 UNL     1     -11.174  16.887  18.246  1.00  0.00     0.015 C 
HETATM   26  C17 UNL     1     -11.777  14.533  18.502  1.00  0.00     0.031 C 
HETATM   27  C24 UNL     1      -9.398  15.128  18.450  1.00  0.00     0.041 C 
HETATM   28  C18 UNL     1     -11.414  13.265  19.196  1.00  0.00     0.029 C 
HETATM   29 BR1  UNL     1     -12.795  11.959  18.892  1.00  0.00    -0.085 Br
HETATM   30  C20 UNL     1     -10.042  12.748  18.874  1.00  0.00    -0.002 C 
HETATM   31  C21 UNL     1      -9.786  11.554  19.756  1.00  0.00     0.019 C 
BRANCH  30  32
HETATM   32  C22 UNL     1      -9.829  12.363  17.448  1.00  0.00     0.009 C 
HETATM   33  C23 UNL     1      -9.697  10.917  17.146  1.00  0.00     0.006 C 
ENDBRANCH  30  32
ENDBRANCH  17  19
ENDBRANCH   1  17
BRANCH   2  34
HETATM   34  N3  UNL     1      -5.965  11.657  20.907  1.00  0.00    -0.344 N 
ATOM     35  H32 UNL     1      -5.313  11.690  21.691  1.00  0.00     0.176 HD
ATOM     36  H31 UNL     1      -6.434  10.751  20.872  1.00  0.00     0.176 HD
ENDBRANCH   2  34
TORSDOF 9
ENDMDL
MODEL 3
REMARK VINA RESULT: -6.344378643      6.068      8.772
REMARK  9 active torsions:
REMARK  status: ('A' for Active; 'I' for Inactive)
REMARK    1  A    between atoms: C2_2  and  C3_3 
REMARK    2  A    between atoms: C3_3  and  C4_4 
REMARK    3  A    between atoms: C4_4  and  C5_5 
REMARK    4  A    between atoms: C8_10  and  C9_11 
REMARK    5  A    between atoms: C9_11  and  C10_12 
REMARK    6  A    between atoms: C10_12  and  N4_18 
REMARK    7  A    between atoms: N2_13  and  N3_15 
REMARK    8  A    between atoms: N4_18  and  C11_20 
REMARK    9  A    between atoms: C20_30  and  C22_32 
ROOT
HETATM    1  C10 UNL     1      -6.801  13.320  19.851  1.00  0.00     0.118 C 
HETATM    2  N2  UNL     1      -6.070  12.445  20.286  1.00  0.00    -0.292 N 
ATOM      3  H2  UNL     1      -5.143  12.560  19.877  1.00  0.00     0.188 HD
ENDROOT
BRANCH   1   4
HETATM    4  C9  UNL     1      -6.174  14.268  18.885  1.00  0.00     0.081 C 
BRANCH   4   5
HETATM    5  C8  UNL     1      -4.965  14.693  18.861  1.00  0.00     0.059 A 
HETATM    6  C6  UNL     1      -4.451  15.610  19.780  1.00  0.00     0.034 A 
HETATM    7  N1  UNL     1      -3.165  15.791  19.450  1.00  0.00    -0.344 N 
HETATM    8  C7  UNL     1      -5.158  16.294  20.913  1.00  0.00     0.070 C 
HETATM    9  C5  UNL     1      -2.817  15.061  18.387  1.00  0.00     0.102 A 
ATOM     10  H1  UNL     1      -2.528  16.412  19.949  1.00  0.00     0.167 HD
HETATM   11  N5  UNL     1      -3.959  14.385  18.040  1.00  0.00    -0.341 N 
ATOM     12  H5  UNL     1      -4.029  13.735  17.258  1.00  0.00     0.167 HD
BRANCH   9  13
HETATM   13  C4  UNL     1      -1.641  14.984  17.794  1.00  0.00     0.022 C 
BRANCH  13  14
HETATM   14  C3  UNL     1      -1.384  15.819  16.608  1.00  0.00     0.030 C 
BRANCH  14  15
HETATM   15  C2  UNL     1      -1.787  15.123  15.325  1.00  0.00    -0.001 C 
HETATM   16  C1  UNL     1      -0.679  15.106  14.317  1.00  0.00     0.005 C 
ENDBRANCH  14  15
ENDBRANCH  13  14
ENDBRANCH   9  13
ENDBRANCH   4   5
ENDBRANCH   1   4
BRANCH   1  17
HETATM   17  N4  UNL     1      -8.173  13.584  20.139  1.00  0.00    -0.365 N 
ATOM     18  H4  UNL     1      -8.343  14.122  20.988  1.00  0.00     0.162 HD
BRANCH  17  19
HETATM   19  C11 UNL     1      -9.331  13.209  19.420  1.00  0.00     0.041 C 
HETATM   20  C12 UNL     1      -9.751  14.368  18.541  1.00  0.00     0.036 C 
HETATM   21  C13 UNL     1     -11.128  14.134  17.960  1.00  0.00    -0.010 C 
HETATM   22  C14 UNL     1     -10.935  12.998  16.944  1.00  0.00     0.014 C 
HETATM   23  C19 UNL     1     -12.127  13.643  18.946  1.00  0.00     0.026 C 
HETATM   24  C15 UNL     1     -10.415  11.798  17.721  1.00  0.00    -0.040 C 
HETATM   25  C16 UNL     1     -10.236  10.688  16.676  1.00  0.00     0.015 C 
HETATM   26  C17 UNL     1     -11.426  11.302  18.719  1.00  0.00     0.031 C 
HETATM   27  C24 UNL     1      -9.114  12.073  18.441  1.00  0.00     0.041 C 
HETATM   28  C18 UNL     1     -11.641  12.400  19.704  1.00  0.00     0.029 C 
HETATM   29 BR1  UNL     1     -13.091  11.922  20.878  1.00  0.00    -0.085 Br
HETATM   30  C20 UNL     1     -10.407  12.823  20.447  1.00  0.00    -0.002 C 
HETATM   31  C21 UNL     1     -10.769  14.020  21.287  1.00  0.00     0.019 C 
BRANCH  30  32
HETATM   32  C22 UNL     1      -9.801  11.774  21.317  1.00  0.00     0.009 C 
HETATM   33  C23 UNL     1      -9.822  12.009  22.782  1.00  0.00     0.006 C 
ENDBRANCH  30  32
ENDBRANCH  17  19
ENDBRANCH   1  17
BRANCH   2  34
HETATM   34  N3  UNL     1      -6.050  11.388  21.108  1.00  0.00    -0.344 N 
ATOM     35  H32 UNL     1      -6.592  10.650  20.659  1.00  0.00     0.176 HD
ATOM     36  H31 UNL     1      -5.690  11.067  22.007  1.00  0.00     0.176 HD
ENDBRANCH   2  34
TORSDOF 9
ENDMDL
MODEL 4
REMARK VINA RESULT: -6.341586905      1.601      3.680
REMARK  9 active torsions:
REMARK  status: ('A' for Active; 'I' for Inactive)
REMARK    1  A    between atoms: C2_2  and  C3_3 
REMARK    2  A    between atoms: C3_3  and  C4_4 
REMARK    3  A    between atoms: C4_4  and  C5_5 
REMARK    4  A    between atoms: C8_10  and  C9_11 
REMARK    5  A    between atoms: C9_11  and  C10_12 
REMARK    6  A    between atoms: C10_12  and  N4_18 
REMARK    7  A    between atoms: N2_13  and  N3_15 
REMARK    8  A    between atoms: N4_18  and  C11_20 
REMARK    9  A    between atoms: C20_30  and  C22_32 
ROOT
HETATM    1  C10 UNL     1      -0.819  17.407  18.566  1.00  0.00     0.118 C 
HETATM    2  N2  UNL     1       0.317  17.849  18.507  1.00  0.00    -0.292 N 
ATOM      3  H2  UNL     1       0.929  17.130  18.123  1.00  0.00     0.188 HD
ENDROOT
BRANCH   1   4
HETATM    4  C9  UNL     1      -0.994  16.005  18.089  1.00  0.00     0.081 C 
BRANCH   4   5
HETATM    5  C8  UNL     1      -1.147  15.588  16.887  1.00  0.00     0.059 A 
HETATM    6  C6  UNL     1      -2.330  15.021  16.411  1.00  0.00     0.034 A 
HETATM    7  N1  UNL     1      -2.117  14.734  15.119  1.00  0.00    -0.344 N 
HETATM    8  C7  UNL     1      -3.603  14.751  17.158  1.00  0.00     0.070 C 
HETATM    9  C5  UNL     1      -0.885  15.073  14.732  1.00  0.00     0.102 A 
ATOM     10  H1  UNL     1      -2.811  14.308  14.506  1.00  0.00     0.167 HD
HETATM   11  N5  UNL     1      -0.301  15.604  15.854  1.00  0.00    -0.341 N 
ATOM     12  H5  UNL     1       0.653  15.963  15.894  1.00  0.00     0.167 HD
BRANCH   9  13
HETATM   13  C4  UNL     1      -0.334  14.944  13.540  1.00  0.00     0.022 C 
BRANCH  13  14
HETATM   14  C3  UNL     1       1.133  15.004  13.422  1.00  0.00     0.030 C 
BRANCH  14  15
HETATM   15  C2  UNL     1       1.728  13.659  13.062  1.00  0.00    -0.001 C 
HETATM   16  C1  UNL     1       2.962  13.791  12.222  1.00  0.00     0.005 C 
ENDBRANCH  14  15
ENDBRANCH  13  14
ENDBRANCH   9  13
ENDBRANCH   4   5
ENDBRANCH   1   4
BRANCH   1  17
HETATM   17  N4  UNL     1      -2.017  18.038  19.013  1.00  0.00    -0.365 N 
ATOM     18  H4  UNL     1      -2.478  18.632  18.324  1.00  0.00     0.162 HD
BRANCH  17  19
HETATM   19  C11 UNL     1      -2.659  17.961  20.270  1.00  0.00     0.041 C 
HETATM   20  C12 UNL     1      -3.849  17.034  20.150  1.00  0.00     0.036 C 
HETATM   21  C13 UNL     1      -4.731  17.125  21.377  1.00  0.00    -0.010 C 
HETATM   22  C14 UNL     1      -3.910  16.470  22.497  1.00  0.00     0.014 C 
HETATM   23  C19 UNL     1      -5.006  18.516  21.823  1.00  0.00     0.026 C 
HETATM   24  C15 UNL     1      -2.629  17.279  22.634  1.00  0.00    -0.040 C 
HETATM   25  C16 UNL     1      -1.839  16.596  23.759  1.00  0.00     0.015 C 
HETATM   26  C17 UNL     1      -2.908  18.687  23.086  1.00  0.00     0.031 C 
HETATM   27  C24 UNL     1      -1.816  17.329  21.361  1.00  0.00     0.041 C 
HETATM   28  C18 UNL     1      -3.722  19.335  22.018  1.00  0.00     0.029 C 
HETATM   29 BR1  UNL     1      -4.310  21.064  22.631  1.00  0.00    -0.085 Br
HETATM   30  C20 UNL     1      -3.058  19.390  20.673  1.00  0.00    -0.002 C 
HETATM   31  C21 UNL     1      -4.059  19.940  19.692  1.00  0.00     0.019 C 
BRANCH  30  32
HETATM   32  C22 UNL     1      -1.810  20.206  20.616  1.00  0.00     0.009 C 
HETATM   33  C23 UNL     1      -1.834  21.427  19.773  1.00  0.00     0.006 C 
ENDBRANCH  30  32
ENDBRANCH  17  19
ENDBRANCH   1  17
BRANCH   2  34
HETATM   34  N3  UNL     1       1.047  18.942  18.767  1.00  0.00    -0.344 N 
ATOM     35  H32 UNL     1       1.848  18.924  18.136  1.00  0.00     0.176 HD
ATOM     36  H31 UNL     1       1.082  19.770  19.363  1.00  0.00     0.176 HD
ENDBRANCH   2  34
TORSDOF 9
ENDMDL
MODEL 5
REMARK VINA RESULT: -6.328347212      2.621      3.733
REMARK  9 active torsions:
REMARK  status: ('A' for Active; 'I' for Inactive)
REMARK    1  A    between atoms: C2_2  and  C3_3 
REMARK    2  A    between atoms: C3_3  and  C4_4 
REMARK    3  A    between atoms: C4_4  and  C5_5 
REMARK    4  A    between atoms: C8_10  and  C9_11 
REMARK    5  A    between atoms: C9_11  and  C10_12 
REMARK    6  A    between atoms: C10_12  and  N4_18 
REMARK    7  A    between atoms: N2_13  and  N3_15 
REMARK    8  A    between atoms: N4_18  and  C11_20 
REMARK    9  A    between atoms: C20_30  and  C22_32 
ROOT
HETATM    1  C10 UNL     1      -1.018  17.334  18.877  1.00  0.00     0.118 C 
HETATM    2  N2  UNL     1      -0.721  18.206  18.077  1.00  0.00    -0.292 N 
ATOM      3  H2  UNL     1      -0.567  17.775  17.166  1.00  0.00     0.188 HD
ENDROOT
BRANCH   1   4
HETATM    4  C9  UNL     1      -1.067  15.946  18.336  1.00  0.00     0.081 C 
BRANCH   4   5
HETATM    5  C8  UNL     1      -1.228  15.573  17.120  1.00  0.00     0.059 A 
HETATM    6  C6  UNL     1      -2.414  15.026  16.631  1.00  0.00     0.034 A 
HETATM    7  N1  UNL     1      -2.209  14.784  15.329  1.00  0.00    -0.344 N 
HETATM    8  C7  UNL     1      -3.684  14.731  17.375  1.00  0.00     0.070 C 
HETATM    9  C5  UNL     1      -0.978  15.135  14.947  1.00  0.00     0.102 A 
ATOM     10  H1  UNL     1      -2.908  14.382  14.705  1.00  0.00     0.167 HD
HETATM   11  N5  UNL     1      -0.387  15.624  16.084  1.00  0.00    -0.341 N 
ATOM     12  H5  UNL     1       0.568  15.979  16.132  1.00  0.00     0.167 HD
BRANCH   9  13
HETATM   13  C4  UNL     1      -0.434  15.048  13.748  1.00  0.00     0.022 C 
BRANCH  13  14
HETATM   14  C3  UNL     1       1.034  15.007  13.632  1.00  0.00     0.030 C 
BRANCH  14  15
HETATM   15  C2  UNL     1       1.517  13.720  12.997  1.00  0.00    -0.001 C 
HETATM   16  C1  UNL     1       2.867  13.871  12.365  1.00  0.00     0.005 C 
ENDBRANCH  14  15
ENDBRANCH  13  14
ENDBRANCH   9  13
ENDBRANCH   4   5
ENDBRANCH   1   4
BRANCH   1  17
HETATM   17  N4  UNL     1      -1.340  17.445  20.262  1.00  0.00    -0.365 N 
ATOM     18  H4  UNL     1      -0.540  17.472  20.894  1.00  0.00     0.162 HD
BRANCH  17  19
HETATM   19  C11 UNL     1      -2.605  17.524  20.889  1.00  0.00     0.041 C 
HETATM   20  C12 UNL     1      -3.310  18.772  20.402  1.00  0.00     0.036 C 
HETATM   21  C13 UNL     1      -4.540  19.057  21.235  1.00  0.00    -0.010 C 
HETATM   22  C14 UNL     1      -5.532  17.946  20.858  1.00  0.00     0.014 C 
HETATM   23  C19 UNL     1      -4.321  18.938  22.700  1.00  0.00     0.026 C 
HETATM   24  C15 UNL     1      -4.871  16.626  21.222  1.00  0.00    -0.040 C 
HETATM   25  C16 UNL     1      -5.890  15.545  20.832  1.00  0.00     0.015 C 
HETATM   26  C17 UNL     1      -4.649  16.506  22.705  1.00  0.00     0.031 C 
HETATM   27  C24 UNL     1      -3.555  16.403  20.513  1.00  0.00     0.041 C 
HETATM   28  C18 UNL     1      -3.703  17.589  23.094  1.00  0.00     0.029 C 
HETATM   29 BR1  UNL     1      -3.552  17.640  25.013  1.00  0.00    -0.085 Br
HETATM   30  C20 UNL     1      -2.369  17.529  22.407  1.00  0.00    -0.002 C 
HETATM   31  C21 UNL     1      -1.597  18.760  22.803  1.00  0.00     0.019 C 
BRANCH  30  32
HETATM   32  C22 UNL     1      -1.555  16.316  22.711  1.00  0.00     0.009 C 
HETATM   33  C23 UNL     1      -0.320  16.508  23.510  1.00  0.00     0.006 C 
ENDBRANCH  30  32
ENDBRANCH  17  19
ENDBRANCH   1  17
BRANCH   2  34
HETATM   34  N3  UNL     1      -0.525  19.527  17.967  1.00  0.00    -0.344 N 
ATOM     35  H32 UNL     1       0.402  19.658  17.562  1.00  0.00     0.176 HD
ATOM     36  H31 UNL     1      -0.968  20.428  18.142  1.00  0.00     0.176 HD
ENDBRANCH   2  34
TORSDOF 9
ENDMDL
