MODEL 1
REMARK VINA RESULT: -7.850565817      0.000      0.000
REMARK  2 active torsions:
REMARK  status: ('A' for Active; 'I' for Inactive)
REMARK    1  A    between atoms: C2_3  and  N3_6 
REMARK    2  A    between atoms: N3_6  and  C4_8 
ROOT
HETATM    1  N1  UNL     1      39.851  78.279  42.267  1.00  0.00    -0.194 NA
HETATM    2  C1  UNL     1      40.629  78.850  41.635  1.00  0.00     0.099 C 
HETATM    3  C2  UNL     1      41.631  79.552  40.841  1.00  0.00     0.293 C 
HETATM    4  C3  UNL     1      42.579  80.287  41.710  1.00  0.00     0.099 C 
HETATM    5  N2  UNL     1      43.333  80.846  42.398  1.00  0.00    -0.194 NA
ENDROOT
BRANCH   3   6
HETATM    6  N3  UNL     1      42.330  78.832  39.929  1.00  0.00    -0.391 N 
ATOM      7  H3  UNL     1      42.052  77.853  39.864  1.00  0.00     0.155 HD
BRANCH   6   8
HETATM    8  C4  UNL     1      43.346  79.191  39.078  1.00  0.00     0.078 C 
HETATM    9  C5  UNL     1      43.157  80.420  38.232  1.00  0.00     0.024 C 
HETATM   10  C6  UNL     1      44.285  80.384  37.214  1.00  0.00     0.002 C 
HETATM   11  C7  UNL     1      43.785  79.429  36.160  1.00  0.00     0.000 C 
HETATM   12  C8  UNL     1      43.738  78.073  36.797  1.00  0.00     0.002 C 
HETATM   13  C9  UNL     1      43.731  77.990  38.249  1.00  0.00     0.024 C 
ENDBRANCH   6   8
ENDBRANCH   3   6
TORSDOF 2
ENDMDL
MODEL 2
REMARK VINA RESULT: -7.618614831      0.532      1.477
REMARK  2 active torsions:
REMARK  status: ('A' for Active; 'I' for Inactive)
REMARK    1  A    between atoms: C2_3  and  N3_6 
REMARK    2  A    between atoms: N3_6  and  C4_8 
ROOT
HETATM    1  N1  UNL     1      39.972  78.285  42.260  1.00  0.00    -0.194 NA
HETATM    2  C1  UNL     1      40.777  78.826  41.634  1.00  0.00     0.099 C 
HETATM    3  C2  UNL     1      41.812  79.490  40.851  1.00  0.00     0.293 C 
HETATM    4  C3  UNL     1      42.699  80.299  41.719  1.00  0.00     0.099 C 
HETATM    5  N2  UNL     1      43.404  80.918  42.408  1.00  0.00    -0.194 NA
ENDROOT
BRANCH   3   6
HETATM    6  N3  UNL     1      42.572  78.722  40.032  1.00  0.00    -0.391 N 
ATOM      7  H3  UNL     1      43.253  78.136  40.516  1.00  0.00     0.155 HD
BRANCH   6   8
HETATM    8  C4  UNL     1      42.586  78.595  38.664  1.00  0.00     0.078 C 
HETATM    9  C5  UNL     1      43.728  77.842  38.038  1.00  0.00     0.024 C 
HETATM   10  C6  UNL     1      43.623  78.123  36.548  1.00  0.00     0.002 C 
HETATM   11  C7  UNL     1      44.268  79.477  36.394  1.00  0.00     0.000 C 
HETATM   12  C8  UNL     1      43.368  80.461  37.080  1.00  0.00     0.002 C 
HETATM   13  C9  UNL     1      42.405  79.960  38.048  1.00  0.00     0.024 C 
ENDBRANCH   6   8
ENDBRANCH   3   6
TORSDOF 2
ENDMDL
MODEL 3
REMARK VINA RESULT: -7.310723775      0.341      2.051
REMARK  2 active torsions:
REMARK  status: ('A' for Active; 'I' for Inactive)
REMARK    1  A    between atoms: C2_3  and  N3_6 
REMARK    2  A    between atoms: N3_6  and  C4_8 
ROOT
HETATM    1  N1  UNL     1      43.034  81.167  42.289  1.00  0.00    -0.194 NA
HETATM    2  C1  UNL     1      42.643  80.200  41.795  1.00  0.00     0.099 C 
HETATM    3  C2  UNL     1      42.136  78.993  41.152  1.00  0.00     0.293 C 
HETATM    4  C3  UNL     1      40.735  78.727  41.551  1.00  0.00     0.099 C 
HETATM    5  N2  UNL     1      39.627  78.533  41.853  1.00  0.00    -0.194 NA
ENDROOT
BRANCH   3   6
HETATM    6  N3  UNL     1      42.237  78.909  39.803  1.00  0.00    -0.391 N 
ATOM      7  H3  UNL     1      41.393  78.574  39.337  1.00  0.00     0.155 HD
BRANCH   6   8
HETATM    8  C4  UNL     1      43.277  79.195  38.952  1.00  0.00     0.078 C 
HETATM    9  C5  UNL     1      43.149  80.401  38.062  1.00  0.00     0.024 C 
HETATM   10  C6  UNL     1      44.286  80.283  37.061  1.00  0.00     0.002 C 
HETATM   11  C7  UNL     1      43.759  79.313  36.034  1.00  0.00     0.000 C 
HETATM   12  C8  UNL     1      43.650  77.983  36.717  1.00  0.00     0.002 C 
HETATM   13  C9  UNL     1      43.622  77.951  38.170  1.00  0.00     0.024 C 
ENDBRANCH   6   8
ENDBRANCH   3   6
TORSDOF 2
ENDMDL
MODEL 4
REMARK VINA RESULT: -6.991143376      0.854      2.692
REMARK  2 active torsions:
REMARK  status: ('A' for Active; 'I' for Inactive)
REMARK    1  A    between atoms: C2_3  and  N3_6 
REMARK    2  A    between atoms: N3_6  and  C4_8 
ROOT
HETATM    1  N1  UNL     1      43.332  80.930  42.408  1.00  0.00    -0.194 NA
HETATM    2  C1  UNL     1      42.706  80.244  41.723  1.00  0.00     0.099 C 
HETATM    3  C2  UNL     1      41.896  79.398  40.855  1.00  0.00     0.293 C 
HETATM    4  C3  UNL     1      40.757  78.810  41.597  1.00  0.00     0.099 C 
HETATM    5  N2  UNL     1      39.852  78.367  42.180  1.00  0.00    -0.194 NA
ENDROOT
BRANCH   3   6
HETATM    6  N3  UNL     1      41.441  79.936  39.696  1.00  0.00    -0.391 N 
ATOM      7  H3  UNL     1      40.545  80.416  39.778  1.00  0.00     0.155 HD
BRANCH   6   8
HETATM    8  C4  UNL     1      41.977  79.949  38.431  1.00  0.00     0.078 C 
HETATM    9  C5  UNL     1      43.012  78.910  38.093  1.00  0.00     0.024 C 
HETATM   10  C6  UNL     1      43.610  79.358  36.770  1.00  0.00     0.002 C 
HETATM   11  C7  UNL     1      44.614  80.409  37.168  1.00  0.00     0.000 C 
HETATM   12  C8  UNL     1      43.830  81.571  37.699  1.00  0.00     0.002 C 
HETATM   13  C9  UNL     1      42.458  81.345  38.122  1.00  0.00     0.024 C 
ENDBRANCH   6   8
ENDBRANCH   3   6
TORSDOF 2
ENDMDL
MODEL 5
REMARK VINA RESULT: -6.193501036      4.068      6.667
REMARK  2 active torsions:
REMARK  status: ('A' for Active; 'I' for Inactive)
REMARK    1  A    between atoms: C2_3  and  N3_6 
REMARK    2  A    between atoms: N3_6  and  C4_8 
ROOT
HETATM    1  N1  UNL     1      43.774  78.900  31.565  1.00  0.00    -0.194 NA
HETATM    2  C1  UNL     1      44.178  78.641  32.614  1.00  0.00     0.099 C 
HETATM    3  C2  UNL     1      44.698  78.341  33.943  1.00  0.00     0.293 C 
HETATM    4  C3  UNL     1      46.163  78.124  33.905  1.00  0.00     0.099 C 
HETATM    5  N2  UNL     1      47.317  77.973  33.873  1.00  0.00    -0.194 NA
ENDROOT
BRANCH   3   6
HETATM    6  N3  UNL     1      44.403  79.205  34.945  1.00  0.00    -0.391 N 
ATOM      7  H3  UNL     1      44.154  80.143  34.632  1.00  0.00     0.155 HD
BRANCH   6   8
HETATM    8  C4  UNL     1      44.381  79.038  36.309  1.00  0.00     0.078 C 
HETATM    9  C5  UNL     1      43.401  78.051  36.882  1.00  0.00     0.024 C 
HETATM   10  C6  UNL     1      43.408  78.305  38.381  1.00  0.00     0.002 C 
HETATM   11  C7  UNL     1      42.497  79.494  38.546  1.00  0.00     0.000 C 
HETATM   12  C8  UNL     1      43.194  80.660  37.910  1.00  0.00     0.002 C 
HETATM   13  C9  UNL     1      44.263  80.394  36.962  1.00  0.00     0.024 C 
ENDBRANCH   6   8
ENDBRANCH   3   6
TORSDOF 2
ENDMDL
