MODEL 1
REMARK VINA RESULT: -5.372501580      0.000      0.000
REMARK  3 active torsions:
REMARK  status: ('A' for Active; 'I' for Inactive)
REMARK    1  A    between atoms: S1_3  and  C2_4 
REMARK    2  A    between atoms: C2_4  and  C3_5 
REMARK    3  A    between atoms: C3_5  and  N2_6 
ROOT
HETATM    1  N1  UNL     1      43.162  80.767  42.386  1.00  0.00    -0.184 NA
HETATM    2  C1  UNL     1      42.547  80.416  41.445  1.00  0.00     0.134 C 
HETATM    3  S1  UNL     1      41.620  79.919  40.012  1.00  0.00    -0.039 SA
ENDROOT
BRANCH   3   4
HETATM    4  C2  UNL     1      42.724  79.757  38.584  1.00  0.00     0.046 C 
HETATM    5  C4  UNL     1      43.913  78.953  38.987  1.00  0.00     0.023 C 
HETATM    6  C5  UNL     1      43.815  77.624  38.282  1.00  0.00     0.002 C 
HETATM    7  C6  UNL     1      42.782  77.758  37.190  1.00  0.00     0.002 C 
HETATM    8  C7  UNL     1      42.033  79.038  37.445  1.00  0.00     0.023 C 
BRANCH   4   9
HETATM    9  C3  UNL     1      43.120  81.170  38.174  1.00  0.00     0.251 C 
BRANCH   9  10
HETATM   10  N2  UNL     1      44.336  81.154  37.378  1.00  0.00    -0.078 N 
ATOM     11  H23 UNL     1      44.305  80.437  36.654  1.00  0.00     0.274 HD
ATOM     12  H22 UNL     1      44.405  81.976  36.778  1.00  0.00     0.274 HD
ATOM     13  H21 UNL     1      45.158  81.053  37.975  1.00  0.00     0.274 HD
ENDBRANCH   9  10
ENDBRANCH   4   9
ENDBRANCH   3   4
TORSDOF 3
ENDMDL
MODEL 2
REMARK VINA RESULT: -5.136134363      1.690      2.792
REMARK  3 active torsions:
REMARK  status: ('A' for Active; 'I' for Inactive)
REMARK    1  A    between atoms: S1_3  and  C2_4 
REMARK    2  A    between atoms: C2_4  and  C3_5 
REMARK    3  A    between atoms: C3_5  and  N2_6 
ROOT
HETATM    1  N1  UNL     1      42.941  81.063  42.068  1.00  0.00    -0.184 NA
HETATM    2  C1  UNL     1      42.720  80.162  41.342  1.00  0.00     0.134 C 
HETATM    3  S1  UNL     1      42.356  78.819  40.236  1.00  0.00    -0.039 SA
ENDROOT
BRANCH   3   4
HETATM    4  C2  UNL     1      42.649  79.328  38.522  1.00  0.00     0.046 C 
HETATM    5  C4  UNL     1      41.772  80.492  38.211  1.00  0.00     0.023 C 
HETATM    6  C5  UNL     1      42.662  81.701  38.073  1.00  0.00     0.002 C 
HETATM    7  C6  UNL     1      44.083  81.212  37.940  1.00  0.00     0.002 C 
HETATM    8  C7  UNL     1      44.088  79.758  38.323  1.00  0.00     0.023 C 
BRANCH   4   9
HETATM    9  C3  UNL     1      42.314  78.128  37.645  1.00  0.00     0.251 C 
BRANCH   9  10
HETATM   10  N2  UNL     1      42.991  76.934  38.125  1.00  0.00    -0.078 N 
ATOM     11  H23 UNL     1      43.802  77.165  38.699  1.00  0.00     0.274 HD
ATOM     12  H22 UNL     1      42.439  76.444  38.828  1.00  0.00     0.274 HD
ATOM     13  H21 UNL     1      43.240  76.323  37.347  1.00  0.00     0.274 HD
ENDBRANCH   9  10
ENDBRANCH   4   9
ENDBRANCH   3   4
TORSDOF 3
ENDMDL
MODEL 3
REMARK VINA RESULT: -4.609594262      1.786      2.630
REMARK  3 active torsions:
REMARK  status: ('A' for Active; 'I' for Inactive)
REMARK    1  A    between atoms: S1_3  and  C2_4 
REMARK    2  A    between atoms: C2_4  and  C3_5 
REMARK    3  A    between atoms: C3_5  and  N2_6 
ROOT
HETATM    1  N1  UNL     1      42.971  80.720  42.205  1.00  0.00    -0.184 NA
HETATM    2  C1  UNL     1      42.510  80.438  41.157  1.00  0.00     0.134 C 
HETATM    3  S1  UNL     1      41.832  80.042  39.563  1.00  0.00    -0.039 SA
ENDROOT
BRANCH   3   4
HETATM    4  C2  UNL     1      43.127  79.376  38.485  1.00  0.00     0.046 C 
HETATM    5  C4  UNL     1      42.603  79.309  37.092  1.00  0.00     0.023 C 
HETATM    6  C5  UNL     1      43.331  80.356  36.287  1.00  0.00     0.002 C 
HETATM    7  C6  UNL     1      44.531  80.798  37.088  1.00  0.00     0.002 C 
HETATM    8  C7  UNL     1      44.347  80.274  38.486  1.00  0.00     0.023 C 
BRANCH   4   9
HETATM    9  C3  UNL     1      43.472  77.991  39.018  1.00  0.00     0.251 C 
BRANCH   9  10
HETATM   10  N2  UNL     1      42.962  76.956  38.133  1.00  0.00    -0.078 N 
ATOM     11  H23 UNL     1      42.380  76.285  38.633  1.00  0.00     0.274 HD
ATOM     12  H22 UNL     1      42.259  77.322  37.491  1.00  0.00     0.274 HD
ATOM     13  H21 UNL     1      43.726  76.498  37.636  1.00  0.00     0.274 HD
ENDBRANCH   9  10
ENDBRANCH   4   9
ENDBRANCH   3   4
TORSDOF 3
ENDMDL
MODEL 4
REMARK VINA RESULT: -4.462804108      2.722      4.290
REMARK  3 active torsions:
REMARK  status: ('A' for Active; 'I' for Inactive)
REMARK    1  A    between atoms: S1_3  and  C2_4 
REMARK    2  A    between atoms: C2_4  and  C3_5 
REMARK    3  A    between atoms: C3_5  and  N2_6 
ROOT
HETATM    1  N1  UNL     1      44.766  78.445  34.625  1.00  0.00    -0.184 NA
HETATM    2  C1  UNL     1      44.481  79.145  35.528  1.00  0.00     0.134 C 
HETATM    3  S1  UNL     1      44.016  80.205  36.877  1.00  0.00    -0.039 SA
ENDROOT
BRANCH   3   4
HETATM    4  C2  UNL     1      42.980  79.295  38.053  1.00  0.00     0.046 C 
HETATM    5  C4  UNL     1      43.781  79.008  39.276  1.00  0.00     0.023 C 
HETATM    6  C5  UNL     1      43.222  79.858  40.389  1.00  0.00     0.002 C 
HETATM    7  C6  UNL     1      41.877  80.375  39.941  1.00  0.00     0.002 C 
HETATM    8  C7  UNL     1      41.776  80.117  38.462  1.00  0.00     0.023 C 
BRANCH   4   9
HETATM    9  C3  UNL     1      42.550  78.011  37.355  1.00  0.00     0.251 C 
BRANCH   9  10
HETATM   10  N2  UNL     1      42.980  76.845  38.109  1.00  0.00    -0.078 N 
ATOM     11  H23 UNL     1      43.012  76.008  37.526  1.00  0.00     0.274 HD
ATOM     12  H22 UNL     1      43.968  76.898  38.355  1.00  0.00     0.274 HD
ATOM     13  H21 UNL     1      42.392  76.710  38.932  1.00  0.00     0.274 HD
ENDBRANCH   9  10
ENDBRANCH   4   9
ENDBRANCH   3   4
TORSDOF 3
ENDMDL
MODEL 5
REMARK VINA RESULT: -4.413180414      1.555      1.680
REMARK  3 active torsions:
REMARK  status: ('A' for Active; 'I' for Inactive)
REMARK    1  A    between atoms: S1_3  and  C2_4 
REMARK    2  A    between atoms: C2_4  and  C3_5 
REMARK    3  A    between atoms: C3_5  and  N2_6 
ROOT
HETATM    1  N1  UNL     1      42.697  80.859  42.025  1.00  0.00    -0.184 NA
HETATM    2  C1  UNL     1      43.172  80.203  41.168  1.00  0.00     0.134 C 
HETATM    3  S1  UNL     1      43.858  79.195  39.875  1.00  0.00    -0.039 SA
ENDROOT
BRANCH   3   4
HETATM    4  C2  UNL     1      43.100  79.622  38.286  1.00  0.00     0.046 C 
HETATM    5  C4  UNL     1      44.120  80.298  37.435  1.00  0.00     0.023 C 
HETATM    6  C5  UNL     1      44.466  79.351  36.314  1.00  0.00     0.002 C 
HETATM    7  C6  UNL     1      43.410  78.274  36.279  1.00  0.00     0.002 C 
HETATM    8  C7  UNL     1      42.629  78.380  37.560  1.00  0.00     0.023 C 
BRANCH   4   9
HETATM    9  C3  UNL     1      41.930  80.549  38.595  1.00  0.00     0.251 C 
BRANCH   9  10
HETATM   10  N2  UNL     1      42.112  81.841  37.953  1.00  0.00    -0.078 N 
ATOM     11  H23 UNL     1      41.490  82.548  38.345  1.00  0.00     0.274 HD
ATOM     12  H22 UNL     1      43.005  82.264  38.206  1.00  0.00     0.274 HD
ATOM     13  H21 UNL     1      42.004  81.761  36.942  1.00  0.00     0.274 HD
ENDBRANCH   9  10
ENDBRANCH   4   9
ENDBRANCH   3   4
TORSDOF 3
ENDMDL
