MODEL 1
REMARK VINA RESULT: -5.688734806      0.000      0.000
REMARK  3 active torsions:
REMARK  status: ('A' for Active; 'I' for Inactive)
REMARK    1  A    between atoms: C5_5  and  C6_6 
REMARK    2  A    between atoms: C6_6  and  S1_7 
REMARK    3  A    between atoms: S1_7  and  O1_8 
ROOT
HETATM    1  C1  UNL     1      43.861  78.561  34.831  1.00  0.00     0.032 C 
HETATM    2  C2  UNL     1      44.483  78.709  36.219  1.00  0.00     0.076 C 
HETATM    3  C3  UNL     1      43.803  77.744  37.130  1.00  0.00     0.025 C 
HETATM    4  C4  UNL     1      42.707  78.349  37.968  1.00  0.00     0.013 C 
HETATM    5  C5  UNL     1      43.174  79.637  38.584  1.00  0.00     0.035 C 
HETATM    6  C7  UNL     1      43.524  80.563  37.441  1.00  0.00     0.061 C 
HETATM    7  N1  UNL     1      44.501  80.054  36.578  1.00  0.00    -0.398 N 
ATOM      8  H1  UNL     1      45.227  80.669  36.211  1.00  0.00     0.159 HD
ENDROOT
BRANCH   5   9
HETATM    9  C6  UNL     1      42.113  80.235  39.467  1.00  0.00     0.114 C 
BRANCH   9  10
HETATM   10  S1  UNL     1      42.294  79.812  41.176  1.00  0.00    -0.015 SA
BRANCH  10  11
HETATM   11  O1  UNL     1      42.685  80.985  42.042  1.00  0.00    -0.330 OA
ATOM     12  H1  UNL     1      42.362  80.918  42.933  1.00  0.00     0.227 HD
ENDBRANCH  10  11
ENDBRANCH   9  10
ENDBRANCH   5   9
TORSDOF 3
ENDMDL
MODEL 2
REMARK VINA RESULT: -5.567699626      4.424      5.214
REMARK  3 active torsions:
REMARK  status: ('A' for Active; 'I' for Inactive)
REMARK    1  A    between atoms: C5_5  and  C6_6 
REMARK    2  A    between atoms: C6_6  and  S1_7 
REMARK    3  A    between atoms: S1_7  and  O1_8 
ROOT
HETATM    1  C1  UNL     1      43.059  79.669  39.408  1.00  0.00     0.032 C 
HETATM    2  C2  UNL     1      42.515  79.398  38.006  1.00  0.00     0.076 C 
HETATM    3  C3  UNL     1      42.689  77.944  37.721  1.00  0.00     0.025 C 
HETATM    4  C4  UNL     1      43.910  77.613  36.905  1.00  0.00     0.013 C 
HETATM    5  C5  UNL     1      44.017  78.543  35.730  1.00  0.00     0.035 C 
HETATM    6  C7  UNL     1      44.133  79.942  36.293  1.00  0.00     0.061 C 
HETATM    7  N1  UNL     1      43.061  80.313  37.112  1.00  0.00    -0.398 N 
ATOM      8  H1  UNL     1      42.680  81.257  37.054  1.00  0.00     0.159 HD
ENDROOT
BRANCH   5   9
HETATM    9  C6  UNL     1      45.203  78.199  34.871  1.00  0.00     0.114 C 
BRANCH   9  10
HETATM   10  S1  UNL     1      44.803  78.010  33.157  1.00  0.00    -0.015 SA
BRANCH  10  11
HETATM   11  O1  UNL     1      45.939  78.383  32.235  1.00  0.00    -0.330 OA
ATOM     12  H1  UNL     1      45.849  78.018  31.362  1.00  0.00     0.227 HD
ENDBRANCH  10  11
ENDBRANCH   9  10
ENDBRANCH   5   9
TORSDOF 3
ENDMDL
MODEL 3
REMARK VINA RESULT: -5.441042047      4.413      5.354
REMARK  3 active torsions:
REMARK  status: ('A' for Active; 'I' for Inactive)
REMARK    1  A    between atoms: C5_5  and  C6_6 
REMARK    2  A    between atoms: C6_6  and  S1_7 
REMARK    3  A    between atoms: S1_7  and  O1_8 
ROOT
HETATM    1  C1  UNL     1      42.172  80.096  38.826  1.00  0.00     0.032 C 
HETATM    2  C2  UNL     1      43.594  79.648  38.494  1.00  0.00     0.076 C 
HETATM    3  C3  UNL     1      44.132  80.570  37.451  1.00  0.00     0.025 C 
HETATM    4  C4  UNL     1      44.037  80.039  36.045  1.00  0.00     0.013 C 
HETATM    5  C5  UNL     1      44.517  78.616  35.993  1.00  0.00     0.035 C 
HETATM    6  C7  UNL     1      43.615  77.820  36.909  1.00  0.00     0.061 C 
HETATM    7  N1  UNL     1      43.600  78.282  38.231  1.00  0.00    -0.398 N 
ATOM      8  H1  UNL     1      43.593  77.615  39.003  1.00  0.00     0.159 HD
ENDROOT
BRANCH   5   9
HETATM    9  C6  UNL     1      44.479  78.080  34.588  1.00  0.00     0.114 C 
BRANCH   9  10
HETATM   10  S1  UNL     1      46.067  78.026  33.809  1.00  0.00    -0.015 SA
BRANCH  10  11
HETATM   11  O1  UNL     1      46.019  78.346  32.334  1.00  0.00    -0.330 OA
ATOM     12  H1  UNL     1      46.864  78.589  31.975  1.00  0.00     0.227 HD
ENDBRANCH  10  11
ENDBRANCH   9  10
ENDBRANCH   5   9
TORSDOF 3
ENDMDL
MODEL 4
REMARK VINA RESULT: -5.289001581      3.782      4.718
REMARK  3 active torsions:
REMARK  status: ('A' for Active; 'I' for Inactive)
REMARK    1  A    between atoms: C5_5  and  C6_6 
REMARK    2  A    between atoms: C6_6  and  S1_7 
REMARK    3  A    between atoms: S1_7  and  O1_8 
ROOT
HETATM    1  C1  UNL     1      42.741  80.189  41.125  1.00  0.00     0.032 C 
HETATM    2  C2  UNL     1      42.045  79.798  39.823  1.00  0.00     0.076 C 
HETATM    3  C3  UNL     1      42.660  78.529  39.339  1.00  0.00     0.025 C 
HETATM    4  C4  UNL     1      43.715  78.715  38.281  1.00  0.00     0.013 C 
HETATM    5  C5  UNL     1      43.231  79.670  37.226  1.00  0.00     0.035 C 
HETATM    6  C7  UNL     1      42.958  80.984  37.923  1.00  0.00     0.061 C 
HETATM    7  N1  UNL     1      42.025  80.891  38.962  1.00  0.00    -0.398 N 
ATOM      8  H1  UNL     1      41.329  81.626  39.088  1.00  0.00     0.159 HD
ENDROOT
BRANCH   5   9
HETATM    9  C6  UNL     1      44.250  79.833  36.131  1.00  0.00     0.114 C 
BRANCH   9  10
HETATM   10  S1  UNL     1      44.505  78.364  35.178  1.00  0.00    -0.015 SA
BRANCH  10  11
HETATM   11  O1  UNL     1      45.596  78.505  34.145  1.00  0.00    -0.330 OA
ATOM     12  H1  UNL     1      45.732  79.401  33.862  1.00  0.00     0.227 HD
ENDBRANCH  10  11
ENDBRANCH   9  10
ENDBRANCH   5   9
TORSDOF 3
ENDMDL
MODEL 5
REMARK VINA RESULT: -5.275731403      1.026      1.026
REMARK  3 active torsions:
REMARK  status: ('A' for Active; 'I' for Inactive)
REMARK    1  A    between atoms: C5_5  and  C6_6 
REMARK    2  A    between atoms: C6_6  and  S1_7 
REMARK    3  A    between atoms: S1_7  and  O1_8 
ROOT
HETATM    1  C1  UNL     1      44.050  78.260  34.357  1.00  0.00     0.032 C 
HETATM    2  C2  UNL     1      44.638  78.572  35.732  1.00  0.00     0.076 C 
HETATM    3  C3  UNL     1      44.028  77.630  36.715  1.00  0.00     0.025 C 
HETATM    4  C4  UNL     1      42.874  78.206  37.492  1.00  0.00     0.013 C 
HETATM    5  C5  UNL     1      43.224  79.575  38.004  1.00  0.00     0.035 C 
HETATM    6  C7  UNL     1      43.511  80.431  36.792  1.00  0.00     0.061 C 
HETATM    7  N1  UNL     1      44.539  79.937  35.980  1.00  0.00    -0.398 N 
ATOM      8  H1  UNL     1      45.216  80.579  35.569  1.00  0.00     0.159 HD
ENDROOT
BRANCH   5   9
HETATM    9  C6  UNL     1      42.104  80.151  38.827  1.00  0.00     0.114 C 
BRANCH   9  10
HETATM   10  S1  UNL     1      42.320  79.928  40.569  1.00  0.00    -0.015 SA
BRANCH  10  11
HETATM   11  O1  UNL     1      41.842  78.584  41.063  1.00  0.00    -0.330 OA
ATOM     12  H1  UNL     1      41.307  78.640  41.846  1.00  0.00     0.227 HD
ENDBRANCH  10  11
ENDBRANCH   9  10
ENDBRANCH   5   9
TORSDOF 3
ENDMDL
