MODEL 1
REMARK VINA RESULT: -6.068765958      0.000      0.000
REMARK  2 active torsions:
REMARK  status: ('A' for Active; 'I' for Inactive)
REMARK    1  A    between atoms: C2_3  and  C3_4 
REMARK    2  A    between atoms: C5_7  and  C6_8 
ROOT
HETATM    1  N1  UNL     1      43.002  80.802  42.446  1.00  0.00    -0.197 NA
HETATM    2  C1  UNL     1      42.636  80.266  41.503  1.00  0.00     0.059 C 
HETATM    3  C2  UNL     1      42.153  79.591  40.323  1.00  0.00     0.130 C 
ENDROOT
BRANCH   3   4
HETATM    4  C3  UNL     1      43.139  79.673  39.199  1.00  0.00     0.025 C 
HETATM    5  C4  UNL     1      42.752  80.631  38.119  1.00  0.00     0.173 C 
HETATM    6  O1  UNL     1      43.149  80.097  36.906  1.00  0.00    -0.385 OA
HETATM    7  C5  UNL     1      43.853  78.950  37.135  1.00  0.00     0.132 C 
HETATM    8  C7  UNL     1      43.236  78.380  38.415  1.00  0.00     0.040 C 
BRANCH   7   9
HETATM    9  C6  UNL     1      43.776  77.932  36.046  1.00  0.00     0.118 C 
HETATM   10  S1  UNL     1      44.920  78.288  34.701  1.00  0.00    -0.095 SA
ENDBRANCH   7   9
ENDBRANCH   3   4
TORSDOF 2
ENDMDL
MODEL 2
REMARK VINA RESULT: -5.683715899      1.328      1.673
REMARK  2 active torsions:
REMARK  status: ('A' for Active; 'I' for Inactive)
REMARK    1  A    between atoms: C2_3  and  C3_4 
REMARK    2  A    between atoms: C5_7  and  C6_8 
ROOT
HETATM    1  N1  UNL     1      41.399  79.024  41.829  1.00  0.00    -0.197 NA
HETATM    2  C1  UNL     1      41.860  79.600  40.955  1.00  0.00     0.059 C 
HETATM    3  C2  UNL     1      42.451  80.341  39.866  1.00  0.00     0.130 C 
ENDROOT
BRANCH   3   4
HETATM    4  C3  UNL     1      42.419  79.561  38.589  1.00  0.00     0.025 C 
HETATM    5  C4  UNL     1      43.068  78.218  38.679  1.00  0.00     0.173 C 
HETATM    6  O1  UNL     1      43.708  77.966  37.478  1.00  0.00    -0.385 OA
HETATM    7  C5  UNL     1      43.421  78.974  36.603  1.00  0.00     0.132 C 
HETATM    8  C7  UNL     1      43.245  80.207  37.494  1.00  0.00     0.040 C 
BRANCH   7   9
HETATM    9  C6  UNL     1      44.475  79.242  35.580  1.00  0.00     0.118 C 
HETATM   10  S1  UNL     1      44.834  77.790  34.578  1.00  0.00    -0.095 SA
ENDBRANCH   7   9
ENDBRANCH   3   4
TORSDOF 2
ENDMDL
MODEL 3
REMARK VINA RESULT: -5.362720978      4.091      5.481
REMARK  2 active torsions:
REMARK  status: ('A' for Active; 'I' for Inactive)
REMARK    1  A    between atoms: C2_3  and  C3_4 
REMARK    2  A    between atoms: C5_7  and  C6_8 
ROOT
HETATM    1  N1  UNL     1      44.644  78.358  32.382  1.00  0.00    -0.197 NA
HETATM    2  C1  UNL     1      44.741  78.098  33.492  1.00  0.00     0.059 C 
HETATM    3  C2  UNL     1      44.885  77.763  34.889  1.00  0.00     0.130 C 
ENDROOT
BRANCH   3   4
HETATM    4  C3  UNL     1      43.852  78.448  35.728  1.00  0.00     0.025 C 
HETATM    5  C4  UNL     1      44.226  79.835  36.142  1.00  0.00     0.173 C 
HETATM    6  O1  UNL     1      43.754  80.045  37.426  1.00  0.00    -0.385 OA
HETATM    7  C5  UNL     1      43.016  78.962  37.809  1.00  0.00     0.132 C 
HETATM    8  C7  UNL     1      43.668  77.785  37.079  1.00  0.00     0.040 C 
BRANCH   7   9
HETATM    9  C6  UNL     1      43.002  78.694  39.277  1.00  0.00     0.118 C 
HETATM   10  S1  UNL     1      42.307  80.068  40.212  1.00  0.00    -0.095 SA
ENDBRANCH   7   9
ENDBRANCH   3   4
TORSDOF 2
ENDMDL
MODEL 4
REMARK VINA RESULT: -5.294702804      3.954      5.279
REMARK  2 active torsions:
REMARK  status: ('A' for Active; 'I' for Inactive)
REMARK    1  A    between atoms: C2_3  and  C3_4 
REMARK    2  A    between atoms: C5_7  and  C6_8 
ROOT
HETATM    1  N1  UNL     1      46.041  78.106  34.048  1.00  0.00    -0.197 NA
HETATM    2  C1  UNL     1      45.073  78.153  34.657  1.00  0.00     0.059 C 
HETATM    3  C2  UNL     1      43.843  78.201  35.408  1.00  0.00     0.130 C 
ENDROOT
BRANCH   3   4
HETATM    4  C3  UNL     1      44.094  78.464  36.860  1.00  0.00     0.025 C 
HETATM    5  C4  UNL     1      43.563  77.404  37.771  1.00  0.00     0.173 C 
HETATM    6  O1  UNL     1      43.092  78.017  38.919  1.00  0.00    -0.385 OA
HETATM    7  C5  UNL     1      43.386  79.349  38.862  1.00  0.00     0.132 C 
HETATM    8  C7  UNL     1      43.345  79.680  37.368  1.00  0.00     0.040 C 
BRANCH   7   9
HETATM    9  C6  UNL     1      42.438  80.237  39.598  1.00  0.00     0.118 C 
HETATM   10  S1  UNL     1      41.854  79.489  41.128  1.00  0.00    -0.095 SA
ENDBRANCH   7   9
ENDBRANCH   3   4
TORSDOF 2
ENDMDL
MODEL 5
REMARK VINA RESULT: -5.275061575      0.958      1.063
REMARK  2 active torsions:
REMARK  status: ('A' for Active; 'I' for Inactive)
REMARK    1  A    between atoms: C2_3  and  C3_4 
REMARK    2  A    between atoms: C5_7  and  C6_8 
ROOT
HETATM    1  N1  UNL     1      42.636  80.666  41.375  1.00  0.00    -0.197 NA
HETATM    2  C1  UNL     1      42.616  79.898  40.526  1.00  0.00     0.059 C 
HETATM    3  C2  UNL     1      42.570  78.925  39.462  1.00  0.00     0.130 C 
ENDROOT
BRANCH   3   4
HETATM    4  C3  UNL     1      43.599  79.209  38.412  1.00  0.00     0.025 C 
HETATM    5  C4  UNL     1      43.365  80.478  37.658  1.00  0.00     0.173 C 
HETATM    6  O1  UNL     1      43.739  80.274  36.342  1.00  0.00    -0.385 OA
HETATM    7  C5  UNL     1      44.296  79.034  36.227  1.00  0.00     0.132 C 
HETATM    8  C7  UNL     1      43.571  78.196  37.284  1.00  0.00     0.040 C 
BRANCH   7   9
HETATM    9  C6  UNL     1      44.140  78.392  34.888  1.00  0.00     0.118 C 
HETATM   10  S1  UNL     1      45.728  78.037  34.116  1.00  0.00    -0.095 SA
ENDBRANCH   7   9
ENDBRANCH   3   4
TORSDOF 2
ENDMDL
