MODEL 1
REMARK VINA RESULT: -5.858703113      0.000      0.000
REMARK  4 active torsions:
REMARK  status: ('A' for Active; 'I' for Inactive)
REMARK    1  A    between atoms: C6_8  and  S1_9 
REMARK    2  A    between atoms: S1_9  and  C7_10 
REMARK    3  A    between atoms: C7_10  and  C8_11 
REMARK    4  A    between atoms: C8_11  and  N2_12 
ROOT
HETATM    1  C1  UNL     1      44.743  32.966  84.213  1.00  0.00     0.010 C 
HETATM    2  C2  UNL     1      44.022  34.246  84.590  1.00  0.00    -0.013 C 
HETATM    3  C3  UNL     1      43.370  34.878  83.402  1.00  0.00     0.010 C 
HETATM    4  C4  UNL     1      44.057  36.139  82.931  1.00  0.00     0.058 C 
HETATM    5  C5  UNL     1      44.099  37.124  84.082  1.00  0.00     0.023 A 
HETATM    6  N1  UNL     1      43.750  38.368  84.108  1.00  0.00    -0.348 N 
ATOM      7  H1  UNL     1      43.387  38.811  83.264  1.00  0.00     0.167 HD
HETATM    8  C6  UNL     1      43.860  39.071  85.220  1.00  0.00     0.112 A 
HETATM    9  S2  UNL     1      44.496  37.923  86.312  1.00  0.00    -0.068 SA
HETATM   10  C14 UNL     1      44.582  36.572  85.244  1.00  0.00     0.008 A 
HETATM   11  C15 UNL     1      45.003  35.135  85.311  1.00  0.00     0.052 C 
ENDROOT
BRANCH   8  12
HETATM   12  S1  UNL     1      43.450  40.773  85.598  1.00  0.00    -0.103 SA
BRANCH  12  13
HETATM   13  C7  UNL     1      44.837  41.871  85.312  1.00  0.00     0.111 C 
BRANCH  13  14
HETATM   14  C8  UNL     1      44.615  42.779  84.130  1.00  0.00     0.283 C 
BRANCH  14  15
HETATM   15  N2  UNL     1      45.811  43.351  83.624  1.00  0.00     0.089 N 
HETATM   16  C9  UNL     1      46.167  42.827  82.347  1.00  0.00     0.272 C 
HETATM   17  C10 UNL     1      47.631  42.376  82.324  1.00  0.00     0.030 C 
HETATM   18  C11 UNL     1      48.436  43.655  82.584  1.00  0.00     0.003 C 
HETATM   19  C12 UNL     1      48.046  44.202  83.913  1.00  0.00     0.030 C 
HETATM   20  C13 UNL     1      46.872  43.489  84.561  1.00  0.00     0.272 C 
ENDBRANCH  14  15
ENDBRANCH  13  14
ENDBRANCH  12  13
ENDBRANCH   8  12
TORSDOF 4
ENDMDL
MODEL 2
REMARK VINA RESULT: -5.827483149      1.196      7.617
REMARK  4 active torsions:
REMARK  status: ('A' for Active; 'I' for Inactive)
REMARK    1  A    between atoms: C6_8  and  S1_9 
REMARK    2  A    between atoms: S1_9  and  C7_10 
REMARK    3  A    between atoms: C7_10  and  C8_11 
REMARK    4  A    between atoms: C8_11  and  N2_12 
ROOT
HETATM    1  C1  UNL     1      48.895  44.653  82.473  1.00  0.00     0.010 C 
HETATM    2  C2  UNL     1      48.254  43.492  83.209  1.00  0.00    -0.013 C 
HETATM    3  C3  UNL     1      47.696  42.482  82.259  1.00  0.00     0.010 C 
HETATM    4  C4  UNL     1      46.186  42.470  82.203  1.00  0.00     0.058 C 
HETATM    5  C5  UNL     1      45.655  42.214  83.599  1.00  0.00     0.023 A 
HETATM    6  N1  UNL     1      44.775  41.354  83.996  1.00  0.00    -0.348 N 
ATOM      7  H1  UNL     1      44.337  40.728  83.320  1.00  0.00     0.167 HD
HETATM    8  C6  UNL     1      44.438  41.281  85.270  1.00  0.00     0.112 A 
HETATM    9  S2  UNL     1      45.413  42.493  85.973  1.00  0.00    -0.068 SA
HETATM   10  C14 UNL     1      46.216  43.036  84.547  1.00  0.00     0.008 A 
HETATM   11  C15 UNL     1      47.251  44.058  84.182  1.00  0.00     0.052 C 
ENDROOT
BRANCH   8  12
HETATM   12  S1  UNL     1      43.298  40.207  86.140  1.00  0.00    -0.103 SA
BRANCH  12  13
HETATM   13  C7  UNL     1      43.047  38.661  85.272  1.00  0.00     0.111 C 
BRANCH  13  14
HETATM   14  C8  UNL     1      44.283  37.799  85.264  1.00  0.00     0.283 C 
BRANCH  14  15
HETATM   15  N2  UNL     1      44.030  36.451  84.898  1.00  0.00     0.089 N 
HETATM   16  C9  UNL     1      44.769  35.525  85.691  1.00  0.00     0.272 C 
HETATM   17  C10 UNL     1      45.506  34.510  84.812  1.00  0.00     0.030 C 
HETATM   18  C11 UNL     1      44.392  33.759  84.070  1.00  0.00     0.003 C 
HETATM   19  C12 UNL     1      43.619  34.737  83.256  1.00  0.00     0.030 C 
HETATM   20  C13 UNL     1      43.994  36.188  83.501  1.00  0.00     0.272 C 
ENDBRANCH  14  15
ENDBRANCH  13  14
ENDBRANCH  12  13
ENDBRANCH   8  12
TORSDOF 4
ENDMDL
MODEL 3
REMARK VINA RESULT: -5.722797100      4.782      8.663
REMARK  4 active torsions:
REMARK  status: ('A' for Active; 'I' for Inactive)
REMARK    1  A    between atoms: C6_8  and  S1_9 
REMARK    2  A    between atoms: S1_9  and  C7_10 
REMARK    3  A    between atoms: C7_10  and  C8_11 
REMARK    4  A    between atoms: C8_11  and  N2_12 
ROOT
HETATM    1  C1  UNL     1      49.454  42.476  92.568  1.00  0.00     0.010 C 
HETATM    2  C2  UNL     1      48.793  41.235  91.999  1.00  0.00    -0.013 C 
HETATM    3  C3  UNL     1      49.293  40.929  90.623  1.00  0.00     0.010 C 
HETATM    4  C4  UNL     1      48.283  41.209  89.535  1.00  0.00     0.058 C 
HETATM    5  C5  UNL     1      47.032  40.402  89.820  1.00  0.00     0.023 A 
HETATM    6  N1  UNL     1      46.361  39.626  89.033  1.00  0.00    -0.348 N 
ATOM      7  H1  UNL     1      46.666  39.495  88.069  1.00  0.00     0.167 HD
HETATM    8  C6  UNL     1      45.283  39.001  89.470  1.00  0.00     0.112 A 
HETATM    9  S2  UNL     1      45.191  39.528  91.091  1.00  0.00    -0.068 SA
HETATM   10  C14 UNL     1      46.582  40.547  91.110  1.00  0.00     0.008 A 
HETATM   11  C15 UNL     1      47.300  41.420  92.095  1.00  0.00     0.052 C 
ENDROOT
BRANCH   8  12
HETATM   12  S1  UNL     1      44.163  37.857  88.667  1.00  0.00    -0.103 SA
BRANCH  12  13
HETATM   13  C7  UNL     1      45.024  36.771  87.531  1.00  0.00     0.111 C 
BRANCH  13  14
HETATM   14  C8  UNL     1      44.571  36.955  86.106  1.00  0.00     0.283 C 
BRANCH  14  15
HETATM   15  N2  UNL     1      44.245  35.738  85.454  1.00  0.00     0.089 N 
HETATM   16  C9  UNL     1      44.770  34.599  86.134  1.00  0.00     0.272 C 
HETATM   17  C10 UNL     1      45.524  33.679  85.169  1.00  0.00     0.030 C 
HETATM   18  C11 UNL     1      44.463  33.218  84.162  1.00  0.00     0.003 C 
HETATM   19  C12 UNL     1      43.912  34.415  83.468  1.00  0.00     0.030 C 
HETATM   20  C13 UNL     1      44.386  35.740  84.039  1.00  0.00     0.272 C 
ENDBRANCH  14  15
ENDBRANCH  13  14
ENDBRANCH  12  13
ENDBRANCH   8  12
TORSDOF 4
ENDMDL
MODEL 4
REMARK VINA RESULT: -5.706917590      4.361      8.086
REMARK  4 active torsions:
REMARK  status: ('A' for Active; 'I' for Inactive)
REMARK    1  A    between atoms: C6_8  and  S1_9 
REMARK    2  A    between atoms: S1_9  and  C7_10 
REMARK    3  A    between atoms: C7_10  and  C8_11 
REMARK    4  A    between atoms: C8_11  and  N2_12 
ROOT
HETATM    1  C1  UNL     1      48.272  42.129  92.288  1.00  0.00     0.010 C 
HETATM    2  C2  UNL     1      47.994  40.863  91.502  1.00  0.00    -0.013 C 
HETATM    3  C3  UNL     1      48.666  40.887  90.167  1.00  0.00     0.010 C 
HETATM    4  C4  UNL     1      47.712  41.072  89.010  1.00  0.00     0.058 C 
HETATM    5  C5  UNL     1      46.685  39.958  89.050  1.00  0.00     0.023 A 
HETATM    6  N1  UNL     1      46.298  39.166  88.104  1.00  0.00    -0.348 N 
ATOM      7  H1  UNL     1      46.705  39.253  87.173  1.00  0.00     0.167 HD
HETATM    8  C6  UNL     1      45.381  38.246  88.336  1.00  0.00     0.112 A 
HETATM    9  S2  UNL     1      45.025  38.496  89.986  1.00  0.00    -0.068 SA
HETATM   10  C14 UNL     1      46.109  39.804  90.288  1.00  0.00     0.008 A 
HETATM   11  C15 UNL     1      46.500  40.670  91.447  1.00  0.00     0.052 C 
ENDROOT
BRANCH   8  12
HETATM   12  S1  UNL     1      44.655  36.996  87.277  1.00  0.00    -0.103 SA
BRANCH  12  13
HETATM   13  C7  UNL     1      42.867  37.104  87.250  1.00  0.00     0.111 C 
BRANCH  13  14
HETATM   14  C8  UNL     1      42.241  36.040  86.386  1.00  0.00     0.283 C 
BRANCH  14  15
HETATM   15  N2  UNL     1      42.810  35.958  85.089  1.00  0.00     0.089 N 
HETATM   16  C9  UNL     1      42.269  36.928  84.195  1.00  0.00     0.272 C 
HETATM   17  C10 UNL     1      41.822  36.280  82.881  1.00  0.00     0.030 C 
HETATM   18  C11 UNL     1      43.107  35.701  82.276  1.00  0.00     0.003 C 
HETATM   19  C12 UNL     1      43.670  34.700  83.223  1.00  0.00     0.030 C 
HETATM   20  C13 UNL     1      42.963  34.644  84.566  1.00  0.00     0.272 C 
ENDBRANCH  14  15
ENDBRANCH  13  14
ENDBRANCH  12  13
ENDBRANCH   8  12
TORSDOF 4
ENDMDL
MODEL 5
REMARK VINA RESULT: -5.696075129      4.267      7.837
REMARK  4 active torsions:
REMARK  status: ('A' for Active; 'I' for Inactive)
REMARK    1  A    between atoms: C6_8  and  S1_9 
REMARK    2  A    between atoms: S1_9  and  C7_10 
REMARK    3  A    between atoms: C7_10  and  C8_11 
REMARK    4  A    between atoms: C8_11  and  N2_12 
ROOT
HETATM    1  C1  UNL     1      47.104  41.863  91.805  1.00  0.00     0.010 C 
HETATM    2  C2  UNL     1      47.139  40.569  91.014  1.00  0.00    -0.013 C 
HETATM    3  C3  UNL     1      47.814  40.752  89.692  1.00  0.00     0.010 C 
HETATM    4  C4  UNL     1      46.866  40.719  88.517  1.00  0.00     0.058 C 
HETATM    5  C5  UNL     1      46.120  39.400  88.536  1.00  0.00     0.023 A 
HETATM    6  N1  UNL     1      45.943  38.545  87.583  1.00  0.00    -0.348 N 
ATOM      7  H1  UNL     1      46.338  38.726  86.660  1.00  0.00     0.167 HD
HETATM    8  C6  UNL     1      45.256  37.438  87.796  1.00  0.00     0.112 A 
HETATM    9  S2  UNL     1      44.820  37.593  89.439  1.00  0.00    -0.068 SA
HETATM   10  C14 UNL     1      45.570  39.113  89.762  1.00  0.00     0.008 A 
HETATM   11  C15 UNL     1      45.729  40.041  90.928  1.00  0.00     0.052 C 
ENDROOT
BRANCH   8  12
HETATM   12  S1  UNL     1      44.856  36.061  86.723  1.00  0.00    -0.103 SA
BRANCH  12  13
HETATM   13  C7  UNL     1      43.090  35.906  86.469  1.00  0.00     0.111 C 
BRANCH  13  14
HETATM   14  C8  UNL     1      42.730  34.686  85.662  1.00  0.00     0.283 C 
BRANCH  14  15
HETATM   15  N2  UNL     1      42.467  34.967  84.297  1.00  0.00     0.089 N 
HETATM   16  C9  UNL     1      43.630  34.841  83.480  1.00  0.00     0.272 C 
HETATM   17  C10 UNL     1      43.821  36.079  82.598  1.00  0.00     0.030 C 
HETATM   18  C11 UNL     1      42.578  36.111  81.699  1.00  0.00     0.003 C 
HETATM   19  C12 UNL     1      41.370  36.229  82.561  1.00  0.00     0.030 C 
HETATM   20  C13 UNL     1      41.650  36.105  84.049  1.00  0.00     0.272 C 
ENDBRANCH  14  15
ENDBRANCH  13  14
ENDBRANCH  12  13
ENDBRANCH   8  12
TORSDOF 4
ENDMDL
