MODEL 1
REMARK VINA RESULT: -7.338527400      0.000      0.000
REMARK  4 active torsions:
REMARK  status: ('A' for Active; 'I' for Inactive)
REMARK    1  A    between atoms: O1_2  and  C2_3 
REMARK    2  A    between atoms: C4_5  and  C5_6 
REMARK    3  A    between atoms: C8_9  and  C9_10 
REMARK    4  A    between atoms: C11_12  and  C12_13 
ROOT
HETATM    1  C2  UNL     1      42.480  38.019  87.498  1.00  0.00     0.119 A 
HETATM    2  C3  UNL     1      42.107  37.425  86.321  1.00  0.00     0.051 A 
HETATM    3  C4  UNL     1      42.849  36.380  85.765  1.00  0.00    -0.023 A 
HETATM    4  C8  UNL     1      43.947  35.944  86.390  1.00  0.00     0.069 A 
HETATM    5  N4  UNL     1      44.298  36.560  87.572  1.00  0.00    -0.332 N 
ATOM      6  H4  UNL     1      45.137  36.228  88.048  1.00  0.00     0.168 HD
HETATM    7  C16 UNL     1      43.625  37.554  88.136  1.00  0.00     0.176 A 
HETATM    8  O2  UNL     1      44.012  38.085  89.266  1.00  0.00    -0.339 OA
HETATM    9  C17 UNL     1      44.394  38.599  90.366  1.00  0.00     0.211 C 
ENDROOT
BRANCH   1  10
HETATM   10  O1  UNL     1      41.813  39.062  88.122  1.00  0.00    -0.352 OA
HETATM   11  C1  UNL     1      40.580  38.766  88.735  1.00  0.00     0.210 C 
ENDBRANCH   1  10
BRANCH   4  12
HETATM   12  C9  UNL     1      44.775  34.844  85.944  1.00  0.00     0.077 A 
HETATM   13  C10 UNL     1      46.103  34.578  85.881  1.00  0.00     0.061 A 
HETATM   14  C11 UNL     1      46.318  33.382  85.214  1.00  0.00     0.058 A 
HETATM   15  N2  UNL     1      45.108  32.943  84.888  1.00  0.00    -0.302 N 
HETATM   16  N3  UNL     1      44.200  33.770  85.298  1.00  0.00    -0.298 N 
ATOM     17  H2  UNL     1      44.921  32.076  84.385  1.00  0.00     0.186 HD
ATOM     18  H3  UNL     1      43.196  33.644  85.161  1.00  0.00     0.187 HD
BRANCH  14  19
HETATM   19  C12 UNL     1      47.610  32.748  84.841  1.00  0.00     0.236 C 
HETATM   20  C13 UNL     1      47.931  31.671  85.901  1.00  0.00     0.041 C 
HETATM   21  C14 UNL     1      49.413  31.528  85.666  1.00  0.00     0.030 C 
HETATM   22  C15 UNL     1      49.860  32.948  85.426  1.00  0.00     0.233 C 
HETATM   23  N1  UNL     1      48.701  33.653  84.944  1.00  0.00    -0.065 N 
ATOM     24  H12 UNL     1      48.882  34.142  84.068  1.00  0.00     0.278 HD
ATOM     25  H11 UNL     1      48.476  34.465  85.519  1.00  0.00     0.278 HD
ENDBRANCH  14  19
ENDBRANCH   4  12
BRANCH   3  26
HETATM   26  C5  UNL     1      42.337  35.920  84.457  1.00  0.00     0.013 C 
HETATM   27  C6  UNL     1      40.986  36.642  84.171  1.00  0.00     0.015 C 
HETATM   28  C7  UNL     1      43.242  36.519  83.339  1.00  0.00     0.015 C 
ENDBRANCH   3  26
TORSDOF 4
ENDMDL
MODEL 2
REMARK VINA RESULT: -7.250325776      2.490      2.858
REMARK  4 active torsions:
REMARK  status: ('A' for Active; 'I' for Inactive)
REMARK    1  A    between atoms: O1_2  and  C2_3 
REMARK    2  A    between atoms: C4_5  and  C5_6 
REMARK    3  A    between atoms: C8_9  and  C9_10 
REMARK    4  A    between atoms: C11_12  and  C12_13 
ROOT
HETATM    1  C2  UNL     1      39.983  35.998  85.701  1.00  0.00     0.119 A 
HETATM    2  C3  UNL     1      40.703  36.090  84.539  1.00  0.00     0.051 A 
HETATM    3  C4  UNL     1      42.041  35.692  84.476  1.00  0.00    -0.023 A 
HETATM    4  C8  UNL     1      42.637  35.209  85.571  1.00  0.00     0.069 A 
HETATM    5  N4  UNL     1      41.888  35.129  86.725  1.00  0.00    -0.332 N 
ATOM      6  H4  UNL     1      42.345  34.761  87.560  1.00  0.00     0.168 HD
HETATM    7  C16 UNL     1      40.618  35.494  86.831  1.00  0.00     0.176 A 
HETATM    8  O2  UNL     1      39.967  35.380  87.957  1.00  0.00    -0.339 OA
HETATM    9  C17 UNL     1      39.337  35.267  89.058  1.00  0.00     0.211 C 
ENDROOT
BRANCH   1  10
HETATM   10  O1  UNL     1      38.657  36.372  85.860  1.00  0.00    -0.352 OA
HETATM   11  C1  UNL     1      37.682  35.579  85.224  1.00  0.00     0.210 C 
ENDBRANCH   1  10
BRANCH   4  12
HETATM   12  C9  UNL     1      43.999  34.722  85.629  1.00  0.00     0.077 A 
HETATM   13  C10 UNL     1      44.810  33.978  84.837  1.00  0.00     0.061 A 
HETATM   14  C11 UNL     1      46.002  33.712  85.492  1.00  0.00     0.058 A 
HETATM   15  N2  UNL     1      45.891  34.308  86.672  1.00  0.00    -0.302 N 
HETATM   16  N3  UNL     1      44.743  34.898  86.777  1.00  0.00    -0.298 N 
ATOM     17  H2  UNL     1      46.609  34.302  87.396  1.00  0.00     0.186 HD
ATOM     18  H3  UNL     1      44.431  35.420  87.596  1.00  0.00     0.187 HD
BRANCH  14  19
HETATM   19  C12 UNL     1      47.139  32.867  85.039  1.00  0.00     0.236 C 
HETATM   20  C13 UNL     1      47.532  31.939  86.210  1.00  0.00     0.041 C 
HETATM   21  C14 UNL     1      48.928  31.572  85.775  1.00  0.00     0.030 C 
HETATM   22  C15 UNL     1      49.465  32.866  85.219  1.00  0.00     0.233 C 
HETATM   23  N1  UNL     1      48.315  33.629  84.808  1.00  0.00    -0.065 N 
ATOM     24  H12 UNL     1      48.388  33.945  83.841  1.00  0.00     0.278 HD
ATOM     25  H11 UNL     1      48.277  34.544  85.258  1.00  0.00     0.278 HD
ENDBRANCH  14  19
ENDBRANCH   4  12
BRANCH   3  26
HETATM   26  C5  UNL     1      42.672  35.937  83.163  1.00  0.00     0.013 C 
HETATM   27  C6  UNL     1      41.665  36.716  82.265  1.00  0.00     0.015 C 
HETATM   28  C7  UNL     1      43.795  37.001  83.350  1.00  0.00     0.015 C 
ENDBRANCH   3  26
TORSDOF 4
ENDMDL
MODEL 3
REMARK VINA RESULT: -6.694148801      3.483      6.874
REMARK  4 active torsions:
REMARK  status: ('A' for Active; 'I' for Inactive)
REMARK    1  A    between atoms: O1_2  and  C2_3 
REMARK    2  A    between atoms: C4_5  and  C5_6 
REMARK    3  A    between atoms: C8_9  and  C9_10 
REMARK    4  A    between atoms: C11_12  and  C12_13 
ROOT
HETATM    1  C2  UNL     1      43.550  36.731  87.567  1.00  0.00     0.119 A 
HETATM    2  C3  UNL     1      43.791  36.246  86.309  1.00  0.00     0.051 A 
HETATM    3  C4  UNL     1      42.813  36.285  85.312  1.00  0.00    -0.023 A 
HETATM    4  C8  UNL     1      41.614  36.808  85.585  1.00  0.00     0.069 A 
HETATM    5  N4  UNL     1      41.400  37.289  86.858  1.00  0.00    -0.332 N 
ATOM      6  H4  UNL     1      40.484  37.688  87.066  1.00  0.00     0.168 HD
HETATM    7  C16 UNL     1      42.297  37.273  87.835  1.00  0.00     0.176 A 
HETATM    8  O2  UNL     1      42.027  37.757  89.018  1.00  0.00    -0.339 OA
HETATM    9  C17 UNL     1      41.758  38.229  90.170  1.00  0.00     0.211 C 
ENDROOT
BRANCH   1  10
HETATM   10  O1  UNL     1      44.453  36.731  88.619  1.00  0.00    -0.352 OA
HETATM   11  C1  UNL     1      45.246  37.882  88.791  1.00  0.00     0.210 C 
ENDBRANCH   1  10
BRANCH   4  12
HETATM   12  C9  UNL     1      40.533  36.950  84.632  1.00  0.00     0.077 A 
HETATM   13  C10 UNL     1      39.464  36.212  84.245  1.00  0.00     0.061 A 
HETATM   14  C11 UNL     1      38.838  36.811  83.162  1.00  0.00     0.058 A 
HETATM   15  N2  UNL     1      39.545  37.908  82.917  1.00  0.00    -0.302 N 
HETATM   16  N3  UNL     1      40.529  38.011  83.751  1.00  0.00    -0.298 N 
ATOM     17  H2  UNL     1      39.340  38.576  82.174  1.00  0.00     0.186 HD
ATOM     18  H3  UNL     1      41.209  38.771  83.756  1.00  0.00     0.187 HD
BRANCH  14  19
HETATM   19  C12 UNL     1      37.687  36.312  82.365  1.00  0.00     0.236 C 
HETATM   20  C13 UNL     1      37.212  34.986  83.000  1.00  0.00     0.041 C 
HETATM   21  C14 UNL     1      36.451  34.412  81.832  1.00  0.00     0.030 C 
HETATM   22  C15 UNL     1      37.315  34.774  80.650  1.00  0.00     0.233 C 
HETATM   23  N1  UNL     1      38.069  35.934  81.050  1.00  0.00    -0.065 N 
ATOM     24  H12 UNL     1      37.978  36.702  80.385  1.00  0.00     0.278 HD
ATOM     25  H11 UNL     1      39.075  35.788  80.967  1.00  0.00     0.278 HD
ENDBRANCH  14  19
ENDBRANCH   4  12
BRANCH   3  26
HETATM   26  C5  UNL     1      43.230  35.645  84.047  1.00  0.00     0.013 C 
HETATM   27  C6  UNL     1      43.931  36.715  83.157  1.00  0.00     0.015 C 
HETATM   28  C7  UNL     1      44.415  34.682  84.352  1.00  0.00     0.015 C 
ENDBRANCH   3  26
TORSDOF 4
ENDMDL
MODEL 4
REMARK VINA RESULT: -6.537962198      2.112      3.798
REMARK  4 active torsions:
REMARK  status: ('A' for Active; 'I' for Inactive)
REMARK    1  A    between atoms: O1_2  and  C2_3 
REMARK    2  A    between atoms: C4_5  and  C5_6 
REMARK    3  A    between atoms: C8_9  and  C9_10 
REMARK    4  A    between atoms: C11_12  and  C12_13 
ROOT
HETATM    1  C2  UNL     1      40.661  38.210  85.139  1.00  0.00     0.119 A 
HETATM    2  C3  UNL     1      41.566  38.529  86.116  1.00  0.00     0.051 A 
HETATM    3  C4  UNL     1      42.705  37.751  86.339  1.00  0.00    -0.023 A 
HETATM    4  C8  UNL     1      42.923  36.670  85.583  1.00  0.00     0.069 A 
HETATM    5  N4  UNL     1      41.996  36.373  84.607  1.00  0.00    -0.332 N 
ATOM      6  H4  UNL     1      42.163  35.547  84.032  1.00  0.00     0.168 HD
HETATM    7  C16 UNL     1      40.903  37.082  84.361  1.00  0.00     0.176 A 
HETATM    8  O2  UNL     1      40.072  36.746  83.411  1.00  0.00    -0.339 OA
HETATM    9  C17 UNL     1      39.264  36.413  82.484  1.00  0.00     0.211 C 
ENDROOT
BRANCH   1  10
HETATM   10  O1  UNL     1      39.504  38.916  84.848  1.00  0.00    -0.352 OA
HETATM   11  C1  UNL     1      39.651  40.161  84.208  1.00  0.00     0.210 C 
ENDBRANCH   1  10
BRANCH   4  12
HETATM   12  C9  UNL     1      44.083  35.808  85.681  1.00  0.00     0.077 A 
HETATM   13  C10 UNL     1      44.920  35.187  84.814  1.00  0.00     0.061 A 
HETATM   14  C11 UNL     1      45.792  34.360  85.504  1.00  0.00     0.058 A 
HETATM   15  N2  UNL     1      45.466  34.500  86.783  1.00  0.00    -0.302 N 
HETATM   16  N3  UNL     1      44.481  35.330  86.912  1.00  0.00    -0.298 N 
ATOM     17  H2  UNL     1      45.927  34.021  87.556  1.00  0.00     0.186 HD
ATOM     18  H3  UNL     1      44.057  35.595  87.802  1.00  0.00     0.187 HD
BRANCH  14  19
HETATM   19  C12 UNL     1      46.815  33.431  84.957  1.00  0.00     0.236 C 
HETATM   20  C13 UNL     1      46.978  32.265  85.958  1.00  0.00     0.041 C 
HETATM   21  C14 UNL     1      48.329  31.755  85.524  1.00  0.00     0.030 C 
HETATM   22  C15 UNL     1      49.096  33.021  85.234  1.00  0.00     0.233 C 
HETATM   23  N1  UNL     1      48.108  34.019  84.917  1.00  0.00    -0.065 N 
ATOM     24  H12 UNL     1      48.296  34.480  84.027  1.00  0.00     0.278 HD
ATOM     25  H11 UNL     1      48.178  34.838  85.521  1.00  0.00     0.278 HD
ENDBRANCH  14  19
ENDBRANCH   4  12
BRANCH   3  26
HETATM   26  C5  UNL     1      43.521  38.206  87.484  1.00  0.00     0.013 C 
HETATM   27  C6  UNL     1      43.532  39.764  87.498  1.00  0.00     0.015 C 
HETATM   28  C7  UNL     1      42.738  37.898  88.795  1.00  0.00     0.015 C 
ENDBRANCH   3  26
TORSDOF 4
ENDMDL
MODEL 5
REMARK VINA RESULT: -6.477345525      3.420      6.793
REMARK  4 active torsions:
REMARK  status: ('A' for Active; 'I' for Inactive)
REMARK    1  A    between atoms: O1_2  and  C2_3 
REMARK    2  A    between atoms: C4_5  and  C5_6 
REMARK    3  A    between atoms: C8_9  and  C9_10 
REMARK    4  A    between atoms: C11_12  and  C12_13 
ROOT
HETATM    1  C2  UNL     1      43.418  36.744  87.605  1.00  0.00     0.119 A 
HETATM    2  C3  UNL     1      43.746  36.263  86.365  1.00  0.00     0.051 A 
HETATM    3  C4  UNL     1      42.782  36.104  85.366  1.00  0.00    -0.023 A 
HETATM    4  C8  UNL     1      41.510  36.430  85.619  1.00  0.00     0.069 A 
HETATM    5  N4  UNL     1      41.210  36.912  86.874  1.00  0.00    -0.332 N 
ATOM      6  H4  UNL     1      40.239  37.160  87.066  1.00  0.00     0.168 HD
HETATM    7  C16 UNL     1      42.090  37.079  87.852  1.00  0.00     0.176 A 
HETATM    8  O2  UNL     1      41.736  37.551  89.017  1.00  0.00    -0.339 OA
HETATM    9  C17 UNL     1      41.384  38.011  90.151  1.00  0.00     0.211 C 
ENDROOT
BRANCH   1  10
HETATM   10  O1  UNL     1      44.301  36.930  88.657  1.00  0.00    -0.352 OA
HETATM   11  C1  UNL     1      45.096  38.091  88.637  1.00  0.00     0.210 C 
ENDBRANCH   1  10
BRANCH   4  12
HETATM   12  C9  UNL     1      40.428  36.357  84.660  1.00  0.00     0.077 A 
HETATM   13  C10 UNL     1      40.265  36.626  83.342  1.00  0.00     0.061 A 
HETATM   14  C11 UNL     1      38.931  36.491  82.989  1.00  0.00     0.058 A 
HETATM   15  N2  UNL     1      38.310  36.136  84.107  1.00  0.00    -0.302 N 
HETATM   16  N3  UNL     1      39.152  36.053  85.087  1.00  0.00    -0.298 N 
ATOM     17  H2  UNL     1      37.310  35.955  84.184  1.00  0.00     0.186 HD
ATOM     18  H3  UNL     1      38.906  35.798  86.044  1.00  0.00     0.187 HD
BRANCH  14  19
HETATM   19  C12 UNL     1      38.287  36.769  81.678  1.00  0.00     0.236 C 
HETATM   20  C13 UNL     1      37.508  35.502  81.257  1.00  0.00     0.041 C 
HETATM   21  C14 UNL     1      37.381  35.772  79.779  1.00  0.00     0.030 C 
HETATM   22  C15 UNL     1      38.722  36.362  79.422  1.00  0.00     0.233 C 
HETATM   23  N1  UNL     1      39.238  36.937  80.637  1.00  0.00    -0.065 N 
ATOM     24  H12 UNL     1      39.512  37.912  80.517  1.00  0.00     0.278 HD
ATOM     25  H11 UNL     1      40.153  36.559  80.885  1.00  0.00     0.278 HD
ENDBRANCH  14  19
ENDBRANCH   4  12
BRANCH   3  26
HETATM   26  C5  UNL     1      43.308  35.500  84.124  1.00  0.00     0.013 C 
HETATM   27  C6  UNL     1      43.986  36.618  83.277  1.00  0.00     0.015 C 
HETATM   28  C7  UNL     1      44.535  34.614  84.492  1.00  0.00     0.015 C 
ENDBRANCH   3  26
TORSDOF 4
ENDMDL
