MODEL 1
REMARK VINA RESULT: -6.576977269      0.000      0.000
REMARK  7 active torsions:
REMARK  status: ('A' for Active; 'I' for Inactive)
REMARK    1  A    between atoms: C2_2  and  C3_3 
REMARK    2  A    between atoms: C3_3  and  O2_5 
REMARK    3  A    between atoms: O2_5  and  C4_6 
REMARK    4  A    between atoms: C4_6  and  C5_7 
REMARK    5  A    between atoms: C4_6  and  C11_20 
REMARK    6  A    between atoms: C5_7  and  C6_8 
REMARK    7  A    between atoms: C9_13  and  N2_14 
ROOT
HETATM    1  C5  UNL     1      44.075  34.942  86.654  1.00  0.00     0.065 C 
ENDROOT
BRANCH   1   2
HETATM    2  C4  UNL     1      43.055  36.021  86.726  1.00  0.00     0.138 C 
BRANCH   2   3
HETATM    3  O2  UNL     1      42.861  36.712  87.877  1.00  0.00    -0.316 OA
BRANCH   3   4
HETATM    4  C3  UNL     1      43.501  37.850  88.333  1.00  0.00     0.258 C 
HETATM    5  O1  UNL     1      42.758  38.866  88.257  1.00  0.00    -0.265 OA
BRANCH   4   6
HETATM    6  C2  UNL     1      44.879  37.869  88.842  1.00  0.00     0.106 C 
HETATM    7  C1  UNL     1      44.980  38.594  90.171  1.00  0.00     0.015 C 
ENDBRANCH   4   6
ENDBRANCH   3   4
ENDBRANCH   2   3
BRANCH   2   8
HETATM    8  C11 UNL     1      41.725  35.443  86.264  1.00  0.00     0.015 C 
HETATM    9  C12 UNL     1      40.856  35.053  87.410  1.00  0.00     0.007 C 
HETATM   10  C13 UNL     1      39.488  34.689  86.939  1.00  0.00     0.000 C 
HETATM   11  C14 UNL     1      38.868  35.864  86.244  1.00  0.00     0.000 C 
HETATM   12  C15 UNL     1      39.679  36.114  84.984  1.00  0.00     0.000 C 
HETATM   13  C16 UNL     1      41.111  36.449  85.326  1.00  0.00     0.007 C 
ENDBRANCH   2   8
ENDBRANCH   1   2
BRANCH   1  14
HETATM   14  C6  UNL     1      44.193  34.362  85.241  1.00  0.00     0.138 C 
HETATM   15  C7  UNL     1      45.419  34.970  84.617  1.00  0.00     0.093 C 
HETATM   16  C8  UNL     1      46.556  34.037  84.980  1.00  0.00     0.054 A 
HETATM   17  N1  UNL     1      47.865  34.087  85.009  1.00  0.00    -0.337 N 
HETATM   18  C10 UNL     1      45.946  32.879  85.358  1.00  0.00     0.136 A 
HETATM   19  C9  UNL     1      48.528  33.003  85.405  1.00  0.00     0.145 A 
ATOM     20  H1  UNL     1      48.363  34.934  84.734  1.00  0.00     0.168 HD
HETATM   21  S1  UNL     1      47.285  31.891  85.745  1.00  0.00    -0.028 SA
HETATM   22  O3  UNL     1      44.537  32.997  85.267  1.00  0.00    -0.336 OA
BRANCH  19  23
HETATM   23  N2  UNL     1      49.825  32.817  85.514  1.00  0.00    -0.380 N 
ATOM     24  H22 UNL     1      50.535  33.504  85.769  1.00  0.00     0.158 HD
ATOM     25  H21 UNL     1      50.368  31.965  85.369  1.00  0.00     0.158 HD
ENDBRANCH  19  23
ENDBRANCH   1  14
TORSDOF 7
ENDMDL
MODEL 2
REMARK VINA RESULT: -6.572507595      1.208      3.796
REMARK  7 active torsions:
REMARK  status: ('A' for Active; 'I' for Inactive)
REMARK    1  A    between atoms: C2_2  and  C3_3 
REMARK    2  A    between atoms: C3_3  and  O2_5 
REMARK    3  A    between atoms: O2_5  and  C4_6 
REMARK    4  A    between atoms: C4_6  and  C5_7 
REMARK    5  A    between atoms: C4_6  and  C11_20 
REMARK    6  A    between atoms: C5_7  and  C6_8 
REMARK    7  A    between atoms: C9_13  and  N2_14 
ROOT
HETATM    1  C5  UNL     1      44.044  35.011  86.685  1.00  0.00     0.065 C 
ENDROOT
BRANCH   1   2
HETATM    2  C4  UNL     1      42.919  35.975  86.810  1.00  0.00     0.138 C 
BRANCH   2   3
HETATM    3  O2  UNL     1      42.178  36.314  85.725  1.00  0.00    -0.316 OA
BRANCH   3   4
HETATM    4  C3  UNL     1      40.828  36.125  85.494  1.00  0.00     0.258 C 
HETATM    5  O1  UNL     1      40.562  36.115  84.261  1.00  0.00    -0.265 OA
BRANCH   4   6
HETATM    6  C2  UNL     1      39.829  35.958  86.557  1.00  0.00     0.106 C 
HETATM    7  C1  UNL     1      39.737  34.517  87.024  1.00  0.00     0.015 C 
ENDBRANCH   4   6
ENDBRANCH   3   4
ENDBRANCH   2   3
BRANCH   2   8
HETATM    8  C11 UNL     1      43.454  37.241  87.461  1.00  0.00     0.015 C 
HETATM    9  C12 UNL     1      42.460  37.860  88.383  1.00  0.00     0.007 C 
HETATM   10  C13 UNL     1      43.078  38.973  89.162  1.00  0.00     0.000 C 
HETATM   11  C14 UNL     1      44.220  38.439  89.975  1.00  0.00     0.000 C 
HETATM   12  C15 UNL     1      45.289  37.985  88.995  1.00  0.00     0.000 C 
HETATM   13  C16 UNL     1      44.767  36.882  88.105  1.00  0.00     0.007 C 
ENDBRANCH   2   8
ENDBRANCH   1   2
BRANCH   1  14
HETATM   14  C6  UNL     1      44.147  34.434  85.269  1.00  0.00     0.138 C 
HETATM   15  C7  UNL     1      45.374  35.033  84.637  1.00  0.00     0.093 C 
HETATM   16  C8  UNL     1      46.504  34.088  84.990  1.00  0.00     0.054 A 
HETATM   17  N1  UNL     1      47.815  34.126  85.009  1.00  0.00    -0.337 N 
HETATM   18  C10 UNL     1      45.887  32.934  85.369  1.00  0.00     0.136 A 
HETATM   19  C9  UNL     1      48.471  33.035  85.397  1.00  0.00     0.145 A 
ATOM     20  H1  UNL     1      48.318  34.969  84.734  1.00  0.00     0.168 HD
HETATM   21  S1  UNL     1      47.219  31.933  85.743  1.00  0.00    -0.028 SA
HETATM   22  O3  UNL     1      44.478  33.066  85.289  1.00  0.00    -0.336 OA
BRANCH  19  23
HETATM   23  N2  UNL     1      49.766  32.836  85.496  1.00  0.00    -0.380 N 
ATOM     24  H22 UNL     1      50.452  32.805  84.741  1.00  0.00     0.158 HD
ATOM     25  H21 UNL     1      50.332  32.677  86.330  1.00  0.00     0.158 HD
ENDBRANCH  19  23
ENDBRANCH   1  14
TORSDOF 7
ENDMDL
MODEL 3
REMARK VINA RESULT: -6.451808185      4.441      6.873
REMARK  7 active torsions:
REMARK  status: ('A' for Active; 'I' for Inactive)
REMARK    1  A    between atoms: C2_2  and  C3_3 
REMARK    2  A    between atoms: C3_3  and  O2_5 
REMARK    3  A    between atoms: O2_5  and  C4_6 
REMARK    4  A    between atoms: C4_6  and  C5_7 
REMARK    5  A    between atoms: C4_6  and  C11_20 
REMARK    6  A    between atoms: C5_7  and  C6_8 
REMARK    7  A    between atoms: C9_13  and  N2_14 
ROOT
HETATM    1  C5  UNL     1      43.043  36.689  87.704  1.00  0.00     0.065 C 
ENDROOT
BRANCH   1   2
HETATM    2  C4  UNL     1      41.925  36.005  87.001  1.00  0.00     0.138 C 
BRANCH   2   3
HETATM    3  O2  UNL     1      41.272  34.971  87.587  1.00  0.00    -0.316 OA
BRANCH   3   4
HETATM    4  C3  UNL     1      39.928  34.842  87.887  1.00  0.00     0.258 C 
HETATM    5  O1  UNL     1      39.692  35.111  89.096  1.00  0.00    -0.265 OA
BRANCH   4   6
HETATM    6  C2  UNL     1      38.905  34.439  86.914  1.00  0.00     0.106 C 
HETATM    7  C1  UNL     1      38.431  35.612  86.075  1.00  0.00     0.015 C 
ENDBRANCH   4   6
ENDBRANCH   3   4
ENDBRANCH   2   3
BRANCH   2   8
HETATM    8  C11 UNL     1      42.428  35.565  85.634  1.00  0.00     0.015 C 
HETATM    9  C12 UNL     1      41.917  36.440  84.541  1.00  0.00     0.007 C 
HETATM   10  C13 UNL     1      42.587  36.119  83.247  1.00  0.00     0.000 C 
HETATM   11  C14 UNL     1      44.065  36.331  83.381  1.00  0.00     0.000 C 
HETATM   12  C15 UNL     1      44.574  35.297  84.371  1.00  0.00     0.000 C 
HETATM   13  C16 UNL     1      43.929  35.486  85.724  1.00  0.00     0.007 C 
ENDBRANCH   2   8
ENDBRANCH   1   2
BRANCH   1  14
HETATM   14  C6  UNL     1      42.733  38.167  87.967  1.00  0.00     0.138 C 
HETATM   15  C7  UNL     1      41.279  38.250  88.345  1.00  0.00     0.093 C 
HETATM   16  C8  UNL     1      41.249  38.085  89.851  1.00  0.00     0.054 A 
HETATM   17  N1  UNL     1      40.356  37.793  90.765  1.00  0.00    -0.337 N 
HETATM   18  C10 UNL     1      42.528  38.328  90.252  1.00  0.00     0.136 A 
HETATM   19  C9  UNL     1      40.749  37.748  92.036  1.00  0.00     0.145 A 
ATOM     20  H1  UNL     1      39.387  37.604  90.510  1.00  0.00     0.168 HD
HETATM   21  S1  UNL     1      42.407  38.126  91.944  1.00  0.00    -0.028 SA
HETATM   22  O3  UNL     1      43.357  38.627  89.142  1.00  0.00    -0.336 OA
BRANCH  19  23
HETATM   23  N2  UNL     1      40.045  37.481  93.114  1.00  0.00    -0.380 N 
ATOM     24  H22 UNL     1      39.607  36.596  93.369  1.00  0.00     0.158 HD
ATOM     25  H21 UNL     1      39.802  38.093  93.893  1.00  0.00     0.158 HD
ENDBRANCH  19  23
ENDBRANCH   1  14
TORSDOF 7
ENDMDL
MODEL 4
REMARK VINA RESULT: -6.368181342      4.371      6.415
REMARK  7 active torsions:
REMARK  status: ('A' for Active; 'I' for Inactive)
REMARK    1  A    between atoms: C2_2  and  C3_3 
REMARK    2  A    between atoms: C3_3  and  O2_5 
REMARK    3  A    between atoms: O2_5  and  C4_6 
REMARK    4  A    between atoms: C4_6  and  C5_7 
REMARK    5  A    between atoms: C4_6  and  C11_20 
REMARK    6  A    between atoms: C5_7  and  C6_8 
REMARK    7  A    between atoms: C9_13  and  N2_14 
ROOT
HETATM    1  C5  UNL     1      41.644  36.129  87.086  1.00  0.00     0.065 C 
ENDROOT
BRANCH   1   2
HETATM    2  C4  UNL     1      42.978  36.698  87.411  1.00  0.00     0.138 C 
BRANCH   2   3
HETATM    3  O2  UNL     1      43.132  38.032  87.598  1.00  0.00    -0.316 OA
BRANCH   3   4
HETATM    4  C3  UNL     1      44.147  38.715  88.243  1.00  0.00     0.258 C 
HETATM    5  O1  UNL     1      44.160  39.937  87.932  1.00  0.00    -0.265 OA
BRANCH   4   6
HETATM    6  C2  UNL     1      45.093  38.089  89.176  1.00  0.00     0.106 C 
HETATM    7  C1  UNL     1      44.789  38.453  90.617  1.00  0.00     0.015 C 
ENDBRANCH   4   6
ENDBRANCH   3   4
ENDBRANCH   2   3
BRANCH   2   8
HETATM    8  C11 UNL     1      43.961  36.230  86.348  1.00  0.00     0.015 C 
HETATM    9  C12 UNL     1      44.849  35.141  86.847  1.00  0.00     0.007 C 
HETATM   10  C13 UNL     1      45.654  34.560  85.733  1.00  0.00     0.000 C 
HETATM   11  C14 UNL     1      44.733  33.991  84.694  1.00  0.00     0.000 C 
HETATM   12  C15 UNL     1      43.977  35.159  84.084  1.00  0.00     0.000 C 
HETATM   13  C16 UNL     1      43.152  35.869  85.130  1.00  0.00     0.007 C 
ENDBRANCH   2   8
ENDBRANCH   1   2
BRANCH   1  14
HETATM   14  C6  UNL     1      40.513  37.118  87.388  1.00  0.00     0.138 C 
HETATM   15  C7  UNL     1      39.994  37.611  86.064  1.00  0.00     0.093 C 
HETATM   16  C8  UNL     1      38.898  36.638  85.679  1.00  0.00     0.054 A 
HETATM   17  N1  UNL     1      38.246  36.312  84.590  1.00  0.00    -0.337 N 
HETATM   18  C10 UNL     1      38.584  35.993  86.837  1.00  0.00     0.136 A 
HETATM   19  C9  UNL     1      37.312  35.367  84.675  1.00  0.00     0.145 A 
ATOM     20  H1  UNL     1      38.449  36.769  83.701  1.00  0.00     0.168 HD
HETATM   21  S1  UNL     1      37.352  34.929  86.320  1.00  0.00    -0.028 SA
HETATM   22  O3  UNL     1      39.379  36.466  87.911  1.00  0.00    -0.336 OA
BRANCH  19  23
HETATM   23  N2  UNL     1      36.538  34.878  83.732  1.00  0.00    -0.380 N 
ATOM     24  H22 UNL     1      36.617  35.018  82.725  1.00  0.00     0.158 HD
ATOM     25  H21 UNL     1      35.721  34.272  83.819  1.00  0.00     0.158 HD
ENDBRANCH  19  23
ENDBRANCH   1  14
TORSDOF 7
ENDMDL
MODEL 5
REMARK VINA RESULT: -6.336975908      4.265      6.651
REMARK  7 active torsions:
REMARK  status: ('A' for Active; 'I' for Inactive)
REMARK    1  A    between atoms: C2_2  and  C3_3 
REMARK    2  A    between atoms: C3_3  and  O2_5 
REMARK    3  A    between atoms: O2_5  and  C4_6 
REMARK    4  A    between atoms: C4_6  and  C5_7 
REMARK    5  A    between atoms: C4_6  and  C11_20 
REMARK    6  A    between atoms: C5_7  and  C6_8 
REMARK    7  A    between atoms: C9_13  and  N2_14 
ROOT
HETATM    1  C5  UNL     1      43.911  36.968  87.799  1.00  0.00     0.065 C 
ENDROOT
BRANCH   1   2
HETATM    2  C4  UNL     1      42.544  36.748  87.256  1.00  0.00     0.138 C 
BRANCH   2   3
HETATM    3  O2  UNL     1      41.600  36.119  87.999  1.00  0.00    -0.316 OA
BRANCH   3   4
HETATM    4  C3  UNL     1      40.575  35.286  87.589  1.00  0.00     0.258 C 
HETATM    5  O1  UNL     1      40.821  34.077  87.851  1.00  0.00    -0.265 OA
BRANCH   4   6
HETATM    6  C2  UNL     1      39.350  35.756  86.929  1.00  0.00     0.106 C 
HETATM    7  C1  UNL     1      38.304  34.661  86.834  1.00  0.00     0.015 C 
ENDBRANCH   4   6
ENDBRANCH   3   4
ENDBRANCH   2   3
BRANCH   2   8
HETATM    8  C11 UNL     1      42.678  36.038  85.918  1.00  0.00     0.015 C 
HETATM    9  C12 UNL     1      42.194  36.879  84.786  1.00  0.00     0.007 C 
HETATM   10  C13 UNL     1      42.527  36.249  83.476  1.00  0.00     0.000 C 
HETATM   11  C14 UNL     1      44.015  36.094  83.358  1.00  0.00     0.000 C 
HETATM   12  C15 UNL     1      44.442  35.089  84.414  1.00  0.00     0.000 C 
HETATM   13  C16 UNL     1      44.111  35.592  85.799  1.00  0.00     0.007 C 
ENDBRANCH   2   8
ENDBRANCH   1   2
BRANCH   1  14
HETATM   14  C6  UNL     1      44.169  38.446  88.111  1.00  0.00     0.138 C 
HETATM   15  C7  UNL     1      42.852  39.046  88.522  1.00  0.00     0.093 C 
HETATM   16  C8  UNL     1      42.778  38.852  90.023  1.00  0.00     0.054 A 
HETATM   17  N1  UNL     1      41.850  38.878  90.948  1.00  0.00    -0.337 N 
HETATM   18  C10 UNL     1      44.061  38.593  90.403  1.00  0.00     0.136 A 
HETATM   19  C9  UNL     1      42.210  38.648  92.208  1.00  0.00     0.145 A 
ATOM     20  H1  UNL     1      40.877  39.068  90.708  1.00  0.00     0.168 HD
HETATM   21  S1  UNL     1      43.889  38.391  92.091  1.00  0.00    -0.028 SA
HETATM   22  O3  UNL     1      44.931  38.603  89.285  1.00  0.00    -0.336 OA
BRANCH  19  23
HETATM   23  N2  UNL     1      41.467  38.622  93.293  1.00  0.00    -0.380 N 
ATOM     24  H22 UNL     1      40.774  39.309  93.591  1.00  0.00     0.158 HD
ATOM     25  H21 UNL     1      41.437  37.924  94.036  1.00  0.00     0.158 HD
ENDBRANCH  19  23
ENDBRANCH   1  14
TORSDOF 7
ENDMDL
