MODEL 1
REMARK VINA RESULT: -5.998781530      0.000      0.000
REMARK  4 active torsions:
REMARK  status: ('A' for Active; 'I' for Inactive)
REMARK    1  A    between atoms: C2_2  and  C4_4 
REMARK    2  A    between atoms: C4_4  and  N1_5 
REMARK    3  A    between atoms: N2_8  and  C7_9 
REMARK    4  A    between atoms: C7_9  and  C9_11 
ROOT
HETATM    1  N1  UNL     1      28.445  13.398  11.058  1.00  0.00     0.106 N 
HETATM    2  C5  UNL     1      27.682  13.589   9.861  1.00  0.00     0.318 C 
HETATM    3  C6  UNL     1      26.246  13.904  10.064  1.00  0.00     0.093 C 
HETATM    4  N2  UNL     1      25.808  14.179  11.363  1.00  0.00    -0.362 N 
HETATM    5  C10 UNL     1      26.743  14.451  12.370  1.00  0.00     0.099 C 
HETATM    6  C11 UNL     1      28.187  14.472  11.953  1.00  0.00     0.258 C 
HETATM    7  C12 UNL     1      28.553  15.828  11.456  1.00  0.00     0.049 C 
ENDROOT
BRANCH   4   8
HETATM    8  C7  UNL     1      24.648  14.994  11.487  1.00  0.00     0.138 C 
HETATM    9  C8  UNL     1      25.055  16.299  12.186  1.00  0.00     0.037 C 
BRANCH   8  10
HETATM   10  C9  UNL     1      23.535  14.421  12.294  1.00  0.00     0.208 C 
HETATM   11 CL1  UNL     1      23.124  15.549  13.629  1.00  0.00    -0.082 Cl
HETATM   12 CL2  UNL     1      22.086  14.404  11.221  1.00  0.00    -0.082 Cl
HETATM   13 CL3  UNL     1      23.770  12.784  12.848  1.00  0.00    -0.082 Cl
ENDBRANCH   8  10
ENDBRANCH   4   8
BRANCH   1  14
HETATM   14  C4  UNL     1      29.851  13.357  10.656  1.00  0.00     0.306 C 
BRANCH  14  15
HETATM   15  C2  UNL     1      30.122  12.344   9.645  1.00  0.00    -0.065 C 
HETATM   16  C1  UNL     1      29.939  11.067   9.915  1.00  0.00     0.015 C 
HETATM   17  C3  UNL     1      30.608  12.730   8.303  1.00  0.00     0.044 C 
ENDBRANCH  14  15
ENDBRANCH   1  14
TORSDOF 4
ENDMDL
MODEL 2
REMARK VINA RESULT: -5.830086529      0.081      1.218
REMARK  4 active torsions:
REMARK  status: ('A' for Active; 'I' for Inactive)
REMARK    1  A    between atoms: C2_2  and  C4_4 
REMARK    2  A    between atoms: C4_4  and  N1_5 
REMARK    3  A    between atoms: N2_8  and  C7_9 
REMARK    4  A    between atoms: C7_9  and  C9_11 
ROOT
HETATM    1  N1  UNL     1      28.423  13.383  11.086  1.00  0.00     0.106 N 
HETATM    2  C5  UNL     1      27.682  13.575   9.876  1.00  0.00     0.318 C 
HETATM    3  C6  UNL     1      26.249  13.919  10.054  1.00  0.00     0.093 C 
HETATM    4  N2  UNL     1      25.797  14.217  11.343  1.00  0.00    -0.362 N 
HETATM    5  C10 UNL     1      26.723  14.483  12.361  1.00  0.00     0.099 C 
HETATM    6  C11 UNL     1      28.173  14.472  11.964  1.00  0.00     0.258 C 
HETATM    7  C12 UNL     1      28.572  15.815  11.458  1.00  0.00     0.049 C 
ENDROOT
BRANCH   4   8
HETATM    8  C7  UNL     1      24.652  15.055  11.441  1.00  0.00     0.138 C 
HETATM    9  C8  UNL     1      25.041  16.304  12.246  1.00  0.00     0.037 C 
BRANCH   8  10
HETATM   10  C9  UNL     1      23.473  14.465  12.134  1.00  0.00     0.208 C 
HETATM   11 CL1  UNL     1      23.909  12.848  12.780  1.00  0.00    -0.082 Cl
HETATM   12 CL2  UNL     1      23.169  15.492  13.585  1.00  0.00    -0.082 Cl
HETATM   13 CL3  UNL     1      21.991  14.442  11.215  1.00  0.00    -0.082 Cl
ENDBRANCH   8  10
ENDBRANCH   4   8
BRANCH   1  14
HETATM   14  C4  UNL     1      29.834  13.311  10.706  1.00  0.00     0.306 C 
BRANCH  14  15
HETATM   15  C2  UNL     1      30.095  12.303   9.687  1.00  0.00    -0.065 C 
HETATM   16  C1  UNL     1      29.905  11.025   9.950  1.00  0.00     0.015 C 
HETATM   17  C3  UNL     1      30.579  12.694   8.346  1.00  0.00     0.044 C 
ENDBRANCH  14  15
ENDBRANCH   1  14
TORSDOF 4
ENDMDL
MODEL 3
REMARK VINA RESULT: -5.718963289      3.283      6.019
REMARK  4 active torsions:
REMARK  status: ('A' for Active; 'I' for Inactive)
REMARK    1  A    between atoms: C2_2  and  C4_4 
REMARK    2  A    between atoms: C4_4  and  N1_5 
REMARK    3  A    between atoms: N2_8  and  C7_9 
REMARK    4  A    between atoms: C7_9  and  C9_11 
ROOT
HETATM    1  N1  UNL     1      25.848  14.324  12.471  1.00  0.00     0.106 N 
HETATM    2  C5  UNL     1      27.089  14.307  13.186  1.00  0.00     0.318 C 
HETATM    3  C6  UNL     1      28.258  13.806  12.421  1.00  0.00     0.093 C 
HETATM    4  N2  UNL     1      28.105  13.589  11.048  1.00  0.00    -0.362 N 
HETATM    5  C10 UNL     1      26.993  14.118  10.380  1.00  0.00     0.099 C 
HETATM    6  C11 UNL     1      26.046  14.943  11.207  1.00  0.00     0.258 C 
HETATM    7  C12 UNL     1      26.507  16.359  11.246  1.00  0.00     0.049 C 
ENDROOT
BRANCH   4   8
HETATM    8  C7  UNL     1      29.282  13.664  10.253  1.00  0.00     0.138 C 
HETATM    9  C8  UNL     1      29.197  14.934   9.394  1.00  0.00     0.037 C 
BRANCH   8  10
HETATM   10  C9  UNL     1      29.500  12.536   9.306  1.00  0.00     0.208 C 
HETATM   11 CL1  UNL     1      30.749  13.001   8.102  1.00  0.00    -0.082 Cl
HETATM   12 CL2  UNL     1      30.238  11.200  10.266  1.00  0.00    -0.082 Cl
HETATM   13 CL3  UNL     1      28.062  11.887   8.563  1.00  0.00    -0.082 Cl
ENDBRANCH   8  10
ENDBRANCH   4   8
BRANCH   1  14
HETATM   14  C4  UNL     1      24.901  15.074  13.295  1.00  0.00     0.306 C 
BRANCH  14  15
HETATM   15  C2  UNL     1      23.550  14.533  13.243  1.00  0.00    -0.065 C 
HETATM   16  C1  UNL     1      23.349  13.278  12.890  1.00  0.00     0.015 C 
HETATM   17  C3  UNL     1      22.385  15.377  13.582  1.00  0.00     0.044 C 
ENDBRANCH  14  15
ENDBRANCH   1  14
TORSDOF 4
ENDMDL
MODEL 4
REMARK VINA RESULT: -5.711942144      3.277      5.957
REMARK  4 active torsions:
REMARK  status: ('A' for Active; 'I' for Inactive)
REMARK    1  A    between atoms: C2_2  and  C4_4 
REMARK    2  A    between atoms: C4_4  and  N1_5 
REMARK    3  A    between atoms: N2_8  and  C7_9 
REMARK    4  A    between atoms: C7_9  and  C9_11 
ROOT
HETATM    1  N1  UNL     1      25.940  14.288  12.417  1.00  0.00     0.106 N 
HETATM    2  C5  UNL     1      27.173  14.226  13.145  1.00  0.00     0.318 C 
HETATM    3  C6  UNL     1      28.341  13.730  12.377  1.00  0.00     0.093 C 
HETATM    4  N2  UNL     1      28.200  13.558  10.996  1.00  0.00    -0.362 N 
HETATM    5  C10 UNL     1      27.104  14.128  10.334  1.00  0.00     0.099 C 
HETATM    6  C11 UNL     1      26.163  14.942  11.176  1.00  0.00     0.258 C 
HETATM    7  C12 UNL     1      26.648  16.348  11.265  1.00  0.00     0.049 C 
ENDROOT
BRANCH   4   8
HETATM    8  C7  UNL     1      29.387  13.638  10.217  1.00  0.00     0.138 C 
HETATM    9  C8  UNL     1      29.281  14.874   9.312  1.00  0.00     0.037 C 
BRANCH   8  10
HETATM   10  C9  UNL     1      29.650  12.484   9.314  1.00  0.00     0.208 C 
HETATM   11 CL1  UNL     1      30.222  11.085  10.285  1.00  0.00    -0.082 Cl
HETATM   12 CL2  UNL     1      28.050  11.981   8.651  1.00  0.00    -0.082 Cl
HETATM   13 CL3  UNL     1      30.679  12.815   7.946  1.00  0.00    -0.082 Cl
ENDBRANCH   8  10
ENDBRANCH   4   8
BRANCH   1  14
HETATM   14  C4  UNL     1      24.997  15.028  13.255  1.00  0.00     0.306 C 
BRANCH  14  15
HETATM   15  C2  UNL     1      23.646  14.486  13.204  1.00  0.00    -0.065 C 
HETATM   16  C1  UNL     1      23.442  13.243  12.816  1.00  0.00     0.015 C 
HETATM   17  C3  UNL     1      22.484  15.318  13.582  1.00  0.00     0.044 C 
ENDBRANCH  14  15
ENDBRANCH   1  14
TORSDOF 4
ENDMDL
MODEL 5
REMARK VINA RESULT: -5.275601284      3.315      6.942
REMARK  4 active torsions:
REMARK  status: ('A' for Active; 'I' for Inactive)
REMARK    1  A    between atoms: C2_2  and  C4_4 
REMARK    2  A    between atoms: C4_4  and  N1_5 
REMARK    3  A    between atoms: N2_8  and  C7_9 
REMARK    4  A    between atoms: C7_9  and  C9_11 
ROOT
HETATM    1  N1  UNL     1      22.011  15.687  11.726  1.00  0.00     0.106 N 
HETATM    2  C5  UNL     1      22.113  14.360  11.197  1.00  0.00     0.318 C 
HETATM    3  C6  UNL     1      23.494  13.876  10.953  1.00  0.00     0.093 C 
HETATM    4  N2  UNL     1      24.558  14.648  11.430  1.00  0.00    -0.362 N 
HETATM    5  C10 UNL     1      24.316  15.664  12.364  1.00  0.00     0.099 C 
HETATM    6  C11 UNL     1      22.895  15.819  12.829  1.00  0.00     0.258 C 
HETATM    7  C12 UNL     1      22.634  14.908  13.979  1.00  0.00     0.049 C 
ENDROOT
BRANCH   4   8
HETATM    8  C7  UNL     1      25.774  13.961  11.701  1.00  0.00     0.138 C 
HETATM    9  C8  UNL     1      25.948  13.881  13.225  1.00  0.00     0.037 C 
BRANCH   8  10
HETATM   10  C9  UNL     1      27.012  14.602  11.175  1.00  0.00     0.208 C 
HETATM   11 CL1  UNL     1      28.320  14.462  12.397  1.00  0.00    -0.082 Cl
HETATM   12 CL2  UNL     1      27.553  13.595   9.780  1.00  0.00    -0.082 Cl
HETATM   13 CL3  UNL     1      26.824  16.229  10.578  1.00  0.00    -0.082 Cl
ENDBRANCH   8  10
ENDBRANCH   4   8
BRANCH   1  14
HETATM   14  C4  UNL     1      20.616  15.871  12.127  1.00  0.00     0.306 C 
BRANCH  14  15
HETATM   15  C2  UNL     1      20.323  17.233  12.553  1.00  0.00    -0.065 C 
HETATM   16  C1  UNL     1      20.372  18.226  11.686  1.00  0.00     0.015 C 
HETATM   17  C3  UNL     1      19.969  17.525  13.958  1.00  0.00     0.044 C 
ENDBRANCH  14  15
ENDBRANCH   1  14
TORSDOF 4
ENDMDL
