MODEL 1
REMARK VINA RESULT: -4.578378948      0.000      0.000
REMARK  3 active torsions:
REMARK  status: ('A' for Active; 'I' for Inactive)
REMARK    1  A    between atoms: C2_2  and  N1_3 
REMARK    2  A    between atoms: N1_3  and  C3_4 
REMARK    3  A    between atoms: N1_3  and  S1_13 
ROOT
HETATM    1  C3  UNL     1      24.433  14.827  12.307  1.00  0.00     0.066 A 
HETATM    2  C4  UNL     1      23.727  15.596  13.242  1.00  0.00     0.057 A 
HETATM    3  C5  UNL     1      22.375  15.792  13.171  1.00  0.00     0.058 A 
HETATM    4 CL1  UNL     1      21.559  16.771  14.385  1.00  0.00    -0.082 Cl
HETATM    5  C6  UNL     1      21.690  15.206  12.129  1.00  0.00     0.057 A 
HETATM    6 CL2  UNL     1      19.959  15.460  12.042  1.00  0.00    -0.082 Cl
HETATM    7  C7  UNL     1      22.382  14.450  11.208  1.00  0.00     0.051 A 
HETATM    8  C8  UNL     1      23.751  14.238  11.265  1.00  0.00     0.063 A 
HETATM    9 CL3  UNL     1      24.585  13.263  10.077  1.00  0.00    -0.082 Cl
ENDROOT
BRANCH   1  10
HETATM   10  N1  UNL     1      25.844  14.700  12.481  1.00  0.00    -0.296 N 
BRANCH  10  11
HETATM   11  C2  UNL     1      26.463  13.751  13.356  1.00  0.00     0.135 C 
HETATM   12  C1  UNL     1      27.942  13.593  13.088  1.00  0.00     0.028 C 
ENDBRANCH  10  11
BRANCH  10  13
HETATM   13  S1  UNL     1      26.827  15.794  11.542  1.00  0.00     0.112 S 
HETATM   14  C9  UNL     1      26.081  17.379  11.301  1.00  0.00     0.152 C 
HETATM   15  O1  UNL     1      27.387  15.169  10.298  1.00  0.00    -0.236 OA
ENDBRANCH  10  13
ENDBRANCH   1  10
TORSDOF 3
ENDMDL
MODEL 2
REMARK VINA RESULT: -4.383883717      1.562      2.106
REMARK  3 active torsions:
REMARK  status: ('A' for Active; 'I' for Inactive)
REMARK    1  A    between atoms: C2_2  and  N1_3 
REMARK    2  A    between atoms: N1_3  and  C3_4 
REMARK    3  A    between atoms: N1_3  and  S1_13 
ROOT
HETATM    1  C3  UNL     1      25.841  14.306  11.698  1.00  0.00     0.066 A 
HETATM    2  C4  UNL     1      25.166  15.039  12.683  1.00  0.00     0.057 A 
HETATM    3  C5  UNL     1      23.812  15.233  12.665  1.00  0.00     0.058 A 
HETATM    4 CL1  UNL     1      23.036  16.166  13.939  1.00  0.00    -0.082 Cl
HETATM    5  C6  UNL     1      23.092  14.680  11.628  1.00  0.00     0.057 A 
HETATM    6 CL2  UNL     1      21.360  14.931  11.608  1.00  0.00    -0.082 Cl
HETATM    7  C7  UNL     1      23.755  13.959  10.658  1.00  0.00     0.051 A 
HETATM    8  C8  UNL     1      25.126  13.751  10.660  1.00  0.00     0.063 A 
HETATM    9 CL3  UNL     1      25.920  12.820   9.412  1.00  0.00    -0.082 Cl
ENDROOT
BRANCH   1  10
HETATM   10  N1  UNL     1      27.258  14.178  11.819  1.00  0.00    -0.296 N 
BRANCH  10  11
HETATM   11  C2  UNL     1      27.949  14.049  13.067  1.00  0.00     0.135 C 
HETATM   12  C1  UNL     1      27.567  12.792  13.814  1.00  0.00     0.028 C 
ENDBRANCH  10  11
BRANCH  10  13
HETATM   13  S1  UNL     1      28.152  14.183  10.320  1.00  0.00     0.112 S 
HETATM   14  C9  UNL     1      29.710  13.355  10.428  1.00  0.00     0.152 C 
HETATM   15  O1  UNL     1      28.202  15.532   9.665  1.00  0.00    -0.236 OA
ENDBRANCH  10  13
ENDBRANCH   1  10
TORSDOF 3
ENDMDL
MODEL 3
REMARK VINA RESULT: -3.990258851      3.187      6.067
REMARK  3 active torsions:
REMARK  status: ('A' for Active; 'I' for Inactive)
REMARK    1  A    between atoms: C2_2  and  N1_3 
REMARK    2  A    between atoms: N1_3  and  C3_4 
REMARK    3  A    between atoms: N1_3  and  S1_13 
ROOT
HETATM    1  C3  UNL     1      26.992  14.247  11.076  1.00  0.00     0.066 A 
HETATM    2  C4  UNL     1      27.681  14.272   9.856  1.00  0.00     0.057 A 
HETATM    3  C5  UNL     1      28.985  13.879   9.733  1.00  0.00     0.058 A 
HETATM    4 CL1  UNL     1      29.782  13.939   8.165  1.00  0.00    -0.082 Cl
HETATM    5  C6  UNL     1      29.639  13.443  10.865  1.00  0.00     0.057 A 
HETATM    6 CL2  UNL     1      31.309  12.942  10.704  1.00  0.00    -0.082 Cl
HETATM    7  C7  UNL     1      28.964  13.419  12.066  1.00  0.00     0.051 A 
HETATM    8  C8  UNL     1      27.642  13.812  12.210  1.00  0.00     0.063 A 
HETATM    9 CL3  UNL     1      26.824  13.754  13.754  1.00  0.00    -0.082 Cl
ENDROOT
BRANCH   1  10
HETATM   10  N1  UNL     1      25.635  14.689  11.083  1.00  0.00    -0.296 N 
BRANCH  10  11
HETATM   11  C2  UNL     1      24.577  14.046  10.362  1.00  0.00     0.135 C 
HETATM   12  C1  UNL     1      23.831  13.038  11.206  1.00  0.00     0.028 C 
ENDBRANCH  10  11
BRANCH  10  13
HETATM   13  S1  UNL     1      25.301  16.106  12.046  1.00  0.00     0.112 S 
HETATM   14  C9  UNL     1      23.669  16.126  12.725  1.00  0.00     0.152 C 
HETATM   15  O1  UNL     1      25.721  17.385  11.383  1.00  0.00    -0.236 OA
ENDBRANCH  10  13
ENDBRANCH   1  10
TORSDOF 3
ENDMDL
MODEL 4
REMARK VINA RESULT: -3.840778969      9.836     10.753
REMARK  3 active torsions:
REMARK  status: ('A' for Active; 'I' for Inactive)
REMARK    1  A    between atoms: C2_2  and  N1_3 
REMARK    2  A    between atoms: N1_3  and  C3_4 
REMARK    3  A    between atoms: N1_3  and  S1_13 
ROOT
HETATM    1  C3  UNL     1      31.168  22.623   9.602  1.00  0.00     0.066 A 
HETATM    2  C4  UNL     1      30.048  22.694  10.442  1.00  0.00     0.057 A 
HETATM    3  C5  UNL     1      28.906  23.364  10.099  1.00  0.00     0.058 A 
HETATM    4 CL1  UNL     1      27.541  23.407  11.209  1.00  0.00    -0.082 Cl
HETATM    5  C6  UNL     1      28.868  23.994   8.874  1.00  0.00     0.057 A 
HETATM    6 CL2  UNL     1      27.404  24.851   8.440  1.00  0.00    -0.082 Cl
HETATM    7  C7  UNL     1      29.968  23.926   8.048  1.00  0.00     0.051 A 
HETATM    8  C8  UNL     1      31.133  23.250   8.376  1.00  0.00     0.063 A 
HETATM    9 CL3  UNL     1      32.501  23.184   7.289  1.00  0.00    -0.082 Cl
ENDROOT
BRANCH   1  10
HETATM   10  N1  UNL     1      32.307  21.901  10.072  1.00  0.00    -0.296 N 
BRANCH  10  11
HETATM   11  C2  UNL     1      32.504  20.496   9.875  1.00  0.00     0.135 C 
HETATM   12  C1  UNL     1      32.514  19.725  11.174  1.00  0.00     0.028 C 
ENDBRANCH  10  11
BRANCH  10  13
HETATM   13  S1  UNL     1      33.500  22.840  10.931  1.00  0.00     0.112 S 
HETATM   14  C9  UNL     1      35.164  22.365  10.566  1.00  0.00     0.152 C 
HETATM   15  O1  UNL     1      33.197  22.989  12.393  1.00  0.00    -0.236 OA
ENDBRANCH  10  13
ENDBRANCH   1  10
TORSDOF 3
ENDMDL
MODEL 5
REMARK VINA RESULT: -3.835636930     10.445     11.122
REMARK  3 active torsions:
REMARK  status: ('A' for Active; 'I' for Inactive)
REMARK    1  A    between atoms: C2_2  and  N1_3 
REMARK    2  A    between atoms: N1_3  and  C3_4 
REMARK    3  A    between atoms: N1_3  and  S1_13 
ROOT
HETATM    1  C3  UNL     1      31.592  22.504   9.703  1.00  0.00     0.066 A 
HETATM    2  C4  UNL     1      30.403  23.225   9.883  1.00  0.00     0.057 A 
HETATM    3  C5  UNL     1      29.592  23.588   8.843  1.00  0.00     0.058 A 
HETATM    4 CL1  UNL     1      28.114  24.493   9.151  1.00  0.00    -0.082 Cl
HETATM    5  C6  UNL     1      29.971  23.225   7.569  1.00  0.00     0.057 A 
HETATM    6 CL2  UNL     1      28.930  23.693   6.241  1.00  0.00    -0.082 Cl
HETATM    7  C7  UNL     1      31.140  22.518   7.390  1.00  0.00     0.051 A 
HETATM    8  C8  UNL     1      31.974  22.139   8.431  1.00  0.00     0.063 A 
HETATM    9 CL3  UNL     1      33.443  21.233   8.155  1.00  0.00    -0.082 Cl
ENDROOT
BRANCH   1  10
HETATM   10  N1  UNL     1      32.360  22.189  10.864  1.00  0.00    -0.296 N 
BRANCH  10  11
HETATM   11  C2  UNL     1      32.088  21.083  11.732  1.00  0.00     0.135 C 
HETATM   12  C1  UNL     1      32.567  19.767  11.161  1.00  0.00     0.028 C 
ENDBRANCH  10  11
BRANCH  10  13
HETATM   13  S1  UNL     1      33.704  23.252  11.198  1.00  0.00     0.112 S 
HETATM   14  C9  UNL     1      35.280  22.466  11.032  1.00  0.00     0.152 C 
HETATM   15  O1  UNL     1      33.530  24.050  12.456  1.00  0.00    -0.236 OA
ENDBRANCH  10  13
ENDBRANCH   1  10
TORSDOF 3
ENDMDL
