MODEL 1
REMARK VINA RESULT: -5.814745267      0.000      0.000
REMARK  8 active torsions:
REMARK  status: ('A' for Active; 'I' for Inactive)
REMARK    1  A    between atoms: C2_2  and  C3_3 
REMARK    2  A    between atoms: C3_3  and  C4_4 
REMARK    3  A    between atoms: C4_4  and  C5_5 
REMARK    4  A    between atoms: C5_5  and  O1_6 
REMARK    5  A    between atoms: C5_5  and  C8_9 
REMARK    6  A    between atoms: O1_6  and  C6_7 
REMARK       I    between atoms: C8_9  and  N1_11 
REMARK    7  A    between atoms: N1_11  and  C9_13 
REMARK    8  A    between atoms: C11_15  and  C12_16 
ROOT
HETATM    1  C5  UNL     1      40.901  34.850  85.409  1.00  0.00     0.240 C 
ENDROOT
BRANCH   1   2
HETATM    2  C4  UNL     1      40.469  35.782  84.277  1.00  0.00     0.160 A 
HETATM    3  C16 UNL     1      38.978  35.696  84.049  1.00  0.00     0.247 A 
HETATM    4  O4  UNL     1      38.531  34.522  83.982  1.00  0.00    -0.272 OA
HETATM    5  N3  UNL     1      38.134  36.805  83.916  1.00  0.00    -0.278 N 
HETATM    6  C17 UNL     1      38.645  38.109  84.055  1.00  0.00     0.329 A 
ATOM      7  H3  UNL     1      37.143  36.667  83.718  1.00  0.00     0.173 HD
HETATM    8  O5  UNL     1      37.843  39.064  83.925  1.00  0.00    -0.247 OA
HETATM    9  N4  UNL     1      40.023  38.290  84.328  1.00  0.00    -0.278 N 
HETATM   10  C18 UNL     1      40.894  37.176  84.468  1.00  0.00     0.247 A 
ATOM     11  H4  UNL     1      40.396  39.234  84.425  1.00  0.00     0.173 HD
HETATM   12  O6  UNL     1      42.091  37.431  84.775  1.00  0.00    -0.272 OA
BRANCH   2  13
HETATM   13  C3  UNL     1      41.031  35.326  82.935  1.00  0.00     0.058 C 
BRANCH  13  14
HETATM   14  C2  UNL     1      42.181  36.073  82.452  1.00  0.00    -0.035 C 
HETATM   15  C1  UNL     1      43.309  35.452  82.100  1.00  0.00     0.007 C 
ENDBRANCH  13  14
ENDBRANCH   2  13
ENDBRANCH   1   2
BRANCH   1  16
HETATM   16  O1  UNL     1      42.159  34.723  85.617  1.00  0.00    -0.375 OA
BRANCH  16  17
HETATM   17  C6  UNL     1      43.182  34.210  86.103  1.00  0.00     0.164 C 
HETATM   18  C7  UNL     1      44.043  33.396  85.139  1.00  0.00     0.033 C 
ENDBRANCH  16  17
ENDBRANCH   1  16
BRANCH   1  19
HETATM   19  C8  UNL     1      40.167  35.374  86.645  1.00  0.00     0.254 C 
HETATM   20  O2  UNL     1      39.244  34.718  87.083  1.00  0.00    -0.270 OA
HETATM   21  N1  UNL     1      40.554  36.565  87.256  1.00  0.00    -0.309 N 
ATOM     22  H1  UNL     1      40.115  37.410  86.890  1.00  0.00     0.170 HD
BRANCH  21  23
HETATM   23  C9  UNL     1      41.379  36.746  88.207  1.00  0.00     0.130 A 
HETATM   24  C10 UNL     1      42.626  37.309  88.115  1.00  0.00     0.086 A 
HETATM   25  C11 UNL     1      43.181  37.315  89.379  1.00  0.00     0.087 A 
HETATM   26  O3  UNL     1      42.285  36.774  90.172  1.00  0.00    -0.240 OA
HETATM   27  N2  UNL     1      41.215  36.433  89.497  1.00  0.00    -0.245 N 
ATOM     28  H2  UNL     1      40.383  35.996  89.895  1.00  0.00     0.196 HD
BRANCH  25  29
HETATM   29  C12 UNL     1      44.504  37.804  89.847  1.00  0.00     0.000 C 
HETATM   30  C13 UNL     1      45.571  37.275  88.880  1.00  0.00     0.021 C 
HETATM   31  C14 UNL     1      44.851  37.258  91.221  1.00  0.00     0.021 C 
HETATM   32  C15 UNL     1      44.596  39.309  89.843  1.00  0.00     0.021 C 
ENDBRANCH  25  29
ENDBRANCH  21  23
ENDBRANCH   1  19
TORSDOF 8
ENDMDL
MODEL 2
REMARK VINA RESULT: -5.793500171      1.839      3.315
REMARK  8 active torsions:
REMARK  status: ('A' for Active; 'I' for Inactive)
REMARK    1  A    between atoms: C2_2  and  C3_3 
REMARK    2  A    between atoms: C3_3  and  C4_4 
REMARK    3  A    between atoms: C4_4  and  C5_5 
REMARK    4  A    between atoms: C5_5  and  O1_6 
REMARK    5  A    between atoms: C5_5  and  C8_9 
REMARK    6  A    between atoms: O1_6  and  C6_7 
REMARK       I    between atoms: C8_9  and  N1_11 
REMARK    7  A    between atoms: N1_11  and  C9_13 
REMARK    8  A    between atoms: C11_15  and  C12_16 
ROOT
HETATM    1  C5  UNL     1      42.115  36.374  85.231  1.00  0.00     0.240 C 
ENDROOT
BRANCH   1   2
HETATM    2  C4  UNL     1      41.336  35.183  85.787  1.00  0.00     0.160 A 
HETATM    3  C16 UNL     1      41.211  35.275  87.290  1.00  0.00     0.247 A 
HETATM    4  O4  UNL     1      42.289  35.540  87.883  1.00  0.00    -0.272 OA
HETATM    5  N3  UNL     1      40.018  35.086  87.997  1.00  0.00    -0.278 N 
HETATM    6  C17 UNL     1      38.814  34.850  87.310  1.00  0.00     0.329 A 
ATOM      7  H3  UNL     1      40.023  35.119  89.017  1.00  0.00     0.173 HD
HETATM    8  O5  UNL     1      37.776  34.687  87.995  1.00  0.00    -0.247 OA
HETATM    9  N4  UNL     1      38.819  34.804  85.894  1.00  0.00    -0.278 N 
HETATM   10  C18 UNL     1      40.020  34.996  85.160  1.00  0.00     0.247 A 
ATOM     11  H4  UNL     1      37.947  34.630  85.394  1.00  0.00     0.173 HD
HETATM   12  O6  UNL     1      39.917  35.002  83.902  1.00  0.00    -0.272 OA
BRANCH   2  13
HETATM   13  C3  UNL     1      42.105  33.879  85.602  1.00  0.00     0.058 C 
BRANCH  13  14
HETATM   14  C2  UNL     1      43.554  33.997  85.633  1.00  0.00    -0.035 C 
HETATM   15  C1  UNL     1      44.335  33.022  85.163  1.00  0.00     0.007 C 
ENDBRANCH  13  14
ENDBRANCH   2  13
ENDBRANCH   1   2
BRANCH   1  16
HETATM   16  O1  UNL     1      42.163  36.502  83.957  1.00  0.00    -0.375 OA
BRANCH  16  17
HETATM   17  C6  UNL     1      42.713  36.581  82.845  1.00  0.00     0.164 C 
HETATM   18  C7  UNL     1      43.121  35.256  82.206  1.00  0.00     0.033 C 
ENDBRANCH  16  17
ENDBRANCH   1  16
BRANCH   1  19
HETATM   19  C8  UNL     1      41.487  37.597  85.905  1.00  0.00     0.254 C 
HETATM   20  O2  UNL     1      40.283  37.733  85.834  1.00  0.00    -0.270 OA
HETATM   21  N1  UNL     1      42.275  38.521  86.589  1.00  0.00    -0.309 N 
ATOM     22  H1  UNL     1      42.651  39.281  86.023  1.00  0.00     0.170 HD
BRANCH  21  23
HETATM   23  C9  UNL     1      42.590  38.547  87.820  1.00  0.00     0.130 A 
HETATM   24  C10 UNL     1      43.857  38.617  88.342  1.00  0.00     0.086 A 
HETATM   25  C11 UNL     1      43.747  38.625  89.717  1.00  0.00     0.087 A 
HETATM   26  O3  UNL     1      42.462  38.564  89.980  1.00  0.00    -0.240 OA
HETATM   27  N2  UNL     1      41.764  38.518  88.872  1.00  0.00    -0.245 N 
ATOM     28  H2  UNL     1      40.747  38.468  88.820  1.00  0.00     0.196 HD
BRANCH  25  29
HETATM   29  C12 UNL     1      44.798  38.687  90.766  1.00  0.00     0.000 C 
HETATM   30  C13 UNL     1      44.886  37.305  91.428  1.00  0.00     0.021 C 
HETATM   31  C14 UNL     1      44.440  39.673  91.864  1.00  0.00     0.021 C 
HETATM   32  C15 UNL     1      46.159  39.004  90.200  1.00  0.00     0.021 C 
ENDBRANCH  25  29
ENDBRANCH  21  23
ENDBRANCH   1  19
TORSDOF 8
ENDMDL
MODEL 3
REMARK VINA RESULT: -5.791700100      3.544      6.250
REMARK  8 active torsions:
REMARK  status: ('A' for Active; 'I' for Inactive)
REMARK    1  A    between atoms: C2_2  and  C3_3 
REMARK    2  A    between atoms: C3_3  and  C4_4 
REMARK    3  A    between atoms: C4_4  and  C5_5 
REMARK    4  A    between atoms: C5_5  and  O1_6 
REMARK    5  A    between atoms: C5_5  and  C8_9 
REMARK    6  A    between atoms: O1_6  and  C6_7 
REMARK       I    between atoms: C8_9  and  N1_11 
REMARK    7  A    between atoms: N1_11  and  C9_13 
REMARK    8  A    between atoms: C11_15  and  C12_16 
ROOT
HETATM    1  C5  UNL     1      39.312  35.638  85.104  1.00  0.00     0.240 C 
ENDROOT
BRANCH   1   2
HETATM    2  C4  UNL     1      40.835  35.517  85.116  1.00  0.00     0.160 A 
HETATM    3  C16 UNL     1      41.480  36.866  85.336  1.00  0.00     0.247 A 
HETATM    4  O4  UNL     1      41.018  37.784  84.611  1.00  0.00    -0.272 OA
HETATM    5  N3  UNL     1      42.509  37.109  86.253  1.00  0.00    -0.278 N 
HETATM    6  C17 UNL     1      42.970  36.082  87.095  1.00  0.00     0.329 A 
ATOM      7  H3  UNL     1      42.926  38.039  86.311  1.00  0.00     0.173 HD
HETATM    8  O5  UNL     1      43.894  36.357  87.897  1.00  0.00    -0.247 OA
HETATM    9  N4  UNL     1      42.385  34.794  87.005  1.00  0.00    -0.278 N 
HETATM   10  C18 UNL     1      41.339  34.529  86.081  1.00  0.00     0.247 A 
ATOM     11  H4  UNL     1      42.720  34.046  87.612  1.00  0.00     0.173 HD
HETATM   12  O6  UNL     1      40.836  33.372  86.116  1.00  0.00    -0.272 OA
BRANCH   2  13
HETATM   13  C3  UNL     1      41.373  35.115  83.747  1.00  0.00     0.058 C 
BRANCH  13  14
HETATM   14  C2  UNL     1      42.796  34.824  83.694  1.00  0.00    -0.035 C 
HETATM   15  C1  UNL     1      43.526  35.146  82.625  1.00  0.00     0.007 C 
ENDBRANCH  13  14
ENDBRANCH   2  13
ENDBRANCH   1   2
BRANCH   1  16
HETATM   16  O1  UNL     1      38.651  34.690  84.549  1.00  0.00    -0.375 OA
BRANCH  16  17
HETATM   17  C6  UNL     1      37.889  34.178  83.711  1.00  0.00     0.164 C 
HETATM   18  C7  UNL     1      38.121  34.588  82.259  1.00  0.00     0.033 C 
ENDBRANCH  16  17
ENDBRANCH   1  16
BRANCH   1  19
HETATM   19  C8  UNL     1      38.925  35.819  86.574  1.00  0.00     0.254 C 
HETATM   20  O2  UNL     1      38.816  36.951  87.001  1.00  0.00    -0.270 OA
HETATM   21  N1  UNL     1      38.693  34.718  87.395  1.00  0.00    -0.309 N 
ATOM     22  H1  UNL     1      39.514  34.344  87.870  1.00  0.00     0.170 HD
BRANCH  21  23
HETATM   23  C9  UNL     1      37.601  34.114  87.634  1.00  0.00     0.130 A 
HETATM   24  C10 UNL     1      37.084  33.809  88.868  1.00  0.00     0.086 A 
HETATM   25  C11 UNL     1      35.884  33.156  88.674  1.00  0.00     0.087 A 
HETATM   26  O3  UNL     1      35.714  33.086  87.374  1.00  0.00    -0.240 OA
HETATM   27  N2  UNL     1      36.717  33.647  86.744  1.00  0.00    -0.245 N 
ATOM     28  H2  UNL     1      36.810  33.717  85.731  1.00  0.00     0.196 HD
BRANCH  25  29
HETATM   29  C12 UNL     1      34.916  32.607  89.659  1.00  0.00     0.000 C 
HETATM   30  C13 UNL     1      35.704  32.178  90.904  1.00  0.00     0.021 C 
HETATM   31  C14 UNL     1      34.222  31.363  89.133  1.00  0.00     0.021 C 
HETATM   32  C15 UNL     1      33.899  33.630  90.098  1.00  0.00     0.021 C 
ENDBRANCH  25  29
ENDBRANCH  21  23
ENDBRANCH   1  19
TORSDOF 8
ENDMDL
MODEL 4
REMARK VINA RESULT: -5.774055037      1.504      1.832
REMARK  8 active torsions:
REMARK  status: ('A' for Active; 'I' for Inactive)
REMARK    1  A    between atoms: C2_2  and  C3_3 
REMARK    2  A    between atoms: C3_3  and  C4_4 
REMARK    3  A    between atoms: C4_4  and  C5_5 
REMARK    4  A    between atoms: C5_5  and  O1_6 
REMARK    5  A    between atoms: C5_5  and  C8_9 
REMARK    6  A    between atoms: O1_6  and  C6_7 
REMARK       I    between atoms: C8_9  and  N1_11 
REMARK    7  A    between atoms: N1_11  and  C9_13 
REMARK    8  A    between atoms: C11_15  and  C12_16 
ROOT
HETATM    1  C5  UNL     1      41.095  34.505  85.622  1.00  0.00     0.240 C 
ENDROOT
BRANCH   1   2
HETATM    2  C4  UNL     1      40.067  35.373  84.898  1.00  0.00     0.160 A 
HETATM    3  C16 UNL     1      38.663  35.021  85.333  1.00  0.00     0.247 A 
HETATM    4  O4  UNL     1      38.418  33.788  85.340  1.00  0.00    -0.272 OA
HETATM    5  N3  UNL     1      37.692  35.960  85.699  1.00  0.00    -0.278 N 
HETATM    6  C17 UNL     1      38.005  37.330  85.741  1.00  0.00     0.329 A 
ATOM      7  H3  UNL     1      36.750  35.647  85.937  1.00  0.00     0.173 HD
HETATM    8  O5  UNL     1      37.095  38.125  86.076  1.00  0.00    -0.247 OA
HETATM    9  N4  UNL     1      39.315  37.754  85.407  1.00  0.00    -0.278 N 
HETATM   10  C18 UNL     1      40.315  36.816  85.034  1.00  0.00     0.247 A 
ATOM     11  H4  UNL     1      39.544  38.747  85.433  1.00  0.00     0.173 HD
HETATM   12  O6  UNL     1      41.469  37.278  84.816  1.00  0.00    -0.272 OA
BRANCH   2  13
HETATM   13  C3  UNL     1      40.033  35.068  83.404  1.00  0.00     0.058 C 
BRANCH  13  14
HETATM   14  C2  UNL     1      39.364  36.059  82.577  1.00  0.00    -0.035 C 
HETATM   15  C1  UNL     1      39.865  36.421  81.395  1.00  0.00     0.007 C 
ENDBRANCH  13  14
ENDBRANCH   2  13
ENDBRANCH   1   2
BRANCH   1  16
HETATM   16  O1  UNL     1      42.315  34.599  85.243  1.00  0.00    -0.375 OA
BRANCH  16  17
HETATM   17  C6  UNL     1      43.380  34.203  84.738  1.00  0.00     0.164 C 
HETATM   18  C7  UNL     1      43.619  34.601  83.284  1.00  0.00     0.033 C 
ENDBRANCH  16  17
ENDBRANCH   1  16
BRANCH   1  19
HETATM   19  C8  UNL     1      40.927  34.857  87.102  1.00  0.00     0.254 C 
HETATM   20  O2  UNL     1      40.546  33.987  87.858  1.00  0.00    -0.270 OA
HETATM   21  N1  UNL     1      41.215  36.138  87.570  1.00  0.00    -0.309 N 
ATOM     22  H1  UNL     1      40.442  36.802  87.535  1.00  0.00     0.170 HD
BRANCH  21  23
HETATM   23  C9  UNL     1      42.307  36.593  88.034  1.00  0.00     0.130 A 
HETATM   24  C10 UNL     1      42.497  37.184  89.257  1.00  0.00     0.086 A 
HETATM   25  C11 UNL     1      43.829  37.530  89.358  1.00  0.00     0.087 A 
HETATM   26  O3  UNL     1      44.389  37.151  88.233  1.00  0.00    -0.240 OA
HETATM   27  N2  UNL     1      43.506  36.596  87.439  1.00  0.00    -0.245 N 
ATOM     28  H2  UNL     1      43.702  36.222  86.511  1.00  0.00     0.196 HD
BRANCH  25  29
HETATM   29  C12 UNL     1      44.570  38.193  90.462  1.00  0.00     0.000 C 
HETATM   30  C13 UNL     1      44.744  37.172  91.594  1.00  0.00     0.021 C 
HETATM   31  C14 UNL     1      43.790  39.359  91.043  1.00  0.00     0.021 C 
HETATM   32  C15 UNL     1      45.948  38.642  90.043  1.00  0.00     0.021 C 
ENDBRANCH  25  29
ENDBRANCH  21  23
ENDBRANCH   1  19
TORSDOF 8
ENDMDL
MODEL 5
REMARK VINA RESULT: -5.716852427      3.868      6.627
REMARK  8 active torsions:
REMARK  status: ('A' for Active; 'I' for Inactive)
REMARK    1  A    between atoms: C2_2  and  C3_3 
REMARK    2  A    between atoms: C3_3  and  C4_4 
REMARK    3  A    between atoms: C4_4  and  C5_5 
REMARK    4  A    between atoms: C5_5  and  O1_6 
REMARK    5  A    between atoms: C5_5  and  C8_9 
REMARK    6  A    between atoms: O1_6  and  C6_7 
REMARK       I    between atoms: C8_9  and  N1_11 
REMARK    7  A    between atoms: N1_11  and  C9_13 
REMARK    8  A    between atoms: C11_15  and  C12_16 
ROOT
HETATM    1  C5  UNL     1      40.246  34.322  87.795  1.00  0.00     0.240 C 
ENDROOT
BRANCH   1   2
HETATM    2  C4  UNL     1      41.066  35.205  86.855  1.00  0.00     0.160 A 
HETATM    3  C16 UNL     1      42.129  34.397  86.148  1.00  0.00     0.247 A 
HETATM    4  O4  UNL     1      42.799  33.649  86.906  1.00  0.00    -0.272 OA
HETATM    5  N3  UNL     1      42.380  34.454  84.773  1.00  0.00    -0.278 N 
HETATM    6  C17 UNL     1      41.580  35.253  83.936  1.00  0.00     0.329 A 
ATOM      7  H3  UNL     1      43.147  33.912  84.375  1.00  0.00     0.173 HD
HETATM    8  O5  UNL     1      41.851  35.265  82.711  1.00  0.00    -0.247 OA
HETATM    9  N4  UNL     1      40.518  36.003  84.498  1.00  0.00    -0.278 N 
HETATM   10  C18 UNL     1      40.248  35.957  85.892  1.00  0.00     0.247 A 
ATOM     11  H4  UNL     1      39.939  36.586  83.894  1.00  0.00     0.173 HD
HETATM   12  O6  UNL     1      39.244  36.607  86.294  1.00  0.00    -0.272 OA
BRANCH   2  13
HETATM   13  C3  UNL     1      41.891  36.227  87.630  1.00  0.00     0.058 C 
BRANCH  13  14
HETATM   14  C2  UNL     1      42.599  37.205  86.819  1.00  0.00    -0.035 C 
HETATM   15  C1  UNL     1      43.356  38.148  87.381  1.00  0.00     0.007 C 
ENDBRANCH  13  14
ENDBRANCH   2  13
ENDBRANCH   1   2
BRANCH   1  16
HETATM   16  O1  UNL     1      39.531  34.911  88.680  1.00  0.00    -0.375 OA
BRANCH  16  17
HETATM   17  C6  UNL     1      39.142  35.178  89.830  1.00  0.00     0.164 C 
HETATM   18  C7  UNL     1      38.721  33.987  90.688  1.00  0.00     0.033 C 
ENDBRANCH  16  17
ENDBRANCH   1  16
BRANCH   1  19
HETATM   19  C8  UNL     1      39.401  33.447  86.867  1.00  0.00     0.254 C 
HETATM   20  O2  UNL     1      39.812  32.336  86.597  1.00  0.00    -0.270 OA
HETATM   21  N1  UNL     1      38.190  33.907  86.355  1.00  0.00    -0.309 N 
ATOM     22  H1  UNL     1      38.251  34.422  85.477  1.00  0.00     0.170 HD
BRANCH  21  23
HETATM   23  C9  UNL     1      37.018  33.774  86.831  1.00  0.00     0.130 A 
HETATM   24  C10 UNL     1      36.658  33.049  87.939  1.00  0.00     0.086 A 
HETATM   25  C11 UNL     1      35.294  33.176  88.102  1.00  0.00     0.087 A 
HETATM   26  O3  UNL     1      34.880  33.947  87.123  1.00  0.00    -0.240 OA
HETATM   27  N2  UNL     1      35.885  34.311  86.364  1.00  0.00    -0.245 N 
ATOM     28  H2  UNL     1      35.813  34.910  85.542  1.00  0.00     0.196 HD
BRANCH  25  29
HETATM   29  C12 UNL     1      34.391  32.601  89.132  1.00  0.00     0.000 C 
HETATM   30  C13 UNL     1      35.220  32.347  90.398  1.00  0.00     0.021 C 
HETATM   31  C14 UNL     1      33.830  31.256  88.702  1.00  0.00     0.021 C 
HETATM   32  C15 UNL     1      33.271  33.540  89.506  1.00  0.00     0.021 C 
ENDBRANCH  25  29
ENDBRANCH  21  23
ENDBRANCH   1  19
TORSDOF 8
ENDMDL
