MODEL 1
REMARK VINA RESULT: -7.619595508      0.000      0.000
REMARK  7 active torsions:
REMARK  status: ('A' for Active; 'I' for Inactive)
REMARK    1  A    between atoms: C5_6  and  C6_7 
REMARK    2  A    between atoms: C6_7  and  N1_8 
REMARK    3  A    between atoms: C13_18  and  N3_19 
REMARK    4  A    between atoms: N3_19  and  C14_21 
REMARK    5  A    between atoms: C14_21  and  C15_22 
REMARK    6  A    between atoms: C15_22  and  C16_23 
REMARK    7  A    between atoms: C16_23  and  N4_24 
REMARK       I    between atoms: N4_24  and  C17_25 
ROOT
HETATM    1  N1  UNL     1      40.254  37.056  88.026  1.00  0.00    -0.389 N 
ATOM      2  H1  UNL     1      39.538  37.629  88.472  1.00  0.00     0.159 HD
HETATM    3  C7  UNL     1      39.841  36.036  87.426  1.00  0.00     0.024 C 
HETATM    4  C8  UNL     1      38.358  35.816  87.459  1.00  0.00     0.058 C 
HETATM    5  C9  UNL     1      38.117  34.402  88.010  1.00  0.00     0.006 C 
HETATM    6  C10 UNL     1      38.530  33.456  86.929  1.00  0.00     0.006 C 
HETATM    7  C11 UNL     1      39.884  32.857  87.101  1.00  0.00     0.058 C 
HETATM    8  C12 UNL     1      40.945  33.848  86.609  1.00  0.00     0.030 A 
HETATM    9  N2  UNL     1      42.000  33.379  85.976  1.00  0.00    -0.339 N 
ATOM     10  H2  UNL     1      42.106  32.376  85.823  1.00  0.00     0.168 HD
HETATM   11  C13 UNL     1      42.924  34.225  85.539  1.00  0.00     0.145 A 
HETATM   12  S1  UNL     1      42.304  35.744  86.026  1.00  0.00    -0.051 SA
HETATM   13  C18 UNL     1      40.868  35.212  86.778  1.00  0.00     0.053 A 
ENDROOT
BRANCH   1  14
HETATM   14  C6  UNL     1      41.590  37.515  88.165  1.00  0.00     0.153 C 
BRANCH  14  15
HETATM   15  C5  UNL     1      41.897  37.860  89.639  1.00  0.00     0.166 C 
HETATM   16  C4  UNL     1      41.480  36.756  90.555  1.00  0.00     0.205 C 
HETATM   17  O1  UNL     1      42.608  36.514  91.361  1.00  0.00    -0.353 OA
HETATM   18  C2  UNL     1      43.454  37.582  91.174  1.00  0.00     0.157 C 
HETATM   19  C1  UNL     1      43.042  38.754  92.038  1.00  0.00     0.078 C 
HETATM   20  C3  UNL     1      44.900  37.278  91.388  1.00  0.00     0.078 C 
HETATM   21  O2  UNL     1      43.279  37.908  89.819  1.00  0.00    -0.347 OA
ENDBRANCH  14  15
ENDBRANCH   1  14
BRANCH  11  22
HETATM   22  N3  UNL     1      44.046  33.998  84.892  1.00  0.00    -0.370 N 
ATOM     23  H3  UNL     1      44.530  34.736  84.381  1.00  0.00     0.161 HD
BRANCH  22  24
HETATM   24  C14 UNL     1      44.559  32.651  84.944  1.00  0.00     0.124 C 
BRANCH  24  25
HETATM   25  C15 UNL     1      46.039  32.646  84.574  1.00  0.00     0.053 C 
BRANCH  25  26
HETATM   26  C16 UNL     1      46.649  31.505  85.434  1.00  0.00     0.222 C 
BRANCH  26  27
HETATM   27  N4  UNL     1      47.966  31.465  85.249  1.00  0.00    -0.421 NA
HETATM   28  C17 UNL     1      49.111  31.489  85.080  1.00  0.00     0.270 C 
HETATM   29  N5  UNL     1      49.828  32.721  84.791  1.00  0.00    -0.053 NA
HETATM   30  N6  UNL     1      49.935  30.301  85.138  1.00  0.00    -0.053 NA
ENDBRANCH  26  27
ENDBRANCH  25  26
ENDBRANCH  24  25
ENDBRANCH  22  24
ENDBRANCH  11  22
TORSDOF 7
ENDMDL
MODEL 2
REMARK VINA RESULT: -7.455721377      1.113      1.436
REMARK  7 active torsions:
REMARK  status: ('A' for Active; 'I' for Inactive)
REMARK    1  A    between atoms: C5_6  and  C6_7 
REMARK    2  A    between atoms: C6_7  and  N1_8 
REMARK    3  A    between atoms: C13_18  and  N3_19 
REMARK    4  A    between atoms: N3_19  and  C14_21 
REMARK    5  A    between atoms: C14_21  and  C15_22 
REMARK    6  A    between atoms: C15_22  and  C16_23 
REMARK    7  A    between atoms: C16_23  and  N4_24 
REMARK       I    between atoms: N4_24  and  C17_25 
ROOT
HETATM    1  N1  UNL     1      41.242  37.441  87.864  1.00  0.00    -0.389 N 
ATOM      2  H1  UNL     1      40.692  38.133  88.373  1.00  0.00     0.159 HD
HETATM    3  C7  UNL     1      40.620  36.419  87.490  1.00  0.00     0.024 C 
HETATM    4  C8  UNL     1      39.165  36.372  87.851  1.00  0.00     0.058 C 
HETATM    5  C9  UNL     1      38.922  35.057  88.607  1.00  0.00     0.006 C 
HETATM    6  C10 UNL     1      39.007  33.967  87.589  1.00  0.00     0.006 C 
HETATM    7  C11 UNL     1      40.307  33.239  87.552  1.00  0.00     0.058 C 
HETATM    8  C12 UNL     1      41.322  34.049  86.737  1.00  0.00     0.030 A 
HETATM    9  N2  UNL     1      42.170  33.404  85.965  1.00  0.00    -0.339 N 
ATOM     10  H2  UNL     1      42.150  32.384  85.917  1.00  0.00     0.168 HD
HETATM   11  C13 UNL     1      43.050  34.092  85.249  1.00  0.00     0.145 A 
HETATM   12  S1  UNL     1      42.687  35.712  85.664  1.00  0.00    -0.051 SA
HETATM   13  C18 UNL     1      41.405  35.424  86.751  1.00  0.00     0.053 A 
ENDROOT
BRANCH   1  14
HETATM   14  C6  UNL     1      42.611  37.758  87.671  1.00  0.00     0.153 C 
BRANCH  14  15
HETATM   15  C5  UNL     1      43.437  37.393  88.925  1.00  0.00     0.166 C 
HETATM   16  C4  UNL     1      44.846  37.046  88.567  1.00  0.00     0.205 C 
HETATM   17  O1  UNL     1      45.637  37.827  89.431  1.00  0.00    -0.353 OA
HETATM   18  C2  UNL     1      44.792  38.302  90.406  1.00  0.00     0.157 C 
HETATM   19  C1  UNL     1      44.574  37.263  91.484  1.00  0.00     0.078 C 
HETATM   20  C3  UNL     1      45.216  39.592  91.025  1.00  0.00     0.078 C 
HETATM   21  O2  UNL     1      43.589  38.529  89.718  1.00  0.00    -0.347 OA
ENDBRANCH  14  15
ENDBRANCH   1  14
BRANCH  11  22
HETATM   22  N3  UNL     1      43.982  33.675  84.420  1.00  0.00    -0.370 N 
ATOM     23  H3  UNL     1      44.212  34.190  83.570  1.00  0.00     0.161 HD
BRANCH  22  24
HETATM   24  C14 UNL     1      44.661  32.454  84.774  1.00  0.00     0.124 C 
BRANCH  24  25
HETATM   25  C15 UNL     1      46.171  32.665  84.715  1.00  0.00     0.053 C 
BRANCH  25  26
HETATM   26  C16 UNL     1      46.766  31.419  85.424  1.00  0.00     0.222 C 
BRANCH  26  27
HETATM   27  N4  UNL     1      48.084  31.395  85.251  1.00  0.00    -0.421 NA
HETATM   28  C17 UNL     1      49.231  31.434  85.094  1.00  0.00     0.270 C 
HETATM   29  N5  UNL     1      49.935  32.677  84.822  1.00  0.00    -0.053 NA
HETATM   30  N6  UNL     1      50.068  30.256  85.149  1.00  0.00    -0.053 NA
ENDBRANCH  26  27
ENDBRANCH  25  26
ENDBRANCH  24  25
ENDBRANCH  22  24
ENDBRANCH  11  22
TORSDOF 7
ENDMDL
MODEL 3
REMARK VINA RESULT: -7.175085547      1.786      2.306
REMARK  7 active torsions:
REMARK  status: ('A' for Active; 'I' for Inactive)
REMARK    1  A    between atoms: C5_6  and  C6_7 
REMARK    2  A    between atoms: C6_7  and  N1_8 
REMARK    3  A    between atoms: C13_18  and  N3_19 
REMARK    4  A    between atoms: N3_19  and  C14_21 
REMARK    5  A    between atoms: C14_21  and  C15_22 
REMARK    6  A    between atoms: C15_22  and  C16_23 
REMARK    7  A    between atoms: C16_23  and  N4_24 
REMARK       I    between atoms: N4_24  and  C17_25 
ROOT
HETATM    1  N1  UNL     1      41.134  37.787  87.401  1.00  0.00    -0.389 N 
ATOM      2  H1  UNL     1      40.770  38.684  87.723  1.00  0.00     0.159 HD
HETATM    3  C7  UNL     1      41.311  37.681  86.165  1.00  0.00     0.024 C 
HETATM    4  C8  UNL     1      40.958  38.889  85.350  1.00  0.00     0.058 C 
HETATM    5  C9  UNL     1      39.967  38.437  84.266  1.00  0.00     0.006 C 
HETATM    6  C10 UNL     1      40.759  37.640  83.281  1.00  0.00     0.006 C 
HETATM    7  C11 UNL     1      40.647  36.162  83.433  1.00  0.00     0.058 C 
HETATM    8  C12 UNL     1      41.594  35.690  84.542  1.00  0.00     0.030 A 
HETATM    9  N2  UNL     1      42.224  34.545  84.390  1.00  0.00    -0.339 N 
ATOM     10  H2  UNL     1      42.077  33.984  83.550  1.00  0.00     0.168 HD
HETATM   11  C13 UNL     1      43.052  34.127  85.339  1.00  0.00     0.145 A 
HETATM   12  S1  UNL     1      42.956  35.380  86.501  1.00  0.00    -0.051 SA
HETATM   13  C18 UNL     1      41.842  36.394  85.700  1.00  0.00     0.053 A 
ENDROOT
BRANCH   1  14
HETATM   14  C6  UNL     1      41.375  36.819  88.411  1.00  0.00     0.153 C 
BRANCH  14  15
HETATM   15  C5  UNL     1      41.805  37.503  89.729  1.00  0.00     0.166 C 
HETATM   16  C4  UNL     1      41.494  36.647  90.913  1.00  0.00     0.205 C 
HETATM   17  O1  UNL     1      42.694  36.601  91.647  1.00  0.00    -0.353 OA
HETATM   18  C2  UNL     1      43.498  37.593  91.137  1.00  0.00     0.157 C 
HETATM   19  C1  UNL     1      43.141  38.937  91.734  1.00  0.00     0.078 C 
HETATM   20  C3  UNL     1      44.963  37.347  91.284  1.00  0.00     0.078 C 
HETATM   21  O2  UNL     1      43.197  37.590  89.766  1.00  0.00    -0.347 OA
ENDBRANCH  14  15
ENDBRANCH   1  14
BRANCH  11  22
HETATM   22  N3  UNL     1      43.780  33.034  85.410  1.00  0.00    -0.370 N 
ATOM     23  H3  UNL     1      43.381  32.112  85.235  1.00  0.00     0.161 HD
BRANCH  22  24
HETATM   24  C14 UNL     1      45.171  33.207  85.747  1.00  0.00     0.124 C 
BRANCH  24  25
HETATM   25  C15 UNL     1      46.047  32.571  84.671  1.00  0.00     0.053 C 
BRANCH  25  26
HETATM   26  C16 UNL     1      46.689  31.342  85.370  1.00  0.00     0.222 C 
BRANCH  26  27
HETATM   27  N4  UNL     1      48.009  31.383  85.217  1.00  0.00    -0.421 NA
HETATM   28  C17 UNL     1      49.155  31.478  85.079  1.00  0.00     0.270 C 
HETATM   29  N5  UNL     1      49.809  32.761  84.879  1.00  0.00    -0.053 NA
HETATM   30  N6  UNL     1      50.041  30.334  85.090  1.00  0.00    -0.053 NA
ENDBRANCH  26  27
ENDBRANCH  25  26
ENDBRANCH  24  25
ENDBRANCH  22  24
ENDBRANCH  11  22
TORSDOF 7
ENDMDL
MODEL 4
REMARK VINA RESULT: -7.049418049      4.992      7.181
REMARK  7 active torsions:
REMARK  status: ('A' for Active; 'I' for Inactive)
REMARK    1  A    between atoms: C5_6  and  C6_7 
REMARK    2  A    between atoms: C6_7  and  N1_8 
REMARK    3  A    between atoms: C13_18  and  N3_19 
REMARK    4  A    between atoms: N3_19  and  C14_21 
REMARK    5  A    between atoms: C14_21  and  C15_22 
REMARK    6  A    between atoms: C15_22  and  C16_23 
REMARK    7  A    between atoms: C16_23  and  N4_24 
REMARK       I    between atoms: N4_24  and  C17_25 
ROOT
HETATM    1  N1  UNL     1      40.501  35.156  85.921  1.00  0.00    -0.389 N 
ATOM      2  H1  UNL     1      40.595  34.824  86.881  1.00  0.00     0.159 HD
HETATM    3  C7  UNL     1      41.329  34.693  85.101  1.00  0.00     0.024 C 
HETATM    4  C8  UNL     1      42.329  33.725  85.660  1.00  0.00     0.058 C 
HETATM    5  C9  UNL     1      43.727  34.250  85.296  1.00  0.00     0.006 C 
HETATM    6  C10 UNL     1      43.889  34.025  83.828  1.00  0.00     0.006 C 
HETATM    7  C11 UNL     1      43.657  35.227  82.978  1.00  0.00     0.058 C 
HETATM    8  C12 UNL     1      42.151  35.413  82.760  1.00  0.00     0.030 A 
HETATM    9  N2  UNL     1      41.730  35.832  81.585  1.00  0.00    -0.339 N 
ATOM     10  H2  UNL     1      42.398  36.032  80.840  1.00  0.00     0.168 HD
HETATM   11  C13 UNL     1      40.429  35.993  81.380  1.00  0.00     0.145 A 
HETATM   12  S1  UNL     1      39.753  35.541  82.886  1.00  0.00    -0.051 SA
HETATM   13  C18 UNL     1      41.193  35.163  83.718  1.00  0.00     0.053 A 
ENDROOT
BRANCH   1  14
HETATM   14  C6  UNL     1      39.452  36.082  85.685  1.00  0.00     0.153 C 
BRANCH  14  15
HETATM   15  C5  UNL     1      38.146  35.608  86.361  1.00  0.00     0.166 C 
HETATM   16  C4  UNL     1      37.733  34.261  85.865  1.00  0.00     0.205 C 
HETATM   17  O1  UNL     1      37.499  33.506  87.030  1.00  0.00    -0.353 OA
HETATM   18  C2  UNL     1      37.440  34.406  88.068  1.00  0.00     0.157 C 
HETATM   19  C1  UNL     1      36.069  35.039  88.158  1.00  0.00     0.078 C 
HETATM   20  C3  UNL     1      37.828  33.851  89.398  1.00  0.00     0.078 C 
HETATM   21  O2  UNL     1      38.389  35.379  87.715  1.00  0.00    -0.347 OA
ENDBRANCH  14  15
ENDBRANCH   1  14
BRANCH  11  22
HETATM   22  N3  UNL     1      39.782  36.395  80.309  1.00  0.00    -0.370 N 
ATOM     23  H3  UNL     1      40.049  37.242  79.807  1.00  0.00     0.161 HD
BRANCH  22  24
HETATM   24  C14 UNL     1      38.675  35.577  79.879  1.00  0.00     0.124 C 
BRANCH  24  25
HETATM   25  C15 UNL     1      39.151  34.569  78.836  1.00  0.00     0.053 C 
BRANCH  25  26
HETATM   26  C16 UNL     1      39.891  35.428  77.776  1.00  0.00     0.222 C 
BRANCH  26  27
HETATM   27  N4  UNL     1      41.192  35.154  77.812  1.00  0.00    -0.421 NA
HETATM   28  C17 UNL     1      42.319  34.888  77.790  1.00  0.00     0.270 C 
HETATM   29  N5  UNL     1      42.917  34.130  76.702  1.00  0.00    -0.053 NA
HETATM   30  N6  UNL     1      43.235  35.280  78.838  1.00  0.00    -0.053 NA
ENDBRANCH  26  27
ENDBRANCH  25  26
ENDBRANCH  24  25
ENDBRANCH  22  24
ENDBRANCH  11  22
TORSDOF 7
ENDMDL
MODEL 5
REMARK VINA RESULT: -7.001445514      1.467      1.710
REMARK  7 active torsions:
REMARK  status: ('A' for Active; 'I' for Inactive)
REMARK    1  A    between atoms: C5_6  and  C6_7 
REMARK    2  A    between atoms: C6_7  and  N1_8 
REMARK    3  A    between atoms: C13_18  and  N3_19 
REMARK    4  A    between atoms: N3_19  and  C14_21 
REMARK    5  A    between atoms: C14_21  and  C15_22 
REMARK    6  A    between atoms: C15_22  and  C16_23 
REMARK    7  A    between atoms: C16_23  and  N4_24 
REMARK       I    between atoms: N4_24  and  C17_25 
ROOT
HETATM    1  N1  UNL     1      40.219  37.179  88.104  1.00  0.00    -0.389 N 
ATOM      2  H1  UNL     1      39.678  37.776  88.729  1.00  0.00     0.159 HD
HETATM    3  C7  UNL     1      39.782  37.078  86.933  1.00  0.00     0.024 C 
HETATM    4  C8  UNL     1      38.531  37.849  86.635  1.00  0.00     0.058 C 
HETATM    5  C9  UNL     1      37.505  36.855  86.067  1.00  0.00     0.006 C 
HETATM    6  C10 UNL     1      37.973  36.511  84.691  1.00  0.00     0.006 C 
HETATM    7  C11 UNL     1      38.694  35.212  84.578  1.00  0.00     0.058 C 
HETATM    8  C12 UNL     1      40.155  35.401  85.003  1.00  0.00     0.030 A 
HETATM    9  N2  UNL     1      41.092  34.747  84.350  1.00  0.00    -0.339 N 
ATOM     10  H2  UNL     1      40.844  34.123  83.581  1.00  0.00     0.168 HD
HETATM   11  C13 UNL     1      42.361  34.905  84.703  1.00  0.00     0.145 A 
HETATM   12  S1  UNL     1      42.255  36.016  86.001  1.00  0.00    -0.051 SA
HETATM   13  C18 UNL     1      40.562  36.225  86.029  1.00  0.00     0.053 A 
ENDROOT
BRANCH   1  14
HETATM   14  C6  UNL     1      41.368  36.570  88.670  1.00  0.00     0.153 C 
BRANCH  14  15
HETATM   15  C5  UNL     1      41.824  37.336  89.932  1.00  0.00     0.166 C 
HETATM   16  C4  UNL     1      41.486  36.583  91.178  1.00  0.00     0.205 C 
HETATM   17  O1  UNL     1      42.686  36.551  91.914  1.00  0.00    -0.353 OA
HETATM   18  C2  UNL     1      43.522  37.474  91.331  1.00  0.00     0.157 C 
HETATM   19  C1  UNL     1      43.212  38.871  91.825  1.00  0.00     0.078 C 
HETATM   20  C3  UNL     1      44.978  37.190  91.497  1.00  0.00     0.078 C 
HETATM   21  O2  UNL     1      43.218  37.378  89.963  1.00  0.00    -0.347 OA
ENDBRANCH  14  15
ENDBRANCH   1  14
BRANCH  11  22
HETATM   22  N3  UNL     1      43.454  34.366  84.208  1.00  0.00    -0.370 N 
ATOM     23  H3  UNL     1      43.746  34.535  83.246  1.00  0.00     0.161 HD
BRANCH  22  24
HETATM   24  C14 UNL     1      44.217  33.525  85.096  1.00  0.00     0.124 C 
BRANCH  24  25
HETATM   25  C15 UNL     1      45.487  33.050  84.395  1.00  0.00     0.053 C 
BRANCH  25  26
HETATM   26  C16 UNL     1      45.847  31.718  85.106  1.00  0.00     0.222 C 
BRANCH  26  27
HETATM   27  N4  UNL     1      47.168  31.564  85.120  1.00  0.00    -0.421 NA
HETATM   28  C17 UNL     1      48.310  31.375  85.153  1.00  0.00     0.270 C 
HETATM   29  N5  UNL     1      48.877  30.134  85.656  1.00  0.00    -0.053 NA
HETATM   30  N6  UNL     1      49.278  32.352  84.703  1.00  0.00    -0.053 NA
ENDBRANCH  26  27
ENDBRANCH  25  26
ENDBRANCH  24  25
ENDBRANCH  22  24
ENDBRANCH  11  22
TORSDOF 7
ENDMDL
