MODEL 1
REMARK VINA RESULT: -6.076232580      0.000      0.000
REMARK  6 active torsions:
REMARK  status: ('A' for Active; 'I' for Inactive)
REMARK    1  A    between atoms: C2_2  and  N1_3 
REMARK    2  A    between atoms: N1_3  and  C3_4 
REMARK       I    between atoms: N1_3  and  C5_6 
REMARK    3  A    between atoms: C5_6  and  C6_8 
REMARK    4  A    between atoms: C8_10  and  C9_11 
REMARK    5  A    between atoms: C11_13  and  O2_14 
REMARK    6  A    between atoms: C17_21  and  O3_22 
ROOT
HETATM    1  C9  UNL     1      -8.275  12.890  55.195  1.00  0.00     0.019 C 
HETATM    2  C10 UNL     1      -7.647  14.212  54.700  1.00  0.00     0.039 C 
HETATM    3  C11 UNL     1      -6.685  14.668  55.764  1.00  0.00     0.124 C 
HETATM    4  C12 UNL     1      -7.012  13.736  56.900  1.00  0.00     0.031 C 
HETATM    5  C13 UNL     1      -6.239  13.873  58.110  1.00  0.00    -0.039 C 
HETATM    6  C14 UNL     1      -7.092  14.388  59.296  1.00  0.00     0.015 C 
HETATM    7  C15 UNL     1      -5.170  14.989  57.998  1.00  0.00     0.015 C 
HETATM    8  C16 UNL     1      -5.477  12.726  58.681  1.00  0.00     0.041 C 
HETATM    9  C17 UNL     1      -6.263  11.520  59.022  1.00  0.00     0.118 C 
HETATM   10  C18 UNL     1      -6.709  10.708  57.856  1.00  0.00     0.032 C 
HETATM   11  C19 UNL     1      -7.823  11.472  57.170  1.00  0.00     0.012 C 
HETATM   12  C20 UNL     1      -7.231  12.436  56.209  1.00  0.00    -0.032 C 
HETATM   13  C21 UNL     1      -6.099  11.886  55.425  1.00  0.00     0.016 C 
ENDROOT
BRANCH   1  14
HETATM   14  C8  UNL     1      -8.476  12.018  54.030  1.00  0.00     0.090 C 
HETATM   15  C7  UNL     1      -9.873  11.622  53.680  1.00  0.00     0.049 C 
HETATM   16  C6  UNL     1      -9.785  11.348  52.157  1.00  0.00     0.171 C 
HETATM   17  C22 UNL     1      -9.010  12.582  51.790  1.00  0.00     0.231 C 
HETATM   18  N2  UNL     1      -8.021  12.742  52.831  1.00  0.00    -0.355 N 
HETATM   19  O4  UNL     1      -9.101  13.367  50.843  1.00  0.00    -0.273 OA
ATOM     20  H2  UNL     1      -7.151  13.269  52.748  1.00  0.00     0.162 HD
BRANCH  16  21
HETATM   21  C5  UNL     1     -11.113  11.306  51.552  1.00  0.00     0.233 C 
HETATM   22  N1  UNL     1     -11.436  10.684  50.332  1.00  0.00    -0.352 N 
HETATM   23  O1  UNL     1     -12.048  11.889  52.197  1.00  0.00    -0.272 OA
BRANCH  22  24
HETATM   24  C2  UNL     1     -12.822  10.755  49.837  1.00  0.00     0.121 C 
HETATM   25  C1  UNL     1     -13.382   9.372  49.611  1.00  0.00     0.026 C 
ENDBRANCH  22  24
BRANCH  22  26
HETATM   26  C3  UNL     1     -10.437   9.975  49.592  1.00  0.00     0.121 C 
HETATM   27  C4  UNL     1      -9.870  10.797  48.452  1.00  0.00     0.026 C 
ENDBRANCH  22  26
ENDBRANCH  16  21
ENDBRANCH   1  14
BRANCH   3  28
HETATM   28  O2  UNL     1      -5.396  14.727  55.376  1.00  0.00    -0.395 OA
ATOM     29  H2  UNL     1      -5.059  13.930  54.982  1.00  0.00     0.210 HD
ENDBRANCH   3  28
BRANCH   9  30
HETATM   30  O3  UNL     1      -7.369  11.779  59.822  1.00  0.00    -0.396 OA
ATOM     31  H3  UNL     1      -7.547  11.100  60.463  1.00  0.00     0.210 HD
ENDBRANCH   9  30
TORSDOF 6
ENDMDL
MODEL 2
REMARK VINA RESULT: -5.479840961      1.978      8.372
REMARK  6 active torsions:
REMARK  status: ('A' for Active; 'I' for Inactive)
REMARK    1  A    between atoms: C2_2  and  N1_3 
REMARK    2  A    between atoms: N1_3  and  C3_4 
REMARK       I    between atoms: N1_3  and  C5_6 
REMARK    3  A    between atoms: C5_6  and  C6_8 
REMARK    4  A    between atoms: C8_10  and  C9_11 
REMARK    5  A    between atoms: C11_13  and  O2_14 
REMARK    6  A    between atoms: C17_21  and  O3_22 
ROOT
HETATM    1  C9  UNL     1      -8.925  11.773  51.476  1.00  0.00     0.019 C 
HETATM    2  C10 UNL     1      -7.959  12.650  50.649  1.00  0.00     0.039 C 
HETATM    3  C11 UNL     1      -8.469  12.655  49.234  1.00  0.00     0.124 C 
HETATM    4  C12 UNL     1      -9.525  11.583  49.280  1.00  0.00     0.031 C 
HETATM    5  C13 UNL     1     -10.263  11.331  48.067  1.00  0.00    -0.039 C 
HETATM    6  C14 UNL     1      -9.958   9.931  47.476  1.00  0.00     0.015 C 
HETATM    7  C15 UNL     1      -9.817  12.255  46.907  1.00  0.00     0.015 C 
HETATM    8  C16 UNL     1     -11.751  11.425  48.026  1.00  0.00     0.041 C 
HETATM    9  C17 UNL     1     -12.490  10.544  48.957  1.00  0.00     0.118 C 
HETATM   10  C18 UNL     1     -12.453  10.964  50.385  1.00  0.00     0.032 C 
HETATM   11  C19 UNL     1     -11.063  10.667  50.910  1.00  0.00     0.012 C 
HETATM   12  C20 UNL     1     -10.173  11.814  50.600  1.00  0.00    -0.032 C 
HETATM   13  C21 UNL     1     -10.798  13.139  50.828  1.00  0.00     0.016 C 
ENDROOT
BRANCH   1  14
HETATM   14  C8  UNL     1      -9.047  12.366  52.814  1.00  0.00     0.090 C 
HETATM   15  C7  UNL     1      -8.665  11.531  53.992  1.00  0.00     0.049 C 
HETATM   16  C6  UNL     1      -8.260  12.588  55.051  1.00  0.00     0.171 C 
HETATM   17  C22 UNL     1      -7.405  13.435  54.152  1.00  0.00     0.231 C 
HETATM   18  N2  UNL     1      -8.117  13.507  52.897  1.00  0.00    -0.355 N 
HETATM   19  O4  UNL     1      -6.322  13.998  54.326  1.00  0.00    -0.273 OA
ATOM     20  H2  UNL     1      -7.996  14.228  52.185  1.00  0.00     0.162 HD
BRANCH  16  21
HETATM   21  C5  UNL     1      -7.509  11.976  56.145  1.00  0.00     0.233 C 
HETATM   22  N1  UNL     1      -7.601  12.338  57.501  1.00  0.00    -0.352 N 
HETATM   23  O1  UNL     1      -6.705  11.038  55.824  1.00  0.00    -0.272 OA
BRANCH  22  24
HETATM   24  C2  UNL     1      -6.751  11.645  58.485  1.00  0.00     0.121 C 
HETATM   25  C1  UNL     1      -7.573  10.715  59.342  1.00  0.00     0.026 C 
ENDBRANCH  22  24
BRANCH  22  26
HETATM   26  C3  UNL     1      -8.521  13.350  57.922  1.00  0.00     0.121 C 
HETATM   27  C4  UNL     1      -7.839  14.470  58.681  1.00  0.00     0.026 C 
ENDBRANCH  22  26
ENDBRANCH  16  21
ENDBRANCH   1  14
BRANCH   3  28
HETATM   28  O2  UNL     1      -8.845  13.862  48.769  1.00  0.00    -0.395 OA
ATOM     29  H2  UNL     1      -8.176  14.535  48.817  1.00  0.00     0.210 HD
ENDBRANCH   3  28
BRANCH   9  30
HETATM   30  O3  UNL     1     -12.114   9.208  48.884  1.00  0.00    -0.396 OA
ATOM     31  H3  UNL     1     -12.753   8.653  48.453  1.00  0.00     0.210 HD
ENDBRANCH   9  30
TORSDOF 6
ENDMDL
MODEL 3
REMARK VINA RESULT: -5.376994336      1.680      2.082
REMARK  6 active torsions:
REMARK  status: ('A' for Active; 'I' for Inactive)
REMARK    1  A    between atoms: C2_2  and  N1_3 
REMARK    2  A    between atoms: N1_3  and  C3_4 
REMARK       I    between atoms: N1_3  and  C5_6 
REMARK    3  A    between atoms: C5_6  and  C6_8 
REMARK    4  A    between atoms: C8_10  and  C9_11 
REMARK    5  A    between atoms: C11_13  and  O2_14 
REMARK    6  A    between atoms: C17_21  and  O3_22 
ROOT
HETATM    1  C9  UNL     1      -9.400  12.481  54.008  1.00  0.00     0.019 C 
HETATM    2  C10 UNL     1      -9.788  13.972  54.111  1.00  0.00     0.039 C 
HETATM    3  C11 UNL     1      -9.094  14.525  55.326  1.00  0.00     0.124 C 
HETATM    4  C12 UNL     1      -8.573  13.276  55.984  1.00  0.00     0.031 C 
HETATM    5  C13 UNL     1      -7.808  13.437  57.196  1.00  0.00    -0.039 C 
HETATM    6  C14 UNL     1      -8.543  12.863  58.433  1.00  0.00     0.015 C 
HETATM    7  C15 UNL     1      -7.655  14.926  57.597  1.00  0.00     0.015 C 
HETATM    8  C16 UNL     1      -6.421  12.905  57.318  1.00  0.00     0.041 C 
HETATM    9  C17 UNL     1      -6.256  11.449  57.109  1.00  0.00     0.118 C 
HETATM   10  C18 UNL     1      -6.356  11.000  55.694  1.00  0.00     0.032 C 
HETATM   11  C19 UNL     1      -7.816  11.083  55.294  1.00  0.00     0.012 C 
HETATM   12  C20 UNL     1      -8.114  12.460  54.827  1.00  0.00    -0.032 C 
HETATM   13  C21 UNL     1      -7.060  13.043  53.961  1.00  0.00     0.016 C 
ENDROOT
BRANCH   1  14
HETATM   14  C8  UNL     1      -9.274  12.140  52.585  1.00  0.00     0.090 C 
HETATM   15  C7  UNL     1     -10.083  11.001  52.059  1.00  0.00     0.049 C 
HETATM   16  C6  UNL     1     -10.247  11.353  50.559  1.00  0.00     0.171 C 
HETATM   17  C22 UNL     1     -10.620  12.796  50.746  1.00  0.00     0.231 C 
HETATM   18  N2  UNL     1      -9.756  13.286  51.795  1.00  0.00    -0.355 N 
HETATM   19  O4  UNL     1     -11.456  13.515  50.193  1.00  0.00    -0.273 OA
ATOM     20  H2  UNL     1      -9.518  14.265  51.960  1.00  0.00     0.162 HD
BRANCH  16  21
HETATM   21  C5  UNL     1     -11.310  10.562  49.945  1.00  0.00     0.233 C 
HETATM   22  N1  UNL     1     -11.337  10.127  48.607  1.00  0.00    -0.352 N 
HETATM   23  O1  UNL     1     -12.292  10.250  50.700  1.00  0.00    -0.272 OA
BRANCH  22  24
HETATM   24  C2  UNL     1     -12.500   9.361  48.127  1.00  0.00     0.121 C 
HETATM   25  C1  UNL     1     -13.336  10.190  47.184  1.00  0.00     0.026 C 
ENDBRANCH  22  24
BRANCH  22  26
HETATM   26  C3  UNL     1     -10.241  10.408  47.731  1.00  0.00     0.121 C 
HETATM   27  C4  UNL     1      -9.438   9.168  47.394  1.00  0.00     0.026 C 
ENDBRANCH  22  26
ENDBRANCH  16  21
ENDBRANCH   1  14
BRANCH   3  28
HETATM   28  O2  UNL     1      -8.199  15.500  55.073  1.00  0.00    -0.395 OA
ATOM     29  H2  UNL     1      -8.363  15.999  54.281  1.00  0.00     0.210 HD
ENDBRANCH   3  28
BRANCH   9  30
HETATM   30  O3  UNL     1      -7.114  10.671  57.877  1.00  0.00    -0.396 OA
ATOM     31  H3  UNL     1      -6.708   9.888  58.230  1.00  0.00     0.210 HD
ENDBRANCH   9  30
TORSDOF 6
ENDMDL
MODEL 4
REMARK VINA RESULT: -5.306986554     19.725     22.344
REMARK  6 active torsions:
REMARK  status: ('A' for Active; 'I' for Inactive)
REMARK    1  A    between atoms: C2_2  and  N1_3 
REMARK    2  A    between atoms: N1_3  and  C3_4 
REMARK       I    between atoms: N1_3  and  C5_6 
REMARK    3  A    between atoms: C5_6  and  C6_8 
REMARK    4  A    between atoms: C8_10  and  C9_11 
REMARK    5  A    between atoms: C11_13  and  O2_14 
REMARK    6  A    between atoms: C17_21  and  O3_22 
ROOT
HETATM    1  C9  UNL     1      -8.981  -9.588  52.782  1.00  0.00     0.019 C 
HETATM    2  C10 UNL     1      -8.483 -11.047  52.678  1.00  0.00     0.039 C 
HETATM    3  C11 UNL     1      -7.678 -11.148  51.412  1.00  0.00     0.124 C 
HETATM    4  C12 UNL     1      -7.980  -9.834  50.743  1.00  0.00     0.031 C 
HETATM    5  C13 UNL     1      -7.333  -9.571  49.482  1.00  0.00    -0.039 C 
HETATM    6  C14 UNL     1      -8.339  -9.527  48.305  1.00  0.00     0.015 C 
HETATM    7  C15 UNL     1      -6.406 -10.733  49.046  1.00  0.00     0.015 C 
HETATM    8  C16 UNL     1      -6.484  -8.362  49.279  1.00  0.00     0.041 C 
HETATM    9  C17 UNL     1      -7.140  -7.054  49.502  1.00  0.00     0.118 C 
HETATM   10  C18 UNL     1      -7.383  -6.706  50.929  1.00  0.00     0.032 C 
HETATM   11  C19 UNL     1      -8.523  -7.575  51.421  1.00  0.00     0.012 C 
HETATM   12  C20 UNL     1      -7.977  -8.876  51.882  1.00  0.00    -0.032 C 
HETATM   13  C21 UNL     1      -6.724  -8.759  52.668  1.00  0.00     0.016 C 
ENDROOT
BRANCH   1  14
HETATM   14  C8  UNL     1      -8.975  -9.204  54.200  1.00  0.00     0.090 C 
HETATM   15  C7  UNL     1      -9.903  -8.121  54.640  1.00  0.00     0.049 C 
HETATM   16  C6  UNL     1     -10.136  -8.449  56.137  1.00  0.00     0.171 C 
HETATM   17  C22 UNL     1     -10.382  -9.921  55.969  1.00  0.00     0.231 C 
HETATM   18  N2  UNL     1      -9.416 -10.366  54.991  1.00  0.00    -0.355 N 
HETATM   19  O4  UNL     1     -11.194 -10.691  56.488  1.00  0.00    -0.273 OA
ATOM     20  H2  UNL     1      -9.092 -11.326  54.870  1.00  0.00     0.162 HD
BRANCH  16  21
HETATM   21  C5  UNL     1     -11.296  -7.731  56.659  1.00  0.00     0.233 C 
HETATM   22  N1  UNL     1     -11.522  -7.418  58.012  1.00  0.00    -0.352 N 
HETATM   23  O1  UNL     1     -12.169  -7.365  55.802  1.00  0.00    -0.272 OA
BRANCH  22  24
HETATM   24  C2  UNL     1     -12.760  -6.714  58.386  1.00  0.00     0.121 C 
HETATM   25  C1  UNL     1     -13.745  -7.664  59.023  1.00  0.00     0.026 C 
ENDBRANCH  22  24
BRANCH  22  26
HETATM   26  C3  UNL     1     -10.553  -7.762  59.008  1.00  0.00     0.121 C 
HETATM   27  C4  UNL     1     -10.192  -6.586  59.894  1.00  0.00     0.026 C 
ENDBRANCH  22  26
ENDBRANCH  16  21
ENDBRANCH   1  14
BRANCH   3  28
HETATM   28  O2  UNL     1      -6.378 -11.458  51.589  1.00  0.00    -0.395 OA
ATOM     29  H2  UNL     1      -5.786 -11.080  50.949  1.00  0.00     0.210 HD
ENDBRANCH   3  28
BRANCH   9  30
HETATM   30  O3  UNL     1      -8.333  -6.898  48.806  1.00  0.00    -0.396 OA
ATOM     31  H3  UNL     1      -8.971  -6.356  49.254  1.00  0.00     0.210 HD
ENDBRANCH   9  30
TORSDOF 6
ENDMDL
MODEL 5
REMARK VINA RESULT: -5.305554354     20.291     23.031
REMARK  6 active torsions:
REMARK  status: ('A' for Active; 'I' for Inactive)
REMARK    1  A    between atoms: C2_2  and  N1_3 
REMARK    2  A    between atoms: N1_3  and  C3_4 
REMARK       I    between atoms: N1_3  and  C5_6 
REMARK    3  A    between atoms: C5_6  and  C6_8 
REMARK    4  A    between atoms: C8_10  and  C9_11 
REMARK    5  A    between atoms: C11_13  and  O2_14 
REMARK    6  A    between atoms: C17_21  and  O3_22 
ROOT
HETATM    1  C9  UNL     1      -8.078  -8.724  51.614  1.00  0.00     0.019 C 
HETATM    2  C10 UNL     1      -8.386  -7.246  51.288  1.00  0.00     0.039 C 
HETATM    3  C11 UNL     1      -7.988  -7.018  49.856  1.00  0.00     0.124 C 
HETATM    4  C12 UNL     1      -7.242  -8.285  49.534  1.00  0.00     0.031 C 
HETATM    5  C13 UNL     1      -6.729  -8.427  48.193  1.00  0.00    -0.039 C 
HETATM    6  C14 UNL     1      -5.180  -8.413  48.155  1.00  0.00     0.015 C 
HETATM    7  C15 UNL     1      -7.066  -7.203  47.305  1.00  0.00     0.015 C 
HETATM    8  C16 UNL     1      -7.103  -9.587  47.335  1.00  0.00     0.041 C 
HETATM    9  C17 UNL     1      -6.783 -10.929  47.869  1.00  0.00     0.118 C 
HETATM   10  C18 UNL     1      -7.668 -11.396  48.971  1.00  0.00     0.032 C 
HETATM   11  C19 UNL     1      -7.302 -10.608  50.212  1.00  0.00     0.012 C 
HETATM   12  C20 UNL     1      -8.056  -9.329  50.214  1.00  0.00    -0.032 C 
HETATM   13  C21 UNL     1      -9.473  -9.465  49.797  1.00  0.00     0.016 C 
ENDROOT
BRANCH   1  14
HETATM   14  C8  UNL     1      -9.122  -9.217  52.522  1.00  0.00     0.090 C 
HETATM   15  C7  UNL     1      -8.734 -10.212  53.566  1.00  0.00     0.049 C 
HETATM   16  C6  UNL     1      -9.788  -9.978  54.678  1.00  0.00     0.171 C 
HETATM   17  C22 UNL     1      -9.709  -8.479  54.698  1.00  0.00     0.231 C 
HETATM   18  N2  UNL     1      -9.618  -8.077  53.313  1.00  0.00    -0.355 N 
HETATM   19  O4  UNL     1      -9.711  -7.660  55.621  1.00  0.00    -0.273 OA
ATOM     20  H2  UNL     1      -9.858  -7.157  52.943  1.00  0.00     0.162 HD
BRANCH  16  21
HETATM   21  C5  UNL     1      -9.371 -10.590  55.937  1.00  0.00     0.233 C 
HETATM   22  N1  UNL     1     -10.219 -10.901  57.015  1.00  0.00    -0.352 N 
HETATM   23  O1  UNL     1      -8.127 -10.856  56.052  1.00  0.00    -0.272 OA
BRANCH  22  24
HETATM   24  C2  UNL     1      -9.639 -11.489  58.235  1.00  0.00     0.121 C 
HETATM   25  C1  UNL     1      -9.623 -10.483  59.359  1.00  0.00     0.026 C 
ENDBRANCH  22  24
BRANCH  22  26
HETATM   26  C3  UNL     1     -11.627 -10.668  56.921  1.00  0.00     0.121 C 
HETATM   27  C4  UNL     1     -12.401 -11.930  56.594  1.00  0.00     0.026 C 
ENDBRANCH  22  26
ENDBRANCH  16  21
ENDBRANCH   1  14
BRANCH   3  28
HETATM   28  O2  UNL     1      -8.999  -6.679  49.032  1.00  0.00    -0.395 OA
ATOM     29  H2  UNL     1      -8.929  -5.813  48.648  1.00  0.00     0.210 HD
ENDBRANCH   3  28
BRANCH   9  30
HETATM   30  O3  UNL     1      -5.463 -11.070  48.279  1.00  0.00    -0.396 OA
ATOM     31  H3  UNL     1      -4.969 -11.705  47.772  1.00  0.00     0.210 HD
ENDBRANCH   9  30
TORSDOF 6
ENDMDL
