MODEL 1
REMARK VINA RESULT: -6.724883780      0.000      0.000
REMARK  5 active torsions:
REMARK  status: ('A' for Active; 'I' for Inactive)
REMARK    1  A    between atoms: N1_1  and  C1_4 
REMARK    2  A    between atoms: C4_10  and  C5_11 
REMARK    3  A    between atoms: C5_11  and  O1_12 
REMARK    4  A    between atoms: O1_12  and  C6_13 
REMARK    5  A    between atoms: C16_23  and  O2_24 
ROOT
HETATM    1  C1  UNL     1      48.849  33.497  84.721  1.00  0.00     0.102 A 
HETATM    2  C2  UNL     1      49.170  32.204  85.062  1.00  0.00     0.160 A 
HETATM    3  F1  UNL     1      50.474  31.811  85.076  1.00  0.00    -0.202 F 
HETATM    4  C3  UNL     1      48.163  31.317  85.388  1.00  0.00     0.133 A 
HETATM    5  N2  UNL     1      46.871  31.704  85.374  1.00  0.00    -0.362 N 
ATOM      6  H2  UNL     1      46.151  31.026  85.619  1.00  0.00     0.165 HD
HETATM    7  C4  UNL     1      46.503  32.954  85.048  1.00  0.00     0.069 A 
HETATM    8  C16 UNL     1      47.502  33.845  84.723  1.00  0.00     0.120 A 
ENDROOT
BRANCH   7   9
HETATM    9  C5  UNL     1      45.059  33.373  85.036  1.00  0.00     0.228 C 
BRANCH   9  10
HETATM   10  O1  UNL     1      44.830  34.433  85.872  1.00  0.00    -0.374 OA
BRANCH  10  11
HETATM   11  C6  UNL     1      43.831  35.240  85.404  1.00  0.00     0.062 C 
HETATM   12  C7  UNL     1      42.451  34.716  85.760  1.00  0.00     0.043 C 
HETATM   13  C8  UNL     1      41.400  35.734  85.429  1.00  0.00    -0.011 C 
HETATM   14  C9  UNL     1      41.597  37.058  86.082  1.00  0.00     0.009 C 
HETATM   15  C13 UNL     1      41.462  35.955  83.915  1.00  0.00     0.009 C 
HETATM   16  C10 UNL     1      42.957  37.585  85.684  1.00  0.00    -0.011 C 
HETATM   17  C11 UNL     1      43.016  37.812  84.193  1.00  0.00     0.009 C 
HETATM   18  C15 UNL     1      43.980  36.575  86.149  1.00  0.00     0.043 C 
HETATM   19  C12 UNL     1      42.811  36.472  83.530  1.00  0.00    -0.011 C 
HETATM   20  C14 UNL     1      43.944  35.561  83.941  1.00  0.00     0.043 C 
ENDBRANCH  10  11
ENDBRANCH   9  10
ENDBRANCH   7   9
BRANCH   8  21
HETATM   21  O2  UNL     1      47.170  35.133  84.383  1.00  0.00    -0.357 OA
ATOM     22  H2  UNL     1      46.562  35.260  83.665  1.00  0.00     0.218 HD
ENDBRANCH   8  21
BRANCH   1  23
HETATM   23  N1  UNL     1      49.772  34.348  84.412  1.00  0.00    -0.394 N 
ATOM     24  H12 UNL     1      50.709  34.295  84.811  1.00  0.00     0.156 HD
ATOM     25  H11 UNL     1      49.585  35.104  83.753  1.00  0.00     0.156 HD
ENDBRANCH   1  23
TORSDOF 5
ENDMDL
MODEL 2
REMARK VINA RESULT: -6.679671152      0.107      1.607
REMARK  5 active torsions:
REMARK  status: ('A' for Active; 'I' for Inactive)
REMARK    1  A    between atoms: N1_1  and  C1_4 
REMARK    2  A    between atoms: C4_10  and  C5_11 
REMARK    3  A    between atoms: C5_11  and  O1_12 
REMARK    4  A    between atoms: O1_12  and  C6_13 
REMARK    5  A    between atoms: C16_23  and  O2_24 
ROOT
HETATM    1  C1  UNL     1      48.858  33.492  84.709  1.00  0.00     0.102 A 
HETATM    2  C2  UNL     1      49.138  32.188  85.045  1.00  0.00     0.160 A 
HETATM    3  F1  UNL     1      50.429  31.751  85.044  1.00  0.00    -0.202 F 
HETATM    4  C3  UNL     1      48.105  31.335  85.380  1.00  0.00     0.133 A 
HETATM    5  N2  UNL     1      46.827  31.766  85.381  1.00  0.00    -0.362 N 
ATOM      6  H2  UNL     1      46.087  31.112  85.633  1.00  0.00     0.165 HD
HETATM    7  C4  UNL     1      46.498  33.028  85.061  1.00  0.00     0.069 A 
HETATM    8  C16 UNL     1      47.523  33.885  84.726  1.00  0.00     0.120 A 
ENDROOT
BRANCH   7   9
HETATM    9  C5  UNL     1      45.070  33.496  85.065  1.00  0.00     0.228 C 
BRANCH   9  10
HETATM   10  O1  UNL     1      44.862  34.487  85.988  1.00  0.00    -0.374 OA
BRANCH  10  11
HETATM   11  C6  UNL     1      43.951  35.406  85.546  1.00  0.00     0.062 C 
HETATM   12  C7  UNL     1      44.008  35.595  84.041  1.00  0.00     0.043 C 
HETATM   13  C8  UNL     1      42.854  36.433  83.572  1.00  0.00    -0.011 C 
HETATM   14  C9  UNL     1      41.515  35.900  83.942  1.00  0.00     0.009 C 
HETATM   15  C13 UNL     1      43.004  37.803  84.242  1.00  0.00     0.009 C 
HETATM   16  C10 UNL     1      41.460  35.757  85.446  1.00  0.00    -0.011 C 
HETATM   17  C11 UNL     1      41.598  37.107  86.107  1.00  0.00     0.009 C 
HETATM   18  C15 UNL     1      42.568  34.809  85.844  1.00  0.00     0.043 C 
HETATM   19  C12 UNL     1      42.954  37.651  85.729  1.00  0.00    -0.011 C 
HETATM   20  C14 UNL     1      44.009  36.718  86.274  1.00  0.00     0.043 C 
ENDBRANCH  10  11
ENDBRANCH   9  10
ENDBRANCH   7   9
BRANCH   8  21
HETATM   21  O2  UNL     1      47.232  35.184  84.392  1.00  0.00    -0.357 OA
ATOM     22  H2  UNL     1      46.492  35.340  83.817  1.00  0.00     0.218 HD
ENDBRANCH   8  21
BRANCH   1  23
HETATM   23  N1  UNL     1      49.806  34.311  84.391  1.00  0.00    -0.394 N 
ATOM     24  H12 UNL     1      49.697  35.322  84.478  1.00  0.00     0.156 HD
ATOM     25  H11 UNL     1      50.699  33.964  84.040  1.00  0.00     0.156 HD
ENDBRANCH   1  23
TORSDOF 5
ENDMDL
MODEL 3
REMARK VINA RESULT: -6.674388542      0.950      2.277
REMARK  5 active torsions:
REMARK  status: ('A' for Active; 'I' for Inactive)
REMARK    1  A    between atoms: N1_1  and  C1_4 
REMARK    2  A    between atoms: C4_10  and  C5_11 
REMARK    3  A    between atoms: C5_11  and  O1_12 
REMARK    4  A    between atoms: O1_12  and  C6_13 
REMARK    5  A    between atoms: C16_23  and  O2_24 
ROOT
HETATM    1  C1  UNL     1      48.379  31.766  85.223  1.00  0.00     0.102 A 
HETATM    2  C2  UNL     1      49.616  32.316  84.977  1.00  0.00     0.160 A 
HETATM    3  F1  UNL     1      50.738  31.561  85.140  1.00  0.00    -0.202 F 
HETATM    4  C3  UNL     1      49.704  33.632  84.566  1.00  0.00     0.133 A 
HETATM    5  N2  UNL     1      48.595  34.380  84.405  1.00  0.00    -0.362 N 
ATOM      6  H2  UNL     1      48.694  35.348  84.100  1.00  0.00     0.165 HD
HETATM    7  C4  UNL     1      47.364  33.893  84.632  1.00  0.00     0.069 A 
HETATM    8  C16 UNL     1      47.267  32.581  85.041  1.00  0.00     0.120 A 
ENDROOT
BRANCH   7   9
HETATM    9  C5  UNL     1      46.134  34.738  84.448  1.00  0.00     0.228 C 
BRANCH   9  10
HETATM   10  O1  UNL     1      45.296  34.659  85.529  1.00  0.00    -0.374 OA
BRANCH  10  11
HETATM   11  C6  UNL     1      44.160  35.394  85.341  1.00  0.00     0.062 C 
HETATM   12  C7  UNL     1      44.105  36.612  86.247  1.00  0.00     0.043 C 
HETATM   13  C8  UNL     1      42.965  37.507  85.857  1.00  0.00    -0.011 C 
HETATM   14  C9  UNL     1      42.995  37.961  84.440  1.00  0.00     0.009 C 
HETATM   15  C13 UNL     1      41.681  36.695  86.053  1.00  0.00     0.009 C 
HETATM   16  C10 UNL     1      43.006  36.738  83.550  1.00  0.00    -0.011 C 
HETATM   17  C11 UNL     1      41.737  35.942  83.736  1.00  0.00     0.009 C 
HETATM   18  C15 UNL     1      44.239  35.940  83.908  1.00  0.00     0.043 C 
HETATM   19  C12 UNL     1      41.703  35.486  85.174  1.00  0.00    -0.011 C 
HETATM   20  C14 UNL     1      42.894  34.589  85.415  1.00  0.00     0.043 C 
ENDBRANCH  10  11
ENDBRANCH   9  10
ENDBRANCH   7   9
BRANCH   8  21
HETATM   21  O2  UNL     1      46.029  32.042  85.285  1.00  0.00    -0.357 OA
ATOM     22  H2  UNL     1      45.839  31.746  86.166  1.00  0.00     0.218 HD
ENDBRANCH   8  21
BRANCH   1  23
HETATM   23  N1  UNL     1      48.268  30.537  85.609  1.00  0.00    -0.394 N 
ATOM     24  H12 UNL     1      47.764  29.842  85.058  1.00  0.00     0.156 HD
ATOM     25  H11 UNL     1      48.687  30.226  86.486  1.00  0.00     0.156 HD
ENDBRANCH   1  23
TORSDOF 5
ENDMDL
MODEL 4
REMARK VINA RESULT: -6.562480327      0.950      2.391
REMARK  5 active torsions:
REMARK  status: ('A' for Active; 'I' for Inactive)
REMARK    1  A    between atoms: N1_1  and  C1_4 
REMARK    2  A    between atoms: C4_10  and  C5_11 
REMARK    3  A    between atoms: C5_11  and  O1_12 
REMARK    4  A    between atoms: O1_12  and  C6_13 
REMARK    5  A    between atoms: C16_23  and  O2_24 
ROOT
HETATM    1  C1  UNL     1      48.325  31.780  85.247  1.00  0.00     0.102 A 
HETATM    2  C2  UNL     1      49.570  32.315  85.007  1.00  0.00     0.160 A 
HETATM    3  F1  UNL     1      50.682  31.550  85.189  1.00  0.00    -0.202 F 
HETATM    4  C3  UNL     1      49.676  33.625  84.584  1.00  0.00     0.133 A 
HETATM    5  N2  UNL     1      48.576  34.383  84.404  1.00  0.00    -0.362 N 
ATOM      6  H2  UNL     1      48.687  35.347  84.090  1.00  0.00     0.165 HD
HETATM    7  C4  UNL     1      47.338  33.911  84.623  1.00  0.00     0.069 A 
HETATM    8  C16 UNL     1      47.224  32.605  85.045  1.00  0.00     0.120 A 
ENDROOT
BRANCH   7   9
HETATM    9  C5  UNL     1      46.119  34.766  84.419  1.00  0.00     0.228 C 
BRANCH   9  10
HETATM   10  O1  UNL     1      45.289  34.739  85.508  1.00  0.00    -0.374 OA
BRANCH  10  11
HETATM   11  C6  UNL     1      44.191  35.532  85.326  1.00  0.00     0.062 C 
HETATM   12  C7  UNL     1      44.077  36.042  83.901  1.00  0.00     0.043 C 
HETATM   13  C8  UNL     1      42.753  36.716  83.686  1.00  0.00    -0.011 C 
HETATM   14  C9  UNL     1      41.572  35.862  83.990  1.00  0.00     0.009 C 
HETATM   15  C13 UNL     1      42.710  37.915  84.638  1.00  0.00     0.009 C 
HETATM   16  C10 UNL     1      41.678  35.397  85.425  1.00  0.00    -0.011 C 
HETATM   17  C11 UNL     1      41.626  36.578  86.364  1.00  0.00     0.009 C 
HETATM   18  C15 UNL     1      42.971  34.625  85.548  1.00  0.00     0.043 C 
HETATM   19  C12 UNL     1      42.821  37.447  86.054  1.00  0.00    -0.011 C 
HETATM   20  C14 UNL     1      44.072  36.646  86.326  1.00  0.00     0.043 C 
ENDBRANCH  10  11
ENDBRANCH   9  10
ENDBRANCH   7   9
BRANCH   8  21
HETATM   21  O2  UNL     1      45.977  32.081  85.281  1.00  0.00    -0.357 OA
ATOM     22  H2  UNL     1      45.260  32.376  84.733  1.00  0.00     0.218 HD
ENDBRANCH   8  21
BRANCH   1  23
HETATM   23  N1  UNL     1      48.198  30.556  85.644  1.00  0.00    -0.394 N 
ATOM     24  H12 UNL     1      47.304  30.185  85.968  1.00  0.00     0.156 HD
ATOM     25  H11 UNL     1      48.996  29.922  85.644  1.00  0.00     0.156 HD
ENDBRANCH   1  23
TORSDOF 5
ENDMDL
MODEL 5
REMARK VINA RESULT: -5.857237757      4.599      6.438
REMARK  5 active torsions:
REMARK  status: ('A' for Active; 'I' for Inactive)
REMARK    1  A    between atoms: N1_1  and  C1_4 
REMARK    2  A    between atoms: C4_10  and  C5_11 
REMARK    3  A    between atoms: C5_11  and  O1_12 
REMARK    4  A    between atoms: O1_12  and  C6_13 
REMARK    5  A    between atoms: C16_23  and  O2_24 
ROOT
HETATM    1  C1  UNL     1      44.359  35.075  84.796  1.00  0.00     0.102 A 
HETATM    2  C2  UNL     1      43.656  35.741  83.819  1.00  0.00     0.160 A 
HETATM    3  F1  UNL     1      43.551  35.201  82.573  1.00  0.00    -0.202 F 
HETATM    4  C3  UNL     1      43.065  36.953  84.115  1.00  0.00     0.133 A 
HETATM    5  N2  UNL     1      43.169  37.490  85.348  1.00  0.00    -0.362 N 
ATOM      6  H2  UNL     1      42.720  38.386  85.535  1.00  0.00     0.165 HD
HETATM    7  C4  UNL     1      43.843  36.882  86.337  1.00  0.00     0.069 A 
HETATM    8  C16 UNL     1      44.435  35.671  86.050  1.00  0.00     0.120 A 
ENDROOT
BRANCH   7   9
HETATM    9  C5  UNL     1      43.952  37.489  87.708  1.00  0.00     0.228 C 
BRANCH   9  10
HETATM   10  O1  UNL     1      45.213  37.960  87.958  1.00  0.00    -0.374 OA
BRANCH  10  11
HETATM   11  C6  UNL     1      45.212  38.914  88.936  1.00  0.00     0.062 C 
HETATM   12  C7  UNL     1      46.463  39.774  88.904  1.00  0.00     0.043 C 
HETATM   13  C8  UNL     1      46.324  40.942  89.837  1.00  0.00    -0.011 C 
HETATM   14  C9  UNL     1      45.138  41.803  89.573  1.00  0.00     0.009 C 
HETATM   15  C13 UNL     1      46.166  40.362  91.246  1.00  0.00     0.009 C 
HETATM   16  C10 UNL     1      43.899  40.940  89.651  1.00  0.00    -0.011 C 
HETATM   17  C11 UNL     1      43.738  40.376  91.042  1.00  0.00     0.009 C 
HETATM   18  C15 UNL     1      44.045  39.856  88.608  1.00  0.00     0.043 C 
HETATM   19  C12 UNL     1      44.942  39.507  91.312  1.00  0.00    -0.011 C 
HETATM   20  C14 UNL     1      44.943  38.376  90.312  1.00  0.00     0.043 C 
ENDBRANCH  10  11
ENDBRANCH   9  10
ENDBRANCH   7   9
BRANCH   8  21
HETATM   21  O2  UNL     1      45.134  35.015  87.033  1.00  0.00    -0.357 OA
ATOM     22  H2  UNL     1      45.993  34.673  86.814  1.00  0.00     0.218 HD
ENDBRANCH   8  21
BRANCH   1  23
HETATM   23  N1  UNL     1      44.923  33.938  84.546  1.00  0.00    -0.394 N 
ATOM     24  H12 UNL     1      45.937  33.830  84.538  1.00  0.00     0.156 HD
ATOM     25  H11 UNL     1      44.361  33.110  84.347  1.00  0.00     0.156 HD
ENDBRANCH   1  23
TORSDOF 5
ENDMDL
