MODEL 1
REMARK VINA RESULT: -8.072911489      0.000      0.000
REMARK  10 active torsions:
REMARK  status: ('A' for Active; 'I' for Inactive)
REMARK    1  A    between atoms: O1_2  and  C2_3 
REMARK    2  A    between atoms: C2_3  and  C3_5 
REMARK    3  A    between atoms: C3_5  and  C4_6 
REMARK    4  A    between atoms: C4_6  and  C5_7 
REMARK    5  A    between atoms: C5_7  and  O4_9 
REMARK    6  A    between atoms: O4_9  and  C6_10 
REMARK    7  A    between atoms: C7_11  and  O5_12 
REMARK    8  A    between atoms: O5_12  and  C8_13 
REMARK    9  A    between atoms: C13_19  and  O7_20 
REMARK   10  A    between atoms: O7_20  and  C14_21 
ROOT
HETATM    1  C6  UNL     1      19.176  14.661  77.646  1.00  0.00     0.170 C 
HETATM    2  C7  UNL     1      18.336  13.472  77.360  1.00  0.00     0.170 C 
HETATM    3  C10 UNL     1      19.002  12.170  77.283  1.00  0.00    -0.008 C 
HETATM    4  C11 UNL     1      18.438  11.458  76.037  1.00  0.00     0.018 C 
HETATM    5  C12 UNL     1      18.568  11.237  78.430  1.00  0.00     0.045 C 
HETATM    6  C13 UNL     1      19.832  10.350  78.525  1.00  0.00     0.137 C 
HETATM    7  C16 UNL     1      20.836  11.469  78.539  1.00  0.00     0.022 C 
HETATM    8  C17 UNL     1      22.198  11.221  78.949  1.00  0.00     0.021 C 
HETATM    9  C18 UNL     1      23.241  10.626  78.131  1.00  0.00    -0.020 C 
HETATM   10  C19 UNL     1      24.617  10.945  78.710  1.00  0.00     0.020 C 
HETATM   11  C20 UNL     1      23.225   9.155  77.802  1.00  0.00     0.018 C 
HETATM   12  C21 UNL     1      23.685   9.614  76.410  1.00  0.00     0.036 C 
HETATM   13  C22 UNL     1      23.244  10.992  76.698  1.00  0.00    -0.075 C 
HETATM   14  C23 UNL     1      22.952  12.101  76.052  1.00  0.00    -0.023 C 
HETATM   15  C24 UNL     1      22.490  13.480  76.430  1.00  0.00     0.033 C 
HETATM   16  C25 UNL     1      21.205  13.460  77.241  1.00  0.00     0.005 C 
HETATM   17  C26 UNL     1      20.509  12.167  77.269  1.00  0.00     0.008 C 
HETATM   18  C27 UNL     1      20.390  14.643  76.764  1.00  0.00    -0.014 C 
HETATM   19  C28 UNL     1      20.080  14.620  75.313  1.00  0.00     0.018 C 
HETATM   20  C29 UNL     1      21.206  15.891  77.136  1.00  0.00     0.018 C 
ENDROOT
BRANCH   1  21
HETATM   21  O4  UNL     1      18.436  15.834  77.262  1.00  0.00    -0.312 OA
BRANCH  21  22
HETATM   22  C5  UNL     1      17.884  16.717  78.144  1.00  0.00     0.259 C 
HETATM   23  O3  UNL     1      17.159  17.647  77.711  1.00  0.00    -0.265 OA
BRANCH  22  24
HETATM   24  C4  UNL     1      18.139  16.578  79.611  1.00  0.00     0.121 C 
BRANCH  24  25
HETATM   25  C3  UNL     1      16.842  16.710  80.397  1.00  0.00     0.121 C 
BRANCH  25  26
HETATM   26  C2  UNL     1      16.715  18.112  80.861  1.00  0.00     0.258 C 
HETATM   27  O2  UNL     1      17.598  18.710  81.528  1.00  0.00    -0.265 OA
BRANCH  26  28
HETATM   28  O1  UNL     1      15.556  18.864  80.563  1.00  0.00    -0.326 OA
HETATM   29  C1  UNL     1      15.687  20.087  79.883  1.00  0.00     0.213 C 
ENDBRANCH  26  28
ENDBRANCH  25  26
ENDBRANCH  24  25
ENDBRANCH  22  24
ENDBRANCH  21  22
ENDBRANCH   1  21
BRANCH   2  30
HETATM   30  O5  UNL     1      17.343  13.413  78.396  1.00  0.00    -0.313 OA
BRANCH  30  31
HETATM   31  C8  UNL     1      15.980  13.422  78.136  1.00  0.00     0.255 C 
HETATM   32  C9  UNL     1      15.102  12.267  78.503  1.00  0.00     0.126 C 
HETATM   33  O6  UNL     1      15.489  14.437  77.576  1.00  0.00    -0.266 OA
ENDBRANCH  30  31
ENDBRANCH   2  30
BRANCH   6  34
HETATM   34  O7  UNL     1      19.852   9.623  79.727  1.00  0.00    -0.316 OA
BRANCH  34  35
HETATM   35  C14 UNL     1      19.688   8.267  79.832  1.00  0.00     0.255 C 
HETATM   36  C15 UNL     1      18.325   7.722  80.108  1.00  0.00     0.126 C 
HETATM   37  O8  UNL     1      20.675   7.518  79.694  1.00  0.00    -0.266 OA
ENDBRANCH  34  35
ENDBRANCH   6  34
TORSDOF 10
ENDMDL
MODEL 2
REMARK VINA RESULT: -8.022479353      1.383      2.138
REMARK  10 active torsions:
REMARK  status: ('A' for Active; 'I' for Inactive)
REMARK    1  A    between atoms: O1_2  and  C2_3 
REMARK    2  A    between atoms: C2_3  and  C3_5 
REMARK    3  A    between atoms: C3_5  and  C4_6 
REMARK    4  A    between atoms: C4_6  and  C5_7 
REMARK    5  A    between atoms: C5_7  and  O4_9 
REMARK    6  A    between atoms: O4_9  and  C6_10 
REMARK    7  A    between atoms: C7_11  and  O5_12 
REMARK    8  A    between atoms: O5_12  and  C8_13 
REMARK    9  A    between atoms: C13_19  and  O7_20 
REMARK   10  A    between atoms: O7_20  and  C14_21 
ROOT
HETATM    1  C6  UNL     1      19.167  14.683  77.669  1.00  0.00     0.170 C 
HETATM    2  C7  UNL     1      18.328  13.494  77.379  1.00  0.00     0.170 C 
HETATM    3  C10 UNL     1      18.997  12.192  77.295  1.00  0.00    -0.008 C 
HETATM    4  C11 UNL     1      18.431  11.485  76.047  1.00  0.00     0.018 C 
HETATM    5  C12 UNL     1      18.567  11.254  78.438  1.00  0.00     0.045 C 
HETATM    6  C13 UNL     1      19.833  10.369  78.526  1.00  0.00     0.137 C 
HETATM    7  C16 UNL     1      20.834  11.489  78.544  1.00  0.00     0.022 C 
HETATM    8  C17 UNL     1      22.198  11.242  78.950  1.00  0.00     0.021 C 
HETATM    9  C18 UNL     1      23.241  10.652  78.127  1.00  0.00    -0.020 C 
HETATM   10  C19 UNL     1      24.617  10.971  78.704  1.00  0.00     0.020 C 
HETATM   11  C20 UNL     1      23.226   9.182  77.791  1.00  0.00     0.018 C 
HETATM   12  C21 UNL     1      23.682   9.649  76.401  1.00  0.00     0.036 C 
HETATM   13  C22 UNL     1      23.240  11.025  76.695  1.00  0.00    -0.075 C 
HETATM   14  C23 UNL     1      22.945  12.136  76.055  1.00  0.00    -0.023 C 
HETATM   15  C24 UNL     1      22.481  13.513  76.440  1.00  0.00     0.033 C 
HETATM   16  C25 UNL     1      21.198  13.486  77.254  1.00  0.00     0.005 C 
HETATM   17  C26 UNL     1      20.504  12.192  77.278  1.00  0.00     0.008 C 
HETATM   18  C27 UNL     1      20.380  14.670  76.784  1.00  0.00    -0.014 C 
HETATM   19  C28 UNL     1      20.067  14.653  75.333  1.00  0.00     0.018 C 
HETATM   20  C29 UNL     1      21.194  15.919  77.160  1.00  0.00     0.018 C 
ENDROOT
BRANCH   1  21
HETATM   21  O4  UNL     1      18.424  15.856  77.292  1.00  0.00    -0.312 OA
BRANCH  21  22
HETATM   22  C5  UNL     1      17.822  16.702  78.178  1.00  0.00     0.259 C 
HETATM   23  O3  UNL     1      18.059  16.577  79.405  1.00  0.00    -0.265 OA
BRANCH  22  24
HETATM   24  C4  UNL     1      16.892  17.766  77.691  1.00  0.00     0.121 C 
BRANCH  24  25
HETATM   25  C3  UNL     1      17.516  18.541  76.540  1.00  0.00     0.121 C 
BRANCH  25  26
HETATM   26  C2  UNL     1      16.835  18.148  75.284  1.00  0.00     0.258 C 
HETATM   27  O2  UNL     1      17.331  17.363  74.437  1.00  0.00    -0.265 OA
BRANCH  26  28
HETATM   28  O1  UNL     1      15.553  18.655  74.975  1.00  0.00    -0.326 OA
HETATM   29  C1  UNL     1      15.349  20.046  74.962  1.00  0.00     0.213 C 
ENDBRANCH  26  28
ENDBRANCH  25  26
ENDBRANCH  24  25
ENDBRANCH  22  24
ENDBRANCH  21  22
ENDBRANCH   1  21
BRANCH   2  30
HETATM   30  O5  UNL     1      17.338  13.428  78.417  1.00  0.00    -0.313 OA
BRANCH  30  31
HETATM   31  C8  UNL     1      15.975  13.395  78.158  1.00  0.00     0.255 C 
HETATM   32  C9  UNL     1      15.130  12.220  78.538  1.00  0.00     0.126 C 
HETATM   33  O6  UNL     1      15.455  14.389  77.588  1.00  0.00    -0.266 OA
ENDBRANCH  30  31
ENDBRANCH   2  30
BRANCH   6  34
HETATM   34  O7  UNL     1      19.857   9.636  79.725  1.00  0.00    -0.316 OA
BRANCH  34  35
HETATM   35  C14 UNL     1      19.696   8.280  79.824  1.00  0.00     0.255 C 
HETATM   36  C15 UNL     1      18.336   7.730  80.104  1.00  0.00     0.126 C 
HETATM   37  O8  UNL     1      20.685   7.533  79.679  1.00  0.00    -0.266 OA
ENDBRANCH  34  35
ENDBRANCH   6  34
TORSDOF 10
ENDMDL
MODEL 3
REMARK VINA RESULT: -7.967742590      2.093      8.131
REMARK  10 active torsions:
REMARK  status: ('A' for Active; 'I' for Inactive)
REMARK    1  A    between atoms: O1_2  and  C2_3 
REMARK    2  A    between atoms: C2_3  and  C3_5 
REMARK    3  A    between atoms: C3_5  and  C4_6 
REMARK    4  A    between atoms: C4_6  and  C5_7 
REMARK    5  A    between atoms: C5_7  and  O4_9 
REMARK    6  A    between atoms: O4_9  and  C6_10 
REMARK    7  A    between atoms: C7_11  and  O5_12 
REMARK    8  A    between atoms: O5_12  and  C8_13 
REMARK    9  A    between atoms: C13_19  and  O7_20 
REMARK   10  A    between atoms: O7_20  and  C14_21 
ROOT
HETATM    1  C6  UNL     1      19.974  13.185  77.539  1.00  0.00     0.170 C 
HETATM    2  C7  UNL     1      19.765  14.612  77.191  1.00  0.00     0.170 C 
HETATM    3  C10 UNL     1      18.493  15.228  77.579  1.00  0.00    -0.008 C 
HETATM    4  C11 UNL     1      18.004  16.035  76.358  1.00  0.00     0.018 C 
HETATM    5  C12 UNL     1      18.687  16.319  78.648  1.00  0.00     0.045 C 
HETATM    6  C13 UNL     1      17.299  16.256  79.327  1.00  0.00     0.137 C 
HETATM    7  C16 UNL     1      17.247  14.764  79.492  1.00  0.00     0.022 C 
HETATM    8  C17 UNL     1      16.284  14.161  80.385  1.00  0.00     0.021 C 
HETATM    9  C18 UNL     1      14.879  13.931  80.095  1.00  0.00    -0.020 C 
HETATM   10  C19 UNL     1      14.305  12.887  81.048  1.00  0.00     0.020 C 
HETATM   11  C20 UNL     1      13.899  15.076  80.043  1.00  0.00     0.018 C 
HETATM   12  C21 UNL     1      13.314  14.323  78.838  1.00  0.00     0.036 C 
HETATM   13  C22 UNL     1      14.549  13.527  78.711  1.00  0.00    -0.075 C 
HETATM   14  C23 UNL     1      15.166  12.779  77.821  1.00  0.00    -0.023 C 
HETATM   15  C24 UNL     1      16.451  12.002  77.769  1.00  0.00     0.033 C 
HETATM   16  C25 UNL     1      17.664  12.865  78.076  1.00  0.00     0.005 C 
HETATM   17  C26 UNL     1      17.410  14.311  78.087  1.00  0.00     0.008 C 
HETATM   18  C27 UNL     1      18.762  12.390  77.148  1.00  0.00    -0.014 C 
HETATM   19  C28 UNL     1      18.419  12.482  75.707  1.00  0.00     0.018 C 
HETATM   20  C29 UNL     1      19.056  10.937  77.556  1.00  0.00     0.018 C 
ENDROOT
BRANCH   1  21
HETATM   21  O4  UNL     1      21.047  12.680  76.725  1.00  0.00    -0.312 OA
BRANCH  21  22
HETATM   22  C5  UNL     1      22.191  12.124  77.219  1.00  0.00     0.259 C 
HETATM   23  O3  UNL     1      22.992  12.841  77.870  1.00  0.00    -0.265 OA
BRANCH  22  24
HETATM   24  C4  UNL     1      22.487  10.676  76.990  1.00  0.00     0.121 C 
BRANCH  24  25
HETATM   25  C3  UNL     1      22.268   9.875  78.265  1.00  0.00     0.121 C 
BRANCH  25  26
HETATM   26  C2  UNL     1      23.326   8.842  78.359  1.00  0.00     0.258 C 
HETATM   27  O2  UNL     1      23.098   7.627  78.592  1.00  0.00    -0.265 OA
BRANCH  26  28
HETATM   28  O1  UNL     1      24.684   9.188  78.183  1.00  0.00    -0.326 OA
HETATM   29  C1  UNL     1      25.262  10.154  79.026  1.00  0.00     0.213 C 
ENDBRANCH  26  28
ENDBRANCH  25  26
ENDBRANCH  24  25
ENDBRANCH  22  24
ENDBRANCH  21  22
ENDBRANCH   1  21
BRANCH   2  30
HETATM   30  O5  UNL     1      20.831  15.346  77.814  1.00  0.00    -0.313 OA
BRANCH  30  31
HETATM   31  C8  UNL     1      21.728  16.127  77.098  1.00  0.00     0.255 C 
HETATM   32  C9  UNL     1      23.199  15.861  77.127  1.00  0.00     0.126 C 
HETATM   33  O6  UNL     1      21.270  17.079  76.414  1.00  0.00    -0.266 OA
ENDBRANCH  30  31
ENDBRANCH   2  30
BRANCH   6  34
HETATM   34  O7  UNL     1      17.312  16.913  80.569  1.00  0.00    -0.316 OA
BRANCH  34  35
HETATM   35  C14 UNL     1      16.798  18.160  80.808  1.00  0.00     0.255 C 
HETATM   36  C15 UNL     1      15.451  18.505  80.265  1.00  0.00     0.126 C 
HETATM   37  O8  UNL     1      17.464  18.980  81.472  1.00  0.00    -0.266 OA
ENDBRANCH  34  35
ENDBRANCH   6  34
TORSDOF 10
ENDMDL
MODEL 4
REMARK VINA RESULT: -7.909100980      1.483      2.309
REMARK  10 active torsions:
REMARK  status: ('A' for Active; 'I' for Inactive)
REMARK    1  A    between atoms: O1_2  and  C2_3 
REMARK    2  A    between atoms: C2_3  and  C3_5 
REMARK    3  A    between atoms: C3_5  and  C4_6 
REMARK    4  A    between atoms: C4_6  and  C5_7 
REMARK    5  A    between atoms: C5_7  and  O4_9 
REMARK    6  A    between atoms: O4_9  and  C6_10 
REMARK    7  A    between atoms: C7_11  and  O5_12 
REMARK    8  A    between atoms: O5_12  and  C8_13 
REMARK    9  A    between atoms: C13_19  and  O7_20 
REMARK   10  A    between atoms: O7_20  and  C14_21 
ROOT
HETATM    1  C6  UNL     1      19.181  14.622  77.523  1.00  0.00     0.170 C 
HETATM    2  C7  UNL     1      18.339  13.432  77.243  1.00  0.00     0.170 C 
HETATM    3  C10 UNL     1      18.997  12.122  77.220  1.00  0.00    -0.008 C 
HETATM    4  C11 UNL     1      18.461  11.382  75.977  1.00  0.00     0.018 C 
HETATM    5  C12 UNL     1      18.523  11.223  78.378  1.00  0.00     0.045 C 
HETATM    6  C13 UNL     1      19.777  10.330  78.532  1.00  0.00     0.137 C 
HETATM    7  C16 UNL     1      20.788  11.441  78.545  1.00  0.00     0.022 C 
HETATM    8  C17 UNL     1      22.137  11.195  79.000  1.00  0.00     0.021 C 
HETATM    9  C18 UNL     1      23.198  10.570  78.227  1.00  0.00    -0.020 C 
HETATM   10  C19 UNL     1      24.559  10.894  78.836  1.00  0.00     0.020 C 
HETATM   11  C20 UNL     1      23.178   9.091  77.937  1.00  0.00     0.018 C 
HETATM   12  C21 UNL     1      23.681   9.509  76.547  1.00  0.00     0.036 C 
HETATM   13  C22 UNL     1      23.244  10.898  76.786  1.00  0.00    -0.075 C 
HETATM   14  C23 UNL     1      22.979  11.991  76.103  1.00  0.00    -0.023 C 
HETATM   15  C24 UNL     1      22.518  13.383  76.431  1.00  0.00     0.033 C 
HETATM   16  C25 UNL     1      21.210  13.394  77.206  1.00  0.00     0.005 C 
HETATM   17  C26 UNL     1      20.503  12.108  77.249  1.00  0.00     0.008 C 
HETATM   18  C27 UNL     1      20.419  14.571  76.675  1.00  0.00    -0.014 C 
HETATM   19  C28 UNL     1      20.150  14.511  75.217  1.00  0.00     0.018 C 
HETATM   20  C29 UNL     1      21.234  15.822  77.037  1.00  0.00     0.018 C 
ENDROOT
BRANCH   1  21
HETATM   21  O4  UNL     1      18.461  15.789  77.087  1.00  0.00    -0.312 OA
BRANCH  21  22
HETATM   22  C5  UNL     1      17.959  16.740  77.927  1.00  0.00     0.259 C 
HETATM   23  O3  UNL     1      18.111  16.607  79.167  1.00  0.00    -0.265 OA
BRANCH  22  24
HETATM   24  C4  UNL     1      17.237  17.928  77.377  1.00  0.00     0.121 C 
BRANCH  24  25
HETATM   25  C3  UNL     1      17.352  17.972  75.860  1.00  0.00     0.121 C 
BRANCH  25  26
HETATM   26  C2  UNL     1      18.615  18.662  75.505  1.00  0.00     0.258 C 
HETATM   27  O2  UNL     1      19.561  18.111  74.886  1.00  0.00    -0.265 OA
BRANCH  26  28
HETATM   28  O1  UNL     1      18.816  20.015  75.857  1.00  0.00    -0.326 OA
HETATM   29  C1  UNL     1      20.079  20.598  75.655  1.00  0.00     0.213 C 
ENDBRANCH  26  28
ENDBRANCH  25  26
ENDBRANCH  24  25
ENDBRANCH  22  24
ENDBRANCH  21  22
ENDBRANCH   1  21
BRANCH   2  30
HETATM   30  O5  UNL     1      17.317  13.407  78.252  1.00  0.00    -0.313 OA
BRANCH  30  31
HETATM   31  C8  UNL     1      15.962  13.432  77.955  1.00  0.00     0.255 C 
HETATM   32  C9  UNL     1      15.145  14.675  78.113  1.00  0.00     0.126 C 
HETATM   33  O6  UNL     1      15.425  12.371  77.542  1.00  0.00    -0.266 OA
ENDBRANCH  30  31
ENDBRANCH   2  30
BRANCH   6  34
HETATM   34  O7  UNL     1      19.757   9.635  79.753  1.00  0.00    -0.316 OA
BRANCH  34  35
HETATM   35  C14 UNL     1      19.653   8.276  79.885  1.00  0.00     0.255 C 
HETATM   36  C15 UNL     1      18.313   7.674  80.154  1.00  0.00     0.126 C 
HETATM   37  O8  UNL     1      20.677   7.570  79.779  1.00  0.00    -0.266 OA
ENDBRANCH  34  35
ENDBRANCH   6  34
TORSDOF 10
ENDMDL
MODEL 5
REMARK VINA RESULT: -7.889958258      0.818      1.124
REMARK  10 active torsions:
REMARK  status: ('A' for Active; 'I' for Inactive)
REMARK    1  A    between atoms: O1_2  and  C2_3 
REMARK    2  A    between atoms: C2_3  and  C3_5 
REMARK    3  A    between atoms: C3_5  and  C4_6 
REMARK    4  A    between atoms: C4_6  and  C5_7 
REMARK    5  A    between atoms: C5_7  and  O4_9 
REMARK    6  A    between atoms: O4_9  and  C6_10 
REMARK    7  A    between atoms: C7_11  and  O5_12 
REMARK    8  A    between atoms: O5_12  and  C8_13 
REMARK    9  A    between atoms: C13_19  and  O7_20 
REMARK   10  A    between atoms: O7_20  and  C14_21 
ROOT
HETATM    1  C6  UNL     1      19.073  14.638  77.673  1.00  0.00     0.170 C 
HETATM    2  C7  UNL     1      18.254  13.440  77.366  1.00  0.00     0.170 C 
HETATM    3  C10 UNL     1      18.940  12.147  77.290  1.00  0.00    -0.008 C 
HETATM    4  C11 UNL     1      18.404  11.436  76.031  1.00  0.00     0.018 C 
HETATM    5  C12 UNL     1      18.503  11.200  78.424  1.00  0.00     0.045 C 
HETATM    6  C13 UNL     1      19.777  10.331  78.531  1.00  0.00     0.137 C 
HETATM    7  C16 UNL     1      20.765  11.463  78.568  1.00  0.00     0.022 C 
HETATM    8  C17 UNL     1      22.125  11.232  78.996  1.00  0.00     0.021 C 
HETATM    9  C18 UNL     1      23.188  10.657  78.189  1.00  0.00    -0.020 C 
HETATM   10  C19 UNL     1      24.550  10.992  78.790  1.00  0.00     0.020 C 
HETATM   11  C20 UNL     1      23.197   9.188  77.850  1.00  0.00     0.018 C 
HETATM   12  C21 UNL     1      23.670   9.664  76.469  1.00  0.00     0.036 C 
HETATM   13  C22 UNL     1      23.206  11.033  76.759  1.00  0.00    -0.075 C 
HETATM   14  C23 UNL     1      22.908  12.142  76.117  1.00  0.00    -0.023 C 
HETATM   15  C24 UNL     1      22.421  13.512  76.497  1.00  0.00     0.033 C 
HETATM   16  C25 UNL     1      21.125  13.468  77.289  1.00  0.00     0.005 C 
HETATM   17  C26 UNL     1      20.446  12.166  77.298  1.00  0.00     0.008 C 
HETATM   18  C27 UNL     1      20.300  14.643  76.808  1.00  0.00    -0.014 C 
HETATM   19  C28 UNL     1      20.012  14.626  75.352  1.00  0.00     0.018 C 
HETATM   20  C29 UNL     1      21.092  15.900  77.200  1.00  0.00     0.018 C 
ENDROOT
BRANCH   1  21
HETATM   21  O4  UNL     1      18.322  15.803  77.286  1.00  0.00    -0.312 OA
BRANCH  21  22
HETATM   22  C5  UNL     1      17.744  16.672  78.166  1.00  0.00     0.259 C 
HETATM   23  O3  UNL     1      17.243  17.740  77.735  1.00  0.00    -0.265 OA
BRANCH  22  24
HETATM   24  C4  UNL     1      17.706  16.353  79.626  1.00  0.00     0.121 C 
BRANCH  24  25
HETATM   25  C3  UNL     1      17.042  17.480  80.405  1.00  0.00     0.121 C 
BRANCH  25  26
HETATM   26  C2  UNL     1      15.625  17.117  80.641  1.00  0.00     0.258 C 
HETATM   27  O2  UNL     1      14.737  17.946  80.965  1.00  0.00    -0.265 OA
BRANCH  26  28
HETATM   28  O1  UNL     1      15.196  15.778  80.507  1.00  0.00    -0.326 OA
HETATM   29  C1  UNL     1      13.836  15.513  80.265  1.00  0.00     0.213 C 
ENDBRANCH  26  28
ENDBRANCH  25  26
ENDBRANCH  24  25
ENDBRANCH  22  24
ENDBRANCH  21  22
ENDBRANCH   1  21
BRANCH   2  30
HETATM   30  O5  UNL     1      17.247  13.359  78.387  1.00  0.00    -0.313 OA
BRANCH  30  31
HETATM   31  C8  UNL     1      15.889  13.319  78.106  1.00  0.00     0.255 C 
HETATM   32  C9  UNL     1      15.003  12.247  78.656  1.00  0.00     0.126 C 
HETATM   33  O6  UNL     1      15.409  14.218  77.366  1.00  0.00    -0.266 OA
ENDBRANCH  30  31
ENDBRANCH   2  30
BRANCH   6  34
HETATM   34  O7  UNL     1      19.790   9.596  79.729  1.00  0.00    -0.316 OA
BRANCH  34  35
HETATM   35  C14 UNL     1      19.632   8.238  79.823  1.00  0.00     0.255 C 
HETATM   36  C15 UNL     1      18.272   7.684  80.091  1.00  0.00     0.126 C 
HETATM   37  O8  UNL     1      20.624   7.495  79.682  1.00  0.00    -0.266 OA
ENDBRANCH  34  35
ENDBRANCH   6  34
TORSDOF 10
ENDMDL
