MODEL 1
REMARK VINA RESULT: -6.922242238      0.000      0.000
REMARK  9 active torsions:
REMARK  status: ('A' for Active; 'I' for Inactive)
REMARK    1  A    between atoms: C2_2  and  C3_3 
REMARK    2  A    between atoms: C3_3  and  C4_4 
REMARK    3  A    between atoms: C11_13  and  C13_15 
REMARK    4  A    between atoms: C13_15  and  O3_16 
REMARK    5  A    between atoms: O3_16  and  C14_17 
REMARK    6  A    between atoms: C16_20  and  O5_21 
REMARK    7  A    between atoms: O5_21  and  C17_22 
REMARK    8  A    between atoms: C23_29  and  O7_30 
REMARK    9  A    between atoms: O7_30  and  C24_31 
ROOT
HETATM    1  C4  UNL     1      17.134  11.207  78.203  1.00  0.00     0.123 A 
HETATM    2  O1  UNL     1      18.031  10.103  78.214  1.00  0.00    -0.337 OA
HETATM    3  C5  UNL     1      18.900  10.228  79.252  1.00  0.00     0.164 A 
HETATM    4  C6  UNL     1      19.006   8.971  80.150  1.00  0.00     0.079 C 
HETATM    5  C7  UNL     1      20.380  10.317  78.818  1.00  0.00     0.079 C 
HETATM    6  O2  UNL     1      18.581  11.330  79.945  1.00  0.00    -0.316 OA
HETATM    7  C8  UNL     1      17.499  12.050  79.331  1.00  0.00     0.086 A 
HETATM    8  C9  UNL     1      17.758  13.453  79.469  1.00  0.00     0.040 C 
HETATM    9  C10 UNL     1      17.519  14.580  78.510  1.00  0.00    -0.053 C 
HETATM   10  C11 UNL     1      16.357  15.484  78.698  1.00  0.00     0.029 C 
HETATM   11  C12 UNL     1      16.638  16.938  78.331  1.00  0.00     0.025 C 
HETATM   12  C16 UNL     1      15.208  15.114  77.739  1.00  0.00     0.146 C 
HETATM   13  C19 UNL     1      15.384  13.586  77.762  1.00  0.00     0.040 C 
HETATM   14  C20 UNL     1      16.594  13.239  77.013  1.00  0.00     0.014 C 
HETATM   15  C21 UNL     1      17.820  14.012  77.208  1.00  0.00     0.012 C 
HETATM   16  C22 UNL     1      19.218  13.740  77.374  1.00  0.00     0.023 C 
HETATM   17  C23 UNL     1      17.968  14.565  75.848  1.00  0.00     0.144 C 
HETATM   18  C26 UNL     1      18.181  13.219  75.096  1.00  0.00     0.034 C 
HETATM   19  C27 UNL     1      18.017  11.910  75.831  1.00  0.00     0.015 C 
HETATM   20  C28 UNL     1      16.944  11.797  76.847  1.00  0.00    -0.001 C 
HETATM   21  C29 UNL     1      15.765  11.171  76.052  1.00  0.00     0.019 C 
ENDROOT
BRANCH  10  22
HETATM   22  C13 UNL     1      15.844  15.533  80.123  1.00  0.00     0.195 C 
BRANCH  22  23
HETATM   23  O3  UNL     1      15.907  16.888  80.613  1.00  0.00    -0.321 OA
BRANCH  23  24
HETATM   24  C14 UNL     1      14.712  17.566  80.825  1.00  0.00     0.254 C 
HETATM   25  C15 UNL     1      14.600  19.037  80.710  1.00  0.00     0.126 C 
HETATM   26  O4  UNL     1      13.693  16.874  81.129  1.00  0.00    -0.266 OA
ENDBRANCH  23  24
ENDBRANCH  22  23
ENDBRANCH  10  22
BRANCH  12  27
HETATM   27  O5  UNL     1      13.942  15.464  78.265  1.00  0.00    -0.315 OA
BRANCH  27  28
HETATM   28  C17 UNL     1      13.017  16.216  77.551  1.00  0.00     0.255 C 
HETATM   29  C18 UNL     1      13.270  17.596  77.064  1.00  0.00     0.126 C 
HETATM   30  O6  UNL     1      11.903  15.684  77.311  1.00  0.00    -0.266 OA
ENDBRANCH  27  28
ENDBRANCH  12  27
BRANCH  17  31
HETATM   31  O7  UNL     1      19.093  15.396  75.624  1.00  0.00    -0.315 OA
BRANCH  31  32
HETATM   32  C24 UNL     1      19.047  16.741  75.393  1.00  0.00     0.255 C 
HETATM   33  C25 UNL     1      17.829  17.383  74.790  1.00  0.00     0.126 C 
HETATM   34  O8  UNL     1      20.037  17.439  75.690  1.00  0.00    -0.266 OA
ENDBRANCH  31  32
ENDBRANCH  17  31
BRANCH   1  35
HETATM   35  C3  UNL     1      15.803  10.497  78.462  1.00  0.00     0.072 C 
BRANCH  35  36
HETATM   36  C2  UNL     1      15.172  10.569  79.771  1.00  0.00    -0.033 C 
HETATM   37  C1  UNL     1      13.941  11.030  80.005  1.00  0.00     0.007 C 
ENDBRANCH  35  36
ENDBRANCH   1  35
TORSDOF 9
ENDMDL
MODEL 2
REMARK VINA RESULT: -6.274897068      2.507      6.641
REMARK  9 active torsions:
REMARK  status: ('A' for Active; 'I' for Inactive)
REMARK    1  A    between atoms: C2_2  and  C3_3 
REMARK    2  A    between atoms: C3_3  and  C4_4 
REMARK    3  A    between atoms: C11_13  and  C13_15 
REMARK    4  A    between atoms: C13_15  and  O3_16 
REMARK    5  A    between atoms: O3_16  and  C14_17 
REMARK    6  A    between atoms: C16_20  and  O5_21 
REMARK    7  A    between atoms: O5_21  and  C17_22 
REMARK    8  A    between atoms: C23_29  and  O7_30 
REMARK    9  A    between atoms: O7_30  and  C24_31 
ROOT
HETATM    1  C4  UNL     1      17.910  16.471  77.244  1.00  0.00     0.123 A 
HETATM    2  O1  UNL     1      18.090  17.806  76.790  1.00  0.00    -0.337 OA
HETATM    3  C5  UNL     1      17.785  17.886  75.468  1.00  0.00     0.164 A 
HETATM    4  C6  UNL     1      16.789  19.017  75.110  1.00  0.00     0.079 C 
HETATM    5  C7  UNL     1      18.967  18.342  74.583  1.00  0.00     0.079 C 
HETATM    6  O2  UNL     1      17.368  16.683  75.052  1.00  0.00    -0.316 OA
HETATM    7  C8  UNL     1      17.455  15.699  76.097  1.00  0.00     0.086 A 
HETATM    8  C9  UNL     1      17.876  14.460  75.514  1.00  0.00     0.040 C 
HETATM    9  C10 UNL     1      18.811  13.413  76.038  1.00  0.00    -0.053 C 
HETATM   10  C11 UNL     1      18.273  12.155  76.616  1.00  0.00     0.029 C 
HETATM   11  C12 UNL     1      19.118  10.922  76.313  1.00  0.00     0.025 C 
HETATM   12  C16 UNL     1      18.293  12.203  78.158  1.00  0.00     0.146 C 
HETATM   13  C19 UNL     1      17.950  13.691  78.337  1.00  0.00     0.040 C 
HETATM   14  C20 UNL     1      19.110  14.494  77.944  1.00  0.00     0.014 C 
HETATM   15  C21 UNL     1      19.846  14.167  76.723  1.00  0.00     0.012 C 
HETATM   16  C22 UNL     1      20.410  14.878  75.614  1.00  0.00     0.023 C 
HETATM   17  C23 UNL     1      21.151  13.824  77.320  1.00  0.00     0.144 C 
HETATM   18  C26 UNL     1      21.489  15.226  77.904  1.00  0.00     0.034 C 
HETATM   19  C27 UNL     1      20.459  16.329  77.864  1.00  0.00     0.015 C 
HETATM   20  C28 UNL     1      19.036  15.978  78.088  1.00  0.00    -0.001 C 
HETATM   21  C29 UNL     1      18.840  16.241  79.607  1.00  0.00     0.019 C 
ENDROOT
BRANCH  10  22
HETATM   22  C13 UNL     1      16.881  11.805  76.130  1.00  0.00     0.195 C 
BRANCH  22  23
HETATM   23  O3  UNL     1      16.838  10.414  75.753  1.00  0.00    -0.321 OA
BRANCH  23  24
HETATM   24  C14 UNL     1      15.660   9.709  75.975  1.00  0.00     0.254 C 
HETATM   25  C15 UNL     1      15.498   8.289  75.591  1.00  0.00     0.126 C 
HETATM   26  O4  UNL     1      14.703  10.330  76.528  1.00  0.00    -0.266 OA
ENDBRANCH  23  24
ENDBRANCH  22  23
ENDBRANCH  10  22
BRANCH  12  27
HETATM   27  O5  UNL     1      17.278  11.400  78.728  1.00  0.00    -0.315 OA
BRANCH  27  28
HETATM   28  C17 UNL     1      17.549  10.201  79.376  1.00  0.00     0.255 C 
HETATM   29  C18 UNL     1      18.842   9.890  80.038  1.00  0.00     0.126 C 
HETATM   30  O6  UNL     1      16.637   9.335  79.395  1.00  0.00    -0.266 OA
ENDBRANCH  27  28
ENDBRANCH  12  27
BRANCH  17  31
HETATM   31  O7  UNL     1      22.176  13.445  76.419  1.00  0.00    -0.315 OA
BRANCH  31  32
HETATM   32  C24 UNL     1      23.142  12.512  76.668  1.00  0.00     0.255 C 
HETATM   33  C25 UNL     1      22.812  11.047  76.704  1.00  0.00     0.126 C 
HETATM   34  O8  UNL     1      24.312  12.893  76.867  1.00  0.00    -0.266 OA
ENDBRANCH  31  32
ENDBRANCH  17  31
BRANCH   1  35
HETATM   35  C3  UNL     1      16.777  16.662  78.255  1.00  0.00     0.072 C 
BRANCH  35  36
HETATM   36  C2  UNL     1      15.410  16.305  77.906  1.00  0.00    -0.033 C 
HETATM   37  C1  UNL     1      14.656  15.421  78.565  1.00  0.00     0.007 C 
ENDBRANCH  35  36
ENDBRANCH   1  35
TORSDOF 9
ENDMDL
MODEL 3
REMARK VINA RESULT: -6.104409005      2.616      7.047
REMARK  9 active torsions:
REMARK  status: ('A' for Active; 'I' for Inactive)
REMARK    1  A    between atoms: C2_2  and  C3_3 
REMARK    2  A    between atoms: C3_3  and  C4_4 
REMARK    3  A    between atoms: C11_13  and  C13_15 
REMARK    4  A    between atoms: C13_15  and  O3_16 
REMARK    5  A    between atoms: O3_16  and  C14_17 
REMARK    6  A    between atoms: C16_20  and  O5_21 
REMARK    7  A    between atoms: O5_21  and  C17_22 
REMARK    8  A    between atoms: C23_29  and  O7_30 
REMARK    9  A    between atoms: O7_30  and  C24_31 
ROOT
HETATM    1  C4  UNL     1      16.503  13.550  77.710  1.00  0.00     0.123 A 
HETATM    2  O1  UNL     1      17.384  14.644  77.488  1.00  0.00    -0.337 OA
HETATM    3  C5  UNL     1      17.950  14.534  76.257  1.00  0.00     0.164 A 
HETATM    4  C6  UNL     1      17.839  15.810  75.387  1.00  0.00     0.079 C 
HETATM    5  C7  UNL     1      19.490  14.420  76.288  1.00  0.00     0.079 C 
HETATM    6  O2  UNL     1      17.445  13.452  75.650  1.00  0.00    -0.316 OA
HETATM    7  C8  UNL     1      16.548  12.728  76.510  1.00  0.00     0.086 A 
HETATM    8  C9  UNL     1      16.740  11.327  76.282  1.00  0.00     0.040 C 
HETATM    9  C10 UNL     1      16.742  10.181  77.248  1.00  0.00    -0.053 C 
HETATM   10  C11 UNL     1      15.556   9.292  77.352  1.00  0.00     0.029 C 
HETATM   11  C12 UNL     1      15.900   7.828  77.605  1.00  0.00     0.025 C 
HETATM   12  C16 UNL     1      14.702   9.653  78.584  1.00  0.00     0.146 C 
HETATM   13  C19 UNL     1      14.891  11.178  78.545  1.00  0.00     0.040 C 
HETATM   14  C20 UNL     1      16.259  11.496  78.960  1.00  0.00     0.014 C 
HETATM   15  C21 UNL     1      17.380  10.716  78.438  1.00  0.00     0.012 C 
HETATM   16  C22 UNL     1      18.691  10.977  77.919  1.00  0.00     0.023 C 
HETATM   17  C23 UNL     1      17.868  10.130  79.701  1.00  0.00     0.144 C 
HETATM   18  C26 UNL     1      18.291  11.456  80.398  1.00  0.00     0.034 C 
HETATM   19  C27 UNL     1      17.961  12.783  79.757  1.00  0.00     0.015 C 
HETATM   20  C28 UNL     1      16.663  12.930  79.057  1.00  0.00    -0.001 C 
HETATM   21  C29 UNL     1      15.742  13.550  80.144  1.00  0.00     0.019 C 
ENDROOT
BRANCH  10  22
HETATM   22  C13 UNL     1      14.689   9.282  76.109  1.00  0.00     0.195 C 
BRANCH  22  23
HETATM   23  O3  UNL     1      14.352   7.922  75.768  1.00  0.00    -0.321 OA
BRANCH  23  24
HETATM   24  C14 UNL     1      14.639   7.477  74.482  1.00  0.00     0.254 C 
HETATM   25  C15 UNL     1      16.003   7.081  74.062  1.00  0.00     0.126 C 
HETATM   26  O4  UNL     1      13.679   7.418  73.656  1.00  0.00    -0.266 OA
ENDBRANCH  23  24
ENDBRANCH  22  23
ENDBRANCH  10  22
BRANCH  12  27
HETATM   27  O5  UNL     1      13.338   9.328  78.399  1.00  0.00    -0.315 OA
BRANCH  27  28
HETATM   28  C17 UNL     1      12.341   9.772  79.258  1.00  0.00     0.255 C 
HETATM   29  C18 UNL     1      12.352   9.550  80.727  1.00  0.00     0.126 C 
HETATM   30  O6  UNL     1      11.375  10.396  78.749  1.00  0.00    -0.266 OA
ENDBRANCH  27  28
ENDBRANCH  12  27
BRANCH  17  31
HETATM   31  O7  UNL     1      18.999   9.282  79.608  1.00  0.00    -0.315 OA
BRANCH  31  32
HETATM   32  C24 UNL     1      19.071   8.007  80.091  1.00  0.00     0.255 C 
HETATM   33  C25 UNL     1      17.839   7.159  80.230  1.00  0.00     0.126 C 
HETATM   34  O8  UNL     1      20.184   7.548  80.419  1.00  0.00    -0.266 OA
ENDBRANCH  31  32
ENDBRANCH  17  31
BRANCH   1  35
HETATM   35  C3  UNL     1      15.162  14.278  77.822  1.00  0.00     0.072 C 
BRANCH  35  36
HETATM   36  C2  UNL     1      15.115  15.732  77.870  1.00  0.00    -0.033 C 
HETATM   37  C1  UNL     1      14.080  16.451  78.312  1.00  0.00     0.007 C 
ENDBRANCH  35  36
ENDBRANCH   1  35
TORSDOF 9
ENDMDL
MODEL 4
REMARK VINA RESULT: -5.921365246      1.832      2.301
REMARK  9 active torsions:
REMARK  status: ('A' for Active; 'I' for Inactive)
REMARK    1  A    between atoms: C2_2  and  C3_3 
REMARK    2  A    between atoms: C3_3  and  C4_4 
REMARK    3  A    between atoms: C11_13  and  C13_15 
REMARK    4  A    between atoms: C13_15  and  O3_16 
REMARK    5  A    between atoms: O3_16  and  C14_17 
REMARK    6  A    between atoms: C16_20  and  O5_21 
REMARK    7  A    between atoms: O5_21  and  C17_22 
REMARK    8  A    between atoms: C23_29  and  O7_30 
REMARK    9  A    between atoms: O7_30  and  C24_31 
ROOT
HETATM    1  C4  UNL     1      16.081  11.003  77.865  1.00  0.00     0.123 A 
HETATM    2  O1  UNL     1      16.236   9.593  77.954  1.00  0.00    -0.337 OA
HETATM    3  C5  UNL     1      16.533   9.244  79.234  1.00  0.00     0.164 A 
HETATM    4  C6  UNL     1      15.635   8.123  79.814  1.00  0.00     0.079 C 
HETATM    5  C7  UNL     1      17.897   8.536  79.385  1.00  0.00     0.079 C 
HETATM    6  O2  UNL     1      16.529  10.350  79.990  1.00  0.00    -0.316 OA
HETATM    7  C8  UNL     1      16.298  11.531  79.204  1.00  0.00     0.086 A 
HETATM    8  C9  UNL     1      17.116  12.586  79.726  1.00  0.00     0.040 C 
HETATM    9  C10 UNL     1      17.874  13.665  79.014  1.00  0.00    -0.053 C 
HETATM   10  C11 UNL     1      17.336  15.048  78.968  1.00  0.00     0.029 C 
HETATM   11  C12 UNL     1      18.405  16.132  79.051  1.00  0.00     0.025 C 
HETATM   12  C16 UNL     1      16.672  15.337  77.607  1.00  0.00     0.146 C 
HETATM   13  C19 UNL     1      16.062  13.947  77.359  1.00  0.00     0.040 C 
HETATM   14  C20 UNL     1      17.139  13.010  77.033  1.00  0.00     0.014 C 
HETATM   15  C21 UNL     1      18.376  13.018  77.814  1.00  0.00     0.012 C 
HETATM   16  C22 UNL     1      19.253  12.050  78.403  1.00  0.00     0.023 C 
HETATM   17  C23 UNL     1      19.323  13.405  76.751  1.00  0.00     0.144 C 
HETATM   18  C26 UNL     1      19.153  12.147  75.851  1.00  0.00     0.034 C 
HETATM   19  C27 UNL     1      18.089  11.126  76.175  1.00  0.00     0.015 C 
HETATM   20  C28 UNL     1      16.784  11.601  76.693  1.00  0.00    -0.001 C 
HETATM   21  C29 UNL     1      15.905  11.688  75.415  1.00  0.00     0.019 C 
ENDROOT
BRANCH  10  22
HETATM   22  C13 UNL     1      16.369  15.365  80.091  1.00  0.00     0.195 C 
BRANCH  22  23
HETATM   23  O3  UNL     1      16.752  16.605  80.721  1.00  0.00    -0.321 OA
BRANCH  23  24
HETATM   24  C14 UNL     1      15.801  17.614  80.818  1.00  0.00     0.254 C 
HETATM   25  C15 UNL     1      14.346  17.337  80.848  1.00  0.00     0.126 C 
HETATM   26  O4  UNL     1      16.220  18.809  80.883  1.00  0.00    -0.266 OA
ENDBRANCH  23  24
ENDBRANCH  22  23
ENDBRANCH  10  22
BRANCH  12  27
HETATM   27  O5  UNL     1      15.645  16.305  77.711  1.00  0.00    -0.315 OA
BRANCH  27  28
HETATM   28  C17 UNL     1      15.717  17.542  77.083  1.00  0.00     0.255 C 
HETATM   29  C18 UNL     1      16.723  17.888  76.046  1.00  0.00     0.126 C 
HETATM   30  O6  UNL     1      14.876  18.413  77.423  1.00  0.00    -0.266 OA
ENDBRANCH  27  28
ENDBRANCH  12  27
BRANCH  17  31
HETATM   31  O7  UNL     1      20.684  13.516  77.129  1.00  0.00    -0.315 OA
BRANCH  31  32
HETATM   32  C24 UNL     1      21.545  14.485  76.702  1.00  0.00     0.255 C 
HETATM   33  C25 UNL     1      21.905  15.646  77.585  1.00  0.00     0.126 C 
HETATM   34  O8  UNL     1      22.036  14.396  75.558  1.00  0.00    -0.266 OA
ENDBRANCH  31  32
ENDBRANCH  17  31
BRANCH   1  35
HETATM   35  C3  UNL     1      14.605  11.106  77.472  1.00  0.00     0.072 C 
BRANCH  35  36
HETATM   36  C2  UNL     1      13.581  11.266  78.493  1.00  0.00    -0.033 C 
HETATM   37  C1  UNL     1      12.729  10.313  78.880  1.00  0.00     0.007 C 
ENDBRANCH  35  36
ENDBRANCH   1  35
TORSDOF 9
ENDMDL
MODEL 5
REMARK VINA RESULT: -5.864356531      5.389      9.863
REMARK  9 active torsions:
REMARK  status: ('A' for Active; 'I' for Inactive)
REMARK    1  A    between atoms: C2_2  and  C3_3 
REMARK    2  A    between atoms: C3_3  and  C4_4 
REMARK    3  A    between atoms: C11_13  and  C13_15 
REMARK    4  A    between atoms: C13_15  and  O3_16 
REMARK    5  A    between atoms: O3_16  and  C14_17 
REMARK    6  A    between atoms: C16_20  and  O5_21 
REMARK    7  A    between atoms: O5_21  and  C17_22 
REMARK    8  A    between atoms: C23_29  and  O7_30 
REMARK    9  A    between atoms: O7_30  and  C24_31 
ROOT
HETATM    1  C4  UNL     1      13.590   8.940  78.663  1.00  0.00     0.123 A 
HETATM    2  O1  UNL     1      13.968  10.085  79.416  1.00  0.00    -0.337 OA
HETATM    3  C5  UNL     1      14.886  10.808  78.722  1.00  0.00     0.164 A 
HETATM    4  C6  UNL     1      14.544  12.313  78.587  1.00  0.00     0.079 C 
HETATM    5  C7  UNL     1      16.242  10.953  79.448  1.00  0.00     0.079 C 
HETATM    6  O2  UNL     1      15.087  10.218  77.536  1.00  0.00    -0.316 OA
HETATM    7  C8  UNL     1      14.343   8.993  77.419  1.00  0.00     0.086 A 
HETATM    8  C9  UNL     1      15.152   8.042  76.716  1.00  0.00     0.040 C 
HETATM    9  C10 UNL     1      15.316   6.567  76.927  1.00  0.00    -0.053 C 
HETATM   10  C11 UNL     1      14.631   5.604  76.028  1.00  0.00     0.029 C 
HETATM   11  C12 UNL     1      15.443   4.349  75.731  1.00  0.00     0.025 C 
HETATM   12  C16 UNL     1      13.363   5.032  76.695  1.00  0.00     0.146 C 
HETATM   13  C19 UNL     1      12.914   6.300  77.440  1.00  0.00     0.040 C 
HETATM   14  C20 UNL     1      13.825   6.537  78.561  1.00  0.00     0.014 C 
HETATM   15  C21 UNL     1      15.269   6.405  78.370  1.00  0.00     0.012 C 
HETATM   16  C22 UNL     1      16.449   7.131  78.739  1.00  0.00     0.023 C 
HETATM   17  C23 UNL     1      15.527   5.283  79.293  1.00  0.00     0.144 C 
HETATM   18  C26 UNL     1      15.128   6.002  80.614  1.00  0.00     0.034 C 
HETATM   19  C27 UNL     1      14.506   7.377  80.566  1.00  0.00     0.015 C 
HETATM   20  C28 UNL     1      13.555   7.688  79.473  1.00  0.00    -0.001 C 
HETATM   21  C29 UNL     1      12.170   7.396  80.113  1.00  0.00     0.019 C 
ENDROOT
BRANCH  10  22
HETATM   22  C13 UNL     1      14.285   6.178  74.669  1.00  0.00     0.195 C 
BRANCH  22  23
HETATM   23  O3  UNL     1      15.122   5.572  73.663  1.00  0.00    -0.321 OA
BRANCH  23  24
HETATM   24  C14 UNL     1      15.969   6.395  72.930  1.00  0.00     0.254 C 
HETATM   25  C15 UNL     1      17.078   7.153  73.553  1.00  0.00     0.126 C 
HETATM   26  O4  UNL     1      15.763   6.483  71.682  1.00  0.00    -0.266 OA
ENDBRANCH  23  24
ENDBRANCH  22  23
ENDBRANCH  10  22
BRANCH  12  27
HETATM   27  O5  UNL     1      12.386   4.657  75.743  1.00  0.00    -0.315 OA
BRANCH  27  28
HETATM   28  C17 UNL     1      11.664   3.474  75.840  1.00  0.00     0.255 C 
HETATM   29  C18 UNL     1      12.194   2.226  76.448  1.00  0.00     0.126 C 
HETATM   30  O6  UNL     1      10.494   3.472  75.380  1.00  0.00    -0.266 OA
ENDBRANCH  27  28
ENDBRANCH  12  27
BRANCH  17  31
HETATM   31  O7  UNL     1      16.872   4.849  79.397  1.00  0.00    -0.315 OA
BRANCH  31  32
HETATM   32  C24 UNL     1      17.305   3.568  79.207  1.00  0.00     0.255 C 
HETATM   33  C25 UNL     1      18.135   3.200  78.010  1.00  0.00     0.126 C 
HETATM   34  O8  UNL     1      17.001   2.697  80.047  1.00  0.00    -0.266 OA
ENDBRANCH  31  32
ENDBRANCH  17  31
BRANCH   1  35
HETATM   35  C3  UNL     1      12.108   9.233  78.416  1.00  0.00     0.072 C 
BRANCH  35  36
HETATM   36  C2  UNL     1      11.573  10.567  78.649  1.00  0.00    -0.033 C 
HETATM   37  C1  UNL     1      10.282  10.899  78.569  1.00  0.00     0.007 C 
ENDBRANCH  35  36
ENDBRANCH   1  35
TORSDOF 9
ENDMDL
