MODEL 1
REMARK VINA RESULT: -8.335398329      0.000      0.000
REMARK  10 active torsions:
REMARK  status: ('A' for Active; 'I' for Inactive)
REMARK    1  A    between atoms: C2_2  and  C3_3 
REMARK    2  A    between atoms: C3_3  and  C4_5 
REMARK    3  A    between atoms: C4_5  and  O3_7 
REMARK    4  A    between atoms: O3_7  and  C5_8 
REMARK    5  A    between atoms: C7_10  and  C8_11 
REMARK    6  A    between atoms: C8_11  and  O5_13 
REMARK    7  A    between atoms: C19_24  and  C20_25 
REMARK    8  A    between atoms: C20_25  and  C21_27 
REMARK    9  A    between atoms: C21_27  and  O7_28 
REMARK   10  A    between atoms: O7_28  and  C22_29 
ROOT
HETATM    1  C5  UNL     1      20.012  10.374  78.502  1.00  0.00     0.134 C 
HETATM    2  C6  UNL     1      19.700  11.385  77.435  1.00  0.00     0.048 C 
HETATM    3  C7  UNL     1      19.008  12.600  77.958  1.00  0.00     0.097 C 
HETATM    4  C10 UNL     1      17.683  12.233  78.645  1.00  0.00    -0.024 C 
HETATM    5  C11 UNL     1      17.342  13.495  79.463  1.00  0.00     0.016 C 
HETATM    6  C12 UNL     1      16.696  12.044  77.535  1.00  0.00     0.011 C 
HETATM    7  C13 UNL     1      15.365  11.525  77.989  1.00  0.00     0.010 C 
HETATM    8  C14 UNL     1      15.533  10.252  78.724  1.00  0.00     0.024 C 
HETATM    9  C15 UNL     1      16.893   9.948  79.196  1.00  0.00    -0.073 C 
HETATM   10  C16 UNL     1      16.996   8.616  79.224  1.00  0.00    -0.012 C 
HETATM   11  C17 UNL     1      15.731   7.951  78.780  1.00  0.00    -0.008 C 
HETATM   12  C18 UNL     1      14.993   7.615  80.041  1.00  0.00     0.021 C 
HETATM   13  C19 UNL     1      15.987   6.814  77.850  1.00  0.00     0.070 C 
HETATM   14  C24 UNL     1      15.643   7.321  76.436  1.00  0.00     0.014 C 
HETATM   15  C25 UNL     1      15.807   8.837  76.636  1.00  0.00     0.012 C 
HETATM   16  C26 UNL     1      15.114   9.023  77.952  1.00  0.00    -0.025 C 
HETATM   17  C27 UNL     1      13.650   9.013  77.782  1.00  0.00     0.017 C 
HETATM   18  C28 UNL     1      17.816  11.067  79.537  1.00  0.00     0.026 C 
HETATM   19  C29 UNL     1      19.213  10.552  79.747  1.00  0.00     0.042 C 
ENDROOT
BRANCH   1  20
HETATM   20  O3  UNL     1      21.400  10.417  78.862  1.00  0.00    -0.310 OA
BRANCH  20  21
HETATM   21  C4  UNL     1      22.359   9.604  78.327  1.00  0.00     0.329 C 
HETATM   22  O2  UNL     1      22.342   8.386  78.555  1.00  0.00    -0.256 OA
BRANCH  21  23
HETATM   23  C3  UNL     1      23.402  10.169  77.485  1.00  0.00     0.223 C 
HETATM   24  O1  UNL     1      23.415   9.943  76.264  1.00  0.00    -0.287 OA
BRANCH  23  25
HETATM   25  C2  UNL     1      24.470  11.028  78.101  1.00  0.00     0.085 C 
HETATM   26  C1  UNL     1      25.280  10.123  78.991  1.00  0.00     0.013 C 
ENDBRANCH  23  25
ENDBRANCH  21  23
ENDBRANCH  20  21
ENDBRANCH   1  20
BRANCH   3  27
HETATM   27  C8  UNL     1      18.801  13.558  76.878  1.00  0.00     0.263 C 
HETATM   28  O4  UNL     1      18.798  13.158  75.687  1.00  0.00    -0.265 OA
BRANCH  27  29
HETATM   29  O5  UNL     1      18.602  14.920  77.057  1.00  0.00    -0.326 OA
HETATM   30  C9  UNL     1      17.631  15.694  76.414  1.00  0.00     0.213 C 
ENDBRANCH  27  29
ENDBRANCH   3  27
BRANCH  13  31
HETATM   31  C20 UNL     1      15.342   5.543  78.145  1.00  0.00     0.156 C 
HETATM   32  O6  UNL     1      14.167   5.381  77.757  1.00  0.00    -0.295 OA
BRANCH  31  33
HETATM   33  C21 UNL     1      15.929   4.408  78.861  1.00  0.00     0.257 C 
BRANCH  33  34
HETATM   34  O7  UNL     1      17.334   4.485  78.980  1.00  0.00    -0.314 OA
BRANCH  34  35
HETATM   35  C22 UNL     1      18.129   3.604  78.258  1.00  0.00     0.255 C 
HETATM   36  C23 UNL     1      17.628   2.846  77.084  1.00  0.00     0.126 C 
HETATM   37  O8  UNL     1      19.319   3.461  78.635  1.00  0.00    -0.266 OA
ENDBRANCH  34  35
ENDBRANCH  33  34
ENDBRANCH  31  33
ENDBRANCH  13  31
TORSDOF 10
ENDMDL
MODEL 2
REMARK VINA RESULT: -8.303466567      0.820      1.090
REMARK  10 active torsions:
REMARK  status: ('A' for Active; 'I' for Inactive)
REMARK    1  A    between atoms: C2_2  and  C3_3 
REMARK    2  A    between atoms: C3_3  and  C4_5 
REMARK    3  A    between atoms: C4_5  and  O3_7 
REMARK    4  A    between atoms: O3_7  and  C5_8 
REMARK    5  A    between atoms: C7_10  and  C8_11 
REMARK    6  A    between atoms: C8_11  and  O5_13 
REMARK    7  A    between atoms: C19_24  and  C20_25 
REMARK    8  A    between atoms: C20_25  and  C21_27 
REMARK    9  A    between atoms: C21_27  and  O7_28 
REMARK   10  A    between atoms: O7_28  and  C22_29 
ROOT
HETATM    1  C5  UNL     1      19.903  10.505  78.317  1.00  0.00     0.134 C 
HETATM    2  C6  UNL     1      19.551  11.585  77.333  1.00  0.00     0.048 C 
HETATM    3  C7  UNL     1      18.893  12.766  77.965  1.00  0.00     0.097 C 
HETATM    4  C10 UNL     1      17.597  12.361  78.686  1.00  0.00    -0.024 C 
HETATM    5  C11 UNL     1      17.303  13.569  79.599  1.00  0.00     0.016 C 
HETATM    6  C12 UNL     1      16.560  12.250  77.612  1.00  0.00     0.011 C 
HETATM    7  C13 UNL     1      15.247  11.710  78.090  1.00  0.00     0.010 C 
HETATM    8  C14 UNL     1      15.437  10.391  78.732  1.00  0.00     0.024 C 
HETATM    9  C15 UNL     1      16.814  10.050  79.121  1.00  0.00    -0.073 C 
HETATM   10  C16 UNL     1      16.908   8.718  79.057  1.00  0.00    -0.012 C 
HETATM   11  C17 UNL     1      15.620   8.090  78.629  1.00  0.00    -0.008 C 
HETATM   12  C18 UNL     1      14.935   7.675  79.897  1.00  0.00     0.021 C 
HETATM   13  C19 UNL     1      15.825   7.015  77.616  1.00  0.00     0.070 C 
HETATM   14  C24 UNL     1      15.422   7.615  76.255  1.00  0.00     0.014 C 
HETATM   15  C25 UNL     1      15.607   9.114  76.546  1.00  0.00     0.012 C 
HETATM   16  C26 UNL     1      14.974   9.217  77.901  1.00  0.00    -0.025 C 
HETATM   17  C27 UNL     1      13.505   9.225  77.797  1.00  0.00     0.017 C 
HETATM   18  C28 UNL     1      17.760  11.140  79.493  1.00  0.00     0.026 C 
HETATM   19  C29 UNL     1      19.161  10.604  79.606  1.00  0.00     0.042 C 
ENDROOT
BRANCH   1  20
HETATM   20  O3  UNL     1      21.305  10.516  78.617  1.00  0.00    -0.310 OA
BRANCH  20  21
HETATM   21  C4  UNL     1      22.137   9.444  78.451  1.00  0.00     0.329 C 
HETATM   22  O2  UNL     1      21.816   8.333  78.896  1.00  0.00    -0.256 OA
BRANCH  21  23
HETATM   23  C3  UNL     1      23.400   9.607  77.749  1.00  0.00     0.223 C 
HETATM   24  O1  UNL     1      24.404   8.966  78.105  1.00  0.00    -0.287 OA
BRANCH  23  25
HETATM   25  C2  UNL     1      23.489  10.558  76.589  1.00  0.00     0.085 C 
HETATM   26  C1  UNL     1      24.278  11.745  77.075  1.00  0.00     0.013 C 
ENDBRANCH  23  25
ENDBRANCH  21  23
ENDBRANCH  20  21
ENDBRANCH   1  20
BRANCH   3  27
HETATM   27  C8  UNL     1      18.646  13.794  76.961  1.00  0.00     0.263 C 
HETATM   28  O4  UNL     1      18.596  15.000  77.308  1.00  0.00    -0.265 OA
BRANCH  27  29
HETATM   29  O5  UNL     1      18.453  13.548  75.608  1.00  0.00    -0.326 OA
HETATM   30  C9  UNL     1      18.517  14.503  74.588  1.00  0.00     0.213 C 
ENDBRANCH  27  29
ENDBRANCH   3  27
BRANCH  13  31
HETATM   31  C20 UNL     1      15.184   5.730  77.856  1.00  0.00     0.156 C 
HETATM   32  O6  UNL     1      13.996   5.595  77.498  1.00  0.00    -0.295 OA
BRANCH  31  33
HETATM   33  C21 UNL     1      15.787   4.554  78.484  1.00  0.00     0.257 C 
BRANCH  33  34
HETATM   34  O7  UNL     1      17.067   4.240  77.975  1.00  0.00    -0.314 OA
BRANCH  34  35
HETATM   35  C22 UNL     1      17.928   3.455  78.731  1.00  0.00     0.255 C 
HETATM   36  C23 UNL     1      17.481   2.685  79.918  1.00  0.00     0.126 C 
HETATM   37  O8  UNL     1      19.131   3.412  78.373  1.00  0.00    -0.266 OA
ENDBRANCH  34  35
ENDBRANCH  33  34
ENDBRANCH  31  33
ENDBRANCH  13  31
TORSDOF 10
ENDMDL
MODEL 3
REMARK VINA RESULT: -8.211936470      1.047      1.406
REMARK  10 active torsions:
REMARK  status: ('A' for Active; 'I' for Inactive)
REMARK    1  A    between atoms: C2_2  and  C3_3 
REMARK    2  A    between atoms: C3_3  and  C4_5 
REMARK    3  A    between atoms: C4_5  and  O3_7 
REMARK    4  A    between atoms: O3_7  and  C5_8 
REMARK    5  A    between atoms: C7_10  and  C8_11 
REMARK    6  A    between atoms: C8_11  and  O5_13 
REMARK    7  A    between atoms: C19_24  and  C20_25 
REMARK    8  A    between atoms: C20_25  and  C21_27 
REMARK    9  A    between atoms: C21_27  and  O7_28 
REMARK   10  A    between atoms: O7_28  and  C22_29 
ROOT
HETATM    1  C5  UNL     1      19.609  10.441  78.459  1.00  0.00     0.134 C 
HETATM    2  C6  UNL     1      18.982  11.423  77.509  1.00  0.00     0.048 C 
HETATM    3  C7  UNL     1      18.132  12.442  78.192  1.00  0.00     0.097 C 
HETATM    4  C10 UNL     1      16.994  11.776  78.983  1.00  0.00    -0.024 C 
HETATM    5  C11 UNL     1      16.510  12.897  79.926  1.00  0.00     0.016 C 
HETATM    6  C12 UNL     1      15.940  11.450  77.971  1.00  0.00     0.011 C 
HETATM    7  C13 UNL     1      14.799  10.648  78.519  1.00  0.00     0.010 C 
HETATM    8  C14 UNL     1      15.299   9.398  79.134  1.00  0.00     0.024 C 
HETATM    9  C15 UNL     1      16.737   9.353  79.437  1.00  0.00    -0.073 C 
HETATM   10  C16 UNL     1      17.103   8.069  79.353  1.00  0.00    -0.012 C 
HETATM   11  C17 UNL     1      15.950   7.186  78.994  1.00  0.00    -0.008 C 
HETATM   12  C18 UNL     1      15.444   6.639  80.295  1.00  0.00     0.021 C 
HETATM   13  C19 UNL     1      16.314   6.176  77.958  1.00  0.00     0.070 C 
HETATM   14  C24 UNL     1      15.714   6.678  76.630  1.00  0.00     0.014 C 
HETATM   15  C25 UNL     1      15.600   8.182  76.927  1.00  0.00     0.012 C 
HETATM   16  C26 UNL     1      15.041   8.153  78.318  1.00  0.00    -0.025 C 
HETATM   17  C27 UNL     1      13.599   7.854  78.301  1.00  0.00     0.017 C 
HETATM   18  C28 UNL     1      17.456  10.616  79.765  1.00  0.00     0.026 C 
HETATM   19  C29 UNL     1      18.942  10.385  79.790  1.00  0.00     0.042 C 
ENDROOT
BRANCH   1  20
HETATM   20  O3  UNL     1      20.994  10.746  78.675  1.00  0.00    -0.310 OA
BRANCH  20  21
HETATM   21  C4  UNL     1      22.017  10.271  77.902  1.00  0.00     0.329 C 
HETATM   22  O2  UNL     1      22.269  10.800  76.811  1.00  0.00    -0.256 OA
BRANCH  21  23
HETATM   23  C3  UNL     1      22.811   9.143  78.363  1.00  0.00     0.223 C 
HETATM   24  O1  UNL     1      22.258   8.138  78.840  1.00  0.00    -0.287 OA
BRANCH  23  25
HETATM   25  C2  UNL     1      24.309   9.198  78.261  1.00  0.00     0.085 C 
HETATM   26  C1  UNL     1      24.748  10.368  79.101  1.00  0.00     0.013 C 
ENDBRANCH  23  25
ENDBRANCH  21  23
ENDBRANCH  20  21
ENDBRANCH   1  20
BRANCH   3  27
HETATM   27  C8  UNL     1      17.616  13.394  77.216  1.00  0.00     0.263 C 
HETATM   28  O4  UNL     1      17.356  14.570  77.574  1.00  0.00    -0.265 OA
BRANCH  27  29
HETATM   29  O5  UNL     1      17.377  13.106  75.879  1.00  0.00    -0.326 OA
HETATM   30  C9  UNL     1      17.980  13.737  74.787  1.00  0.00     0.213 C 
ENDBRANCH  27  29
ENDBRANCH   3  27
BRANCH  13  31
HETATM   31  C20 UNL     1      15.970   4.787  78.221  1.00  0.00     0.156 C 
HETATM   32  O6  UNL     1      14.851   4.381  77.844  1.00  0.00    -0.295 OA
BRANCH  31  33
HETATM   33  C21 UNL     1      16.805   3.789  78.892  1.00  0.00     0.257 C 
BRANCH  33  34
HETATM   34  O7  UNL     1      18.184   4.092  78.851  1.00  0.00    -0.314 OA
BRANCH  34  35
HETATM   35  C22 UNL     1      19.100   3.075  78.613  1.00  0.00     0.255 C 
HETATM   36  C23 UNL     1      18.757   1.848  77.853  1.00  0.00     0.126 C 
HETATM   37  O8  UNL     1      20.259   3.226  79.071  1.00  0.00    -0.266 OA
ENDBRANCH  34  35
ENDBRANCH  33  34
ENDBRANCH  31  33
ENDBRANCH  13  31
TORSDOF 10
ENDMDL
MODEL 4
REMARK VINA RESULT: -8.154284770      1.276      1.777
REMARK  10 active torsions:
REMARK  status: ('A' for Active; 'I' for Inactive)
REMARK    1  A    between atoms: C2_2  and  C3_3 
REMARK    2  A    between atoms: C3_3  and  C4_5 
REMARK    3  A    between atoms: C4_5  and  O3_7 
REMARK    4  A    between atoms: O3_7  and  C5_8 
REMARK    5  A    between atoms: C7_10  and  C8_11 
REMARK    6  A    between atoms: C8_11  and  O5_13 
REMARK    7  A    between atoms: C19_24  and  C20_25 
REMARK    8  A    between atoms: C20_25  and  C21_27 
REMARK    9  A    between atoms: C21_27  and  O7_28 
REMARK   10  A    between atoms: O7_28  and  C22_29 
ROOT
HETATM    1  C5  UNL     1      19.975  10.616  78.295  1.00  0.00     0.134 C 
HETATM    2  C6  UNL     1      19.695  11.691  77.282  1.00  0.00     0.048 C 
HETATM    3  C7  UNL     1      19.090  12.918  77.877  1.00  0.00     0.097 C 
HETATM    4  C10 UNL     1      17.765  12.597  78.586  1.00  0.00    -0.024 C 
HETATM    5  C11 UNL     1      17.520  13.839  79.468  1.00  0.00     0.016 C 
HETATM    6  C12 UNL     1      16.739  12.516  77.499  1.00  0.00     0.011 C 
HETATM    7  C13 UNL     1      15.392  12.055  77.968  1.00  0.00     0.010 C 
HETATM    8  C14 UNL     1      15.505  10.742  78.642  1.00  0.00     0.024 C 
HETATM    9  C15 UNL     1      16.856  10.340  79.059  1.00  0.00    -0.073 C 
HETATM   10  C16 UNL     1      16.881   9.003  79.026  1.00  0.00    -0.012 C 
HETATM   11  C17 UNL     1      15.568   8.434  78.591  1.00  0.00    -0.008 C 
HETATM   12  C18 UNL     1      14.845   8.084  79.857  1.00  0.00     0.021 C 
HETATM   13  C19 UNL     1      15.732   7.327  77.605  1.00  0.00     0.070 C 
HETATM   14  C24 UNL     1      15.381   7.916  76.225  1.00  0.00     0.014 C 
HETATM   15  C25 UNL     1      15.639   9.410  76.486  1.00  0.00     0.012 C 
HETATM   16  C26 UNL     1      14.993   9.576  77.829  1.00  0.00    -0.025 C 
HETATM   17  C27 UNL     1      13.528   9.658  77.702  1.00  0.00     0.017 C 
HETATM   18  C28 UNL     1      17.852  11.387  79.422  1.00  0.00     0.026 C 
HETATM   19  C29 UNL     1      19.221  10.783  79.569  1.00  0.00     0.042 C 
ENDROOT
BRANCH   1  20
HETATM   20  O3  UNL     1      21.372  10.562  78.616  1.00  0.00    -0.310 OA
BRANCH  20  21
HETATM   21  C4  UNL     1      22.159   9.457  78.448  1.00  0.00     0.329 C 
HETATM   22  O2  UNL     1      21.791   8.359  78.890  1.00  0.00    -0.256 OA
BRANCH  21  23
HETATM   23  C3  UNL     1      23.428   9.568  77.747  1.00  0.00     0.223 C 
HETATM   24  O1  UNL     1      24.406   8.893  78.108  1.00  0.00    -0.287 OA
BRANCH  23  25
HETATM   25  C2  UNL     1      23.554  10.508  76.582  1.00  0.00     0.085 C 
HETATM   26  C1  UNL     1      24.313  11.707  77.085  1.00  0.00     0.013 C 
ENDBRANCH  23  25
ENDBRANCH  21  23
ENDBRANCH  20  21
ENDBRANCH   1  20
BRANCH   3  27
HETATM   27  C8  UNL     1      18.911  13.935  76.847  1.00  0.00     0.263 C 
HETATM   28  O4  UNL     1      19.012  15.150  77.151  1.00  0.00    -0.265 OA
BRANCH  27  29
HETATM   29  O5  UNL     1      18.628  13.669  75.515  1.00  0.00    -0.326 OA
HETATM   30  C9  UNL     1      18.617  14.609  74.479  1.00  0.00     0.213 C 
ENDBRANCH  27  29
ENDBRANCH   3  27
BRANCH  13  31
HETATM   31  C20 UNL     1      15.021   6.083  77.863  1.00  0.00     0.156 C 
HETATM   32  O6  UNL     1      13.790   6.061  77.659  1.00  0.00    -0.295 OA
BRANCH  31  33
HETATM   33  C21 UNL     1      15.600   4.827  78.344  1.00  0.00     0.257 C 
BRANCH  33  34
HETATM   34  O7  UNL     1      15.894   4.838  79.726  1.00  0.00    -0.314 OA
BRANCH  34  35
HETATM   35  C22 UNL     1      15.034   4.204  80.612  1.00  0.00     0.255 C 
HETATM   36  C23 UNL     1      14.194   4.945  81.586  1.00  0.00     0.126 C 
HETATM   37  O8  UNL     1      14.982   2.950  80.567  1.00  0.00    -0.266 OA
ENDBRANCH  34  35
ENDBRANCH  33  34
ENDBRANCH  31  33
ENDBRANCH  13  31
TORSDOF 10
ENDMDL
MODEL 5
REMARK VINA RESULT: -8.149573543      1.465      2.160
REMARK  10 active torsions:
REMARK  status: ('A' for Active; 'I' for Inactive)
REMARK    1  A    between atoms: C2_2  and  C3_3 
REMARK    2  A    between atoms: C3_3  and  C4_5 
REMARK    3  A    between atoms: C4_5  and  O3_7 
REMARK    4  A    between atoms: O3_7  and  C5_8 
REMARK    5  A    between atoms: C7_10  and  C8_11 
REMARK    6  A    between atoms: C8_11  and  O5_13 
REMARK    7  A    between atoms: C19_24  and  C20_25 
REMARK    8  A    between atoms: C20_25  and  C21_27 
REMARK    9  A    between atoms: C21_27  and  O7_28 
REMARK   10  A    between atoms: O7_28  and  C22_29 
ROOT
HETATM    1  C5  UNL     1      19.946  10.594  78.275  1.00  0.00     0.134 C 
HETATM    2  C6  UNL     1      19.640  11.681  77.284  1.00  0.00     0.048 C 
HETATM    3  C7  UNL     1      19.019  12.887  77.905  1.00  0.00     0.097 C 
HETATM    4  C10 UNL     1      17.704  12.531  78.618  1.00  0.00    -0.024 C 
HETATM    5  C11 UNL     1      17.445  13.752  79.524  1.00  0.00     0.016 C 
HETATM    6  C12 UNL     1      16.672  12.451  77.537  1.00  0.00     0.011 C 
HETATM    7  C13 UNL     1      15.337  11.959  78.008  1.00  0.00     0.010 C 
HETATM    8  C14 UNL     1      15.477  10.636  78.657  1.00  0.00     0.024 C 
HETATM    9  C15 UNL     1      16.838  10.250  79.058  1.00  0.00    -0.073 C 
HETATM   10  C16 UNL     1      16.886   8.915  79.001  1.00  0.00    -0.012 C 
HETATM   11  C17 UNL     1      15.580   8.330  78.565  1.00  0.00    -0.008 C 
HETATM   12  C18 UNL     1      14.872   7.946  79.830  1.00  0.00     0.021 C 
HETATM   13  C19 UNL     1      15.755   7.244  77.559  1.00  0.00     0.070 C 
HETATM   14  C24 UNL     1      15.383   7.851  76.192  1.00  0.00     0.014 C 
HETATM   15  C25 UNL     1      15.618   9.344  76.478  1.00  0.00     0.012 C 
HETATM   16  C26 UNL     1      14.979   9.476  77.828  1.00  0.00    -0.025 C 
HETATM   17  C27 UNL     1      13.512   9.534  77.713  1.00  0.00     0.017 C 
HETATM   18  C28 UNL     1      17.819  11.308  79.432  1.00  0.00     0.026 C 
HETATM   19  C29 UNL     1      19.199  10.725  79.558  1.00  0.00     0.042 C 
ENDROOT
BRANCH   1  20
HETATM   20  O3  UNL     1      21.346  10.558  78.585  1.00  0.00    -0.310 OA
BRANCH  20  21
HETATM   21  C4  UNL     1      22.144   9.460  78.421  1.00  0.00     0.329 C 
HETATM   22  O2  UNL     1      21.794   8.364  78.882  1.00  0.00    -0.256 OA
BRANCH  21  23
HETATM   23  C3  UNL     1      23.403   9.577  77.705  1.00  0.00     0.223 C 
HETATM   24  O1  UNL     1      24.395   8.922  78.066  1.00  0.00    -0.287 OA
BRANCH  23  25
HETATM   25  C2  UNL     1      23.502  10.499  76.522  1.00  0.00     0.085 C 
HETATM   26  C1  UNL     1      24.284  11.699  76.985  1.00  0.00     0.013 C 
ENDBRANCH  23  25
ENDBRANCH  21  23
ENDBRANCH  20  21
ENDBRANCH   1  20
BRANCH   3  27
HETATM   27  C8  UNL     1      18.814  13.918  76.895  1.00  0.00     0.263 C 
HETATM   28  O4  UNL     1      18.866  15.129  77.226  1.00  0.00    -0.265 OA
BRANCH  27  29
HETATM   29  O5  UNL     1      18.557  13.671  75.553  1.00  0.00    -0.326 OA
HETATM   30  C9  UNL     1      18.572  14.625  74.530  1.00  0.00     0.213 C 
ENDBRANCH  27  29
ENDBRANCH   3  27
BRANCH  13  31
HETATM   31  C20 UNL     1      15.068   5.984  77.800  1.00  0.00     0.156 C 
HETATM   32  O6  UNL     1      15.686   5.090  78.413  1.00  0.00    -0.295 OA
BRANCH  31  33
HETATM   33  C21 UNL     1      13.704   5.638  77.394  1.00  0.00     0.257 C 
BRANCH  33  34
HETATM   34  O7  UNL     1      13.644   4.549  76.497  1.00  0.00    -0.314 OA
BRANCH  34  35
HETATM   35  C22 UNL     1      13.888   4.762  75.146  1.00  0.00     0.255 C 
HETATM   36  C23 UNL     1      15.054   4.178  74.439  1.00  0.00     0.126 C 
HETATM   37  O8  UNL     1      13.071   5.483  74.521  1.00  0.00    -0.266 OA
ENDBRANCH  34  35
ENDBRANCH  33  34
ENDBRANCH  31  33
ENDBRANCH  13  31
TORSDOF 10
ENDMDL
