MODEL 1
REMARK VINA RESULT: -8.617263609      0.000      0.000
REMARK  14 active torsions:
REMARK  status: ('A' for Active; 'I' for Inactive)
REMARK    1  A    between atoms: S1_2  and  N1_5 
REMARK    2  A    between atoms: N1_5  and  N2_7 
REMARK    3  A    between atoms: N2_7  and  C2_9 
REMARK    4  A    between atoms: C3_12  and  N4_13 
REMARK    5  A    between atoms: N6_20  and  C6_21 
REMARK    6  A    between atoms: C7_23  and  C8_24 
REMARK    7  A    between atoms: C8_24  and  O4_25 
REMARK    8  A    between atoms: C8_24  and  C9_27 
REMARK    9  A    between atoms: C9_27  and  O5_28 
REMARK   10  A    between atoms: C10_30  and  O6_31 
REMARK   11  A    between atoms: C10_30  and  C11_33 
REMARK   12  A    between atoms: C11_33  and  O7_34 
REMARK   13  A    between atoms: C12_36  and  O8_37 
REMARK   14  A    between atoms: C13_39  and  O9_40 
REMARK       I    between atoms: N7_43  and  C15_44 
ROOT
HETATM    1  C2  UNL     1      35.160  37.115  51.610  1.00  0.00     0.709 A 
HETATM    2  N3  UNL     1      36.316  37.051  50.955  1.00  0.00    -0.173 N 
ATOM      3  H3  UNL     1      36.870  36.195  51.001  1.00  0.00     0.186 HD
HETATM    4  C3  UNL     1      36.769  38.087  50.238  1.00  0.00     0.145 A 
HETATM    5  C4  UNL     1      36.052  39.242  50.160  1.00  0.00     0.123 A 
HETATM    6  N5  UNL     1      36.248  40.416  49.535  1.00  0.00    -0.346 N 
ATOM      7  H5  UNL     1      37.050  40.662  48.955  1.00  0.00     0.167 HD
HETATM    8  C5  UNL     1      35.234  41.180  49.803  1.00  0.00     0.188 A 
HETATM    9  N6  UNL     1      34.317  40.553  50.617  1.00  0.00    -0.296 N 
HETATM   10  C14 UNL     1      34.832  39.334  50.841  1.00  0.00     0.168 A 
HETATM   11  N7  UNL     1      34.430  38.274  51.538  1.00  0.00    -0.100 N 
HETATM   12  C15 UNL     1      33.204  38.286  52.257  1.00  0.00     0.210 C 
HETATM   13  N8  UNL     1      33.176  38.781  53.434  1.00  0.00    -0.373 N 
ATOM     14  H81 UNL     1      32.297  38.789  53.950  1.00  0.00     0.158 HD
ATOM     15  H82 UNL     1      34.012  39.196  53.845  1.00  0.00     0.158 HD
HETATM   16  N9  UNL     1      32.044  37.710  51.686  1.00  0.00    -0.062 NA
ENDROOT
BRANCH   9  17
HETATM   17  C6  UNL     1      33.095  41.161  51.081  1.00  0.00     0.262 C 
HETATM   18  O3  UNL     1      32.737  42.002  49.941  1.00  0.00    -0.352 OA
HETATM   19  C7  UNL     1      31.377  42.331  50.059  1.00  0.00     0.194 C 
HETATM   20  C10 UNL     1      31.014  42.773  51.400  1.00  0.00     0.136 C 
HETATM   21  C12 UNL     1      32.144  43.013  52.379  1.00  0.00     0.190 C 
HETATM   22  C13 UNL     1      33.349  42.221  52.129  1.00  0.00     0.199 C 
BRANCH  19  23
HETATM   23  C8  UNL     1      31.089  43.178  48.859  1.00  0.00     0.173 C 
BRANCH  23  24
HETATM   24  O4  UNL     1      32.283  43.095  48.027  1.00  0.00    -0.391 OA
ATOM     25  H4  UNL     1      32.115  42.393  47.410  1.00  0.00     0.210 HD
ENDBRANCH  23  24
BRANCH  23  26
HETATM   26  C9  UNL     1      30.085  42.548  47.883  1.00  0.00     0.198 C 
BRANCH  26  27
HETATM   27  O5  UNL     1      30.112  43.261  46.701  1.00  0.00    -0.398 OA
ATOM     28  H5  UNL     1      29.218  43.418  46.421  1.00  0.00     0.209 HD
ENDBRANCH  26  27
ENDBRANCH  23  26
ENDBRANCH  19  23
BRANCH  20  29
HETATM   29  O6  UNL     1      30.159  41.770  51.968  1.00  0.00    -0.382 OA
ATOM     30  H6  UNL     1      29.886  42.079  52.823  1.00  0.00     0.210 HD
ENDBRANCH  20  29
BRANCH  20  31
HETATM   31  C11 UNL     1      30.136  44.001  51.521  1.00  0.00     0.207 C 
BRANCH  31  32
HETATM   32  O7  UNL     1      30.593  44.959  52.382  1.00  0.00    -0.398 OA
ATOM     33  H7  UNL     1      30.403  45.855  52.128  1.00  0.00     0.209 HD
ENDBRANCH  31  32
ENDBRANCH  20  31
BRANCH  21  34
HETATM   34  O8  UNL     1      31.634  42.811  53.680  1.00  0.00    -0.390 OA
ATOM     35  H8  UNL     1      31.835  41.918  53.934  1.00  0.00     0.210 HD
ENDBRANCH  21  34
BRANCH  22  36
HETATM   36  O9  UNL     1      34.016  41.781  53.255  1.00  0.00    -0.388 OA
ATOM     37  H9  UNL     1      34.447  40.940  53.162  1.00  0.00     0.210 HD
ENDBRANCH  22  36
ENDBRANCH   9  17
BRANCH   4  38
HETATM   38  N4  UNL     1      37.893  38.012  49.606  1.00  0.00    -0.383 N 
ATOM     39  H42 UNL     1      38.743  37.834  50.141  1.00  0.00     0.157 HD
ATOM     40  H41 UNL     1      37.931  38.129  48.594  1.00  0.00     0.157 HD
ENDBRANCH   4  38
BRANCH   1  41
HETATM   41  N2  UNL     1      34.684  36.138  52.317  1.00  0.00    -0.122 N 
ATOM     42  H2  UNL     1      34.488  36.309  53.303  1.00  0.00     0.206 HD
BRANCH  41  43
HETATM   43  N1  UNL     1      34.428  34.884  51.814  1.00  0.00    -0.213 N 
ATOM     44  H1  UNL     1      33.466  34.633  51.587  1.00  0.00     0.200 HD
BRANCH  43  45
HETATM   45  S1  UNL     1      35.669  33.726  51.555  1.00  0.00     0.240 S 
HETATM   46  C1  UNL     1      36.903  33.938  52.813  1.00  0.00     0.187 C 
HETATM   47  O1  UNL     1      35.125  32.336  51.618  1.00  0.00    -0.205 OA
HETATM   48  O2  UNL     1      36.234  33.929  50.181  1.00  0.00    -0.205 OA
ENDBRANCH  43  45
ENDBRANCH  41  43
ENDBRANCH   1  41
TORSDOF 14
ENDMDL
MODEL 2
REMARK VINA RESULT: -8.471950908      3.766      9.432
REMARK  14 active torsions:
REMARK  status: ('A' for Active; 'I' for Inactive)
REMARK    1  A    between atoms: S1_2  and  N1_5 
REMARK    2  A    between atoms: N1_5  and  N2_7 
REMARK    3  A    between atoms: N2_7  and  C2_9 
REMARK    4  A    between atoms: C3_12  and  N4_13 
REMARK    5  A    between atoms: N6_20  and  C6_21 
REMARK    6  A    between atoms: C7_23  and  C8_24 
REMARK    7  A    between atoms: C8_24  and  O4_25 
REMARK    8  A    between atoms: C8_24  and  C9_27 
REMARK    9  A    between atoms: C9_27  and  O5_28 
REMARK   10  A    between atoms: C10_30  and  O6_31 
REMARK   11  A    between atoms: C10_30  and  C11_33 
REMARK   12  A    between atoms: C11_33  and  O7_34 
REMARK   13  A    between atoms: C12_36  and  O8_37 
REMARK   14  A    between atoms: C13_39  and  O9_40 
REMARK       I    between atoms: N7_43  and  C15_44 
ROOT
HETATM    1  C2  UNL     1      34.794  37.478  51.708  1.00  0.00     0.709 A 
HETATM    2  N3  UNL     1      34.909  38.630  51.052  1.00  0.00    -0.173 N 
ATOM      3  H3  UNL     1      34.201  39.352  51.184  1.00  0.00     0.186 HD
HETATM    4  C3  UNL     1      35.933  38.860  50.220  1.00  0.00     0.145 A 
HETATM    5  C4  UNL     1      36.891  37.913  50.023  1.00  0.00     0.123 A 
HETATM    6  N5  UNL     1      38.004  37.861  49.271  1.00  0.00    -0.346 N 
ATOM      7  H5  UNL     1      38.351  38.599  48.659  1.00  0.00     0.167 HD
HETATM    8  C5  UNL     1      38.557  36.702  49.463  1.00  0.00     0.188 A 
HETATM    9  N6  UNL     1      37.841  35.930  50.350  1.00  0.00    -0.296 N 
HETATM   10  C14 UNL     1      36.793  36.692  50.703  1.00  0.00     0.168 A 
HETATM   11  N7  UNL     1      35.755  36.518  51.516  1.00  0.00    -0.100 N 
HETATM   12  C15 UNL     1      35.583  35.308  52.243  1.00  0.00     0.210 C 
HETATM   13  N8  UNL     1      35.009  34.317  51.676  1.00  0.00    -0.373 N 
ATOM     14  H81 UNL     1      34.885  33.449  52.197  1.00  0.00     0.158 HD
ATOM     15  H82 UNL     1      34.708  34.375  50.703  1.00  0.00     0.158 HD
HETATM   16  N9  UNL     1      36.001  35.228  53.593  1.00  0.00    -0.062 NA
ENDROOT
BRANCH   9  17
HETATM   17  C6  UNL     1      38.214  34.596  50.750  1.00  0.00     0.262 C 
HETATM   18  O3  UNL     1      39.661  34.625  50.546  1.00  0.00    -0.352 OA
HETATM   19  C7  UNL     1      40.220  33.563  51.274  1.00  0.00     0.194 C 
HETATM   20  C10 UNL     1      39.507  32.306  51.081  1.00  0.00     0.136 C 
HETATM   21  C12 UNL     1      38.445  32.271  50.003  1.00  0.00     0.190 C 
HETATM   22  C13 UNL     1      37.818  33.562  49.720  1.00  0.00     0.199 C 
BRANCH  19  23
HETATM   23  C8  UNL     1      41.691  33.667  51.023  1.00  0.00     0.173 C 
BRANCH  23  24
HETATM   24  O4  UNL     1      41.821  34.079  49.630  1.00  0.00    -0.391 OA
ATOM     25  H4  UNL     1      42.744  34.270  49.506  1.00  0.00     0.210 HD
ENDBRANCH  23  24
BRANCH  23  26
HETATM   26  C9  UNL     1      42.347  34.888  51.684  1.00  0.00     0.198 C 
BRANCH  26  27
HETATM   27  O5  UNL     1      42.005  36.016  50.965  1.00  0.00    -0.398 OA
ATOM     28  H5  UNL     1      42.438  35.980  50.121  1.00  0.00     0.209 HD
ENDBRANCH  26  27
ENDBRANCH  23  26
ENDBRANCH  19  23
BRANCH  20  29
HETATM   29  O6  UNL     1      38.870  31.976  52.324  1.00  0.00    -0.382 OA
ATOM     30  H6  UNL     1      38.694  31.042  52.316  1.00  0.00     0.210 HD
ENDBRANCH  20  29
BRANCH  20  31
HETATM   31  C11 UNL     1      40.335  31.060  50.843  1.00  0.00     0.207 C 
BRANCH  31  32
HETATM   32  O7  UNL     1      40.208  30.087  51.794  1.00  0.00    -0.398 OA
ATOM     33  H7  UNL     1      41.021  29.669  52.056  1.00  0.00     0.209 HD
ENDBRANCH  31  32
ENDBRANCH  20  31
BRANCH  21  34
HETATM   34  O8  UNL     1      37.499  31.286  50.365  1.00  0.00    -0.390 OA
ATOM     35  H8  UNL     1      37.011  31.054  49.584  1.00  0.00     0.210 HD
ENDBRANCH  21  34
BRANCH  22  36
HETATM   36  O9  UNL     1      36.469  33.517  49.427  1.00  0.00    -0.388 OA
ATOM     37  H9  UNL     1      36.061  32.667  49.545  1.00  0.00     0.210 HD
ENDBRANCH  22  36
ENDBRANCH   9  17
BRANCH   4  38
HETATM   38  N4  UNL     1      36.032  39.982  49.589  1.00  0.00    -0.383 N 
ATOM     39  H42 UNL     1      36.327  40.810  50.108  1.00  0.00     0.157 HD
ATOM     40  H41 UNL     1      35.821  40.041  48.594  1.00  0.00     0.157 HD
ENDBRANCH   4  38
BRANCH   1  41
HETATM   41  N2  UNL     1      33.820  37.212  52.521  1.00  0.00    -0.122 N 
ATOM     42  H2  UNL     1      33.537  36.238  52.629  1.00  0.00     0.206 HD
BRANCH  41  43
HETATM   43  N1  UNL     1      33.147  38.166  53.246  1.00  0.00    -0.213 N 
ATOM     44  H1  UNL     1      33.684  38.813  53.824  1.00  0.00     0.200 HD
BRANCH  43  45
HETATM   45  S1  UNL     1      31.436  38.309  53.214  1.00  0.00     0.240 S 
HETATM   46  C1  UNL     1      31.006  39.639  52.122  1.00  0.00     0.187 C 
HETATM   47  O1  UNL     1      30.803  37.044  52.735  1.00  0.00    -0.205 OA
HETATM   48  O2  UNL     1      30.951  38.557  54.611  1.00  0.00    -0.205 OA
ENDBRANCH  43  45
ENDBRANCH  41  43
ENDBRANCH   1  41
TORSDOF 14
ENDMDL
MODEL 3
REMARK VINA RESULT: -8.333730205      1.060      1.151
REMARK  14 active torsions:
REMARK  status: ('A' for Active; 'I' for Inactive)
REMARK    1  A    between atoms: S1_2  and  N1_5 
REMARK    2  A    between atoms: N1_5  and  N2_7 
REMARK    3  A    between atoms: N2_7  and  C2_9 
REMARK    4  A    between atoms: C3_12  and  N4_13 
REMARK    5  A    between atoms: N6_20  and  C6_21 
REMARK    6  A    between atoms: C7_23  and  C8_24 
REMARK    7  A    between atoms: C8_24  and  O4_25 
REMARK    8  A    between atoms: C8_24  and  C9_27 
REMARK    9  A    between atoms: C9_27  and  O5_28 
REMARK   10  A    between atoms: C10_30  and  O6_31 
REMARK   11  A    between atoms: C10_30  and  C11_33 
REMARK   12  A    between atoms: C11_33  and  O7_34 
REMARK   13  A    between atoms: C12_36  and  O8_37 
REMARK   14  A    between atoms: C13_39  and  O9_40 
REMARK       I    between atoms: N7_43  and  C15_44 
ROOT
HETATM    1  C2  UNL     1      35.265  37.792  51.186  1.00  0.00     0.709 A 
HETATM    2  N3  UNL     1      36.401  37.864  50.498  1.00  0.00    -0.173 N 
ATOM      3  H3  UNL     1      37.002  37.042  50.439  1.00  0.00     0.186 HD
HETATM    4  C3  UNL     1      36.773  38.994  49.883  1.00  0.00     0.145 A 
HETATM    5  C4  UNL     1      35.991  40.107  49.945  1.00  0.00     0.123 A 
HETATM    6  N5  UNL     1      36.102  41.349  49.443  1.00  0.00    -0.346 N 
ATOM      7  H5  UNL     1      36.870  41.700  48.871  1.00  0.00     0.167 HD
HETATM    8  C5  UNL     1      35.055  42.020  49.816  1.00  0.00     0.188 A 
HETATM    9  N6  UNL     1      34.201  41.260  50.583  1.00  0.00    -0.296 N 
HETATM   10  C14 UNL     1      34.790  40.056  50.664  1.00  0.00     0.168 A 
HETATM   11  N7  UNL     1      34.470  38.908  51.255  1.00  0.00    -0.100 N 
HETATM   12  C15 UNL     1      33.268  38.773  52.003  1.00  0.00     0.210 C 
HETATM   13  N8  UNL     1      33.251  39.141  53.226  1.00  0.00    -0.373 N 
ATOM     14  H81 UNL     1      32.389  39.044  53.762  1.00  0.00     0.158 HD
ATOM     15  H82 UNL     1      34.075  39.559  53.657  1.00  0.00     0.158 HD
HETATM   16  N9  UNL     1      32.124  38.192  51.404  1.00  0.00    -0.062 NA
ENDROOT
BRANCH   9  17
HETATM   17  C6  UNL     1      32.962  41.743  51.140  1.00  0.00     0.262 C 
HETATM   18  O3  UNL     1      32.445  42.554  50.040  1.00  0.00    -0.352 OA
HETATM   19  C7  UNL     1      31.072  42.749  50.257  1.00  0.00     0.194 C 
HETATM   20  C10 UNL     1      30.765  43.144  51.626  1.00  0.00     0.136 C 
HETATM   21  C12 UNL     1      31.934  43.486  52.527  1.00  0.00     0.190 C 
HETATM   22  C13 UNL     1      33.188  42.816  52.182  1.00  0.00     0.199 C 
BRANCH  19  23
HETATM   23  C8  UNL     1      30.620  43.573  49.093  1.00  0.00     0.173 C 
BRANCH  23  24
HETATM   24  O4  UNL     1      31.839  44.090  48.483  1.00  0.00    -0.391 OA
ATOM     25  H4  UNL     1      32.079  44.851  49.001  1.00  0.00     0.210 HD
ENDBRANCH  23  24
BRANCH  23  26
HETATM   26  C9  UNL     1      30.108  42.741  47.908  1.00  0.00     0.198 C 
BRANCH  26  27
HETATM   27  O5  UNL     1      30.640  43.257  46.743  1.00  0.00    -0.398 OA
ATOM     28  H5  UNL     1      31.439  42.786  46.540  1.00  0.00     0.209 HD
ENDBRANCH  26  27
ENDBRANCH  23  26
ENDBRANCH  19  23
BRANCH  20  29
HETATM   29  O6  UNL     1      30.053  42.060  52.239  1.00  0.00    -0.382 OA
ATOM     30  H6  UNL     1      29.472  42.432  52.892  1.00  0.00     0.210 HD
ENDBRANCH  20  29
BRANCH  20  31
HETATM   31  C11 UNL     1      29.785  44.282  51.825  1.00  0.00     0.207 C 
BRANCH  31  32
HETATM   32  O7  UNL     1      29.079  44.243  52.995  1.00  0.00    -0.398 OA
ATOM     33  H7  UNL     1      28.633  43.422  53.171  1.00  0.00     0.209 HD
ENDBRANCH  31  32
ENDBRANCH  20  31
BRANCH  21  34
HETATM   34  O8  UNL     1      31.539  43.227  53.858  1.00  0.00    -0.390 OA
ATOM     35  H8  UNL     1      32.196  43.602  54.432  1.00  0.00     0.210 HD
ENDBRANCH  21  34
BRANCH  22  36
HETATM   36  O9  UNL     1      33.973  42.434  53.252  1.00  0.00    -0.388 OA
ATOM     37  H9  UNL     1      34.765  41.965  53.020  1.00  0.00     0.210 HD
ENDBRANCH  22  36
ENDBRANCH   9  17
BRANCH   4  38
HETATM   38  N4  UNL     1      37.879  39.051  49.218  1.00  0.00    -0.383 N 
ATOM     39  H42 UNL     1      38.233  38.198  48.785  1.00  0.00     0.157 HD
ATOM     40  H41 UNL     1      38.387  39.930  49.126  1.00  0.00     0.157 HD
ENDBRANCH   4  38
BRANCH   1  41
HETATM   41  N2  UNL     1      34.866  36.721  51.798  1.00  0.00    -0.122 N 
ATOM     42  H2  UNL     1      33.869  36.507  51.792  1.00  0.00     0.206 HD
BRANCH  41  43
HETATM   43  N1  UNL     1      35.710  35.856  52.454  1.00  0.00    -0.213 N 
ATOM     44  H1  UNL     1      35.897  36.009  53.445  1.00  0.00     0.200 HD
BRANCH  43  45
HETATM   45  S1  UNL     1      36.460  34.528  51.666  1.00  0.00     0.240 S 
HETATM   46  C1  UNL     1      35.301  33.186  51.606  1.00  0.00     0.187 C 
HETATM   47  O1  UNL     1      36.874  34.893  50.278  1.00  0.00    -0.205 OA
HETATM   48  O2  UNL     1      37.700  34.159  52.425  1.00  0.00    -0.205 OA
ENDBRANCH  43  45
ENDBRANCH  41  43
ENDBRANCH   1  41
TORSDOF 14
ENDMDL
MODEL 4
REMARK VINA RESULT: -8.137675777      3.564      5.184
REMARK  14 active torsions:
REMARK  status: ('A' for Active; 'I' for Inactive)
REMARK    1  A    between atoms: S1_2  and  N1_5 
REMARK    2  A    between atoms: N1_5  and  N2_7 
REMARK    3  A    between atoms: N2_7  and  C2_9 
REMARK    4  A    between atoms: C3_12  and  N4_13 
REMARK    5  A    between atoms: N6_20  and  C6_21 
REMARK    6  A    between atoms: C7_23  and  C8_24 
REMARK    7  A    between atoms: C8_24  and  O4_25 
REMARK    8  A    between atoms: C8_24  and  C9_27 
REMARK    9  A    between atoms: C9_27  and  O5_28 
REMARK   10  A    between atoms: C10_30  and  O6_31 
REMARK   11  A    between atoms: C10_30  and  C11_33 
REMARK   12  A    between atoms: C11_33  and  O7_34 
REMARK   13  A    between atoms: C12_36  and  O8_37 
REMARK   14  A    between atoms: C13_39  and  O9_40 
REMARK       I    between atoms: N7_43  and  C15_44 
ROOT
HETATM    1  C2  UNL     1      32.115  40.186  52.093  1.00  0.00     0.709 A 
HETATM    2  N3  UNL     1      33.105  40.905  52.615  1.00  0.00    -0.173 N 
ATOM      3  H3  UNL     1      33.972  40.441  52.884  1.00  0.00     0.186 HD
HETATM    4  C3  UNL     1      32.987  42.227  52.794  1.00  0.00     0.145 A 
HETATM    5  C4  UNL     1      31.841  42.874  52.445  1.00  0.00     0.123 A 
HETATM    6  N5  UNL     1      31.443  44.157  52.506  1.00  0.00    -0.346 N 
ATOM      7  H5  UNL     1      31.992  44.940  52.861  1.00  0.00     0.167 HD
HETATM    8  C5  UNL     1      30.236  44.219  52.032  1.00  0.00     0.188 A 
HETATM    9  N6  UNL     1      29.774  42.985  51.634  1.00  0.00    -0.296 N 
HETATM   10  C14 UNL     1      30.784  42.139  51.894  1.00  0.00     0.168 A 
HETATM   11  N7  UNL     1      30.956  40.829  51.737  1.00  0.00    -0.100 N 
HETATM   12  C15 UNL     1      29.932  40.011  51.185  1.00  0.00     0.210 C 
HETATM   13  N8  UNL     1      29.011  39.564  51.949  1.00  0.00    -0.373 N 
ATOM     14  H81 UNL     1      28.277  38.978  51.553  1.00  0.00     0.158 HD
ATOM     15  H82 UNL     1      28.985  39.816  52.937  1.00  0.00     0.158 HD
HETATM   16  N9  UNL     1      29.969  39.661  49.814  1.00  0.00    -0.062 NA
ENDROOT
BRANCH   9  17
HETATM   17  C6  UNL     1      28.467  42.749  51.074  1.00  0.00     0.262 C 
HETATM   18  O3  UNL     1      28.208  44.019  50.397  1.00  0.00    -0.352 OA
HETATM   19  C7  UNL     1      27.179  43.807  49.465  1.00  0.00     0.194 C 
HETATM   20  C10 UNL     1      26.055  43.064  50.019  1.00  0.00     0.136 C 
HETATM   21  C12 UNL     1      26.055  42.822  51.514  1.00  0.00     0.190 C 
HETATM   22  C13 UNL     1      27.382  42.780  52.127  1.00  0.00     0.199 C 
BRANCH  19  23
HETATM   23  C8  UNL     1      26.982  45.140  48.814  1.00  0.00     0.173 C 
BRANCH  23  24
HETATM   24  O4  UNL     1      27.367  46.126  49.816  1.00  0.00    -0.391 OA
ATOM     25  H4  UNL     1      28.251  46.390  49.588  1.00  0.00     0.210 HD
ENDBRANCH  23  24
BRANCH  23  26
HETATM   26  C9  UNL     1      28.039  45.472  47.749  1.00  0.00     0.198 C 
BRANCH  26  27
HETATM   27  O5  UNL     1      28.562  44.290  47.264  1.00  0.00    -0.398 OA
ATOM     28  H5  UNL     1      27.962  43.936  46.618  1.00  0.00     0.209 HD
ENDBRANCH  26  27
ENDBRANCH  23  26
ENDBRANCH  19  23
BRANCH  20  29
HETATM   29  O6  UNL     1      26.027  41.781  49.376  1.00  0.00    -0.382 OA
ATOM     30  H6  UNL     1      25.352  41.264  49.800  1.00  0.00     0.210 HD
ENDBRANCH  20  29
BRANCH  20  31
HETATM   31  C11 UNL     1      24.660  43.570  49.714  1.00  0.00     0.207 C 
BRANCH  31  32
HETATM   32  O7  UNL     1      23.847  43.725  50.802  1.00  0.00    -0.398 OA
ATOM     33  H7  UNL     1      23.221  43.024  50.942  1.00  0.00     0.209 HD
ENDBRANCH  31  32
ENDBRANCH  20  31
BRANCH  21  34
HETATM   34  O8  UNL     1      25.318  41.642  51.757  1.00  0.00    -0.390 OA
ATOM     35  H8  UNL     1      24.866  41.750  52.585  1.00  0.00     0.210 HD
ENDBRANCH  21  34
BRANCH  22  36
HETATM   36  O9  UNL     1      27.537  41.865  53.150  1.00  0.00    -0.388 OA
ATOM     37  H9  UNL     1      27.532  42.237  54.024  1.00  0.00     0.210 HD
ENDBRANCH  22  36
ENDBRANCH   9  17
BRANCH   4  38
HETATM   38  N4  UNL     1      33.955  42.914  53.301  1.00  0.00    -0.383 N 
ATOM     39  H42 UNL     1      34.504  43.515  52.685  1.00  0.00     0.157 HD
ATOM     40  H41 UNL     1      34.168  42.859  54.297  1.00  0.00     0.157 HD
ENDBRANCH   4  38
BRANCH   1  41
HETATM   41  N2  UNL     1      32.185  38.906  51.902  1.00  0.00    -0.122 N 
ATOM     42  H2  UNL     1      31.591  38.494  51.182  1.00  0.00     0.206 HD
BRANCH  41  43
HETATM   43  N1  UNL     1      33.013  38.071  52.614  1.00  0.00    -0.213 N 
ATOM     44  H1  UNL     1      33.176  38.266  53.602  1.00  0.00     0.200 HD
BRANCH  43  45
HETATM   45  S1  UNL     1      33.783  36.712  51.900  1.00  0.00     0.240 S 
HETATM   46  C1  UNL     1      32.591  35.407  51.751  1.00  0.00     0.187 C 
HETATM   47  O1  UNL     1      34.324  37.052  50.549  1.00  0.00    -0.205 OA
HETATM   48  O2  UNL     1      34.942  36.311  52.763  1.00  0.00    -0.205 OA
ENDBRANCH  43  45
ENDBRANCH  41  43
ENDBRANCH   1  41
TORSDOF 14
ENDMDL
MODEL 5
REMARK VINA RESULT: -8.133573971      1.627      2.016
REMARK  14 active torsions:
REMARK  status: ('A' for Active; 'I' for Inactive)
REMARK    1  A    between atoms: S1_2  and  N1_5 
REMARK    2  A    between atoms: N1_5  and  N2_7 
REMARK    3  A    between atoms: N2_7  and  C2_9 
REMARK    4  A    between atoms: C3_12  and  N4_13 
REMARK    5  A    between atoms: N6_20  and  C6_21 
REMARK    6  A    between atoms: C7_23  and  C8_24 
REMARK    7  A    between atoms: C8_24  and  O4_25 
REMARK    8  A    between atoms: C8_24  and  C9_27 
REMARK    9  A    between atoms: C9_27  and  O5_28 
REMARK   10  A    between atoms: C10_30  and  O6_31 
REMARK   11  A    between atoms: C10_30  and  C11_33 
REMARK   12  A    between atoms: C11_33  and  O7_34 
REMARK   13  A    between atoms: C12_36  and  O8_37 
REMARK   14  A    between atoms: C13_39  and  O9_40 
REMARK       I    between atoms: N7_43  and  C15_44 
ROOT
HETATM    1  C2  UNL     1      34.412  38.376  51.292  1.00  0.00     0.709 A 
HETATM    2  N3  UNL     1      35.570  38.615  50.681  1.00  0.00    -0.173 N 
ATOM      3  H3  UNL     1      36.257  37.865  50.602  1.00  0.00     0.186 HD
HETATM    4  C3  UNL     1      35.853  39.819  50.168  1.00  0.00     0.145 A 
HETATM    5  C4  UNL     1      34.955  40.839  50.260  1.00  0.00     0.123 A 
HETATM    6  N5  UNL     1      34.961  42.120  49.851  1.00  0.00    -0.346 N 
ATOM      7  H5  UNL     1      35.717  42.589  49.353  1.00  0.00     0.167 HD
HETATM    8  C5  UNL     1      33.831  42.652  50.205  1.00  0.00     0.188 A 
HETATM    9  N6  UNL     1      33.022  41.754  50.864  1.00  0.00    -0.296 N 
HETATM   10  C14 UNL     1      33.729  40.613  50.899  1.00  0.00     0.168 A 
HETATM   11  N7  UNL     1      33.501  39.397  51.389  1.00  0.00    -0.100 N 
HETATM   12  C15 UNL     1      32.282  39.086  52.050  1.00  0.00     0.210 C 
HETATM   13  N8  UNL     1      32.161  39.357  53.293  1.00  0.00    -0.373 N 
ATOM     14  H81 UNL     1      31.286  39.134  53.768  1.00  0.00     0.158 HD
ATOM     15  H82 UNL     1      32.912  39.824  53.801  1.00  0.00     0.158 HD
HETATM   16  N9  UNL     1      31.240  38.438  51.345  1.00  0.00    -0.062 NA
ENDROOT
BRANCH   9  17
HETATM   17  C6  UNL     1      31.711  42.066  51.377  1.00  0.00     0.262 C 
HETATM   18  O3  UNL     1      30.943  42.212  50.142  1.00  0.00    -0.352 OA
HETATM   19  C7  UNL     1      29.581  42.102  50.467  1.00  0.00     0.194 C 
HETATM   20  C10 UNL     1      29.208  42.902  51.626  1.00  0.00     0.136 C 
HETATM   21  C12 UNL     1      30.243  43.867  52.163  1.00  0.00     0.190 C 
HETATM   22  C13 UNL     1      31.631  43.478  51.912  1.00  0.00     0.199 C 
BRANCH  19  23
HETATM   23  C8  UNL     1      28.870  42.251  49.159  1.00  0.00     0.173 C 
BRANCH  23  24
HETATM   24  O4  UNL     1      29.767  43.029  48.313  1.00  0.00    -0.391 OA
ATOM     25  H4  UNL     1      30.175  42.400  47.728  1.00  0.00     0.210 HD
ENDBRANCH  23  24
BRANCH  23  26
HETATM   26  C9  UNL     1      28.830  40.962  48.325  1.00  0.00     0.198 C 
BRANCH  26  27
HETATM   27  O5  UNL     1      29.421  39.948  49.052  1.00  0.00    -0.398 OA
ATOM     28  H5  UNL     1      30.177  39.632  48.571  1.00  0.00     0.209 HD
ENDBRANCH  26  27
ENDBRANCH  23  26
ENDBRANCH  19  23
BRANCH  20  29
HETATM   29  O6  UNL     1      28.873  41.996  52.687  1.00  0.00    -0.382 OA
ATOM     30  H6  UNL     1      29.686  41.645  53.030  1.00  0.00     0.210 HD
ENDBRANCH  20  29
BRANCH  20  31
HETATM   31  C11 UNL     1      27.936  43.719  51.533  1.00  0.00     0.207 C 
BRANCH  31  32
HETATM   32  O7  UNL     1      27.203  43.787  52.685  1.00  0.00    -0.398 OA
ATOM     33  H7  UNL     1      26.728  42.995  52.909  1.00  0.00     0.209 HD
ENDBRANCH  31  32
ENDBRANCH  20  31
BRANCH  21  34
HETATM   34  O8  UNL     1      29.982  44.053  53.539  1.00  0.00    -0.390 OA
ATOM     35  H8  UNL     1      30.728  44.505  53.915  1.00  0.00     0.210 HD
ENDBRANCH  21  34
BRANCH  22  36
HETATM   36  O9  UNL     1      32.524  43.769  52.925  1.00  0.00    -0.388 OA
ATOM     37  H9  UNL     1      32.426  44.632  53.309  1.00  0.00     0.210 HD
ENDBRANCH  22  36
ENDBRANCH   9  17
BRANCH   4  38
HETATM   38  N4  UNL     1      36.980  40.037  49.578  1.00  0.00    -0.383 N 
ATOM     39  H42 UNL     1      36.987  40.147  48.563  1.00  0.00     0.157 HD
ATOM     40  H41 UNL     1      37.846  40.100  50.113  1.00  0.00     0.157 HD
ENDBRANCH   4  38
BRANCH   1  41
HETATM   41  N2  UNL     1      34.097  37.227  51.803  1.00  0.00    -0.122 N 
ATOM     42  H2  UNL     1      33.126  36.922  51.736  1.00  0.00     0.206 HD
BRANCH  41  43
HETATM   43  N1  UNL     1      34.995  36.397  52.430  1.00  0.00    -0.213 N 
ATOM     44  H1  UNL     1      35.244  36.585  53.401  1.00  0.00     0.200 HD
BRANCH  43  45
HETATM   45  S1  UNL     1      35.714  35.054  51.637  1.00  0.00     0.240 S 
HETATM   46  C1  UNL     1      36.821  34.260  52.774  1.00  0.00     0.187 C 
HETATM   47  O1  UNL     1      34.676  34.079  51.188  1.00  0.00    -0.205 OA
HETATM   48  O2  UNL     1      36.431  35.547  50.415  1.00  0.00    -0.205 OA
ENDBRANCH  43  45
ENDBRANCH  41  43
ENDBRANCH   1  41
TORSDOF 14
ENDMDL
