MODEL 1
REMARK VINA RESULT: -9.982527446      0.000      0.000
REMARK  15 active torsions:
REMARK  status: ('A' for Active; 'I' for Inactive)
REMARK    1  A    between atoms: N1_1  and  C1_4 
REMARK    2  A    between atoms: C2_7  and  C3_8 
REMARK    3  A    between atoms: N5_13  and  C4_14 
REMARK    4  A    between atoms: C5_15  and  C6_16 
REMARK    5  A    between atoms: C6_16  and  C7_17 
REMARK    6  A    between atoms: C8_18  and  N6_19 
REMARK    7  A    between atoms: C9_23  and  O1_24 
REMARK    8  A    between atoms: C10_26  and  O2_27 
REMARK    9  A    between atoms: C11_29  and  O3_30 
REMARK   10  A    between atoms: C12_33  and  N7_34 
REMARK   11  A    between atoms: N7_34  and  C13_36 
REMARK   12  A    between atoms: C13_36  and  C14_37 
REMARK   13  A    between atoms: C13_36  and  C15_40 
REMARK   14  A    between atoms: C14_37  and  O5_38 
REMARK   15  A    between atoms: C16_43  and  O8_44 
ROOT
HETATM    1  C4  UNL     1      36.929  38.258  49.333  1.00  0.00     0.194 C 
HETATM    2  C5  UNL     1      38.338  37.868  49.630  1.00  0.00     0.176 C 
HETATM    3  O4  UNL     1      39.095  38.847  48.982  1.00  0.00    -0.353 OA
HETATM    4  C12 UNL     1      38.480  39.993  49.583  1.00  0.00     0.249 C 
HETATM    5  C16 UNL     1      37.029  39.803  49.254  1.00  0.00     0.196 C 
ENDROOT
BRANCH   1   6
HETATM    6  N5  UNL     1      36.007  37.866  50.386  1.00  0.00    -0.207 N 
HETATM    7  N4  UNL     1      36.105  36.970  51.330  1.00  0.00    -0.224 N 
HETATM    8  N3  UNL     1      35.002  36.958  52.071  1.00  0.00    -0.265 N 
ATOM      9  H4  UNL     1      36.914  36.366  51.478  1.00  0.00     0.210 HD
HETATM   10  C3  UNL     1      34.170  37.888  51.571  1.00  0.00     0.183 A 
ATOM     11  H3  UNL     1      34.819  36.353  52.872  1.00  0.00     0.190 HD
HETATM   12  N8  UNL     1      34.801  38.442  50.532  1.00  0.00    -0.263 N 
ATOM     13  H8  UNL     1      34.428  39.185  49.942  1.00  0.00     0.190 HD
BRANCH  10  14
HETATM   14  C2  UNL     1      32.836  38.167  52.132  1.00  0.00     0.172 A 
HETATM   15  N2  UNL     1      31.773  38.339  51.365  1.00  0.00    -0.173 N 
HETATM   16  C1  UNL     1      30.570  38.594  51.935  1.00  0.00     0.681 A 
ATOM     17  H2  UNL     1      31.858  38.280  50.351  1.00  0.00     0.186 HD
HETATM   18  N10 UNL     1      30.464  38.671  53.273  1.00  0.00    -0.141 N 
HETATM   19  C17 UNL     1      31.534  38.498  54.080  1.00  0.00     0.340 A 
ATOM     20  H10 UNL     1      29.552  38.863  53.689  1.00  0.00     0.189 HD
HETATM   21  N9  UNL     1      32.707  38.248  53.474  1.00  0.00    -0.290 N 
HETATM   22  O9  UNL     1      31.373  38.581  55.317  1.00  0.00    -0.246 OA
ATOM     23  H9  UNL     1      33.537  38.115  54.053  1.00  0.00     0.172 HD
BRANCH  16  24
HETATM   24  N1  UNL     1      29.518  38.766  51.205  1.00  0.00    -0.234 N 
ATOM     25  H12 UNL     1      29.275  39.705  50.891  1.00  0.00     0.174 HD
ATOM     26  H11 UNL     1      28.933  37.973  50.942  1.00  0.00     0.174 HD
ENDBRANCH  16  24
ENDBRANCH  10  14
ENDBRANCH   1   6
BRANCH   2  27
HETATM   27  C6  UNL     1      38.665  36.487  49.237  1.00  0.00     0.014 C 
BRANCH  27  28
HETATM   28  C7  UNL     1      39.319  35.590  49.919  1.00  0.00    -0.018 C 
HETATM   29  C8  UNL     1      38.738  34.395  50.589  1.00  0.00     0.246 C 
HETATM   30  C9  UNL     1      39.826  33.375  50.218  1.00  0.00     0.184 C 
HETATM   31  C10 UNL     1      41.057  34.115  50.673  1.00  0.00     0.182 C 
HETATM   32  C11 UNL     1      40.772  35.542  50.184  1.00  0.00     0.180 C 
BRANCH  29  33
HETATM   33  N6  UNL     1      37.455  34.021  50.042  1.00  0.00    -0.069 N 
ATOM     34  H63 UNL     1      36.795  33.785  50.783  1.00  0.00     0.275 HD
ATOM     35  H62 UNL     1      36.975  34.831  49.647  1.00  0.00     0.275 HD
ATOM     36  H61 UNL     1      37.525  33.267  49.359  1.00  0.00     0.275 HD
ENDBRANCH  29  33
BRANCH  30  37
HETATM   37  O1  UNL     1      39.646  32.181  50.912  1.00  0.00    -0.390 OA
ATOM     38  H1  UNL     1      40.003  31.448  50.423  1.00  0.00     0.210 HD
ENDBRANCH  30  37
BRANCH  31  39
HETATM   39  O2  UNL     1      42.230  33.613  50.136  1.00  0.00    -0.390 OA
ATOM     40  H2  UNL     1      43.001  34.109  50.385  1.00  0.00     0.210 HD
ENDBRANCH  31  39
BRANCH  32  41
HETATM   41  O3  UNL     1      41.133  36.457  51.182  1.00  0.00    -0.388 OA
ATOM     42  H3  UNL     1      41.792  37.065  50.866  1.00  0.00     0.210 HD
ENDBRANCH  32  41
ENDBRANCH  27  28
ENDBRANCH   2  27
BRANCH   5  43
HETATM   43  O8  UNL     1      36.690  40.192  47.956  1.00  0.00    -0.389 OA
ATOM     44  H8  UNL     1      37.214  40.952  47.730  1.00  0.00     0.210 HD
ENDBRANCH   5  43
BRANCH   4  45
HETATM   45  N7  UNL     1      39.119  41.181  49.277  1.00  0.00    -0.379 N 
ATOM     46  H7  UNL     1      38.542  41.996  49.070  1.00  0.00     0.156 HD
BRANCH  45  47
HETATM   47  C13 UNL     1      40.501  41.331  49.234  1.00  0.00     0.204 C 
BRANCH  47  48
HETATM   48  C14 UNL     1      41.345  41.012  50.411  1.00  0.00     0.200 C 
BRANCH  48  49
HETATM   49  O5  UNL     1      41.726  39.655  50.445  1.00  0.00    -0.398 OA
ATOM     50  H5  UNL     1      41.569  39.258  51.293  1.00  0.00     0.209 HD
ENDBRANCH  48  49
ENDBRANCH  47  48
BRANCH  47  51
HETATM   51  C15 UNL     1      40.816  42.781  48.899  1.00  0.00     0.198 C 
HETATM   52  O6  UNL     1      40.455  43.202  47.778  1.00  0.00    -0.646 OA
HETATM   53  O7  UNL     1      41.467  43.613  49.769  1.00  0.00    -0.646 OA
ENDBRANCH  47  51
ENDBRANCH  45  47
ENDBRANCH   4  45
TORSDOF 15
ENDMDL
MODEL 2
REMARK VINA RESULT: -9.879453005      3.912      9.267
REMARK  15 active torsions:
REMARK  status: ('A' for Active; 'I' for Inactive)
REMARK    1  A    between atoms: N1_1  and  C1_4 
REMARK    2  A    between atoms: C2_7  and  C3_8 
REMARK    3  A    between atoms: N5_13  and  C4_14 
REMARK    4  A    between atoms: C5_15  and  C6_16 
REMARK    5  A    between atoms: C6_16  and  C7_17 
REMARK    6  A    between atoms: C8_18  and  N6_19 
REMARK    7  A    between atoms: C9_23  and  O1_24 
REMARK    8  A    between atoms: C10_26  and  O2_27 
REMARK    9  A    between atoms: C11_29  and  O3_30 
REMARK   10  A    between atoms: C12_33  and  N7_34 
REMARK   11  A    between atoms: N7_34  and  C13_36 
REMARK   12  A    between atoms: C13_36  and  C14_37 
REMARK   13  A    between atoms: C13_36  and  C15_40 
REMARK   14  A    between atoms: C14_37  and  O5_38 
REMARK   15  A    between atoms: C16_43  and  O8_44 
ROOT
HETATM    1  C4  UNL     1      32.543  38.967  52.753  1.00  0.00     0.194 C 
HETATM    2  C5  UNL     1      32.137  40.033  51.792  1.00  0.00     0.176 C 
HETATM    3  O4  UNL     1      31.742  41.089  52.619  1.00  0.00    -0.353 OA
HETATM    4  C12 UNL     1      32.941  41.182  53.396  1.00  0.00     0.249 C 
HETATM    5  C16 UNL     1      33.091  39.794  53.945  1.00  0.00     0.196 C 
ENDROOT
BRANCH   1   6
HETATM    6  N5  UNL     1      33.582  38.101  52.221  1.00  0.00    -0.207 N 
HETATM    7  N4  UNL     1      33.761  36.812  52.314  1.00  0.00    -0.224 N 
HETATM    8  N3  UNL     1      34.862  36.451  51.662  1.00  0.00    -0.265 N 
ATOM      9  H4  UNL     1      33.143  36.172  52.814  1.00  0.00     0.210 HD
HETATM   10  C3  UNL     1      35.401  37.564  51.135  1.00  0.00     0.183 A 
ATOM     11  H3  UNL     1      35.230  35.503  51.578  1.00  0.00     0.190 HD
HETATM   12  N8  UNL     1      34.602  38.575  51.487  1.00  0.00    -0.263 N 
ATOM     13  H8  UNL     1      34.744  39.554  51.238  1.00  0.00     0.190 HD
BRANCH  10  14
HETATM   14  C2  UNL     1      36.641  37.563  50.340  1.00  0.00     0.172 A 
HETATM   15  N2  UNL     1      37.310  36.452  50.082  1.00  0.00    -0.173 N 
HETATM   16  C1  UNL     1      38.446  36.509  49.346  1.00  0.00     0.681 A 
ATOM     17  H2  UNL     1      36.973  35.557  50.436  1.00  0.00     0.186 HD
HETATM   18  N10 UNL     1      38.887  37.691  48.881  1.00  0.00    -0.141 N 
HETATM   19  C17 UNL     1      38.222  38.842  49.129  1.00  0.00     0.340 A 
ATOM     20  H10 UNL     1      39.743  37.721  48.328  1.00  0.00     0.189 HD
HETATM   21  N9  UNL     1      37.102  38.741  49.864  1.00  0.00    -0.290 N 
HETATM   22  O9  UNL     1      38.681  39.911  48.671  1.00  0.00    -0.246 OA
ATOM     23  H9  UNL     1      36.576  39.590  50.072  1.00  0.00     0.172 HD
BRANCH  16  24
HETATM   24  N1  UNL     1      39.115  35.436  49.082  1.00  0.00    -0.234 N 
ATOM     25  H12 UNL     1      39.185  35.114  48.117  1.00  0.00     0.174 HD
ATOM     26  H11 UNL     1      39.572  34.912  49.828  1.00  0.00     0.174 HD
ENDBRANCH  16  24
ENDBRANCH  10  14
ENDBRANCH   1   6
BRANCH   2  27
HETATM   27  C6  UNL     1      31.113  39.601  50.826  1.00  0.00     0.014 C 
BRANCH  27  28
HETATM   28  C7  UNL     1      30.142  40.303  50.315  1.00  0.00    -0.018 C 
HETATM   29  C8  UNL     1      30.268  41.630  49.652  1.00  0.00     0.246 C 
HETATM   30  C9  UNL     1      29.296  41.392  48.485  1.00  0.00     0.184 C 
HETATM   31  C10 UNL     1      28.084  40.906  49.236  1.00  0.00     0.182 C 
HETATM   32  C11 UNL     1      28.707  39.955  50.267  1.00  0.00     0.180 C 
BRANCH  29  33
HETATM   33  N6  UNL     1      31.607  41.890  49.181  1.00  0.00    -0.069 N 
ATOM     34  H63 UNL     1      32.275  41.244  49.602  1.00  0.00     0.275 HD
ATOM     35  H62 UNL     1      31.711  41.619  48.203  1.00  0.00     0.275 HD
ATOM     36  H61 UNL     1      31.892  42.858  49.325  1.00  0.00     0.275 HD
ENDBRANCH  29  33
BRANCH  30  37
HETATM   37  O1  UNL     1      29.046  42.577  47.797  1.00  0.00    -0.390 OA
ATOM     38  H1  UNL     1      29.459  42.567  46.942  1.00  0.00     0.210 HD
ENDBRANCH  30  37
BRANCH  31  39
HETATM   39  O2  UNL     1      27.163  40.258  48.431  1.00  0.00    -0.390 OA
ATOM     40  H2  UNL     1      26.549  39.722  48.918  1.00  0.00     0.210 HD
ENDBRANCH  31  39
BRANCH  32  41
HETATM   41  O3  UNL     1      28.098  40.156  51.514  1.00  0.00    -0.388 OA
ATOM     42  H3  UNL     1      28.499  39.611  52.182  1.00  0.00     0.210 HD
ENDBRANCH  32  41
ENDBRANCH  27  28
ENDBRANCH   2  27
BRANCH   5  43
HETATM   43  O8  UNL     1      32.285  39.538  55.057  1.00  0.00    -0.389 OA
ATOM     44  H8  UNL     1      32.379  40.263  55.662  1.00  0.00     0.210 HD
ENDBRANCH   5  43
BRANCH   4  45
HETATM   45  N7  UNL     1      32.961  42.277  54.242  1.00  0.00    -0.379 N 
ATOM     46  H7  UNL     1      32.941  42.106  55.247  1.00  0.00     0.156 HD
BRANCH  45  47
HETATM   47  C13 UNL     1      33.007  43.596  53.805  1.00  0.00     0.204 C 
BRANCH  47  48
HETATM   48  C14 UNL     1      31.765  44.378  53.591  1.00  0.00     0.200 C 
BRANCH  48  49
HETATM   49  O5  UNL     1      31.888  45.710  54.034  1.00  0.00    -0.398 OA
ATOM     50  H5  UNL     1      31.205  46.271  53.686  1.00  0.00     0.209 HD
ENDBRANCH  48  49
ENDBRANCH  47  48
BRANCH  47  51
HETATM   51  C15 UNL     1      33.738  43.635  52.472  1.00  0.00     0.198 C 
HETATM   52  O6  UNL     1      34.980  43.781  52.503  1.00  0.00    -0.646 OA
HETATM   53  O7  UNL     1      33.089  43.519  51.272  1.00  0.00    -0.646 OA
ENDBRANCH  47  51
ENDBRANCH  45  47
ENDBRANCH   4  45
TORSDOF 15
ENDMDL
MODEL 3
REMARK VINA RESULT: -9.725575363      1.144      1.632
REMARK  15 active torsions:
REMARK  status: ('A' for Active; 'I' for Inactive)
REMARK    1  A    between atoms: N1_1  and  C1_4 
REMARK    2  A    between atoms: C2_7  and  C3_8 
REMARK    3  A    between atoms: N5_13  and  C4_14 
REMARK    4  A    between atoms: C5_15  and  C6_16 
REMARK    5  A    between atoms: C6_16  and  C7_17 
REMARK    6  A    between atoms: C8_18  and  N6_19 
REMARK    7  A    between atoms: C9_23  and  O1_24 
REMARK    8  A    between atoms: C10_26  and  O2_27 
REMARK    9  A    between atoms: C11_29  and  O3_30 
REMARK   10  A    between atoms: C12_33  and  N7_34 
REMARK   11  A    between atoms: N7_34  and  C13_36 
REMARK   12  A    between atoms: C13_36  and  C14_37 
REMARK   13  A    between atoms: C13_36  and  C15_40 
REMARK   14  A    between atoms: C14_37  and  O5_38 
REMARK   15  A    between atoms: C16_43  and  O8_44 
ROOT
HETATM    1  C4  UNL     1      36.871  38.323  49.299  1.00  0.00     0.194 C 
HETATM    2  C5  UNL     1      38.268  37.850  49.520  1.00  0.00     0.176 C 
HETATM    3  O4  UNL     1      39.050  38.842  48.923  1.00  0.00    -0.353 OA
HETATM    4  C12 UNL     1      38.506  39.964  49.628  1.00  0.00     0.249 C 
HETATM    5  C16 UNL     1      37.039  39.864  49.333  1.00  0.00     0.196 C 
ENDROOT
BRANCH   1   6
HETATM    6  N5  UNL     1      35.962  37.892  50.349  1.00  0.00    -0.207 N 
HETATM    7  N4  UNL     1      36.072  36.961  51.256  1.00  0.00    -0.224 N 
HETATM    8  N3  UNL     1      34.979  36.922  52.012  1.00  0.00    -0.265 N 
ATOM      9  H4  UNL     1      36.881  36.351  51.369  1.00  0.00     0.210 HD
HETATM   10  C3  UNL     1      34.142  37.873  51.559  1.00  0.00     0.183 A 
ATOM     11  H3  UNL     1      34.806  36.288  52.792  1.00  0.00     0.190 HD
HETATM   12  N8  UNL     1      34.760  38.464  50.533  1.00  0.00    -0.263 N 
ATOM     13  H8  UNL     1      34.380  39.231  49.978  1.00  0.00     0.190 HD
BRANCH  10  14
HETATM   14  C2  UNL     1      32.817  38.132  52.150  1.00  0.00     0.172 A 
HETATM   15  N2  UNL     1      31.729  38.253  51.408  1.00  0.00    -0.173 N 
HETATM   16  C1  UNL     1      30.535  38.493  52.004  1.00  0.00     0.681 A 
ATOM     17  H2  UNL     1      31.788  38.167  50.394  1.00  0.00     0.186 HD
HETATM   18  N10 UNL     1      30.463  38.605  53.342  1.00  0.00    -0.141 N 
HETATM   19  C17 UNL     1      31.560  38.485  54.123  1.00  0.00     0.340 A 
ATOM     20  H10 UNL     1      29.559  38.785  53.777  1.00  0.00     0.189 HD
HETATM   21  N9  UNL     1      32.722  38.249  53.492  1.00  0.00    -0.290 N 
HETATM   22  O9  UNL     1      31.430  38.600  55.361  1.00  0.00    -0.246 OA
ATOM     23  H9  UNL     1      33.570  38.155  54.051  1.00  0.00     0.172 HD
BRANCH  16  24
HETATM   24  N1  UNL     1      29.460  38.615  51.299  1.00  0.00    -0.234 N 
ATOM     25  H12 UNL     1      28.834  39.401  51.473  1.00  0.00     0.174 HD
ATOM     26  H11 UNL     1      29.233  37.934  50.574  1.00  0.00     0.174 HD
ENDBRANCH  16  24
ENDBRANCH  10  14
ENDBRANCH   1   6
BRANCH   2  27
HETATM   27  C6  UNL     1      38.519  36.490  49.014  1.00  0.00     0.014 C 
BRANCH  27  28
HETATM   28  C7  UNL     1      38.594  35.380  49.692  1.00  0.00    -0.018 C 
HETATM   29  C8  UNL     1      39.781  34.489  49.797  1.00  0.00     0.246 C 
HETATM   30  C9  UNL     1      39.687  34.162  51.296  1.00  0.00     0.184 C 
HETATM   31  C10 UNL     1      38.251  33.713  51.386  1.00  0.00     0.182 C 
HETATM   32  C11 UNL     1      37.536  34.752  50.511  1.00  0.00     0.180 C 
BRANCH  29  33
HETATM   33  N6  UNL     1      41.015  35.169  49.481  1.00  0.00    -0.069 N 
ATOM     34  H63 UNL     1      41.402  34.834  48.599  1.00  0.00     0.275 HD
ATOM     35  H62 UNL     1      40.842  36.142  49.226  1.00  0.00     0.275 HD
ATOM     36  H61 UNL     1      41.702  35.104  50.232  1.00  0.00     0.275 HD
ENDBRANCH  29  33
BRANCH  30  37
HETATM   37  O1  UNL     1      40.576  33.147  51.640  1.00  0.00    -0.390 OA
ATOM     38  H1  UNL     1      41.227  33.460  52.257  1.00  0.00     0.210 HD
ENDBRANCH  30  37
BRANCH  31  39
HETATM   39  O2  UNL     1      37.759  33.703  52.679  1.00  0.00    -0.390 OA
ATOM     40  H2  UNL     1      37.318  32.894  52.909  1.00  0.00     0.210 HD
ENDBRANCH  31  39
BRANCH  32  41
HETATM   41  O3  UNL     1      36.589  34.108  49.702  1.00  0.00    -0.388 OA
ATOM     42  H3  UNL     1      36.135  33.427  50.185  1.00  0.00     0.210 HD
ENDBRANCH  32  41
ENDBRANCH  27  28
ENDBRANCH   2  27
BRANCH   5  43
HETATM   43  O8  UNL     1      36.682  40.366  48.080  1.00  0.00    -0.389 OA
ATOM     44  H8  UNL     1      36.434  41.276  48.187  1.00  0.00     0.210 HD
ENDBRANCH   5  43
BRANCH   4  45
HETATM   45  N7  UNL     1      39.191  41.142  49.391  1.00  0.00    -0.379 N 
ATOM     46  H7  UNL     1      38.647  41.997  49.277  1.00  0.00     0.156 HD
BRANCH  45  47
HETATM   47  C13 UNL     1      40.575  41.232  49.301  1.00  0.00     0.204 C 
BRANCH  47  48
HETATM   48  C14 UNL     1      41.445  40.896  50.454  1.00  0.00     0.200 C 
BRANCH  48  49
HETATM   49  O5  UNL     1      41.825  39.539  50.461  1.00  0.00    -0.398 OA
ATOM     50  H5  UNL     1      42.634  39.393  50.937  1.00  0.00     0.209 HD
ENDBRANCH  48  49
ENDBRANCH  47  48
BRANCH  47  51
HETATM   51  C15 UNL     1      40.941  42.661  48.929  1.00  0.00     0.198 C 
HETATM   52  O6  UNL     1      40.434  43.131  47.887  1.00  0.00    -0.646 OA
HETATM   53  O7  UNL     1      41.788  43.425  49.686  1.00  0.00    -0.646 OA
ENDBRANCH  47  51
ENDBRANCH  45  47
ENDBRANCH   4  45
TORSDOF 15
ENDMDL
MODEL 4
REMARK VINA RESULT: -9.543469071      3.891      9.199
REMARK  15 active torsions:
REMARK  status: ('A' for Active; 'I' for Inactive)
REMARK    1  A    between atoms: N1_1  and  C1_4 
REMARK    2  A    between atoms: C2_7  and  C3_8 
REMARK    3  A    between atoms: N5_13  and  C4_14 
REMARK    4  A    between atoms: C5_15  and  C6_16 
REMARK    5  A    between atoms: C6_16  and  C7_17 
REMARK    6  A    between atoms: C8_18  and  N6_19 
REMARK    7  A    between atoms: C9_23  and  O1_24 
REMARK    8  A    between atoms: C10_26  and  O2_27 
REMARK    9  A    between atoms: C11_29  and  O3_30 
REMARK   10  A    between atoms: C12_33  and  N7_34 
REMARK   11  A    between atoms: N7_34  and  C13_36 
REMARK   12  A    between atoms: C13_36  and  C14_37 
REMARK   13  A    between atoms: C13_36  and  C15_40 
REMARK   14  A    between atoms: C14_37  and  O5_38 
REMARK   15  A    between atoms: C16_43  and  O8_44 
ROOT
HETATM    1  C4  UNL     1      32.308  38.868  52.886  1.00  0.00     0.194 C 
HETATM    2  C5  UNL     1      32.026  39.884  51.831  1.00  0.00     0.176 C 
HETATM    3  O4  UNL     1      31.804  41.058  52.555  1.00  0.00    -0.353 OA
HETATM    4  C12 UNL     1      33.026  41.056  53.302  1.00  0.00     0.249 C 
HETATM    5  C16 UNL     1      32.998  39.720  53.983  1.00  0.00     0.196 C 
ENDROOT
BRANCH   1   6
HETATM    6  N5  UNL     1      33.202  37.818  52.426  1.00  0.00    -0.207 N 
HETATM    7  N4  UNL     1      33.018  36.535  52.271  1.00  0.00    -0.224 N 
HETATM    8  N3  UNL     1      34.130  35.961  51.824  1.00  0.00    -0.265 N 
ATOM      9  H4  UNL     1      32.146  36.044  52.465  1.00  0.00     0.210 HD
HETATM   10  C3  UNL     1      35.058  36.926  51.691  1.00  0.00     0.183 A 
ATOM     11  H3  UNL     1      34.257  34.970  51.619  1.00  0.00     0.190 HD
HETATM   12  N8  UNL     1      34.473  38.067  52.066  1.00  0.00    -0.263 N 
ATOM     13  H8  UNL     1      34.920  38.984  52.077  1.00  0.00     0.190 HD
BRANCH  10  14
HETATM   14  C2  UNL     1      36.429  36.670  51.218  1.00  0.00     0.172 A 
HETATM   15  N2  UNL     1      37.022  37.448  50.327  1.00  0.00    -0.173 N 
HETATM   16  C1  UNL     1      38.285  37.166  49.925  1.00  0.00     0.681 A 
ATOM     17  H2  UNL     1      36.531  38.257  49.946  1.00  0.00     0.186 HD
HETATM   18  N10 UNL     1      38.927  36.099  50.432  1.00  0.00    -0.141 N 
HETATM   19  C17 UNL     1      38.345  35.288  51.343  1.00  0.00     0.340 A 
ATOM     20  H10 UNL     1      39.878  35.897  50.121  1.00  0.00     0.189 HD
HETATM   21  N9  UNL     1      37.093  35.603  51.713  1.00  0.00    -0.290 N 
HETATM   22  O9  UNL     1      38.993  34.311  51.777  1.00  0.00    -0.246 OA
ATOM     23  H9  UNL     1      36.622  35.011  52.398  1.00  0.00     0.172 HD
BRANCH  16  24
HETATM   24  N1  UNL     1      38.882  37.912  49.057  1.00  0.00    -0.234 N 
ATOM     25  H12 UNL     1      38.982  38.911  49.240  1.00  0.00     0.174 HD
ATOM     26  H11 UNL     1      39.253  37.513  48.196  1.00  0.00     0.174 HD
ENDBRANCH  16  24
ENDBRANCH  10  14
ENDBRANCH   1   6
BRANCH   2  27
HETATM   27  C6  UNL     1      30.926  39.509  50.927  1.00  0.00     0.014 C 
BRANCH  27  28
HETATM   28  C7  UNL     1      30.005  40.278  50.419  1.00  0.00    -0.018 C 
HETATM   29  C8  UNL     1      30.223  41.580  49.734  1.00  0.00     0.246 C 
HETATM   30  C9  UNL     1      29.218  41.403  48.584  1.00  0.00     0.184 C 
HETATM   31  C10 UNL     1      27.983  41.025  49.361  1.00  0.00     0.182 C 
HETATM   32  C11 UNL     1      28.546  40.043  50.399  1.00  0.00     0.180 C 
BRANCH  29  33
HETATM   33  N6  UNL     1      31.571  41.727  49.238  1.00  0.00    -0.069 N 
ATOM     34  H63 UNL     1      32.032  42.532  49.663  1.00  0.00     0.275 HD
ATOM     35  H62 UNL     1      32.175  40.986  49.593  1.00  0.00     0.275 HD
ATOM     36  H61 UNL     1      31.611  41.777  48.220  1.00  0.00     0.275 HD
ENDBRANCH  29  33
BRANCH  30  37
HETATM   37  O1  UNL     1      29.050  42.594  47.882  1.00  0.00    -0.390 OA
ATOM     38  H1  UNL     1      29.150  42.454  46.948  1.00  0.00     0.210 HD
ENDBRANCH  30  37
BRANCH  31  39
HETATM   39  O2  UNL     1      27.001  40.440  48.581  1.00  0.00    -0.390 OA
ATOM     40  H2  UNL     1      26.579  39.699  48.999  1.00  0.00     0.210 HD
ENDBRANCH  31  39
BRANCH  32  41
HETATM   41  O3  UNL     1      27.975  40.310  51.651  1.00  0.00    -0.388 OA
ATOM     42  H3  UNL     1      28.209  39.640  52.283  1.00  0.00     0.210 HD
ENDBRANCH  32  41
ENDBRANCH  27  28
ENDBRANCH   2  27
BRANCH   5  43
HETATM   43  O8  UNL     1      32.196  39.686  55.125  1.00  0.00    -0.389 OA
ATOM     44  H8  UNL     1      32.727  39.372  55.848  1.00  0.00     0.210 HD
ENDBRANCH   5  43
BRANCH   4  45
HETATM   45  N7  UNL     1      33.220  42.213  54.036  1.00  0.00    -0.379 N 
ATOM     46  H7  UNL     1      33.411  42.120  55.034  1.00  0.00     0.156 HD
BRANCH  45  47
HETATM   47  C13 UNL     1      33.172  43.493  53.496  1.00  0.00     0.204 C 
BRANCH  47  48
HETATM   48  C14 UNL     1      31.885  44.211  53.334  1.00  0.00     0.200 C 
BRANCH  48  49
HETATM   49  O5  UNL     1      31.904  45.487  53.931  1.00  0.00    -0.398 OA
ATOM     50  H5  UNL     1      31.081  45.950  53.820  1.00  0.00     0.209 HD
ENDBRANCH  48  49
ENDBRANCH  47  48
BRANCH  47  51
HETATM   51  C15 UNL     1      33.784  43.451  52.105  1.00  0.00     0.198 C 
HETATM   52  O6  UNL     1      35.032  43.479  52.024  1.00  0.00    -0.646 OA
HETATM   53  O7  UNL     1      33.024  43.385  50.968  1.00  0.00    -0.646 OA
ENDBRANCH  47  51
ENDBRANCH  45  47
ENDBRANCH   4  45
TORSDOF 15
ENDMDL
MODEL 5
REMARK VINA RESULT: -9.535640741      3.580      9.321
REMARK  15 active torsions:
REMARK  status: ('A' for Active; 'I' for Inactive)
REMARK    1  A    between atoms: N1_1  and  C1_4 
REMARK    2  A    between atoms: C2_7  and  C3_8 
REMARK    3  A    between atoms: N5_13  and  C4_14 
REMARK    4  A    between atoms: C5_15  and  C6_16 
REMARK    5  A    between atoms: C6_16  and  C7_17 
REMARK    6  A    between atoms: C8_18  and  N6_19 
REMARK    7  A    between atoms: C9_23  and  O1_24 
REMARK    8  A    between atoms: C10_26  and  O2_27 
REMARK    9  A    between atoms: C11_29  and  O3_30 
REMARK   10  A    between atoms: C12_33  and  N7_34 
REMARK   11  A    between atoms: N7_34  and  C13_36 
REMARK   12  A    between atoms: C13_36  and  C14_37 
REMARK   13  A    between atoms: C13_36  and  C15_40 
REMARK   14  A    between atoms: C14_37  and  O5_38 
REMARK   15  A    between atoms: C16_43  and  O8_44 
ROOT
HETATM    1  C4  UNL     1      32.708  38.856  52.961  1.00  0.00     0.194 C 
HETATM    2  C5  UNL     1      32.126  39.827  51.990  1.00  0.00     0.176 C 
HETATM    3  O4  UNL     1      31.752  40.909  52.791  1.00  0.00    -0.353 OA
HETATM    4  C12 UNL     1      33.020  41.128  53.421  1.00  0.00     0.249 C 
HETATM    5  C16 UNL     1      33.324  39.793  54.031  1.00  0.00     0.196 C 
ENDROOT
BRANCH   1   6
HETATM    6  N5  UNL     1      33.740  38.021  52.367  1.00  0.00    -0.207 N 
HETATM    7  N4  UNL     1      33.938  36.732  52.410  1.00  0.00    -0.224 N 
HETATM    8  N3  UNL     1      35.022  36.409  51.712  1.00  0.00    -0.265 N 
ATOM      9  H4  UNL     1      33.345  36.069  52.908  1.00  0.00     0.210 HD
HETATM   10  C3  UNL     1      35.530  37.546  51.206  1.00  0.00     0.183 A 
ATOM     11  H3  UNL     1      35.399  35.470  51.584  1.00  0.00     0.190 HD
HETATM   12  N8  UNL     1      34.730  38.534  51.617  1.00  0.00    -0.263 N 
ATOM     13  H8  UNL     1      34.851  39.522  51.395  1.00  0.00     0.190 HD
BRANCH  10  14
HETATM   14  C2  UNL     1      36.743  37.589  50.371  1.00  0.00     0.172 A 
HETATM   15  N2  UNL     1      37.446  36.502  50.096  1.00  0.00    -0.173 N 
HETATM   16  C1  UNL     1      38.555  36.599  49.324  1.00  0.00     0.681 A 
ATOM     17  H2  UNL     1      37.154  35.597  50.464  1.00  0.00     0.186 HD
HETATM   18  N10 UNL     1      38.935  37.795  48.842  1.00  0.00    -0.141 N 
HETATM   19  C17 UNL     1      38.235  38.921  49.107  1.00  0.00     0.340 A 
ATOM     20  H10 UNL     1      39.772  37.854  48.261  1.00  0.00     0.189 HD
HETATM   21  N9  UNL     1      37.143  38.781  49.877  1.00  0.00    -0.290 N 
HETATM   22  O9  UNL     1      38.638  40.004  48.630  1.00  0.00    -0.246 OA
ATOM     23  H9  UNL     1      36.592  39.610  50.098  1.00  0.00     0.172 HD
BRANCH  16  24
HETATM   24  N1  UNL     1      39.256  35.552  49.043  1.00  0.00    -0.234 N 
ATOM     25  H12 UNL     1      39.900  35.179  49.741  1.00  0.00     0.174 HD
ATOM     26  H11 UNL     1      39.170  35.097  48.135  1.00  0.00     0.174 HD
ENDBRANCH  16  24
ENDBRANCH  10  14
ENDBRANCH   1   6
BRANCH   2  27
HETATM   27  C6  UNL     1      31.036  39.268  51.174  1.00  0.00     0.014 C 
BRANCH  27  28
HETATM   28  C7  UNL     1      29.834  39.743  51.003  1.00  0.00    -0.018 C 
HETATM   29  C8  UNL     1      28.631  39.409  51.813  1.00  0.00     0.246 C 
HETATM   30  C9  UNL     1      28.030  40.820  51.919  1.00  0.00     0.184 C 
HETATM   31  C10 UNL     1      28.018  41.218  50.465  1.00  0.00     0.182 C 
HETATM   32  C11 UNL     1      29.386  40.714  49.984  1.00  0.00     0.180 C 
BRANCH  29  33
HETATM   33  N6  UNL     1      28.967  38.879  53.113  1.00  0.00    -0.069 N 
ATOM     34  H63 UNL     1      29.458  37.988  53.029  1.00  0.00     0.275 HD
ATOM     35  H62 UNL     1      29.702  39.431  53.555  1.00  0.00     0.275 HD
ATOM     36  H61 UNL     1      28.155  38.794  53.723  1.00  0.00     0.275 HD
ENDBRANCH  29  33
BRANCH  30  37
HETATM   37  O1  UNL     1      26.748  40.775  52.460  1.00  0.00    -0.390 OA
ATOM     38  H1  UNL     1      26.165  41.368  52.000  1.00  0.00     0.210 HD
ENDBRANCH  30  37
BRANCH  31  39
HETATM   39  O2  UNL     1      27.876  42.581  50.271  1.00  0.00    -0.390 OA
ATOM     40  H2  UNL     1      28.115  42.864  49.397  1.00  0.00     0.210 HD
ENDBRANCH  31  39
BRANCH  32  41
HETATM   41  O3  UNL     1      29.242  40.101  48.732  1.00  0.00    -0.388 OA
ATOM     42  H3  UNL     1      28.412  40.332  48.331  1.00  0.00     0.210 HD
ENDBRANCH  32  41
ENDBRANCH  27  28
ENDBRANCH   2  27
BRANCH   5  43
HETATM   43  O8  UNL     1      32.664  39.562  55.240  1.00  0.00    -0.389 OA
ATOM     44  H8  UNL     1      32.159  38.763  55.151  1.00  0.00     0.210 HD
ENDBRANCH   5  43
BRANCH   4  45
HETATM   45  N7  UNL     1      33.056  42.277  54.192  1.00  0.00    -0.379 N 
ATOM     46  H7  UNL     1      33.084  42.172  55.206  1.00  0.00     0.156 HD
BRANCH  45  47
HETATM   47  C13 UNL     1      33.057  43.565  53.669  1.00  0.00     0.204 C 
BRANCH  47  48
HETATM   48  C14 UNL     1      31.816  44.377  53.624  1.00  0.00     0.200 C 
BRANCH  48  49
HETATM   49  O5  UNL     1      30.681  43.605  53.305  1.00  0.00    -0.398 OA
ATOM     50  H5  UNL     1      30.561  42.876  53.902  1.00  0.00     0.209 HD
ENDBRANCH  48  49
ENDBRANCH  47  48
BRANCH  47  51
HETATM   51  C15 UNL     1      33.542  43.498  52.229  1.00  0.00     0.198 C 
HETATM   52  O6  UNL     1      34.776  43.561  52.035  1.00  0.00    -0.646 OA
HETATM   53  O7  UNL     1      32.686  43.376  51.168  1.00  0.00    -0.646 OA
ENDBRANCH  47  51
ENDBRANCH  45  47
ENDBRANCH   4  45
TORSDOF 15
ENDMDL
