MODEL 1
REMARK VINA RESULT: -5.703424294      0.000      0.000
REMARK  9 active torsions:
REMARK  status: ('A' for Active; 'I' for Inactive)
REMARK    1  A    between atoms: O1_2  and  C2_3 
REMARK    2  A    between atoms: C2_3  and  C3_5 
REMARK    3  A    between atoms: C6_9  and  O4_10 
REMARK    4  A    between atoms: C8_12  and  O5_13 
REMARK    5  A    between atoms: O5_13  and  O6_14 
REMARK    6  A    between atoms: C23_30  and  C24_31 
REMARK    7  A    between atoms: C24_31  and  C25_32 
REMARK    8  A    between atoms: C25_32  and  C26_33 
REMARK    9  A    between atoms: C26_33  and  O7_36 
ROOT
HETATM    1  C3  UNL     1      87.659  41.386 269.988  1.00  0.00     0.111 C 
HETATM    2  C4  UNL     1      88.891  40.478 270.235  1.00  0.00     0.035 C 
HETATM    3  C5  UNL     1      87.862  41.919 268.656  1.00  0.00     0.176 C 
HETATM    4  O3  UNL     1      87.191  41.507 267.746  1.00  0.00    -0.294 OA
HETATM    5  C6  UNL     1      88.815  42.944 268.212  1.00  0.00     0.224 C 
HETATM    6  C8  UNL     1      88.348  43.713 267.019  1.00  0.00     0.207 C 
HETATM    7  C9  UNL     1      87.927  45.165 267.337  1.00  0.00     0.002 C 
HETATM    8  C10 UNL     1      88.037  45.807 265.929  1.00  0.00     0.022 C 
HETATM    9  C11 UNL     1      88.962  45.837 268.144  1.00  0.00     0.022 C 
HETATM   10  C12 UNL     1      86.516  45.150 267.811  1.00  0.00    -0.019 C 
HETATM   11  C13 UNL     1      85.669  45.908 268.384  1.00  0.00    -0.026 C 
HETATM   12  C14 UNL     1      84.244  45.840 268.846  1.00  0.00     0.004 C 
HETATM   13  C15 UNL     1      83.809  47.296 269.231  1.00  0.00     0.014 C 
HETATM   14  C16 UNL     1      84.004  44.956 270.032  1.00  0.00     0.012 C 
HETATM   15  C17 UNL     1      83.101  43.799 269.835  1.00  0.00    -0.018 C 
HETATM   16  C18 UNL     1      81.950  44.051 268.890  1.00  0.00     0.010 C 
HETATM   17  C19 UNL     1      83.826  42.555 269.372  1.00  0.00     0.005 C 
HETATM   18  C20 UNL     1      83.985  41.507 270.445  1.00  0.00     0.005 C 
HETATM   19  C21 UNL     1      85.358  41.426 271.047  1.00  0.00    -0.013 C 
HETATM   20  C22 UNL     1      85.121  40.841 272.456  1.00  0.00     0.010 C 
HETATM   21  C23 UNL     1      86.405  40.654 270.294  1.00  0.00     0.015 C 
ENDROOT
BRANCH  21  22
HETATM   22  C24 UNL     1      85.867  39.691 269.303  1.00  0.00     0.009 C 
BRANCH  22  23
HETATM   23  C25 UNL     1      86.202  38.240 269.545  1.00  0.00     0.037 C 
BRANCH  23  24
HETATM   24  C26 UNL     1      86.846  37.733 268.244  1.00  0.00     0.051 C 
HETATM   25  C27 UNL     1      88.246  37.186 268.556  1.00  0.00     0.045 C 
HETATM   26  C28 UNL     1      86.040  36.612 267.638  1.00  0.00     0.045 C 
BRANCH  24  27
HETATM   27  O7  UNL     1      87.005  38.748 267.328  1.00  0.00    -0.391 OA
ATOM     28  H7  UNL     1      87.902  39.061 267.305  1.00  0.00     0.210 HD
ENDBRANCH  24  27
ENDBRANCH  23  24
ENDBRANCH  22  23
ENDBRANCH  21  22
BRANCH   1  29
HETATM   29  C2  UNL     1      87.813  42.431 271.072  1.00  0.00     0.274 C 
HETATM   30  O2  UNL     1      87.423  43.605 270.994  1.00  0.00    -0.264 OA
BRANCH  29  31
HETATM   31  O1  UNL     1      88.437  42.104 272.289  1.00  0.00    -0.326 OA
HETATM   32  C1  UNL     1      88.258  42.921 273.453  1.00  0.00     0.213 C 
ENDBRANCH  29  31
ENDBRANCH   1  29
BRANCH   5  33
HETATM   33  O4  UNL     1      89.978  42.230 267.808  1.00  0.00    -0.380 OA
HETATM   34  C7  UNL     1      91.106  42.619 268.492  1.00  0.00     0.202 C 
ENDBRANCH   5  33
BRANCH   6  35
HETATM   35  O5  UNL     1      89.322  43.693 266.036  1.00  0.00    -0.234 OA
BRANCH  35  36
HETATM   36  O6  UNL     1      89.229  42.661 265.226  1.00  0.00    -0.250 OA
ATOM     37  H6  UNL     1      90.042  42.180 265.130  1.00  0.00     0.253 HD
ENDBRANCH  35  36
ENDBRANCH   6  35
TORSDOF 9
ENDMDL
MODEL 2
REMARK VINA RESULT: -5.261522376      2.112      5.480
REMARK  9 active torsions:
REMARK  status: ('A' for Active; 'I' for Inactive)
REMARK    1  A    between atoms: O1_2  and  C2_3 
REMARK    2  A    between atoms: C2_3  and  C3_5 
REMARK    3  A    between atoms: C6_9  and  O4_10 
REMARK    4  A    between atoms: C8_12  and  O5_13 
REMARK    5  A    between atoms: O5_13  and  O6_14 
REMARK    6  A    between atoms: C23_30  and  C24_31 
REMARK    7  A    between atoms: C24_31  and  C25_32 
REMARK    8  A    between atoms: C25_32  and  C26_33 
REMARK    9  A    between atoms: C26_33  and  O7_36 
ROOT
HETATM    1  C3  UNL     1      86.143  41.175 269.456  1.00  0.00     0.111 C 
HETATM    2  C4  UNL     1      84.868  40.297 269.379  1.00  0.00     0.035 C 
HETATM    3  C5  UNL     1      85.648  42.518 269.678  1.00  0.00     0.176 C 
HETATM    4  O3  UNL     1      85.768  43.019 270.766  1.00  0.00    -0.294 OA
HETATM    5  C6  UNL     1      84.979  43.419 268.731  1.00  0.00     0.224 C 
HETATM    6  C8  UNL     1      85.196  44.866 269.035  1.00  0.00     0.207 C 
HETATM    7  C9  UNL     1      86.144  45.578 268.044  1.00  0.00     0.002 C 
HETATM    8  C10 UNL     1      85.737  47.056 268.274  1.00  0.00     0.022 C 
HETATM    9  C11 UNL     1      85.751  45.285 266.654  1.00  0.00     0.022 C 
HETATM   10  C12 UNL     1      87.546  45.334 268.482  1.00  0.00    -0.019 C 
HETATM   11  C13 UNL     1      88.739  45.449 268.052  1.00  0.00    -0.026 C 
HETATM   12  C14 UNL     1      90.131  45.182 268.540  1.00  0.00     0.004 C 
HETATM   13  C15 UNL     1      91.118  45.846 267.519  1.00  0.00     0.014 C 
HETATM   14  C16 UNL     1      90.493  43.733 268.659  1.00  0.00     0.012 C 
HETATM   15  C17 UNL     1      90.840  43.236 270.010  1.00  0.00    -0.018 C 
HETATM   16  C18 UNL     1      91.579  44.229 270.877  1.00  0.00     0.010 C 
HETATM   17  C19 UNL     1      89.639  42.740 270.785  1.00  0.00     0.005 C 
HETATM   18  C20 UNL     1      89.559  41.237 270.888  1.00  0.00     0.005 C 
HETATM   19  C21 UNL     1      88.555  40.596 269.974  1.00  0.00    -0.013 C 
HETATM   20  C22 UNL     1      89.092  39.165 269.764  1.00  0.00     0.010 C 
HETATM   21  C23 UNL     1      87.118  40.591 270.412  1.00  0.00     0.015 C 
ENDROOT
BRANCH  21  22
HETATM   22  C24 UNL     1      86.915  40.796 271.867  1.00  0.00     0.009 C 
BRANCH  22  23
HETATM   23  C25 UNL     1      86.572  39.561 272.664  1.00  0.00     0.037 C 
BRANCH  23  24
HETATM   24  C26 UNL     1      85.163  39.803 273.231  1.00  0.00     0.051 C 
HETATM   25  C27 UNL     1      84.267  38.608 272.877  1.00  0.00     0.045 C 
HETATM   26  C28 UNL     1      85.193  39.926 274.733  1.00  0.00     0.045 C 
BRANCH  24  27
HETATM   27  O7  UNL     1      84.580  40.921 272.678  1.00  0.00    -0.391 OA
ATOM     28  H7  UNL     1      85.199  41.414 272.152  1.00  0.00     0.210 HD
ENDBRANCH  24  27
ENDBRANCH  23  24
ENDBRANCH  22  23
ENDBRANCH  21  22
BRANCH   1  29
HETATM   29  C2  UNL     1      86.741  40.986 268.078  1.00  0.00     0.274 C 
HETATM   30  O2  UNL     1      87.458  41.809 267.491  1.00  0.00    -0.264 OA
BRANCH  29  31
HETATM   31  O1  UNL     1      86.502  39.803 267.357  1.00  0.00    -0.326 OA
HETATM   32  C1  UNL     1      85.890  39.839 266.062  1.00  0.00     0.213 C 
ENDBRANCH  29  31
ENDBRANCH   1  29
BRANCH   5  33
HETATM   33  O4  UNL     1      83.587  43.172 268.891  1.00  0.00    -0.380 OA
HETATM   34  C7  UNL     1      82.981  42.769 267.723  1.00  0.00     0.202 C 
ENDBRANCH   5  33
BRANCH   6  35
HETATM   35  O5  UNL     1      83.978  45.520 269.097  1.00  0.00    -0.234 OA
BRANCH  35  36
HETATM   36  O6  UNL     1      83.521  45.663 270.321  1.00  0.00    -0.250 OA
ATOM     37  H6  UNL     1      82.983  44.936 270.612  1.00  0.00     0.253 HD
ENDBRANCH  35  36
ENDBRANCH   6  35
TORSDOF 9
ENDMDL
MODEL 3
REMARK VINA RESULT: -5.179511860      2.332      5.629
REMARK  9 active torsions:
REMARK  status: ('A' for Active; 'I' for Inactive)
REMARK    1  A    between atoms: O1_2  and  C2_3 
REMARK    2  A    between atoms: C2_3  and  C3_5 
REMARK    3  A    between atoms: C6_9  and  O4_10 
REMARK    4  A    between atoms: C8_12  and  O5_13 
REMARK    5  A    between atoms: O5_13  and  O6_14 
REMARK    6  A    between atoms: C23_30  and  C24_31 
REMARK    7  A    between atoms: C24_31  and  C25_32 
REMARK    8  A    between atoms: C25_32  and  C26_33 
REMARK    9  A    between atoms: C26_33  and  O7_36 
ROOT
HETATM    1  C3  UNL     1      84.880  41.705 269.664  1.00  0.00     0.111 C 
HETATM    2  C4  UNL     1      83.462  41.082 269.605  1.00  0.00     0.035 C 
HETATM    3  C5  UNL     1      84.647  43.129 269.797  1.00  0.00     0.176 C 
HETATM    4  O3  UNL     1      84.844  43.663 270.857  1.00  0.00    -0.294 OA
HETATM    5  C6  UNL     1      84.175  44.081 268.783  1.00  0.00     0.224 C 
HETATM    6  C8  UNL     1      84.659  45.477 269.010  1.00  0.00     0.207 C 
HETATM    7  C9  UNL     1      85.739  45.935 268.005  1.00  0.00     0.002 C 
HETATM    8  C10 UNL     1      85.617  47.475 268.140  1.00  0.00     0.022 C 
HETATM    9  C11 UNL     1      85.317  45.638 266.624  1.00  0.00     0.022 C 
HETATM   10  C12 UNL     1      87.063  45.457 268.491  1.00  0.00    -0.019 C 
HETATM   11  C13 UNL     1      88.262  45.319 268.086  1.00  0.00    -0.026 C 
HETATM   12  C14 UNL     1      89.570  44.822 268.623  1.00  0.00     0.004 C 
HETATM   13  C15 UNL     1      90.680  45.224 267.591  1.00  0.00     0.014 C 
HETATM   14  C16 UNL     1      89.648  43.341 268.833  1.00  0.00     0.012 C 
HETATM   15  C17 UNL     1      89.875  42.870 270.219  1.00  0.00    -0.018 C 
HETATM   16  C18 UNL     1      90.778  43.756 271.046  1.00  0.00     0.010 C 
HETATM   17  C19 UNL     1      88.591  42.658 270.989  1.00  0.00     0.005 C 
HETATM   18  C20 UNL     1      88.224  41.206 271.176  1.00  0.00     0.005 C 
HETATM   19  C21 UNL     1      87.130  40.713 270.275  1.00  0.00    -0.013 C 
HETATM   20  C22 UNL     1      87.387  39.196 270.160  1.00  0.00     0.010 C 
HETATM   21  C23 UNL     1      85.712  41.007 270.676  1.00  0.00     0.015 C 
ENDROOT
BRANCH  21  22
HETATM   22  C24 UNL     1      85.532  41.333 272.111  1.00  0.00     0.009 C 
BRANCH  22  23
HETATM   23  C25 UNL     1      84.956  40.234 272.970  1.00  0.00     0.037 C 
BRANCH  23  24
HETATM   24  C26 UNL     1      85.858  40.154 274.213  1.00  0.00     0.051 C 
HETATM   25  C27 UNL     1      86.914  39.061 273.997  1.00  0.00     0.045 C 
HETATM   26  C28 UNL     1      86.583  41.454 274.445  1.00  0.00     0.045 C 
BRANCH  24  27
HETATM   27  O7  UNL     1      85.142  39.806 275.336  1.00  0.00    -0.391 OA
ATOM     28  H7  UNL     1      85.570  39.111 275.822  1.00  0.00     0.210 HD
ENDBRANCH  24  27
ENDBRANCH  23  24
ENDBRANCH  22  23
ENDBRANCH  21  22
BRANCH   1  29
HETATM   29  C2  UNL     1      85.451  41.324 268.314  1.00  0.00     0.274 C 
HETATM   30  O2  UNL     1      86.373  41.915 267.735  1.00  0.00    -0.264 OA
BRANCH  29  31
HETATM   31  O1  UNL     1      84.936  40.219 267.613  1.00  0.00    -0.326 OA
HETATM   32  C1  UNL     1      85.771  39.441 266.747  1.00  0.00     0.213 C 
ENDBRANCH  29  31
ENDBRANCH   1  29
BRANCH   5  33
HETATM   33  O4  UNL     1      82.759  44.112 268.921  1.00  0.00    -0.380 OA
HETATM   34  C7  UNL     1      82.105  43.724 267.776  1.00  0.00     0.202 C 
ENDBRANCH   5  33
BRANCH   6  35
HETATM   35  O5  UNL     1      83.587  46.352 269.004  1.00  0.00    -0.234 OA
BRANCH  35  36
HETATM   36  O6  UNL     1      83.179  46.691 270.207  1.00  0.00    -0.250 OA
ATOM     37  H6  UNL     1      82.741  47.532 270.235  1.00  0.00     0.253 HD
ENDBRANCH  35  36
ENDBRANCH   6  35
TORSDOF 9
ENDMDL
MODEL 4
REMARK VINA RESULT: -5.168179555      2.691      6.923
REMARK  9 active torsions:
REMARK  status: ('A' for Active; 'I' for Inactive)
REMARK    1  A    between atoms: O1_2  and  C2_3 
REMARK    2  A    between atoms: C2_3  and  C3_5 
REMARK    3  A    between atoms: C6_9  and  O4_10 
REMARK    4  A    between atoms: C8_12  and  O5_13 
REMARK    5  A    between atoms: O5_13  and  O6_14 
REMARK    6  A    between atoms: C23_30  and  C24_31 
REMARK    7  A    between atoms: C24_31  and  C25_32 
REMARK    8  A    between atoms: C25_32  and  C26_33 
REMARK    9  A    between atoms: C26_33  and  O7_36 
ROOT
HETATM    1  C3  UNL     1      90.592  41.429 271.395  1.00  0.00     0.111 C 
HETATM    2  C4  UNL     1      91.825  40.815 272.107  1.00  0.00     0.035 C 
HETATM    3  C5  UNL     1      89.566  41.471 272.417  1.00  0.00     0.176 C 
HETATM    4  O3  UNL     1      89.261  42.527 272.905  1.00  0.00    -0.294 OA
HETATM    5  C6  UNL     1      88.792  40.361 272.988  1.00  0.00     0.224 C 
HETATM    6  C8  UNL     1      87.440  40.769 273.476  1.00  0.00     0.207 C 
HETATM    7  C9  UNL     1      86.278  40.270 272.589  1.00  0.00     0.002 C 
HETATM    8  C10 UNL     1      85.098  40.358 273.591  1.00  0.00     0.022 C 
HETATM    9  C11 UNL     1      86.429  38.832 272.302  1.00  0.00     0.022 C 
HETATM   10  C12 UNL     1      86.101  41.232 271.466  1.00  0.00    -0.019 C 
HETATM   11  C13 UNL     1      85.506  41.327 270.345  1.00  0.00    -0.026 C 
HETATM   12  C14 UNL     1      85.363  42.330 269.239  1.00  0.00     0.004 C 
HETATM   13  C15 UNL     1      84.226  41.817 268.289  1.00  0.00     0.014 C 
HETATM   14  C16 UNL     1      86.596  42.543 268.414  1.00  0.00     0.012 C 
HETATM   15  C17 UNL     1      87.181  43.903 268.419  1.00  0.00    -0.018 C 
HETATM   16  C18 UNL     1      86.171  45.024 268.494  1.00  0.00     0.010 C 
HETATM   17  C19 UNL     1      88.192  44.108 269.525  1.00  0.00     0.005 C 
HETATM   18  C20 UNL     1      89.623  44.125 269.048  1.00  0.00     0.005 C 
HETATM   19  C21 UNL     1      90.391  42.864 269.317  1.00  0.00    -0.013 C 
HETATM   20  C22 UNL     1      91.487  42.848 268.231  1.00  0.00     0.010 C 
HETATM   21  C23 UNL     1      90.970  42.681 270.692  1.00  0.00     0.015 C 
ENDROOT
BRANCH  21  22
HETATM   22  C24 UNL     1      91.117  43.933 271.472  1.00  0.00     0.009 C 
BRANCH  22  23
HETATM   23  C25 UNL     1      92.429  44.108 272.197  1.00  0.00     0.037 C 
BRANCH  23  24
HETATM   24  C26 UNL     1      92.065  44.513 273.635  1.00  0.00     0.051 C 
HETATM   25  C27 UNL     1      92.295  43.316 274.568  1.00  0.00     0.045 C 
HETATM   26  C28 UNL     1      92.933  45.646 274.118  1.00  0.00     0.045 C 
BRANCH  24  27
HETATM   27  O7  UNL     1      90.736  44.858 273.743  1.00  0.00    -0.391 OA
ATOM     28  H7  UNL     1      90.385  45.160 272.914  1.00  0.00     0.210 HD
ENDBRANCH  24  27
ENDBRANCH  23  24
ENDBRANCH  22  23
ENDBRANCH  21  22
BRANCH   1  29
HETATM   29  C2  UNL     1      90.309  40.407 270.314  1.00  0.00     0.274 C 
HETATM   30  O2  UNL     1      91.134  39.601 269.860  1.00  0.00    -0.264 OA
BRANCH  29  31
HETATM   31  O1  UNL     1      89.028  40.316 269.743  1.00  0.00    -0.326 OA
HETATM   32  C1  UNL     1      88.444  39.043 269.440  1.00  0.00     0.213 C 
ENDBRANCH  29  31
ENDBRANCH   1  29
BRANCH   5  33
HETATM   33  O4  UNL     1      89.527  39.934 274.129  1.00  0.00    -0.380 OA
HETATM   34  C7  UNL     1      89.896  38.610 274.060  1.00  0.00     0.202 C 
ENDBRANCH   5  33
BRANCH   6  35
HETATM   35  O5  UNL     1      87.268  40.350 274.784  1.00  0.00    -0.234 OA
BRANCH  35  36
HETATM   36  O6  UNL     1      87.596  41.261 275.674  1.00  0.00    -0.250 OA
ATOM     37  H6  UNL     1      87.314  42.137 275.441  1.00  0.00     0.253 HD
ENDBRANCH  35  36
ENDBRANCH   6  35
TORSDOF 9
ENDMDL
MODEL 5
REMARK VINA RESULT: -5.089571625      3.227      7.774
REMARK  9 active torsions:
REMARK  status: ('A' for Active; 'I' for Inactive)
REMARK    1  A    between atoms: O1_2  and  C2_3 
REMARK    2  A    between atoms: C2_3  and  C3_5 
REMARK    3  A    between atoms: C6_9  and  O4_10 
REMARK    4  A    between atoms: C8_12  and  O5_13 
REMARK    5  A    between atoms: O5_13  and  O6_14 
REMARK    6  A    between atoms: C23_30  and  C24_31 
REMARK    7  A    between atoms: C24_31  and  C25_32 
REMARK    8  A    between atoms: C25_32  and  C26_33 
REMARK    9  A    between atoms: C26_33  and  O7_36 
ROOT
HETATM    1  C3  UNL     1      89.179  42.805 271.345  1.00  0.00     0.111 C 
HETATM    2  C4  UNL     1      88.170  43.658 270.534  1.00  0.00     0.035 C 
HETATM    3  C5  UNL     1      89.064  41.475 270.783  1.00  0.00     0.176 C 
HETATM    4  O3  UNL     1      89.943  41.053 270.079  1.00  0.00    -0.294 OA
HETATM    5  C6  UNL     1      87.977  40.501 270.944  1.00  0.00     0.224 C 
HETATM    6  C8  UNL     1      88.429  39.081 270.823  1.00  0.00     0.207 C 
HETATM    7  C9  UNL     1      88.445  38.314 272.164  1.00  0.00     0.002 C 
HETATM    8  C10 UNL     1      88.405  36.850 271.653  1.00  0.00     0.022 C 
HETATM    9  C11 UNL     1      87.170  38.503 272.881  1.00  0.00     0.022 C 
HETATM   10  C12 UNL     1      89.731  38.606 272.855  1.00  0.00    -0.019 C 
HETATM   11  C13 UNL     1      90.279  38.476 273.996  1.00  0.00    -0.026 C 
HETATM   12  C14 UNL     1      91.592  38.795 274.646  1.00  0.00     0.004 C 
HETATM   13  C15 UNL     1      91.611  38.074 276.038  1.00  0.00     0.014 C 
HETATM   14  C16 UNL     1      91.847  40.254 274.876  1.00  0.00     0.012 C 
HETATM   15  C17 UNL     1      93.015  40.849 274.186  1.00  0.00    -0.018 C 
HETATM   16  C18 UNL     1      94.206  39.929 274.056  1.00  0.00     0.010 C 
HETATM   17  C19 UNL     1      92.681  41.383 272.811  1.00  0.00     0.005 C 
HETATM   18  C20 UNL     1      92.608  42.888 272.743  1.00  0.00     0.005 C 
HETATM   19  C21 UNL     1      91.216  43.450 272.705  1.00  0.00    -0.013 C 
HETATM   20  C22 UNL     1      91.364  44.870 273.291  1.00  0.00     0.010 C 
HETATM   21  C23 UNL     1      90.507  43.467 271.381  1.00  0.00     0.015 C 
ENDROOT
BRANCH  21  22
HETATM   22  C24 UNL     1      91.400  43.363 270.201  1.00  0.00     0.009 C 
BRANCH  22  23
HETATM   23  C25 UNL     1      91.803  44.670 269.563  1.00  0.00     0.037 C 
BRANCH  23  24
HETATM   24  C26 UNL     1      91.229  44.637 268.137  1.00  0.00     0.051 C 
HETATM   25  C27 UNL     1      90.895  43.186 267.763  1.00  0.00     0.045 C 
HETATM   26  C28 UNL     1      89.957  45.440 268.043  1.00  0.00     0.045 C 
BRANCH  24  27
HETATM   27  O7  UNL     1      92.142  45.091 267.212  1.00  0.00    -0.391 OA
ATOM     28  H7  UNL     1      92.129  46.039 267.144  1.00  0.00     0.210 HD
ENDBRANCH  24  27
ENDBRANCH  23  24
ENDBRANCH  22  23
ENDBRANCH  21  22
BRANCH   1  29
HETATM   29  C2  UNL     1      88.621  42.904 272.749  1.00  0.00     0.274 C 
HETATM   30  O2  UNL     1      87.879  43.807 273.160  1.00  0.00    -0.264 OA
BRANCH  29  31
HETATM   31  O1  UNL     1      88.932  41.923 273.706  1.00  0.00    -0.326 OA
HETATM   32  C1  UNL     1      88.007  41.591 274.749  1.00  0.00     0.213 C 
ENDBRANCH  29  31
ENDBRANCH   1  29
BRANCH   5  33
HETATM   33  O4  UNL     1      87.089  40.740 269.858  1.00  0.00    -0.380 OA
HETATM   34  C7  UNL     1      85.815  41.054 270.271  1.00  0.00     0.202 C 
ENDBRANCH   5  33
BRANCH   6  35
HETATM   35  O5  UNL     1      87.649  38.418 269.892  1.00  0.00    -0.234 OA
BRANCH  35  36
HETATM   36  O6  UNL     1      88.117  38.494 268.666  1.00  0.00    -0.250 OA
ATOM     37  H6  UNL     1      87.577  39.018 268.086  1.00  0.00     0.253 HD
ENDBRANCH  35  36
ENDBRANCH   6  35
TORSDOF 9
ENDMDL
