MODEL 1
REMARK VINA RESULT: -7.777506607      0.000      0.000
REMARK  10 active torsions:
REMARK  status: ('A' for Active; 'I' for Inactive)
REMARK    1  A    between atoms: C3_5  and  C4_6 
REMARK    2  A    between atoms: C4_6  and  C5_7 
REMARK    3  A    between atoms: C5_7  and  C6_8 
REMARK    4  A    between atoms: C6_8  and  N3_19 
REMARK    5  A    between atoms: N2_9  and  C7_11 
REMARK    6  A    between atoms: C16_21  and  O1_22 
REMARK    7  A    between atoms: O1_22  and  C17_23 
REMARK    8  A    between atoms: C21_27  and  C22_28 
REMARK    9  A    between atoms: C22_28  and  O2_29 
REMARK   10  A    between atoms: N4_31  and  O3_33 
ROOT
HETATM    1  C6  UNL     1      84.266  46.571 268.967  1.00  0.00     0.100 C 
HETATM    2  N2  UNL     1      85.416  46.876 268.459  1.00  0.00    -0.374 N 
ATOM      3  H2  UNL     1      85.774  47.822 268.588  1.00  0.00     0.161 HD
ENDROOT
BRANCH   1   4
HETATM    4  C5  UNL     1      83.552  47.627 269.700  1.00  0.00     0.084 C 
BRANCH   4   5
HETATM    5  C4  UNL     1      84.234  48.950 269.644  1.00  0.00     0.065 C 
BRANCH   5   6
HETATM    6  C3  UNL     1      83.211  50.027 269.331  1.00  0.00     0.016 A 
HETATM    7  N1  UNL     1      83.173  50.592 268.159  1.00  0.00    -0.357 N 
HETATM    8  C2  UNL     1      82.276  51.522 267.912  1.00  0.00     0.046 A 
ATOM      9  H1  UNL     1      83.837  50.316 267.436  1.00  0.00     0.166 HD
HETATM   10  C1  UNL     1      82.020  52.318 266.668  1.00  0.00     0.076 C 
HETATM   11  S1  UNL     1      81.426  51.631 269.384  1.00  0.00    -0.087 SA
HETATM   12  C25 UNL     1      82.289  50.446 270.260  1.00  0.00     0.076 A 
ENDBRANCH   5   6
ENDBRANCH   4   5
ENDBRANCH   1   4
BRANCH   1  13
HETATM   13  N3  UNL     1      83.680  45.292 268.848  1.00  0.00    -0.244 N 
HETATM   14  C15 UNL     1      83.304  44.851 267.505  1.00  0.00     0.190 C 
HETATM   15  C16 UNL     1      83.097  43.297 267.579  1.00  0.00     0.154 C 
HETATM   16  C21 UNL     1      84.392  42.717 268.111  1.00  0.00     0.095 C 
HETATM   17  C23 UNL     1      84.205  42.409 269.564  1.00  0.00     0.044 C 
HETATM   18  C24 UNL     1      84.519  43.728 270.296  1.00  0.00     0.202 C 
HETATM   19  O4  UNL     1      83.531  44.626 270.007  1.00  0.00    -0.277 OA
BRANCH  15  20
HETATM   20  O1  UNL     1      82.117  43.132 268.487  1.00  0.00    -0.373 OA
BRANCH  20  21
HETATM   21  C17 UNL     1      80.945  42.563 268.256  1.00  0.00     0.050 C 
HETATM   22  C18 UNL     1      80.801  41.222 268.919  1.00  0.00     0.045 C 
HETATM   23  C19 UNL     1      80.548  42.426 266.801  1.00  0.00     0.045 C 
HETATM   24  C20 UNL     1      79.851  43.460 268.872  1.00  0.00     0.045 C 
ENDBRANCH  20  21
ENDBRANCH  15  20
BRANCH  16  25
HETATM   25  C22 UNL     1      84.774  41.543 267.325  1.00  0.00     0.142 C 
HETATM   26  N4  UNL     1      85.994  41.260 267.098  1.00  0.00    -0.251 N 
ATOM     27  H4  UNL     1      86.721  41.868 267.475  1.00  0.00     0.196 HD
BRANCH  25  28
HETATM   28  O2  UNL     1      83.794  40.687 266.799  1.00  0.00    -0.348 OA
ATOM     29  H2  UNL     1      83.696  39.803 267.132  1.00  0.00     0.219 HD
ENDBRANCH  25  28
BRANCH  26  30
HETATM   30  O3  UNL     1      86.355  40.177 266.372  1.00  0.00    -0.288 OA
ATOM     31  H3  UNL     1      86.380  39.305 266.749  1.00  0.00     0.244 HD
ENDBRANCH  26  30
ENDBRANCH  16  25
ENDBRANCH   1  13
BRANCH   2  32
HETATM   32  C7  UNL     1      86.216  45.923 267.715  1.00  0.00     0.082 C 
HETATM   33  C8  UNL     1      86.756  46.530 266.472  1.00  0.00     0.025 C 
HETATM   34  C9  UNL     1      88.104  47.178 266.635  1.00  0.00     0.002 C 
HETATM   35  C10 UNL     1      89.212  46.301 266.059  1.00  0.00     0.000 C 
HETATM   36  C11 UNL     1      90.054  45.835 267.197  1.00  0.00     0.000 C 
HETATM   37  C12 UNL     1      89.584  44.623 267.894  1.00  0.00     0.000 C 
HETATM   38  C13 UNL     1      88.107  44.350 267.765  1.00  0.00     0.002 C 
HETATM   39  C14 UNL     1      87.270  45.279 268.591  1.00  0.00     0.025 C 
ENDBRANCH   2  32
TORSDOF 10
ENDMDL
MODEL 2
REMARK VINA RESULT: -7.381112863      1.592      3.076
REMARK  10 active torsions:
REMARK  status: ('A' for Active; 'I' for Inactive)
REMARK    1  A    between atoms: C3_5  and  C4_6 
REMARK    2  A    between atoms: C4_6  and  C5_7 
REMARK    3  A    between atoms: C5_7  and  C6_8 
REMARK    4  A    between atoms: C6_8  and  N3_19 
REMARK    5  A    between atoms: N2_9  and  C7_11 
REMARK    6  A    between atoms: C16_21  and  O1_22 
REMARK    7  A    between atoms: O1_22  and  C17_23 
REMARK    8  A    between atoms: C21_27  and  C22_28 
REMARK    9  A    between atoms: C22_28  and  O2_29 
REMARK   10  A    between atoms: N4_31  and  O3_33 
ROOT
HETATM    1  C6  UNL     1      84.531  46.721 268.721  1.00  0.00     0.100 C 
HETATM    2  N2  UNL     1      85.651  47.072 268.178  1.00  0.00    -0.374 N 
ATOM      3  H2  UNL     1      85.934  48.051 268.224  1.00  0.00     0.161 HD
ENDROOT
BRANCH   1   4
HETATM    4  C5  UNL     1      83.738  47.776 269.371  1.00  0.00     0.084 C 
BRANCH   4   5
HETATM    5  C4  UNL     1      84.344  49.131 269.249  1.00  0.00     0.065 C 
BRANCH   5   6
HETATM    6  C3  UNL     1      83.237  50.168 269.176  1.00  0.00     0.016 A 
HETATM    7  N1  UNL     1      82.997  50.812 268.071  1.00  0.00    -0.357 N 
HETATM    8  C2  UNL     1      82.032  51.705 268.033  1.00  0.00     0.046 A 
ATOM      9  H1  UNL     1      83.555  50.626 267.238  1.00  0.00     0.166 HD
HETATM   10  C1  UNL     1      81.556  52.573 266.907  1.00  0.00     0.076 C 
HETATM   11  S1  UNL     1      81.411  51.661 269.619  1.00  0.00    -0.087 SA
HETATM   12  C25 UNL     1      82.450  50.467 270.262  1.00  0.00     0.076 A 
ENDBRANCH   5   6
ENDBRANCH   4   5
ENDBRANCH   1   4
BRANCH   1  13
HETATM   13  N3  UNL     1      84.047  45.395 268.714  1.00  0.00    -0.244 N 
HETATM   14  C15 UNL     1      83.612  44.835 269.993  1.00  0.00     0.190 C 
HETATM   15  C16 UNL     1      82.742  43.571 269.663  1.00  0.00     0.154 C 
HETATM   16  C21 UNL     1      81.627  44.043 268.751  1.00  0.00     0.095 C 
HETATM   17  C23 UNL     1      81.983  43.673 267.345  1.00  0.00     0.044 C 
HETATM   18  C24 UNL     1      82.863  44.830 266.836  1.00  0.00     0.202 C 
HETATM   19  O4  UNL     1      84.051  44.796 267.509  1.00  0.00    -0.277 OA
BRANCH  15  20
HETATM   20  O1  UNL     1      83.573  42.760 268.982  1.00  0.00    -0.373 OA
BRANCH  20  21
HETATM   21  C17 UNL     1      84.210  41.716 269.487  1.00  0.00     0.050 C 
HETATM   22  C18 UNL     1      83.659  41.277 270.815  1.00  0.00     0.045 C 
HETATM   23  C19 UNL     1      85.714  41.849 269.610  1.00  0.00     0.045 C 
HETATM   24  C20 UNL     1      84.005  40.523 268.528  1.00  0.00     0.045 C 
ENDBRANCH  20  21
ENDBRANCH  15  20
BRANCH  16  25
HETATM   25  C22 UNL     1      80.351  43.474 269.185  1.00  0.00     0.142 C 
HETATM   26  N4  UNL     1      80.297  42.402 269.869  1.00  0.00    -0.251 N 
ATOM     27  H4  UNL     1      81.165  41.930 270.119  1.00  0.00     0.196 HD
BRANCH  25  28
HETATM   28  O2  UNL     1      79.140  44.105 268.859  1.00  0.00    -0.348 OA
ATOM     29  H2  UNL     1      79.008  45.026 269.054  1.00  0.00     0.219 HD
ENDBRANCH  25  28
BRANCH  26  30
HETATM   30  O3  UNL     1      79.120  41.869 270.273  1.00  0.00    -0.288 OA
ATOM     31  H3  UNL     1      78.313  42.370 270.265  1.00  0.00     0.244 HD
ENDBRANCH  26  30
ENDBRANCH  16  25
ENDBRANCH   1  13
BRANCH   2  32
HETATM   32  C7  UNL     1      86.521  46.126 267.507  1.00  0.00     0.082 C 
HETATM   33  C8  UNL     1      87.175  46.743 266.325  1.00  0.00     0.025 C 
HETATM   34  C9  UNL     1      88.500  47.393 266.618  1.00  0.00     0.002 C 
HETATM   35  C10 UNL     1      89.659  46.523 266.146  1.00  0.00     0.000 C 
HETATM   36  C11 UNL     1      90.392  46.052 267.355  1.00  0.00     0.000 C 
HETATM   37  C12 UNL     1      89.861  44.835 267.998  1.00  0.00     0.000 C 
HETATM   38  C13 UNL     1      88.405  44.558 267.727  1.00  0.00     0.002 C 
HETATM   39  C14 UNL     1      87.490  45.479 268.476  1.00  0.00     0.025 C 
ENDBRANCH   2  32
TORSDOF 10
ENDMDL
MODEL 3
REMARK VINA RESULT: -7.297354499      3.676      6.781
REMARK  10 active torsions:
REMARK  status: ('A' for Active; 'I' for Inactive)
REMARK    1  A    between atoms: C3_5  and  C4_6 
REMARK    2  A    between atoms: C4_6  and  C5_7 
REMARK    3  A    between atoms: C5_7  and  C6_8 
REMARK    4  A    between atoms: C6_8  and  N3_19 
REMARK    5  A    between atoms: N2_9  and  C7_11 
REMARK    6  A    between atoms: C16_21  and  O1_22 
REMARK    7  A    between atoms: O1_22  and  C17_23 
REMARK    8  A    between atoms: C21_27  and  C22_28 
REMARK    9  A    between atoms: C22_28  and  O2_29 
REMARK   10  A    between atoms: N4_31  and  O3_33 
ROOT
HETATM    1  C6  UNL     1      88.614  46.164 267.063  1.00  0.00     0.100 C 
HETATM    2  N2  UNL     1      89.517  45.319 267.443  1.00  0.00    -0.374 N 
ATOM      3  H2  UNL     1      90.494  45.518 267.234  1.00  0.00     0.161 HD
ENDROOT
BRANCH   1   4
HETATM    4  C5  UNL     1      89.072  47.364 266.347  1.00  0.00     0.084 C 
BRANCH   4   5
HETATM    5  C4  UNL     1      90.391  47.184 265.676  1.00  0.00     0.065 C 
BRANCH   5   6
HETATM    6  C3  UNL     1      90.165  46.889 264.204  1.00  0.00     0.016 A 
HETATM    7  N1  UNL     1      91.171  46.760 263.387  1.00  0.00    -0.357 N 
HETATM    8  C2  UNL     1      90.949  46.504 262.116  1.00  0.00     0.046 A 
ATOM      9  H1  UNL     1      92.126  46.858 263.730  1.00  0.00     0.166 HD
HETATM   10  C1  UNL     1      91.911  46.312 260.982  1.00  0.00     0.076 C 
HETATM   11  S1  UNL     1      89.249  46.435 262.032  1.00  0.00    -0.087 SA
HETATM   12  C25 UNL     1      88.905  46.746 263.676  1.00  0.00     0.076 A 
ENDBRANCH   5   6
ENDBRANCH   4   5
ENDBRANCH   1   4
BRANCH   1  13
HETATM   13  N3  UNL     1      87.234  45.984 267.302  1.00  0.00    -0.244 N 
HETATM   14  C15 UNL     1      86.804  45.874 268.695  1.00  0.00     0.190 C 
HETATM   15  C16 UNL     1      85.254  46.118 268.713  1.00  0.00     0.154 C 
HETATM   16  C21 UNL     1      85.026  47.473 268.072  1.00  0.00     0.095 C 
HETATM   17  C23 UNL     1      84.573  47.253 266.662  1.00  0.00     0.044 C 
HETATM   18  C24 UNL     1      85.869  47.106 265.843  1.00  0.00     0.202 C 
HETATM   19  O4  UNL     1      86.469  45.931 266.195  1.00  0.00    -0.277 OA
BRANCH  15  20
HETATM   20  O1  UNL     1      84.752  45.150 267.923  1.00  0.00    -0.373 OA
BRANCH  20  21
HETATM   21  C17 UNL     1      83.975  44.158 268.326  1.00  0.00     0.050 C 
HETATM   22  C18 UNL     1      82.671  44.093 267.581  1.00  0.00     0.045 C 
HETATM   23  C19 UNL     1      83.686  44.101 269.811  1.00  0.00     0.045 C 
HETATM   24  C20 UNL     1      84.703  42.831 268.022  1.00  0.00     0.045 C 
ENDBRANCH  20  21
ENDBRANCH  15  20
BRANCH  16  25
HETATM   25  C22 UNL     1      84.069  48.246 268.864  1.00  0.00     0.142 C 
HETATM   26  N4  UNL     1      83.568  47.787 269.940  1.00  0.00    -0.251 N 
ATOM     27  H4  UNL     1      83.841  46.856 270.255  1.00  0.00     0.196 HD
BRANCH  25  28
HETATM   28  O2  UNL     1      83.680  49.532 268.456  1.00  0.00    -0.348 OA
ATOM     29  H2  UNL     1      83.451  49.702 267.549  1.00  0.00     0.219 HD
ENDBRANCH  25  28
BRANCH  26  30
HETATM   30  O3  UNL     1      82.682  48.497 270.677  1.00  0.00    -0.288 OA
ATOM     31  H3  UNL     1      82.549  48.327 271.602  1.00  0.00     0.244 HD
ENDBRANCH  26  30
ENDBRANCH  16  25
ENDBRANCH   1  13
BRANCH   2  32
HETATM   32  C7  UNL     1      89.191  44.100 268.156  1.00  0.00     0.082 C 
HETATM   33  C8  UNL     1      89.911  42.934 267.583  1.00  0.00     0.025 C 
HETATM   34  C9  UNL     1      91.251  42.664 268.211  1.00  0.00     0.002 C 
HETATM   35  C10 UNL     1      91.184  41.481 269.171  1.00  0.00     0.000 C 
HETATM   36  C11 UNL     1      91.405  42.005 270.548  1.00  0.00     0.000 C 
HETATM   37  C12 UNL     1      90.209  42.518 271.243  1.00  0.00     0.000 C 
HETATM   38  C13 UNL     1      89.090  42.962 270.336  1.00  0.00     0.002 C 
HETATM   39  C14 UNL     1      89.380  44.263 269.650  1.00  0.00     0.025 C 
ENDBRANCH   2  32
TORSDOF 10
ENDMDL
MODEL 4
REMARK VINA RESULT: -7.238615312      3.135      5.615
REMARK  10 active torsions:
REMARK  status: ('A' for Active; 'I' for Inactive)
REMARK    1  A    between atoms: C3_5  and  C4_6 
REMARK    2  A    between atoms: C4_6  and  C5_7 
REMARK    3  A    between atoms: C5_7  and  C6_8 
REMARK    4  A    between atoms: C6_8  and  N3_19 
REMARK    5  A    between atoms: N2_9  and  C7_11 
REMARK    6  A    between atoms: C16_21  and  O1_22 
REMARK    7  A    between atoms: O1_22  and  C17_23 
REMARK    8  A    between atoms: C21_27  and  C22_28 
REMARK    9  A    between atoms: C22_28  and  O2_29 
REMARK   10  A    between atoms: N4_31  and  O3_33 
ROOT
HETATM    1  C6  UNL     1      86.705  45.305 267.003  1.00  0.00     0.100 C 
HETATM    2  N2  UNL     1      87.172  45.910 265.960  1.00  0.00    -0.374 N 
ATOM      3  H2  UNL     1      86.559  46.540 265.443  1.00  0.00     0.161 HD
ENDROOT
BRANCH   1   4
HETATM    4  C5  UNL     1      85.306  45.574 267.369  1.00  0.00     0.084 C 
BRANCH   4   5
HETATM    5  C4  UNL     1      84.792  46.864 266.830  1.00  0.00     0.065 C 
BRANCH   5   6
HETATM    6  C3  UNL     1      84.267  47.710 267.977  1.00  0.00     0.016 A 
HETATM    7  N1  UNL     1      83.976  48.967 267.801  1.00  0.00    -0.357 N 
HETATM    8  C2  UNL     1      83.522  49.678 268.809  1.00  0.00     0.046 A 
ATOM      9  H1  UNL     1      84.100  49.398 266.885  1.00  0.00     0.166 HD
HETATM   10  C1  UNL     1      83.118  51.120 268.876  1.00  0.00     0.076 C 
HETATM   11  S1  UNL     1      83.492  48.551 270.087  1.00  0.00    -0.087 SA
HETATM   12  C25 UNL     1      84.078  47.192 269.235  1.00  0.00     0.076 A 
ENDBRANCH   5   6
ENDBRANCH   4   5
ENDBRANCH   1   4
BRANCH   1  13
HETATM   13  N3  UNL     1      87.468  44.414 267.789  1.00  0.00    -0.244 N 
HETATM   14  C15 UNL     1      88.241  44.986 268.890  1.00  0.00     0.190 C 
HETATM   15  C16 UNL     1      88.627  43.798 269.840  1.00  0.00     0.154 C 
HETATM   16  C21 UNL     1      87.327  43.130 270.242  1.00  0.00     0.095 C 
HETATM   17  C23 UNL     1      87.162  41.892 269.416  1.00  0.00     0.044 C 
HETATM   18  C24 UNL     1      86.493  42.366 268.113  1.00  0.00     0.202 C 
HETATM   19  O4  UNL     1      87.392  43.123 267.417  1.00  0.00    -0.277 OA
BRANCH  15  20
HETATM   20  O1  UNL     1      89.345  42.966 269.062  1.00  0.00    -0.373 OA
BRANCH  20  21
HETATM   21  C17 UNL     1      90.640  42.725 269.188  1.00  0.00     0.050 C 
HETATM   22  C18 UNL     1      90.935  41.326 269.651  1.00  0.00     0.045 C 
HETATM   23  C19 UNL     1      91.415  43.693 270.056  1.00  0.00     0.045 C 
HETATM   24  C20 UNL     1      91.285  42.854 267.792  1.00  0.00     0.045 C 
ENDBRANCH  20  21
ENDBRANCH  15  20
BRANCH  16  25
HETATM   25  C22 UNL     1      87.327  42.861 271.680  1.00  0.00     0.142 C 
HETATM   26  N4  UNL     1      87.981  43.586 272.495  1.00  0.00    -0.251 N 
ATOM     27  H4  UNL     1      88.518  44.375 272.135  1.00  0.00     0.196 HD
BRANCH  25  28
HETATM   28  O2  UNL     1      86.592  41.785 272.204  1.00  0.00    -0.348 OA
ATOM     29  H2  UNL     1      85.740  41.563 271.847  1.00  0.00     0.219 HD
ENDBRANCH  25  28
BRANCH  26  30
HETATM   30  O3  UNL     1      87.986  43.343 273.827  1.00  0.00    -0.288 OA
ATOM     31  H3  UNL     1      88.161  42.478 274.178  1.00  0.00     0.244 HD
ENDBRANCH  26  30
ENDBRANCH  16  25
ENDBRANCH   1  13
BRANCH   2  32
HETATM   32  C7  UNL     1      88.533  45.728 265.497  1.00  0.00     0.082 C 
HETATM   33  C8  UNL     1      88.596  44.750 264.381  1.00  0.00     0.025 C 
HETATM   34  C9  UNL     1      88.463  45.363 263.014  1.00  0.00     0.002 C 
HETATM   35  C10 UNL     1      89.815  45.450 262.313  1.00  0.00     0.000 C 
HETATM   36  C11 UNL     1      90.162  46.893 262.181  1.00  0.00     0.000 C 
HETATM   37  C12 UNL     1      90.830  47.506 263.345  1.00  0.00     0.000 C 
HETATM   38  C13 UNL     1      90.577  46.811 264.659  1.00  0.00     0.002 C 
HETATM   39  C14 UNL     1      89.197  47.054 265.189  1.00  0.00     0.025 C 
ENDBRANCH   2  32
TORSDOF 10
ENDMDL
MODEL 5
REMARK VINA RESULT: -7.183739251      3.618      6.562
REMARK  10 active torsions:
REMARK  status: ('A' for Active; 'I' for Inactive)
REMARK    1  A    between atoms: C3_5  and  C4_6 
REMARK    2  A    between atoms: C4_6  and  C5_7 
REMARK    3  A    between atoms: C5_7  and  C6_8 
REMARK    4  A    between atoms: C6_8  and  N3_19 
REMARK    5  A    between atoms: N2_9  and  C7_11 
REMARK    6  A    between atoms: C16_21  and  O1_22 
REMARK    7  A    between atoms: O1_22  and  C17_23 
REMARK    8  A    between atoms: C21_27  and  C22_28 
REMARK    9  A    between atoms: C22_28  and  O2_29 
REMARK   10  A    between atoms: N4_31  and  O3_33 
ROOT
HETATM    1  C6  UNL     1      88.506  46.055 266.737  1.00  0.00     0.100 C 
HETATM    2  N2  UNL     1      89.440  45.264 267.154  1.00  0.00    -0.374 N 
ATOM      3  H2  UNL     1      90.400  45.440 266.859  1.00  0.00     0.161 HD
ENDROOT
BRANCH   1   4
HETATM    4  C5  UNL     1      88.904  47.162 265.854  1.00  0.00     0.084 C 
BRANCH   4   5
HETATM    5  C4  UNL     1      90.235  46.959 265.216  1.00  0.00     0.065 C 
BRANCH   5   6
HETATM    6  C3  UNL     1      91.285  47.735 265.993  1.00  0.00     0.016 A 
HETATM    7  N1  UNL     1      90.967  48.809 266.655  1.00  0.00    -0.357 N 
HETATM    8  C2  UNL     1      91.895  49.462 267.321  1.00  0.00     0.046 A 
ATOM      9  H1  UNL     1      90.004  49.144 266.658  1.00  0.00     0.166 HD
HETATM   10  C1  UNL     1      91.799  50.707 268.152  1.00  0.00     0.076 C 
HETATM   11  S1  UNL     1      93.298  48.544 267.019  1.00  0.00    -0.087 SA
HETATM   12  C25 UNL     1      92.600  47.339 266.030  1.00  0.00     0.076 A 
ENDBRANCH   5   6
ENDBRANCH   4   5
ENDBRANCH   1   4
BRANCH   1  13
HETATM   13  N3  UNL     1      87.146  45.902 267.086  1.00  0.00    -0.244 N 
HETATM   14  C15 UNL     1      86.827  45.810 268.510  1.00  0.00     0.190 C 
HETATM   15  C16 UNL     1      85.288  46.082 268.649  1.00  0.00     0.154 C 
HETATM   16  C21 UNL     1      85.033  47.436 268.016  1.00  0.00     0.095 C 
HETATM   17  C23 UNL     1      84.465  47.213 266.648  1.00  0.00     0.044 C 
HETATM   18  C24 UNL     1      85.689  47.037 265.731  1.00  0.00     0.202 C 
HETATM   19  O4  UNL     1      86.296  45.855 266.044  1.00  0.00    -0.277 OA
BRANCH  15  20
HETATM   20  O1  UNL     1      84.708  45.118 267.910  1.00  0.00    -0.373 OA
BRANCH  20  21
HETATM   21  C17 UNL     1      83.944  44.145 268.381  1.00  0.00     0.050 C 
HETATM   22  C18 UNL     1      82.571  44.128 267.770  1.00  0.00     0.045 C 
HETATM   23  C19 UNL     1      83.802  44.082 269.887  1.00  0.00     0.045 C 
HETATM   24  C20 UNL     1      84.596  42.800 267.997  1.00  0.00     0.045 C 
ENDBRANCH  20  21
ENDBRANCH  15  20
BRANCH  16  25
HETATM   25  C22 UNL     1      84.155  48.232 268.875  1.00  0.00     0.142 C 
HETATM   26  N4  UNL     1      83.643  47.750 269.935  1.00  0.00    -0.251 N 
ATOM     27  H4  UNL     1      83.851  46.785 270.191  1.00  0.00     0.196 HD
BRANCH  25  28
HETATM   28  O2  UNL     1      83.857  49.565 268.549  1.00  0.00    -0.348 OA
ATOM     29  H2  UNL     1      83.333  50.099 269.134  1.00  0.00     0.219 HD
ENDBRANCH  25  28
BRANCH  26  30
HETATM   30  O3  UNL     1      82.831  48.481 270.734  1.00  0.00    -0.288 OA
ATOM     31  H3  UNL     1      81.944  48.207 270.934  1.00  0.00     0.244 HD
ENDBRANCH  26  30
ENDBRANCH  16  25
ENDBRANCH   1  13
BRANCH   2  32
HETATM   32  C7  UNL     1      89.175  44.138 268.027  1.00  0.00     0.082 C 
HETATM   33  C8  UNL     1      89.843  42.907 267.534  1.00  0.00     0.025 C 
HETATM   34  C9  UNL     1      91.231  42.697 268.076  1.00  0.00     0.002 C 
HETATM   35  C10 UNL     1      91.243  41.632 269.168  1.00  0.00     0.000 C 
HETATM   36  C11 UNL     1      91.579  42.308 270.452  1.00  0.00     0.000 C 
HETATM   37  C12 UNL     1      90.445  42.910 271.180  1.00  0.00     0.000 C 
HETATM   38  C13 UNL     1      89.256  43.259 270.324  1.00  0.00     0.002 C 
HETATM   39  C14 UNL     1      89.487  44.469 269.472  1.00  0.00     0.025 C 
ENDBRANCH   2  32
TORSDOF 10
ENDMDL
