MODEL 1
REMARK VINA RESULT: -5.851181483      0.000      0.000
REMARK  9 active torsions:
REMARK  status: ('A' for Active; 'I' for Inactive)
REMARK    1  A    between atoms: C3_3  and  C5_5 
REMARK    2  A    between atoms: C5_5  and  O2_7 
REMARK    3  A    between atoms: O2_7  and  C6_8 
REMARK    4  A    between atoms: C11_14  and  O4_16 
REMARK    5  A    between atoms: C16_21  and  C17_22 
REMARK    6  A    between atoms: C20_25  and  O5_26 
REMARK    7  A    between atoms: C24_31  and  O6_32 
REMARK    8  A    between atoms: O6_32  and  C25_33 
REMARK    9  A    between atoms: C25_33  and  C26_35 
ROOT
HETATM    1  C6  UNL     1      88.892  41.594 269.626  1.00  0.00     0.186 C 
HETATM    2  C7  UNL     1      89.187  42.085 271.017  1.00  0.00     0.046 C 
HETATM    3  C8  UNL     1      90.670  41.662 271.361  1.00  0.00     0.026 C 
HETATM    4  C9  UNL     1      89.273  43.504 271.346  1.00  0.00     0.026 C 
HETATM    5  C10 UNL     1      88.455  41.363 272.093  1.00  0.00     0.171 C 
HETATM    6  O3  UNL     1      88.921  41.082 273.186  1.00  0.00    -0.294 OA
HETATM    7  C11 UNL     1      87.019  40.899 271.920  1.00  0.00     0.122 C 
HETATM    8  C12 UNL     1      86.270  41.875 272.882  1.00  0.00     0.055 C 
HETATM    9  C13 UNL     1      86.697  41.310 270.574  1.00  0.00     0.077 C 
HETATM   10  C14 UNL     1      85.270  41.479 270.156  1.00  0.00     0.030 C 
HETATM   11  C15 UNL     1      85.207  42.884 269.656  1.00  0.00    -0.014 C 
HETATM   12  C16 UNL     1      86.059  42.909 268.623  1.00  0.00    -0.042 C 
HETATM   13  C20 UNL     1      86.584  41.547 268.376  1.00  0.00     0.124 C 
HETATM   14  C21 UNL     1      85.239  40.878 268.735  1.00  0.00    -0.002 C 
HETATM   15  C22 UNL     1      84.920  39.510 268.663  1.00  0.00     0.019 C 
HETATM   16  C23 UNL     1      84.170  41.625 267.897  1.00  0.00     0.019 C 
HETATM   17  C24 UNL     1      87.535  40.935 269.412  1.00  0.00     0.141 C 
ENDROOT
BRANCH   1  18
HETATM   18  O2  UNL     1      89.612  41.993 268.593  1.00  0.00    -0.308 OA
BRANCH  18  19
HETATM   19  C5  UNL     1      89.836  43.116 267.918  1.00  0.00     0.289 C 
HETATM   20  O1  UNL     1      89.213  43.017 266.848  1.00  0.00    -0.260 OA
BRANCH  19  21
HETATM   21  C3  UNL     1      90.600  44.302 268.192  1.00  0.00     0.009 C 
HETATM   22  C2  UNL     1      90.289  45.431 267.557  1.00  0.00    -0.018 C 
HETATM   23  C1  UNL     1      91.032  46.694 267.782  1.00  0.00     0.036 C 
HETATM   24  C4  UNL     1      91.740  44.380 269.142  1.00  0.00     0.054 C 
ENDBRANCH  19  21
ENDBRANCH  18  19
ENDBRANCH   1  18
BRANCH  17  25
HETATM   25  O6  UNL     1      87.621  39.725 268.840  1.00  0.00    -0.299 OA
BRANCH  25  26
HETATM   26  C25 UNL     1      88.058  38.489 269.002  1.00  0.00     0.289 C 
HETATM   27  O7  UNL     1      88.013  37.948 267.883  1.00  0.00    -0.260 OA
BRANCH  26  28
HETATM   28  C26 UNL     1      88.524  37.765 270.175  1.00  0.00     0.009 C 
HETATM   29  C27 UNL     1      87.776  36.609 270.670  1.00  0.00     0.054 C 
HETATM   30  C28 UNL     1      89.649  38.113 270.777  1.00  0.00    -0.018 C 
HETATM   31  C29 UNL     1      90.080  37.345 271.965  1.00  0.00     0.036 C 
ENDBRANCH  26  28
ENDBRANCH  25  26
ENDBRANCH  17  25
BRANCH  13  32
HETATM   32  O5  UNL     1      86.954  41.299 267.089  1.00  0.00    -0.381 OA
ATOM     33  H5  UNL     1      87.518  40.544 266.974  1.00  0.00     0.211 HD
ENDBRANCH  13  32
BRANCH   7  34
HETATM   34  O4  UNL     1      86.747  39.672 272.394  1.00  0.00    -0.382 OA
ATOM     35  H4  UNL     1      87.020  38.951 271.841  1.00  0.00     0.211 HD
ENDBRANCH   7  34
BRANCH  12  36
HETATM   36  C17 UNL     1      86.253  44.164 267.875  1.00  0.00     0.009 C 
HETATM   37  C18 UNL     1      84.944  44.824 267.465  1.00  0.00     0.014 C 
HETATM   38  C19 UNL     1      86.996  45.270 268.558  1.00  0.00     0.014 C 
ENDBRANCH  12  36
TORSDOF 9
ENDMDL
MODEL 2
REMARK VINA RESULT: -5.800353653      1.649      5.145
REMARK  9 active torsions:
REMARK  status: ('A' for Active; 'I' for Inactive)
REMARK    1  A    between atoms: C3_3  and  C5_5 
REMARK    2  A    between atoms: C5_5  and  O2_7 
REMARK    3  A    between atoms: O2_7  and  C6_8 
REMARK    4  A    between atoms: C11_14  and  O4_16 
REMARK    5  A    between atoms: C16_21  and  C17_22 
REMARK    6  A    between atoms: C20_25  and  O5_26 
REMARK    7  A    between atoms: C24_31  and  O6_32 
REMARK    8  A    between atoms: O6_32  and  C25_33 
REMARK    9  A    between atoms: C25_33  and  C26_35 
ROOT
HETATM    1  C6  UNL     1      87.920  39.879 270.215  1.00  0.00     0.186 C 
HETATM    2  C7  UNL     1      87.661  38.563 269.534  1.00  0.00     0.046 C 
HETATM    3  C8  UNL     1      89.065  37.896 269.249  1.00  0.00     0.026 C 
HETATM    4  C9  UNL     1      87.010  37.445 270.208  1.00  0.00     0.026 C 
HETATM    5  C10 UNL     1      87.144  38.681 268.143  1.00  0.00     0.171 C 
HETATM    6  O3  UNL     1      87.451  37.945 267.219  1.00  0.00    -0.294 OA
HETATM    7  C11 UNL     1      86.157  39.763 267.739  1.00  0.00     0.122 C 
HETATM    8  C12 UNL     1      84.861  38.919 267.518  1.00  0.00     0.055 C 
HETATM    9  C13 UNL     1      85.964  40.510 268.960  1.00  0.00     0.077 C 
HETATM   10  C14 UNL     1      84.742  41.352 269.147  1.00  0.00     0.030 C 
HETATM   11  C15 UNL     1      84.140  40.835 270.410  1.00  0.00    -0.014 C 
HETATM   12  C16 UNL     1      85.074  41.059 271.343  1.00  0.00    -0.042 C 
HETATM   13  C20 UNL     1      86.209  41.799 270.743  1.00  0.00     0.124 C 
HETATM   14  C21 UNL     1      85.285  42.628 269.824  1.00  0.00    -0.002 C 
HETATM   15  C22 UNL     1      85.659  43.666 268.950  1.00  0.00     0.019 C 
HETATM   16  C23 UNL     1      84.190  43.208 270.755  1.00  0.00     0.019 C 
HETATM   17  C24 UNL     1      87.100  41.068 269.731  1.00  0.00     0.141 C 
ENDROOT
BRANCH   1  18
HETATM   18  O2  UNL     1      88.567  39.937 271.365  1.00  0.00    -0.308 OA
BRANCH  18  19
HETATM   19  C5  UNL     1      89.676  40.487 271.849  1.00  0.00     0.289 C 
HETATM   20  O1  UNL     1      89.316  41.404 272.606  1.00  0.00    -0.260 OA
BRANCH  19  21
HETATM   21  C3  UNL     1      91.076  40.224 271.662  1.00  0.00     0.009 C 
HETATM   22  C2  UNL     1      91.868  40.153 272.731  1.00  0.00    -0.018 C 
HETATM   23  C1  UNL     1      93.323  39.890 272.620  1.00  0.00     0.036 C 
HETATM   24  C4  UNL     1      91.737  40.026 270.346  1.00  0.00     0.054 C 
ENDBRANCH  19  21
ENDBRANCH  18  19
ENDBRANCH   1  18
BRANCH  17  25
HETATM   25  O6  UNL     1      87.851  42.128 269.401  1.00  0.00    -0.299 OA
BRANCH  25  26
HETATM   26  C25 UNL     1      88.869  42.535 268.664  1.00  0.00     0.289 C 
HETATM   27  O7  UNL     1      88.506  42.445 267.478  1.00  0.00    -0.260 OA
BRANCH  26  28
HETATM   28  C26 UNL     1      90.198  43.012 269.015  1.00  0.00     0.009 C 
HETATM   29  C27 UNL     1      91.321  42.798 268.100  1.00  0.00     0.054 C 
HETATM   30  C28 UNL     1      90.398  43.683 270.137  1.00  0.00    -0.018 C 
HETATM   31  C29 UNL     1      91.767  44.148 270.448  1.00  0.00     0.036 C 
ENDBRANCH  26  28
ENDBRANCH  25  26
ENDBRANCH  17  25
BRANCH  13  32
HETATM   32  O5  UNL     1      86.907  42.581 271.612  1.00  0.00    -0.381 OA
ATOM     33  H5  UNL     1      86.587  43.471 271.694  1.00  0.00     0.211 HD
ENDBRANCH  13  32
BRANCH   7  34
HETATM   34  O4  UNL     1      86.393  40.349 266.554  1.00  0.00    -0.382 OA
ATOM     35  H4  UNL     1      85.987  41.198 266.430  1.00  0.00     0.211 HD
ENDBRANCH   7  34
BRANCH  12  36
HETATM   36  C17 UNL     1      84.814  40.666 272.738  1.00  0.00     0.009 C 
HETATM   37  C18 UNL     1      83.606  39.751 272.886  1.00  0.00     0.014 C 
HETATM   38  C19 UNL     1      85.895  39.927 273.464  1.00  0.00     0.014 C 
ENDBRANCH  12  36
TORSDOF 9
ENDMDL
MODEL 3
REMARK VINA RESULT: -5.798518843      2.044      2.999
REMARK  9 active torsions:
REMARK  status: ('A' for Active; 'I' for Inactive)
REMARK    1  A    between atoms: C3_3  and  C5_5 
REMARK    2  A    between atoms: C5_5  and  O2_7 
REMARK    3  A    between atoms: O2_7  and  C6_8 
REMARK    4  A    between atoms: C11_14  and  O4_16 
REMARK    5  A    between atoms: C16_21  and  C17_22 
REMARK    6  A    between atoms: C20_25  and  O5_26 
REMARK    7  A    between atoms: C24_31  and  O6_32 
REMARK    8  A    between atoms: O6_32  and  C25_33 
REMARK    9  A    between atoms: C25_33  and  C26_35 
ROOT
HETATM    1  C6  UNL     1      87.255  42.528 268.645  1.00  0.00     0.186 C 
HETATM    2  C7  UNL     1      88.067  42.639 269.906  1.00  0.00     0.046 C 
HETATM    3  C8  UNL     1      89.548  42.219 269.551  1.00  0.00     0.026 C 
HETATM    4  C9  UNL     1      88.341  43.918 270.553  1.00  0.00     0.026 C 
HETATM    5  C10 UNL     1      87.746  41.613 270.936  1.00  0.00     0.171 C 
HETATM    6  O3  UNL     1      88.566  41.072 271.660  1.00  0.00    -0.294 OA
HETATM    7  C11 UNL     1      86.325  41.137 271.185  1.00  0.00     0.122 C 
HETATM    8  C12 UNL     1      86.035  41.774 272.581  1.00  0.00     0.055 C 
HETATM    9  C13 UNL     1      85.552  41.880 270.219  1.00  0.00     0.077 C 
HETATM   10  C14 UNL     1      84.082  42.079 270.418  1.00  0.00     0.030 C 
HETATM   11  C15 UNL     1      83.913  43.561 270.378  1.00  0.00    -0.014 C 
HETATM   12  C16 UNL     1      84.324  43.912 269.152  1.00  0.00    -0.042 C 
HETATM   13  C20 UNL     1      84.649  42.698 268.369  1.00  0.00     0.124 C 
HETATM   14  C21 UNL     1      83.499  41.885 269.003  1.00  0.00    -0.002 C 
HETATM   15  C22 UNL     1      83.105  40.573 268.684  1.00  0.00     0.019 C 
HETATM   16  C23 UNL     1      82.237  42.773 268.854  1.00  0.00     0.019 C 
HETATM   17  C24 UNL     1      85.883  41.881 268.774  1.00  0.00     0.141 C 
ENDROOT
BRANCH   1  18
HETATM   18  O2  UNL     1      87.563  43.231 267.570  1.00  0.00    -0.308 OA
BRANCH  18  19
HETATM   19  C5  UNL     1      88.627  43.843 267.059  1.00  0.00     0.289 C 
HETATM   20  O1  UNL     1      89.254  42.986 266.415  1.00  0.00    -0.260 OA
BRANCH  19  21
HETATM   21  C3  UNL     1      89.120  45.191 267.122  1.00  0.00     0.009 C 
HETATM   22  C2  UNL     1      88.545  46.125 266.365  1.00  0.00    -0.018 C 
HETATM   23  C1  UNL     1      88.999  47.536 266.371  1.00  0.00     0.036 C 
HETATM   24  C4  UNL     1      90.248  45.647 267.976  1.00  0.00     0.054 C 
ENDBRANCH  19  21
ENDBRANCH  18  19
ENDBRANCH   1  18
BRANCH  17  25
HETATM   25  O6  UNL     1      85.688  40.877 267.906  1.00  0.00    -0.299 OA
BRANCH  25  26
HETATM   26  C25 UNL     1      86.219  39.781 267.395  1.00  0.00     0.289 C 
HETATM   27  O7  UNL     1      87.030  39.355 268.237  1.00  0.00    -0.260 OA
BRANCH  26  28
HETATM   28  C26 UNL     1      86.009  39.092 266.131  1.00  0.00     0.009 C 
HETATM   29  C27 UNL     1      86.710  37.838 265.852  1.00  0.00     0.054 C 
HETATM   30  C28 UNL     1      85.151  39.565 265.242  1.00  0.00    -0.018 C 
HETATM   31  C29 UNL     1      84.973  38.828 263.972  1.00  0.00     0.036 C 
ENDBRANCH  26  28
ENDBRANCH  25  26
ENDBRANCH  17  25
BRANCH  13  32
HETATM   32  O5  UNL     1      84.506  42.829 267.022  1.00  0.00    -0.381 OA
ATOM     33  H5  UNL     1      85.073  42.270 266.504  1.00  0.00     0.211 HD
ENDBRANCH  13  32
BRANCH   7  34
HETATM   34  O4  UNL     1      86.184  39.815 271.373  1.00  0.00    -0.382 OA
ATOM     35  H4  UNL     1      86.131  39.535 272.279  1.00  0.00     0.211 HD
ENDBRANCH   7  34
BRANCH  12  36
HETATM   36  C17 UNL     1      84.294  45.331 268.757  1.00  0.00     0.009 C 
HETATM   37  C18 UNL     1      83.558  46.214 269.755  1.00  0.00     0.014 C 
HETATM   38  C19 UNL     1      85.606  46.030 268.583  1.00  0.00     0.014 C 
ENDBRANCH  12  36
TORSDOF 9
ENDMDL
MODEL 4
REMARK VINA RESULT: -5.691672665      2.530      6.071
REMARK  9 active torsions:
REMARK  status: ('A' for Active; 'I' for Inactive)
REMARK    1  A    between atoms: C3_3  and  C5_5 
REMARK    2  A    between atoms: C5_5  and  O2_7 
REMARK    3  A    between atoms: O2_7  and  C6_8 
REMARK    4  A    between atoms: C11_14  and  O4_16 
REMARK    5  A    between atoms: C16_21  and  C17_22 
REMARK    6  A    between atoms: C20_25  and  O5_26 
REMARK    7  A    between atoms: C24_31  and  O6_32 
REMARK    8  A    between atoms: O6_32  and  C25_33 
REMARK    9  A    between atoms: C25_33  and  C26_35 
ROOT
HETATM    1  C6  UNL     1      89.620  42.186 270.963  1.00  0.00     0.186 C 
HETATM    2  C7  UNL     1      88.212  42.485 271.399  1.00  0.00     0.046 C 
HETATM    3  C8  UNL     1      87.765  43.813 270.670  1.00  0.00     0.026 C 
HETATM    4  C9  UNL     1      87.082  41.635 271.038  1.00  0.00     0.026 C 
HETATM    5  C10 UNL     1      88.085  42.914 272.819  1.00  0.00     0.171 C 
HETATM    6  O3  UNL     1      87.313  43.768 273.223  1.00  0.00    -0.294 OA
HETATM    7  C11 UNL     1      88.932  42.306 273.924  1.00  0.00     0.122 C 
HETATM    8  C12 UNL     1      87.861  41.473 274.698  1.00  0.00     0.055 C 
HETATM    9  C13 UNL     1      89.767  41.361 273.221  1.00  0.00     0.077 C 
HETATM   10  C14 UNL     1      90.405  40.223 273.954  1.00  0.00     0.030 C 
HETATM   11  C15 UNL     1      89.937  39.013 273.217  1.00  0.00    -0.014 C 
HETATM   12  C16 UNL     1      90.420  39.170 271.977  1.00  0.00    -0.042 C 
HETATM   13  C20 UNL     1      91.269  40.382 271.922  1.00  0.00     0.124 C 
HETATM   14  C21 UNL     1      91.822  40.155 273.346  1.00  0.00    -0.002 C 
HETATM   15  C22 UNL     1      92.804  40.911 274.011  1.00  0.00     0.019 C 
HETATM   16  C23 UNL     1      92.308  38.683 273.370  1.00  0.00     0.019 C 
HETATM   17  C24 UNL     1      90.591  41.751 272.053  1.00  0.00     0.141 C 
ENDROOT
BRANCH   1  18
HETATM   18  O2  UNL     1      89.915  41.994 269.690  1.00  0.00    -0.308 OA
BRANCH  18  19
HETATM   19  C5  UNL     1      90.475  42.670 268.692  1.00  0.00     0.289 C 
HETATM   20  O1  UNL     1      91.528  42.076 268.408  1.00  0.00    -0.260 OA
BRANCH  19  21
HETATM   21  C3  UNL     1      90.102  43.851 267.963  1.00  0.00     0.009 C 
HETATM   22  C2  UNL     1      90.805  44.969 268.142  1.00  0.00    -0.018 C 
HETATM   23  C1  UNL     1      90.480  46.228 267.431  1.00  0.00     0.036 C 
HETATM   24  C4  UNL     1      88.969  43.939 267.006  1.00  0.00     0.054 C 
ENDBRANCH  19  21
ENDBRANCH  18  19
ENDBRANCH   1  18
BRANCH  17  25
HETATM   25  O6  UNL     1      91.720  42.475 272.074  1.00  0.00    -0.299 OA
BRANCH  25  26
HETATM   26  C25 UNL     1      92.209  43.701 272.125  1.00  0.00     0.289 C 
HETATM   27  O7  UNL     1      92.428  44.043 270.949  1.00  0.00    -0.260 OA
BRANCH  26  28
HETATM   28  C26 UNL     1      92.493  44.593 273.238  1.00  0.00     0.009 C 
HETATM   29  C27 UNL     1      93.777  44.510 273.937  1.00  0.00     0.054 C 
HETATM   30  C28 UNL     1      91.619  45.516 273.602  1.00  0.00    -0.018 C 
HETATM   31  C29 UNL     1      91.955  46.398 274.740  1.00  0.00     0.036 C 
ENDBRANCH  26  28
ENDBRANCH  25  26
ENDBRANCH  17  25
BRANCH  13  32
HETATM   32  O5  UNL     1      92.250  40.352 270.978  1.00  0.00    -0.381 OA
ATOM     33  H5  UNL     1      92.237  41.077 270.365  1.00  0.00     0.211 HD
ENDBRANCH  13  32
BRANCH   7  34
HETATM   34  O4  UNL     1      89.413  43.174 274.828  1.00  0.00    -0.382 OA
ATOM     35  H4  UNL     1      90.352  43.312 274.802  1.00  0.00     0.211 HD
ENDBRANCH   7  34
BRANCH  12  36
HETATM   36  C17 UNL     1      90.146  38.141 270.958  1.00  0.00     0.009 C 
HETATM   37  C18 UNL     1      89.485  36.895 271.530  1.00  0.00     0.014 C 
HETATM   38  C19 UNL     1      89.249  38.515 269.819  1.00  0.00     0.014 C 
ENDBRANCH  12  36
TORSDOF 9
ENDMDL
MODEL 5
REMARK VINA RESULT: -5.670788652      1.899      4.994
REMARK  9 active torsions:
REMARK  status: ('A' for Active; 'I' for Inactive)
REMARK    1  A    between atoms: C3_3  and  C5_5 
REMARK    2  A    between atoms: C5_5  and  O2_7 
REMARK    3  A    between atoms: O2_7  and  C6_8 
REMARK    4  A    between atoms: C11_14  and  O4_16 
REMARK    5  A    between atoms: C16_21  and  C17_22 
REMARK    6  A    between atoms: C20_25  and  O5_26 
REMARK    7  A    between atoms: C24_31  and  O6_32 
REMARK    8  A    between atoms: O6_32  and  C25_33 
REMARK    9  A    between atoms: C25_33  and  C26_35 
ROOT
HETATM    1  C6  UNL     1      89.060  41.108 271.699  1.00  0.00     0.186 C 
HETATM    2  C7  UNL     1      89.690  39.742 271.713  1.00  0.00     0.046 C 
HETATM    3  C8  UNL     1      91.246  39.938 271.527  1.00  0.00     0.026 C 
HETATM    4  C9  UNL     1      89.707  38.899 272.904  1.00  0.00     0.026 C 
HETATM    5  C10 UNL     1      89.388  38.912 270.514  1.00  0.00     0.171 C 
HETATM    6  O3  UNL     1      90.180  38.160 269.970  1.00  0.00    -0.294 OA
HETATM    7  C11 UNL     1      88.025  38.931 269.843  1.00  0.00     0.122 C 
HETATM    8  C12 UNL     1      87.483  37.517 270.225  1.00  0.00     0.055 C 
HETATM    9  C13 UNL     1      87.282  39.889 270.627  1.00  0.00     0.077 C 
HETATM   10  C14 UNL     1      85.786  39.872 270.621  1.00  0.00     0.030 C 
HETATM   11  C15 UNL     1      85.423  39.738 272.062  1.00  0.00    -0.014 C 
HETATM   12  C16 UNL     1      85.929  40.836 272.638  1.00  0.00    -0.042 C 
HETATM   13  C20 UNL     1      86.509  41.721 271.602  1.00  0.00     0.124 C 
HETATM   14  C21 UNL     1      85.411  41.369 270.574  1.00  0.00    -0.002 C 
HETATM   15  C22 UNL     1      85.241  41.911 269.288  1.00  0.00     0.019 C 
HETATM   16  C23 UNL     1      84.068  41.574 271.321  1.00  0.00     0.019 C 
HETATM   17  C24 UNL     1      87.783  41.259 270.883  1.00  0.00     0.141 C 
ENDROOT
BRANCH   1  18
HETATM   18  O2  UNL     1      89.399  42.026 272.586  1.00  0.00    -0.308 OA
BRANCH  18  19
HETATM   19  C5  UNL     1      90.010  43.206 272.605  1.00  0.00     0.289 C 
HETATM   20  O1  UNL     1      89.156  44.042 272.943  1.00  0.00    -0.260 OA
BRANCH  19  21
HETATM   21  C3  UNL     1      91.354  43.631 272.328  1.00  0.00     0.009 C 
HETATM   22  C2  UNL     1      92.249  43.624 273.315  1.00  0.00    -0.018 C 
HETATM   23  C1  UNL     1      93.654  44.052 273.110  1.00  0.00     0.036 C 
HETATM   24  C4  UNL     1      91.846  44.094 271.005  1.00  0.00     0.054 C 
ENDBRANCH  19  21
ENDBRANCH  18  19
ENDBRANCH   1  18
BRANCH  17  25
HETATM   25  O6  UNL     1      87.834  42.272 270.005  1.00  0.00    -0.299 OA
BRANCH  25  26
HETATM   26  C25 UNL     1      88.545  42.817 269.034  1.00  0.00     0.289 C 
HETATM   27  O7  UNL     1      89.247  41.908 268.557  1.00  0.00    -0.260 OA
BRANCH  26  28
HETATM   28  C26 UNL     1      88.609  44.175 268.515  1.00  0.00     0.009 C 
HETATM   29  C27 UNL     1      87.405  45.007 268.486  1.00  0.00     0.054 C 
HETATM   30  C28 UNL     1      89.759  44.687 268.110  1.00  0.00    -0.018 C 
HETATM   31  C29 UNL     1      89.771  46.071 267.591  1.00  0.00     0.036 C 
ENDBRANCH  26  28
ENDBRANCH  25  26
ENDBRANCH  17  25
BRANCH  13  32
HETATM   32  O5  UNL     1      86.515  43.045 271.916  1.00  0.00    -0.381 OA
ATOM     33  H5  UNL     1      87.349  43.482 271.791  1.00  0.00     0.211 HD
ENDBRANCH  13  32
BRANCH   7  34
HETATM   34  O4  UNL     1      88.042  38.943 268.501  1.00  0.00    -0.382 OA
ATOM     35  H4  UNL     1      88.106  39.801 268.100  1.00  0.00     0.211 HD
ENDBRANCH   7  34
BRANCH  12  36
HETATM   36  C17 UNL     1      85.755  41.039 274.087  1.00  0.00     0.009 C 
HETATM   37  C18 UNL     1      84.892  39.969 274.741  1.00  0.00     0.014 C 
HETATM   38  C19 UNL     1      86.987  41.054 274.938  1.00  0.00     0.014 C 
ENDBRANCH  12  36
TORSDOF 9
ENDMDL
