MODEL 1
REMARK VINA RESULT: -6.886479881      0.000      0.000
REMARK  8 active torsions:
REMARK  status: ('A' for Active; 'I' for Inactive)
REMARK    1  A    between atoms: C2_2  and  C3_3 
REMARK    2  A    between atoms: C3_3  and  O1_4 
REMARK    3  A    between atoms: O1_4  and  N1_5 
REMARK    4  A    between atoms: C9_12  and  C10_13 
REMARK    5  A    between atoms: C10_13  and  O2_14 
REMARK    6  A    between atoms: C10_13  and  C13_18 
REMARK    7  A    between atoms: O2_14  and  C11_15 
REMARK    8  A    between atoms: C16_22  and  O5_23 
ROOT
HETATM    1  N1  UNL     1      87.365  45.933 264.787  1.00  0.00    -0.248 N 
ATOM      2  H1  UNL     1      86.485  46.422 264.626  1.00  0.00     0.196 HD
HETATM    3  C4  UNL     1      87.660  45.608 265.985  1.00  0.00     0.138 C 
HETATM    4  C5  UNL     1      86.829  45.881 267.185  1.00  0.00     0.087 C 
HETATM    5  C6  UNL     1      87.672  45.720 268.432  1.00  0.00     0.020 C 
HETATM    6  C7  UNL     1      88.251  44.301 268.516  1.00  0.00    -0.007 C 
HETATM    7  C8  UNL     1      87.093  43.347 268.824  1.00  0.00     0.020 C 
HETATM    8  C9  UNL     1      87.583  42.033 269.211  1.00  0.00     0.021 C 
HETATM    9  C17 UNL     1      88.476  42.236 270.445  1.00  0.00    -0.003 C 
HETATM   10  C18 UNL     1      87.986  43.178 271.459  1.00  0.00     0.006 C 
HETATM   11  C19 UNL     1      89.261  43.375 272.310  1.00  0.00     0.009 C 
HETATM   12  C20 UNL     1      90.412  43.105 271.364  1.00  0.00    -0.043 C 
HETATM   13  C21 UNL     1      90.982  41.741 271.773  1.00  0.00     0.015 C 
HETATM   14  C22 UNL     1      91.488  44.108 271.454  1.00  0.00     0.015 C 
HETATM   15  C23 UNL     1      89.778  42.930 270.018  1.00  0.00     0.003 C 
HETATM   16  C24 UNL     1      89.463  44.161 269.287  1.00  0.00     0.012 C 
HETATM   17  C25 UNL     1      90.282  44.278 268.015  1.00  0.00    -0.015 C 
HETATM   18  C26 UNL     1      90.881  45.616 267.745  1.00  0.00     0.018 C 
HETATM   19  C27 UNL     1      91.252  43.174 267.744  1.00  0.00     0.018 C 
HETATM   20  C28 UNL     1      88.978  43.988 267.257  1.00  0.00     0.147 C 
HETATM   21  O6  UNL     1      88.848  44.943 266.227  1.00  0.00    -0.331 OA
ENDROOT
BRANCH   8  22
HETATM   22  C10 UNL     1      86.834  40.817 269.327  1.00  0.00     0.151 C 
BRANCH  22  23
HETATM   23  O2  UNL     1      87.570  39.819 270.041  1.00  0.00    -0.315 OA
BRANCH  23  24
HETATM   24  C11 UNL     1      88.463  38.938 269.495  1.00  0.00     0.255 C 
HETATM   25  C12 UNL     1      89.837  38.717 270.007  1.00  0.00     0.126 C 
HETATM   26  O3  UNL     1      88.112  38.263 268.494  1.00  0.00    -0.266 OA
ENDBRANCH  23  24
ENDBRANCH  22  23
BRANCH  22  27
HETATM   27  C13 UNL     1      85.472  40.679 269.808  1.00  0.00     0.054 C 
HETATM   28  C14 UNL     1      84.869  39.359 269.287  1.00  0.00     0.025 C 
HETATM   29  C15 UNL     1      84.468  41.736 269.788  1.00  0.00     0.187 C 
HETATM   30  O4  UNL     1      84.744  42.055 271.153  1.00  0.00    -0.359 OA
HETATM   31  C16 UNL     1      85.106  40.709 271.261  1.00  0.00     0.269 C 
BRANCH  31  32
HETATM   32  O5  UNL     1      85.989  40.318 272.202  1.00  0.00    -0.370 OA
ATOM     33  H5  UNL     1      86.313  40.934 272.849  1.00  0.00     0.212 HD
ENDBRANCH  31  32
ENDBRANCH  22  27
ENDBRANCH   8  22
BRANCH   1  34
HETATM   34  O1  UNL     1      88.145  45.668 263.724  1.00  0.00    -0.279 OA
BRANCH  34  35
HETATM   35  C3  UNL     1      88.551  46.511 262.698  1.00  0.00     0.201 C 
BRANCH  35  36
HETATM   36  C2  UNL     1      90.083  46.488 262.689  1.00  0.00     0.024 C 
HETATM   37  C1  UNL     1      90.593  47.108 263.980  1.00  0.00     0.007 C 
ENDBRANCH  35  36
ENDBRANCH  34  35
ENDBRANCH   1  34
TORSDOF 8
ENDMDL
MODEL 2
REMARK VINA RESULT: -6.878193292      3.436      6.271
REMARK  8 active torsions:
REMARK  status: ('A' for Active; 'I' for Inactive)
REMARK    1  A    between atoms: C2_2  and  C3_3 
REMARK    2  A    between atoms: C3_3  and  O1_4 
REMARK    3  A    between atoms: O1_4  and  N1_5 
REMARK    4  A    between atoms: C9_12  and  C10_13 
REMARK    5  A    between atoms: C10_13  and  O2_14 
REMARK    6  A    between atoms: C10_13  and  C13_18 
REMARK    7  A    between atoms: O2_14  and  C11_15 
REMARK    8  A    between atoms: C16_22  and  O5_23 
ROOT
HETATM    1  N1  UNL     1      84.385  48.875 267.808  1.00  0.00    -0.248 N 
ATOM      2  H1  UNL     1      84.799  49.502 267.118  1.00  0.00     0.196 HD
HETATM    3  C4  UNL     1      84.628  47.626 267.704  1.00  0.00     0.138 C 
HETATM    4  C5  UNL     1      85.468  46.992 266.657  1.00  0.00     0.087 C 
HETATM    5  C6  UNL     1      85.193  45.504 266.620  1.00  0.00     0.020 C 
HETATM    6  C7  UNL     1      85.492  44.862 267.982  1.00  0.00    -0.007 C 
HETATM    7  C8  UNL     1      87.012  44.872 268.173  1.00  0.00     0.020 C 
HETATM    8  C9  UNL     1      87.407  44.027 269.289  1.00  0.00     0.021 C 
HETATM    9  C17 UNL     1      86.896  42.611 268.979  1.00  0.00    -0.003 C 
HETATM   10  C18 UNL     1      87.060  42.146 267.596  1.00  0.00     0.006 C 
HETATM   11  C19 UNL     1      86.145  40.901 267.601  1.00  0.00     0.009 C 
HETATM   12  C20 UNL     1      85.109  41.176 268.670  1.00  0.00    -0.043 C 
HETATM   13  C21 UNL     1      85.471  40.267 269.851  1.00  0.00     0.015 C 
HETATM   14  C22 UNL     1      83.733  40.865 268.244  1.00  0.00     0.015 C 
HETATM   15  C23 UNL     1      85.366  42.586 269.107  1.00  0.00     0.003 C 
HETATM   16  C24 UNL     1      84.784  43.639 268.270  1.00  0.00     0.012 C 
HETATM   17  C25 UNL     1      83.730  44.429 269.022  1.00  0.00    -0.015 C 
HETATM   18  C26 UNL     1      82.470  44.712 268.276  1.00  0.00     0.018 C 
HETATM   19  C27 UNL     1      83.455  44.003 270.428  1.00  0.00     0.018 C 
HETATM   20  C28 UNL     1      84.742  45.584 269.044  1.00  0.00     0.147 C 
HETATM   21  O6  UNL     1      84.078  46.757 268.628  1.00  0.00    -0.331 OA
ENDROOT
BRANCH   8  22
HETATM   22  C10 UNL     1      88.684  43.970 269.938  1.00  0.00     0.151 C 
BRANCH  22  23
HETATM   23  O2  UNL     1      88.683  43.018 271.005  1.00  0.00    -0.315 OA
BRANCH  23  24
HETATM   24  C11 UNL     1      88.168  43.218 272.256  1.00  0.00     0.255 C 
HETATM   25  C12 UNL     1      86.908  42.607 272.748  1.00  0.00     0.126 C 
HETATM   26  O3  UNL     1      88.790  43.963 273.055  1.00  0.00    -0.266 OA
ENDBRANCH  23  24
ENDBRANCH  22  23
BRANCH  22  27
HETATM   27  C13 UNL     1      89.975  43.800 269.298  1.00  0.00     0.054 C 
HETATM   28  C14 UNL     1      91.092  44.271 270.251  1.00  0.00     0.025 C 
HETATM   29  C15 UNL     1      90.285  44.185 267.926  1.00  0.00     0.187 C 
HETATM   30  O4  UNL     1      90.069  42.847 267.477  1.00  0.00    -0.359 OA
HETATM   31  C16 UNL     1      90.464  42.486 268.770  1.00  0.00     0.269 C 
BRANCH  31  32
HETATM   32  O5  UNL     1      90.039  41.325 269.309  1.00  0.00    -0.370 OA
ATOM     33  H5  UNL     1      89.948  41.233 270.250  1.00  0.00     0.212 HD
ENDBRANCH  31  32
ENDBRANCH  22  27
ENDBRANCH   8  22
BRANCH   1  34
HETATM   34  O1  UNL     1      83.617  49.412 268.772  1.00  0.00    -0.279 OA
BRANCH  34  35
HETATM   35  C3  UNL     1      83.150  50.714 268.903  1.00  0.00     0.201 C 
BRANCH  35  36
HETATM   36  C2  UNL     1      82.126  50.702 270.042  1.00  0.00     0.024 C 
HETATM   37  C1  UNL     1      80.894  51.477 269.607  1.00  0.00     0.007 C 
ENDBRANCH  35  36
ENDBRANCH  34  35
ENDBRANCH   1  34
TORSDOF 8
ENDMDL
MODEL 3
REMARK VINA RESULT: -6.719896203      4.034      6.573
REMARK  8 active torsions:
REMARK  status: ('A' for Active; 'I' for Inactive)
REMARK    1  A    between atoms: C2_2  and  C3_3 
REMARK    2  A    between atoms: C3_3  and  O1_4 
REMARK    3  A    between atoms: O1_4  and  N1_5 
REMARK    4  A    between atoms: C9_12  and  C10_13 
REMARK    5  A    between atoms: C10_13  and  O2_14 
REMARK    6  A    between atoms: C10_13  and  C13_18 
REMARK    7  A    between atoms: O2_14  and  C11_15 
REMARK    8  A    between atoms: C16_22  and  O5_23 
ROOT
HETATM    1  N1  UNL     1      90.350  45.613 267.649  1.00  0.00    -0.248 N 
ATOM      2  H1  UNL     1      91.072  45.796 266.951  1.00  0.00     0.196 HD
HETATM    3  C4  UNL     1      90.562  44.689 268.503  1.00  0.00     0.138 C 
HETATM    4  C5  UNL     1      91.778  43.841 268.576  1.00  0.00     0.087 C 
HETATM    5  C6  UNL     1      91.496  42.623 269.431  1.00  0.00     0.020 C 
HETATM    6  C7  UNL     1      91.070  43.040 270.845  1.00  0.00    -0.007 C 
HETATM    7  C8  UNL     1      92.305  43.610 271.550  1.00  0.00     0.020 C 
HETATM    8  C9  UNL     1      92.074  43.756 272.979  1.00  0.00     0.021 C 
HETATM    9  C17 UNL     1      91.721  42.362 273.519  1.00  0.00    -0.003 C 
HETATM   10  C18 UNL     1      92.517  41.241 273.003  1.00  0.00     0.006 C 
HETATM   11  C19 UNL     1      91.665  40.042 273.476  1.00  0.00     0.009 C 
HETATM   12  C20 UNL     1      90.252  40.577 273.578  1.00  0.00    -0.043 C 
HETATM   13  C21 UNL     1      89.958  40.704 275.078  1.00  0.00     0.015 C 
HETATM   14  C22 UNL     1      89.245  39.685 272.978  1.00  0.00     0.015 C 
HETATM   15  C23 UNL     1      90.321  41.967 273.025  1.00  0.00     0.003 C 
HETATM   16  C24 UNL     1      90.262  42.086 271.566  1.00  0.00     0.012 C 
HETATM   17  C25 UNL     1      89.008  42.813 271.117  1.00  0.00    -0.015 C 
HETATM   18  C26 UNL     1      88.282  42.210 269.963  1.00  0.00     0.018 C 
HETATM   19  C27 UNL     1      88.068  43.247 272.194  1.00  0.00     0.018 C 
HETATM   20  C28 UNL     1      89.928  43.989 270.758  1.00  0.00     0.147 C 
HETATM   21  O6  UNL     1      89.598  44.424 269.458  1.00  0.00    -0.331 OA
ENDROOT
BRANCH   8  22
HETATM   22  C10 UNL     1      92.871  44.477 273.927  1.00  0.00     0.151 C 
BRANCH  22  23
HETATM   23  O2  UNL     1      94.193  44.703 273.430  1.00  0.00    -0.315 OA
BRANCH  23  24
HETATM   24  C11 UNL     1      95.317  44.017 273.802  1.00  0.00     0.255 C 
HETATM   25  C12 UNL     1      96.608  44.072 273.073  1.00  0.00     0.126 C 
HETATM   26  O3  UNL     1      95.271  43.290 274.826  1.00  0.00    -0.266 OA
ENDBRANCH  23  24
ENDBRANCH  22  23
BRANCH  22  27
HETATM   27  C13 UNL     1      92.517  45.714 274.596  1.00  0.00     0.054 C 
HETATM   28  C14 UNL     1      91.505  46.498 273.737  1.00  0.00     0.025 C 
HETATM   29  C15 UNL     1      93.467  46.629 275.220  1.00  0.00     0.187 C 
HETATM   30  O4  UNL     1      93.215  46.053 276.502  1.00  0.00    -0.359 OA
HETATM   31  C16 UNL     1      91.949  45.766 275.983  1.00  0.00     0.269 C 
BRANCH  31  32
HETATM   32  O5  UNL     1      91.234  44.733 276.473  1.00  0.00    -0.370 OA
ATOM     33  H5  UNL     1      91.156  44.599 277.411  1.00  0.00     0.212 HD
ENDBRANCH  31  32
ENDBRANCH  22  27
ENDBRANCH   8  22
BRANCH   1  34
HETATM   34  O1  UNL     1      89.233  46.361 267.614  1.00  0.00    -0.279 OA
BRANCH  34  35
HETATM   35  C3  UNL     1      88.730  47.146 266.584  1.00  0.00     0.201 C 
BRANCH  35  36
HETATM   36  C2  UNL     1      89.916  47.496 265.679  1.00  0.00     0.024 C 
HETATM   37  C1  UNL     1      89.645  46.960 264.283  1.00  0.00     0.007 C 
ENDBRANCH  35  36
ENDBRANCH  34  35
ENDBRANCH   1  34
TORSDOF 8
ENDMDL
MODEL 4
REMARK VINA RESULT: -6.587436719      2.672      7.684
REMARK  8 active torsions:
REMARK  status: ('A' for Active; 'I' for Inactive)
REMARK    1  A    between atoms: C2_2  and  C3_3 
REMARK    2  A    between atoms: C3_3  and  O1_4 
REMARK    3  A    between atoms: O1_4  and  N1_5 
REMARK    4  A    between atoms: C9_12  and  C10_13 
REMARK    5  A    between atoms: C10_13  and  O2_14 
REMARK    6  A    between atoms: C10_13  and  C13_18 
REMARK    7  A    between atoms: O2_14  and  C11_15 
REMARK    8  A    between atoms: C16_22  and  O5_23 
ROOT
HETATM    1  N1  UNL     1      91.529  41.968 269.509  1.00  0.00    -0.248 N 
ATOM      2  H1  UNL     1      92.423  42.263 269.903  1.00  0.00     0.196 HD
HETATM    3  C4  UNL     1      90.631  42.856 269.328  1.00  0.00     0.138 C 
HETATM    4  C5  UNL     1      90.769  44.301 269.640  1.00  0.00     0.087 C 
HETATM    5  C6  UNL     1      89.399  44.945 269.673  1.00  0.00     0.020 C 
HETATM    6  C7  UNL     1      88.686  44.773 268.324  1.00  0.00    -0.007 C 
HETATM    7  C8  UNL     1      89.401  45.666 267.306  1.00  0.00     0.020 C 
HETATM    8  C9  UNL     1      88.624  45.796 266.084  1.00  0.00     0.021 C 
HETATM    9  C17 UNL     1      87.264  46.388 266.480  1.00  0.00    -0.003 C 
HETATM   10  C18 UNL     1      87.287  47.475 267.468  1.00  0.00     0.006 C 
HETATM   11  C19 UNL     1      85.793  47.543 267.856  1.00  0.00     0.009 C 
HETATM   12  C20 UNL     1      85.253  46.152 267.600  1.00  0.00    -0.043 C 
HETATM   13  C21 UNL     1      84.391  46.260 266.336  1.00  0.00     0.015 C 
HETATM   14  C22 UNL     1      84.414  45.640 268.697  1.00  0.00     0.015 C 
HETATM   15  C23 UNL     1      86.453  45.329 267.242  1.00  0.00     0.003 C 
HETATM   16  C24 UNL     1      87.244  44.817 268.365  1.00  0.00     0.012 C 
HETATM   17  C25 UNL     1      87.202  43.302 268.431  1.00  0.00    -0.015 C 
HETATM   18  C26 UNL     1      86.992  42.713 269.785  1.00  0.00     0.018 C 
HETATM   19  C27 UNL     1      86.373  42.613 267.396  1.00  0.00     0.018 C 
HETATM   20  C28 UNL     1      88.662  43.331 267.958  1.00  0.00     0.147 C 
HETATM   21  O6  UNL     1      89.412  42.479 268.796  1.00  0.00    -0.331 OA
ENDROOT
BRANCH   8  22
HETATM   22  C10 UNL     1      89.055  46.324 264.823  1.00  0.00     0.151 C 
BRANCH  22  23
HETATM   23  O2  UNL     1      90.481  46.359 264.733  1.00  0.00    -0.315 OA
BRANCH  23  24
HETATM   24  C11 UNL     1      91.307  47.205 265.422  1.00  0.00     0.255 C 
HETATM   25  C12 UNL     1      90.929  48.573 265.854  1.00  0.00     0.126 C 
HETATM   26  O3  UNL     1      92.465  46.814 265.716  1.00  0.00    -0.266 OA
ENDBRANCH  23  24
ENDBRANCH  22  23
BRANCH  22  27
HETATM   27  C13 UNL     1      88.617  45.895 263.508  1.00  0.00     0.054 C 
HETATM   28  C14 UNL     1      87.157  46.332 263.278  1.00  0.00     0.025 C 
HETATM   29  C15 UNL     1      88.843  44.569 262.943  1.00  0.00     0.187 C 
HETATM   30  O4  UNL     1      89.987  45.043 262.230  1.00  0.00    -0.359 OA
HETATM   31  C16 UNL     1      89.324  46.275 262.242  1.00  0.00     0.269 C 
BRANCH  31  32
HETATM   32  O5  UNL     1      90.028  47.423 262.163  1.00  0.00    -0.370 OA
ATOM     33  H5  UNL     1      90.954  47.439 262.376  1.00  0.00     0.212 HD
ENDBRANCH  31  32
ENDBRANCH  22  27
ENDBRANCH   8  22
BRANCH   1  34
HETATM   34  O1  UNL     1      91.367  40.666 269.214  1.00  0.00    -0.279 OA
BRANCH  34  35
HETATM   35  C3  UNL     1      91.175  39.586 270.067  1.00  0.00     0.201 C 
BRANCH  35  36
HETATM   36  C2  UNL     1      89.673  39.284 270.062  1.00  0.00     0.024 C 
HETATM   37  C1  UNL     1      89.038  39.919 271.288  1.00  0.00     0.007 C 
ENDBRANCH  35  36
ENDBRANCH  34  35
ENDBRANCH   1  34
TORSDOF 8
ENDMDL
MODEL 5
REMARK VINA RESULT: -6.579256656      0.997      2.417
REMARK  8 active torsions:
REMARK  status: ('A' for Active; 'I' for Inactive)
REMARK    1  A    between atoms: C2_2  and  C3_3 
REMARK    2  A    between atoms: C3_3  and  O1_4 
REMARK    3  A    between atoms: O1_4  and  N1_5 
REMARK    4  A    between atoms: C9_12  and  C10_13 
REMARK    5  A    between atoms: C10_13  and  O2_14 
REMARK    6  A    between atoms: C10_13  and  C13_18 
REMARK    7  A    between atoms: O2_14  and  C11_15 
REMARK    8  A    between atoms: C16_22  and  O5_23 
ROOT
HETATM    1  N1  UNL     1      87.332  45.972 264.749  1.00  0.00    -0.248 N 
ATOM      2  H1  UNL     1      86.505  46.538 264.556  1.00  0.00     0.196 HD
HETATM    3  C4  UNL     1      87.563  45.642 265.960  1.00  0.00     0.138 C 
HETATM    4  C5  UNL     1      86.730  46.012 267.132  1.00  0.00     0.087 C 
HETATM    5  C6  UNL     1      87.521  45.795 268.404  1.00  0.00     0.020 C 
HETATM    6  C7  UNL     1      87.963  44.330 268.526  1.00  0.00    -0.007 C 
HETATM    7  C8  UNL     1      86.714  43.493 268.815  1.00  0.00     0.020 C 
HETATM    8  C9  UNL     1      87.069  42.147 269.235  1.00  0.00     0.021 C 
HETATM    9  C17 UNL     1      87.944  42.287 270.490  1.00  0.00    -0.003 C 
HETATM   10  C18 UNL     1      87.516  43.288 271.476  1.00  0.00     0.006 C 
HETATM   11  C19 UNL     1      88.781  43.381 272.359  1.00  0.00     0.009 C 
HETATM   12  C20 UNL     1      89.927  42.990 271.450  1.00  0.00    -0.043 C 
HETATM   13  C21 UNL     1      90.357  41.586 271.895  1.00  0.00     0.015 C 
HETATM   14  C22 UNL     1      91.089  43.890 271.555  1.00  0.00     0.015 C 
HETATM   15  C23 UNL     1      89.315  42.851 270.090  1.00  0.00     0.003 C 
HETATM   16  C24 UNL     1      89.136  44.092 269.332  1.00  0.00     0.012 C 
HETATM   17  C25 UNL     1      89.996  44.111 268.082  1.00  0.00    -0.015 C 
HETATM   18  C26 UNL     1      90.724  45.383 267.809  1.00  0.00     0.018 C 
HETATM   19  C27 UNL     1      90.866  42.917 267.854  1.00  0.00     0.018 C 
HETATM   20  C28 UNL     1      88.691  43.930 267.292  1.00  0.00     0.147 C 
HETATM   21  O6  UNL     1      88.678  44.875 266.245  1.00  0.00    -0.331 OA
ENDROOT
BRANCH   8  22
HETATM   22  C10 UNL     1      86.207  41.007 269.348  1.00  0.00     0.151 C 
BRANCH  22  23
HETATM   23  O2  UNL     1      84.838  41.400 269.474  1.00  0.00    -0.315 OA
BRANCH  23  24
HETATM   24  C11 UNL     1      84.186  41.665 270.647  1.00  0.00     0.255 C 
HETATM   25  C12 UNL     1      84.215  40.781 271.838  1.00  0.00     0.126 C 
HETATM   26  O3  UNL     1      83.514  42.724 270.740  1.00  0.00    -0.266 OA
ENDBRANCH  23  24
ENDBRANCH  22  23
BRANCH  22  27
HETATM   27  C13 UNL     1      86.175  39.853 268.469  1.00  0.00     0.054 C 
HETATM   28  C14 UNL     1      86.226  40.318 266.999  1.00  0.00     0.025 C 
HETATM   29  C15 UNL     1      85.268  38.720 268.609  1.00  0.00     0.187 C 
HETATM   30  O4  UNL     1      86.274  37.969 269.291  1.00  0.00    -0.359 OA
HETATM   31  C16 UNL     1      87.172  38.736 268.542  1.00  0.00     0.269 C 
BRANCH  31  32
HETATM   32  O5  UNL     1      88.421  38.956 269.000  1.00  0.00    -0.370 OA
ATOM     33  H5  UNL     1      89.151  39.043 268.398  1.00  0.00     0.212 HD
ENDBRANCH  31  32
ENDBRANCH  22  27
ENDBRANCH   8  22
BRANCH   1  34
HETATM   34  O1  UNL     1      88.112  45.618 263.713  1.00  0.00    -0.279 OA
BRANCH  34  35
HETATM   35  C3  UNL     1      88.567  46.387 262.650  1.00  0.00     0.201 C 
BRANCH  35  36
HETATM   36  C2  UNL     1      90.098  46.365 262.715  1.00  0.00     0.024 C 
HETATM   37  C1  UNL     1      90.549  47.106 263.963  1.00  0.00     0.007 C 
ENDBRANCH  35  36
ENDBRANCH  34  35
ENDBRANCH   1  34
TORSDOF 8
ENDMDL
