MODEL 1
REMARK VINA RESULT: -7.352403949      0.000      0.000
REMARK  8 active torsions:
REMARK  status: ('A' for Active; 'I' for Inactive)
REMARK    1  A    between atoms: C2_2  and  C3_3 
REMARK    2  A    between atoms: C3_3  and  C4_4 
REMARK    3  A    between atoms: C4_4  and  C5_5 
REMARK    4  A    between atoms: C5_5  and  O1_6 
REMARK    5  A    between atoms: C19_23  and  O4_24 
REMARK    6  A    between atoms: O4_24  and  C20_25 
REMARK    7  A    between atoms: C20_25  and  C21_27 
REMARK    8  A    between atoms: C25_31  and  O6_32 
ROOT
HETATM    1  C5  UNL     1      88.805  42.834 269.495  1.00  0.00     0.071 C 
HETATM    2  C6  UNL     1      88.274  41.431 269.666  1.00  0.00     0.017 C 
HETATM    3  C7  UNL     1      89.350  40.448 270.115  1.00  0.00     0.013 C 
HETATM    4  C8  UNL     1      87.218  41.383 270.781  1.00  0.00     0.007 C 
HETATM    5  C9  UNL     1      85.877  41.493 270.147  1.00  0.00     0.005 C 
HETATM    6  C10 UNL     1      84.747  41.719 271.093  1.00  0.00    -0.009 C 
HETATM    7  C11 UNL     1      83.737  40.604 270.910  1.00  0.00     0.010 C 
HETATM    8  C12 UNL     1      84.105  43.089 270.869  1.00  0.00     0.115 C 
HETATM    9  C13 UNL     1      83.376  43.140 269.572  1.00  0.00     0.259 C 
HETATM   10  O2  UNL     1      82.341  42.416 269.514  1.00  0.00    -0.265 OA
HETATM   11  O3  UNL     1      83.853  43.930 268.574  1.00  0.00    -0.316 OA
HETATM   12  C14 UNL     1      84.058  45.293 268.504  1.00  0.00     0.135 C 
HETATM   13  C15 UNL     1      83.282  46.094 269.534  1.00  0.00     0.040 C 
HETATM   14  C16 UNL     1      85.480  45.758 268.576  1.00  0.00     0.059 C 
HETATM   15  C17 UNL     1      85.543  47.230 268.255  1.00  0.00     0.013 C 
HETATM   16  C18 UNL     1      86.670  47.366 267.220  1.00  0.00     0.036 C 
HETATM   17  C19 UNL     1      86.581  46.068 266.519  1.00  0.00     0.174 C 
HETATM   18  C25 UNL     1      86.412  45.058 267.605  1.00  0.00     0.151 C 
HETATM   19  C26 UNL     1      87.665  44.675 268.269  1.00  0.00     0.170 C 
HETATM   20  O7  UNL     1      88.108  45.542 269.046  1.00  0.00    -0.294 OA
HETATM   21  C27 UNL     1      88.462  43.459 268.165  1.00  0.00     0.089 C 
HETATM   22  C28 UNL     1      88.021  42.479 267.122  1.00  0.00     0.021 C 
ENDROOT
BRANCH  17  23
HETATM   23  O4  UNL     1      87.646  45.784 265.646  1.00  0.00    -0.309 OA
BRANCH  23  24
HETATM   24  C20 UNL     1      87.673  46.216 264.322  1.00  0.00     0.283 C 
HETATM   25  O5  UNL     1      86.568  46.191 263.732  1.00  0.00    -0.260 OA
BRANCH  24  26
HETATM   26  C21 UNL     1      88.922  46.662 263.698  1.00  0.00     0.084 C 
HETATM   27  C22 UNL     1      89.592  45.922 262.845  1.00  0.00    -0.082 C 
HETATM   28  C23 UNL     1      89.132  44.573 262.448  1.00  0.00     0.043 C 
HETATM   29  C24 UNL     1      90.850  46.441 262.255  1.00  0.00     0.043 C 
ENDBRANCH  24  26
ENDBRANCH  23  24
ENDBRANCH  17  23
BRANCH  18  30
HETATM   30  O6  UNL     1      85.680  44.005 267.075  1.00  0.00    -0.379 OA
ATOM     31  H6  UNL     1      85.653  44.157 266.138  1.00  0.00     0.211 HD
ENDBRANCH  18  30
BRANCH   1  32
HETATM   32  C4  UNL     1      90.279  42.845 269.819  1.00  0.00     0.039 C 
BRANCH  32  33
HETATM   33  C3  UNL     1      91.139  43.398 268.708  1.00  0.00     0.002 C 
BRANCH  33  34
HETATM   34  C2  UNL     1      91.646  44.769 269.154  1.00  0.00    -0.004 C 
HETATM   35  C1  UNL     1      91.513  45.720 267.984  1.00  0.00     0.005 C 
ENDBRANCH  33  34
ENDBRANCH  32  33
ENDBRANCH   1  32
BRANCH   1  36
HETATM   36  O1  UNL     1      88.215  43.662 270.486  1.00  0.00    -0.389 OA
ATOM     37  H1  UNL     1      87.302  43.723 270.233  1.00  0.00     0.210 HD
ENDBRANCH   1  36
TORSDOF 8
ENDMDL
MODEL 2
REMARK VINA RESULT: -7.252033777      2.276      3.355
REMARK  8 active torsions:
REMARK  status: ('A' for Active; 'I' for Inactive)
REMARK    1  A    between atoms: C2_2  and  C3_3 
REMARK    2  A    between atoms: C3_3  and  C4_4 
REMARK    3  A    between atoms: C4_4  and  C5_5 
REMARK    4  A    between atoms: C5_5  and  O1_6 
REMARK    5  A    between atoms: C19_23  and  O4_24 
REMARK    6  A    between atoms: O4_24  and  C20_25 
REMARK    7  A    between atoms: C20_25  and  C21_27 
REMARK    8  A    between atoms: C25_31  and  O6_32 
ROOT
HETATM    1  C5  UNL     1      90.718  42.600 270.571  1.00  0.00     0.071 C 
HETATM    2  C6  UNL     1      91.156  41.166 270.403  1.00  0.00     0.017 C 
HETATM    3  C7  UNL     1      92.401  40.833 271.217  1.00  0.00     0.013 C 
HETATM    4  C8  UNL     1      90.080  40.204 270.932  1.00  0.00     0.007 C 
HETATM    5  C9  UNL     1      89.245  39.772 269.780  1.00  0.00     0.005 C 
HETATM    6  C10 UNL     1      87.998  39.039 270.142  1.00  0.00    -0.009 C 
HETATM    7  C11 UNL     1      88.022  37.685 269.462  1.00  0.00     0.010 C 
HETATM    8  C12 UNL     1      86.754  39.835 269.744  1.00  0.00     0.115 C 
HETATM    9  C13 UNL     1      86.601  39.897 268.264  1.00  0.00     0.259 C 
HETATM   10  O2  UNL     1      86.326  38.795 267.711  1.00  0.00    -0.265 OA
HETATM   11  O3  UNL     1      86.763  41.089 267.631  1.00  0.00    -0.316 OA
HETATM   12  C14 UNL     1      86.085  42.285 267.743  1.00  0.00     0.135 C 
HETATM   13  C15 UNL     1      84.709  42.165 268.374  1.00  0.00     0.040 C 
HETATM   14  C16 UNL     1      86.795  43.389 268.464  1.00  0.00     0.059 C 
HETATM   15  C17 UNL     1      86.025  44.675 268.297  1.00  0.00     0.013 C 
HETATM   16  C18 UNL     1      87.071  45.717 267.876  1.00  0.00     0.036 C 
HETATM   17  C19 UNL     1      88.032  44.880 267.129  1.00  0.00     0.174 C 
HETATM   18  C25 UNL     1      88.202  43.654 267.963  1.00  0.00     0.151 C 
HETATM   19  C26 UNL     1      89.134  43.816 269.086  1.00  0.00     0.170 C 
HETATM   20  O7  UNL     1      88.672  44.483 270.031  1.00  0.00    -0.294 OA
HETATM   21  C27 UNL     1      90.496  43.329 269.269  1.00  0.00     0.089 C 
HETATM   22  C28 UNL     1      91.112  42.660 268.079  1.00  0.00     0.021 C 
ENDROOT
BRANCH  17  23
HETATM   23  O4  UNL     1      89.246  45.510 266.799  1.00  0.00    -0.309 OA
BRANCH  23  24
HETATM   24  C20 UNL     1      89.312  46.663 266.020  1.00  0.00     0.283 C 
HETATM   25  O5  UNL     1      89.026  47.726 266.618  1.00  0.00    -0.260 OA
BRANCH  24  26
HETATM   26  C21 UNL     1      89.692  46.599 264.606  1.00  0.00     0.084 C 
HETATM   27  C22 UNL     1      88.814  46.461 263.640  1.00  0.00    -0.082 C 
HETATM   28  C23 UNL     1      87.362  46.358 263.911  1.00  0.00     0.043 C 
HETATM   29  C24 UNL     1      89.275  46.403 262.232  1.00  0.00     0.043 C 
ENDBRANCH  24  26
ENDBRANCH  23  24
ENDBRANCH  17  23
BRANCH  18  30
HETATM   30  O6  UNL     1      88.496  42.608 267.100  1.00  0.00    -0.379 OA
ATOM     31  H6  UNL     1      89.357  42.800 266.747  1.00  0.00     0.211 HD
ENDBRANCH  18  30
BRANCH   1  32
HETATM   32  C4  UNL     1      91.669  43.298 271.513  1.00  0.00     0.039 C 
BRANCH  32  33
HETATM   33  C3  UNL     1      90.977  44.080 272.604  1.00  0.00     0.002 C 
BRANCH  33  34
HETATM   34  C2  UNL     1      92.049  44.857 273.367  1.00  0.00    -0.004 C 
HETATM   35  C1  UNL     1      93.358  44.108 273.225  1.00  0.00     0.005 C 
ENDBRANCH  33  34
ENDBRANCH  32  33
ENDBRANCH   1  32
BRANCH   1  36
HETATM   36  O1  UNL     1      89.471  42.613 271.250  1.00  0.00    -0.389 OA
ATOM     37  H1  UNL     1      89.645  42.178 272.077  1.00  0.00     0.210 HD
ENDBRANCH   1  36
TORSDOF 8
ENDMDL
MODEL 3
REMARK VINA RESULT: -7.216509927      2.504      3.737
REMARK  8 active torsions:
REMARK  status: ('A' for Active; 'I' for Inactive)
REMARK    1  A    between atoms: C2_2  and  C3_3 
REMARK    2  A    between atoms: C3_3  and  C4_4 
REMARK    3  A    between atoms: C4_4  and  C5_5 
REMARK    4  A    between atoms: C5_5  and  O1_6 
REMARK    5  A    between atoms: C19_23  and  O4_24 
REMARK    6  A    between atoms: O4_24  and  C20_25 
REMARK    7  A    between atoms: C20_25  and  C21_27 
REMARK    8  A    between atoms: C25_31  and  O6_32 
ROOT
HETATM    1  C5  UNL     1      90.578  42.146 270.798  1.00  0.00     0.071 C 
HETATM    2  C6  UNL     1      91.050  40.741 270.511  1.00  0.00     0.017 C 
HETATM    3  C7  UNL     1      92.284  40.360 271.322  1.00  0.00     0.013 C 
HETATM    4  C8  UNL     1      89.984  39.715 270.926  1.00  0.00     0.007 C 
HETATM    5  C9  UNL     1      89.184  39.373 269.720  1.00  0.00     0.005 C 
HETATM    6  C10 UNL     1      87.945  38.586 269.985  1.00  0.00    -0.009 C 
HETATM    7  C11 UNL     1      88.013  37.300 269.187  1.00  0.00     0.010 C 
HETATM    8  C12 UNL     1      86.693  39.390 269.631  1.00  0.00     0.115 C 
HETATM    9  C13 UNL     1      86.572  39.583 268.160  1.00  0.00     0.259 C 
HETATM   10  O2  UNL     1      86.332  38.530 267.503  1.00  0.00    -0.265 OA
HETATM   11  O3  UNL     1      86.722  40.830 267.640  1.00  0.00    -0.316 OA
HETATM   12  C14 UNL     1      86.015  41.998 267.844  1.00  0.00     0.135 C 
HETATM   13  C15 UNL     1      84.629  41.795 268.428  1.00  0.00     0.040 C 
HETATM   14  C16 UNL     1      86.686  43.046 268.678  1.00  0.00     0.059 C 
HETATM   15  C17 UNL     1      85.892  44.327 268.610  1.00  0.00     0.013 C 
HETATM   16  C18 UNL     1      86.924  45.423 268.309  1.00  0.00     0.036 C 
HETATM   17  C19 UNL     1      87.920  44.676 267.512  1.00  0.00     0.174 C 
HETATM   18  C25 UNL     1      88.097  43.382 268.236  1.00  0.00     0.151 C 
HETATM   19  C26 UNL     1      89.001  43.461 269.391  1.00  0.00     0.170 C 
HETATM   20  O7  UNL     1      88.504  44.030 270.382  1.00  0.00    -0.294 OA
HETATM   21  C27 UNL     1      90.369  42.985 269.562  1.00  0.00     0.089 C 
HETATM   22  C28 UNL     1      91.025  42.439 268.331  1.00  0.00     0.021 C 
ENDROOT
BRANCH  17  23
HETATM   23  O4  UNL     1      89.126  45.356 267.269  1.00  0.00    -0.309 OA
BRANCH  23  24
HETATM   24  C20 UNL     1      89.271  46.299 266.254  1.00  0.00     0.283 C 
HETATM   25  O5  UNL     1      88.977  45.893 265.106  1.00  0.00    -0.260 OA
BRANCH  24  26
HETATM   26  C21 UNL     1      89.736  47.658 266.545  1.00  0.00     0.084 C 
HETATM   27  C22 UNL     1      91.008  47.969 266.634  1.00  0.00    -0.082 C 
HETATM   28  C23 UNL     1      92.075  46.962 266.445  1.00  0.00     0.043 C 
HETATM   29  C24 UNL     1      91.402  49.367 266.933  1.00  0.00     0.043 C 
ENDBRANCH  24  26
ENDBRANCH  23  24
ENDBRANCH  17  23
BRANCH  18  30
HETATM   30  O6  UNL     1      88.433  42.425 267.289  1.00  0.00    -0.379 OA
ATOM     31  H6  UNL     1      88.774  42.908 266.546  1.00  0.00     0.211 HD
ENDBRANCH  18  30
BRANCH   1  32
HETATM   32  C4  UNL     1      91.493  42.774 271.820  1.00  0.00     0.039 C 
BRANCH  32  33
HETATM   33  C3  UNL     1      91.813  44.223 271.539  1.00  0.00     0.002 C 
BRANCH  33  34
HETATM   34  C2  UNL     1      92.200  44.877 272.865  1.00  0.00    -0.004 C 
HETATM   35  C1  UNL     1      93.426  44.164 273.396  1.00  0.00     0.005 C 
ENDBRANCH  33  34
ENDBRANCH  32  33
ENDBRANCH   1  32
BRANCH   1  36
HETATM   36  O1  UNL     1      89.317  42.073 271.445  1.00  0.00    -0.389 OA
ATOM     37  H1  UNL     1      88.760  41.609 270.831  1.00  0.00     0.210 HD
ENDBRANCH   1  36
TORSDOF 8
ENDMDL
MODEL 4
REMARK VINA RESULT: -7.122532857      2.386      3.656
REMARK  8 active torsions:
REMARK  status: ('A' for Active; 'I' for Inactive)
REMARK    1  A    between atoms: C2_2  and  C3_3 
REMARK    2  A    between atoms: C3_3  and  C4_4 
REMARK    3  A    between atoms: C4_4  and  C5_5 
REMARK    4  A    between atoms: C5_5  and  O1_6 
REMARK    5  A    between atoms: C19_23  and  O4_24 
REMARK    6  A    between atoms: O4_24  and  C20_25 
REMARK    7  A    between atoms: C20_25  and  C21_27 
REMARK    8  A    between atoms: C25_31  and  O6_32 
ROOT
HETATM    1  C5  UNL     1      87.290  41.871 270.249  1.00  0.00     0.071 C 
HETATM    2  C6  UNL     1      87.941  40.868 269.329  1.00  0.00     0.017 C 
HETATM    3  C7  UNL     1      89.254  40.327 269.885  1.00  0.00     0.013 C 
HETATM    4  C8  UNL     1      87.051  39.626 269.163  1.00  0.00     0.007 C 
HETATM    5  C9  UNL     1      86.251  39.798 267.922  1.00  0.00     0.005 C 
HETATM    6  C10 UNL     1      85.150  38.809 267.738  1.00  0.00    -0.009 C 
HETATM    7  C11 UNL     1      85.360  38.096 266.417  1.00  0.00     0.010 C 
HETATM    8  C12 UNL     1      83.781  39.491 267.786  1.00  0.00     0.115 C 
HETATM    9  C13 UNL     1      83.563  40.352 266.591  1.00  0.00     0.259 C 
HETATM   10  O2  UNL     1      83.443  39.728 265.499  1.00  0.00    -0.265 OA
HETATM   11  O3  UNL     1      83.511  41.701 266.748  1.00  0.00    -0.316 OA
HETATM   12  C14 UNL     1      82.657  42.507 267.475  1.00  0.00     0.135 C 
HETATM   13  C15 UNL     1      81.343  41.845 267.848  1.00  0.00     0.040 C 
HETATM   14  C16 UNL     1      83.213  43.104 268.731  1.00  0.00     0.059 C 
HETATM   15  C17 UNL     1      82.243  44.126 269.272  1.00  0.00     0.013 C 
HETATM   16  C18 UNL     1      83.096  45.368 269.570  1.00  0.00     0.036 C 
HETATM   17  C19 UNL     1      84.147  45.256 268.537  1.00  0.00     0.174 C 
HETATM   18  C25 UNL     1      84.539  43.815 268.546  1.00  0.00     0.151 C 
HETATM   19  C26 UNL     1      85.478  43.456 269.617  1.00  0.00     0.170 C 
HETATM   20  O7  UNL     1      84.954  43.394 270.745  1.00  0.00    -0.294 OA
HETATM   21  C27 UNL     1      86.906  43.163 269.572  1.00  0.00     0.089 C 
HETATM   22  C28 UNL     1      87.572  43.385 268.249  1.00  0.00     0.021 C 
ENDROOT
BRANCH  17  23
HETATM   23  O4  UNL     1      85.232  46.137 268.688  1.00  0.00    -0.309 OA
BRANCH  23  24
HETATM   24  C20 UNL     1      85.538  47.126 267.757  1.00  0.00     0.283 C 
HETATM   25  O5  UNL     1      85.547  48.295 268.207  1.00  0.00    -0.260 OA
BRANCH  24  26
HETATM   26  C21 UNL     1      85.823  46.787 266.359  1.00  0.00     0.084 C 
HETATM   27  C22 UNL     1      87.044  46.636 265.902  1.00  0.00    -0.082 C 
HETATM   28  C23 UNL     1      88.232  46.799 266.769  1.00  0.00     0.043 C 
HETATM   29  C24 UNL     1      87.255  46.294 264.474  1.00  0.00     0.043 C 
ENDBRANCH  24  26
ENDBRANCH  23  24
ENDBRANCH  17  23
BRANCH  18  30
HETATM   30  O6  UNL     1      84.961  43.498 267.262  1.00  0.00    -0.379 OA
ATOM     31  H6  UNL     1      84.417  44.013 266.678  1.00  0.00     0.211 HD
ENDBRANCH  18  30
BRANCH   1  32
HETATM   32  C4  UNL     1      88.155  42.051 271.472  1.00  0.00     0.039 C 
BRANCH  32  33
HETATM   33  C3  UNL     1      88.600  43.478 271.695  1.00  0.00     0.002 C 
BRANCH  33  34
HETATM   34  C2  UNL     1      90.128  43.482 271.748  1.00  0.00    -0.004 C 
HETATM   35  C1  UNL     1      90.641  43.872 270.378  1.00  0.00     0.005 C 
ENDBRANCH  33  34
ENDBRANCH  32  33
ENDBRANCH   1  32
BRANCH   1  36
HETATM   36  O1  UNL     1      86.084  41.310 270.746  1.00  0.00    -0.389 OA
ATOM     37  H1  UNL     1      85.681  40.901 269.988  1.00  0.00     0.210 HD
ENDBRANCH   1  36
TORSDOF 8
ENDMDL
MODEL 5
REMARK VINA RESULT: -7.033854075      2.200      4.993
REMARK  8 active torsions:
REMARK  status: ('A' for Active; 'I' for Inactive)
REMARK    1  A    between atoms: C2_2  and  C3_3 
REMARK    2  A    between atoms: C3_3  and  C4_4 
REMARK    3  A    between atoms: C4_4  and  C5_5 
REMARK    4  A    between atoms: C5_5  and  O1_6 
REMARK    5  A    between atoms: C19_23  and  O4_24 
REMARK    6  A    between atoms: O4_24  and  C20_25 
REMARK    7  A    between atoms: C20_25  and  C21_27 
REMARK    8  A    between atoms: C25_31  and  O6_32 
ROOT
HETATM    1  C5  UNL     1      84.991  41.195 269.131  1.00  0.00     0.071 C 
HETATM    2  C6  UNL     1      84.324  41.233 270.484  1.00  0.00     0.017 C 
HETATM    3  C7  UNL     1      82.995  40.484 270.504  1.00  0.00     0.013 C 
HETATM    4  C8  UNL     1      85.186  40.515 271.534  1.00  0.00     0.007 C 
HETATM    5  C9  UNL     1      85.999  41.543 272.238  1.00  0.00     0.005 C 
HETATM    6  C10 UNL     1      87.079  41.003 273.114  1.00  0.00    -0.009 C 
HETATM    7  C11 UNL     1      86.862  41.524 274.521  1.00  0.00     0.010 C 
HETATM    8  C12 UNL     1      88.462  41.392 272.589  1.00  0.00     0.115 C 
HETATM    9  C13 UNL     1      88.707  42.853 272.738  1.00  0.00     0.259 C 
HETATM   10  O2  UNL     1      88.820  43.254 273.932  1.00  0.00    -0.265 OA
HETATM   11  O3  UNL     1      88.789  43.629 271.625  1.00  0.00    -0.316 OA
HETATM   12  C14 UNL     1      89.655  43.601 270.551  1.00  0.00     0.135 C 
HETATM   13  C15 UNL     1      90.951  42.857 270.815  1.00  0.00     0.040 C 
HETATM   14  C16 UNL     1      89.105  43.068 269.264  1.00  0.00     0.059 C 
HETATM   15  C17 UNL     1      90.093  43.320 268.153  1.00  0.00     0.013 C 
HETATM   16  C18 UNL     1      89.267  43.937 267.015  1.00  0.00     0.036 C 
HETATM   17  C19 UNL     1      88.220  44.657 267.771  1.00  0.00     0.174 C 
HETATM   18  C25 UNL     1      87.795  43.704 268.839  1.00  0.00     0.151 C 
HETATM   19  C26 UNL     1      86.842  42.682 268.386  1.00  0.00     0.170 C 
HETATM   20  O7  UNL     1      87.357  41.786 267.691  1.00  0.00    -0.294 OA
HETATM   21  C27 UNL     1      85.409  42.551 268.617  1.00  0.00     0.089 C 
HETATM   22  C28 UNL     1      84.756  43.701 269.320  1.00  0.00     0.021 C 
ENDROOT
BRANCH  17  23
HETATM   23  O4  UNL     1      87.154  45.149 266.998  1.00  0.00    -0.309 OA
BRANCH  23  24
HETATM   24  C20 UNL     1      87.225  46.345 266.287  1.00  0.00     0.283 C 
HETATM   25  O5  UNL     1      87.423  47.367 266.984  1.00  0.00    -0.260 OA
BRANCH  24  26
HETATM   26  C21 UNL     1      87.075  46.368 264.829  1.00  0.00     0.084 C 
HETATM   27  C22 UNL     1      88.093  46.523 264.014  1.00  0.00    -0.082 C 
HETATM   28  C23 UNL     1      89.477  46.688 264.511  1.00  0.00     0.043 C 
HETATM   29  C24 UNL     1      87.863  46.537 262.549  1.00  0.00     0.043 C 
ENDBRANCH  24  26
ENDBRANCH  23  24
ENDBRANCH  17  23
BRANCH  18  30
HETATM   30  O6  UNL     1      87.376  44.462 269.922  1.00  0.00    -0.379 OA
ATOM     31  H6  UNL     1      87.733  45.331 269.781  1.00  0.00     0.211 HD
ENDBRANCH  18  30
BRANCH   1  32
HETATM   32  C4  UNL     1      84.121  40.416 268.175  1.00  0.00     0.039 C 
BRANCH  32  33
HETATM   33  C3  UNL     1      83.898  41.113 266.853  1.00  0.00     0.002 C 
BRANCH  33  34
HETATM   34  C2  UNL     1      84.042  40.067 265.748  1.00  0.00    -0.004 C 
HETATM   35  C1  UNL     1      85.496  39.648 265.690  1.00  0.00     0.005 C 
ENDBRANCH  33  34
ENDBRANCH  32  33
ENDBRANCH   1  32
BRANCH   1  36
HETATM   36  O1  UNL     1      86.180  40.428 269.237  1.00  0.00    -0.389 OA
ATOM     37  H1  UNL     1      85.886  39.570 269.521  1.00  0.00     0.210 HD
ENDBRANCH   1  36
TORSDOF 8
ENDMDL
