MODEL 1
REMARK VINA RESULT: -9.230813434      0.000      0.000
REMARK  9 active torsions:
REMARK  status: ('A' for Active; 'I' for Inactive)
REMARK    1  A    between atoms: C3_3  and  C4_4 
REMARK    2  A    between atoms: C3_3  and  C6_10 
REMARK    3  A    between atoms: C4_4  and  C5_5 
REMARK    4  A    between atoms: C5_5  and  O1_6 
REMARK    5  A    between atoms: C5_5  and  O2_8 
REMARK    6  A    between atoms: C6_10  and  O4_12 
REMARK    7  A    between atoms: O4_12  and  C7_13 
REMARK    8  A    between atoms: C21_29  and  C22_30 
REMARK    9  A    between atoms: C22_30  and  C23_31 
ROOT
HETATM    1  C7  UNL     1      86.377  46.714 267.216  1.00  0.00     0.139 C 
HETATM    2  C8  UNL     1      86.189  46.671 265.748  1.00  0.00     0.034 C 
HETATM    3  C9  UNL     1      87.306  46.375 264.863  1.00  0.00     0.015 C 
HETATM    4  C10 UNL     1      88.659  46.051 265.480  1.00  0.00    -0.002 C 
HETATM    5  C11 UNL     1      89.264  45.075 264.566  1.00  0.00     0.019 C 
HETATM    6  C12 UNL     1      89.331  47.295 265.815  1.00  0.00     0.006 C 
HETATM    7  C13 UNL     1      88.579  47.762 267.060  1.00  0.00     0.016 C 
HETATM    8  C14 UNL     1      87.838  46.553 267.571  1.00  0.00     0.057 C 
HETATM    9  C15 UNL     1      88.345  45.410 266.794  1.00  0.00     0.139 C 
HETATM   10  O5  UNL     1      87.542  44.277 266.746  1.00  0.00    -0.225 OA
HETATM   11  O6  UNL     1      88.164  43.882 267.863  1.00  0.00    -0.231 OA
HETATM   12  C16 UNL     1      89.305  44.465 267.338  1.00  0.00     0.199 C 
HETATM   13  C17 UNL     1      90.237  45.116 268.311  1.00  0.00     0.039 C 
HETATM   14  C18 UNL     1      91.446  45.564 267.527  1.00  0.00     0.008 C 
HETATM   15  C19 UNL     1      91.480  47.007 267.164  1.00  0.00    -0.005 C 
HETATM   16  C20 UNL     1      92.974  47.302 267.006  1.00  0.00     0.010 C 
HETATM   17  C21 UNL     1      93.354  48.676 266.678  1.00  0.00    -0.004 C 
HETATM   18  C24 UNL     1      92.303  49.512 266.008  1.00  0.00     0.006 C 
HETATM   19  C25 UNL     1      90.934  49.014 266.045  1.00  0.00     0.010 C 
HETATM   20  C26 UNL     1      90.780  47.469 265.966  1.00  0.00    -0.036 C 
HETATM   21  C27 UNL     1      91.496  47.117 264.668  1.00  0.00     0.016 C 
ENDROOT
BRANCH   1  22
HETATM   22  O4  UNL     1      85.851  47.925 267.729  1.00  0.00    -0.312 OA
BRANCH  22  23
HETATM   23  C6  UNL     1      84.506  48.021 267.991  1.00  0.00     0.289 C 
HETATM   24  O3  UNL     1      83.743  48.294 266.997  1.00  0.00    -0.260 OA
BRANCH  23  25
HETATM   25  C3  UNL     1      83.865  47.842 269.284  1.00  0.00     0.018 C 
HETATM   26  C2  UNL     1      83.433  46.666 269.648  1.00  0.00    -0.018 C 
HETATM   27  C1  UNL     1      83.562  45.469 268.796  1.00  0.00     0.036 C 
BRANCH  25  28
HETATM   28  C4  UNL     1      83.742  49.053 270.131  1.00  0.00     0.104 C 
BRANCH  28  29
HETATM   29  C5  UNL     1      83.264  50.282 269.461  1.00  0.00     0.258 C 
BRANCH  29  30
HETATM   30  O1  UNL     1      84.172  51.315 269.367  1.00  0.00    -0.371 OA
ATOM     31  H1  UNL     1      84.133  51.835 268.573  1.00  0.00     0.212 HD
ENDBRANCH  29  30
BRANCH  29  32
HETATM   32  O2  UNL     1      82.066  50.755 270.038  1.00  0.00    -0.371 OA
ATOM     33  H2  UNL     1      82.180  51.613 270.428  1.00  0.00     0.212 HD
ENDBRANCH  29  32
ENDBRANCH  28  29
ENDBRANCH  25  28
ENDBRANCH  23  25
ENDBRANCH  22  23
ENDBRANCH   1  22
BRANCH  17  34
HETATM   34  C22 UNL     1      94.039  49.399 267.828  1.00  0.00     0.117 C 
BRANCH  34  35
HETATM   35  C23 UNL     1      94.178  50.834 267.655  1.00  0.00     0.172 C 
HETATM   36  O7  UNL     1      94.987  51.319 266.833  1.00  0.00    -0.648 OA
HETATM   37  O8  UNL     1      93.413  51.711 268.402  1.00  0.00    -0.648 OA
ENDBRANCH  34  35
ENDBRANCH  17  34
TORSDOF 9
ENDMDL
MODEL 2
REMARK VINA RESULT: -8.922259768      0.990      2.158
REMARK  9 active torsions:
REMARK  status: ('A' for Active; 'I' for Inactive)
REMARK    1  A    between atoms: C3_3  and  C4_4 
REMARK    2  A    between atoms: C3_3  and  C6_10 
REMARK    3  A    between atoms: C4_4  and  C5_5 
REMARK    4  A    between atoms: C5_5  and  O1_6 
REMARK    5  A    between atoms: C5_5  and  O2_8 
REMARK    6  A    between atoms: C6_10  and  O4_12 
REMARK    7  A    between atoms: O4_12  and  C7_13 
REMARK    8  A    between atoms: C21_29  and  C22_30 
REMARK    9  A    between atoms: C22_30  and  C23_31 
ROOT
HETATM    1  C7  UNL     1      86.486  46.696 267.182  1.00  0.00     0.139 C 
HETATM    2  C8  UNL     1      86.296  46.679 265.714  1.00  0.00     0.034 C 
HETATM    3  C9  UNL     1      87.415  46.408 264.823  1.00  0.00     0.015 C 
HETATM    4  C10 UNL     1      88.770  46.083 265.432  1.00  0.00    -0.002 C 
HETATM    5  C11 UNL     1      89.382  45.128 264.499  1.00  0.00     0.019 C 
HETATM    6  C12 UNL     1      89.435  47.324 265.790  1.00  0.00     0.006 C 
HETATM    7  C13 UNL     1      88.680  47.762 267.044  1.00  0.00     0.016 C 
HETATM    8  C14 UNL     1      87.949  46.538 267.533  1.00  0.00     0.057 C 
HETATM    9  C15 UNL     1      88.463  45.414 266.733  1.00  0.00     0.139 C 
HETATM   10  O5  UNL     1      87.667  44.277 266.665  1.00  0.00    -0.225 OA
HETATM   11  O6  UNL     1      88.293  43.865 267.773  1.00  0.00    -0.231 OA
HETATM   12  C16 UNL     1      89.430  44.466 267.258  1.00  0.00     0.199 C 
HETATM   13  C17 UNL     1      90.358  45.104 268.242  1.00  0.00     0.039 C 
HETATM   14  C18 UNL     1      91.563  45.576 267.466  1.00  0.00     0.008 C 
HETATM   15  C19 UNL     1      91.587  47.026 267.131  1.00  0.00    -0.005 C 
HETATM   16  C20 UNL     1      93.079  47.334 266.977  1.00  0.00     0.010 C 
HETATM   17  C21 UNL     1      93.449  48.716 266.675  1.00  0.00    -0.004 C 
HETATM   18  C24 UNL     1      92.391  49.558 266.023  1.00  0.00     0.006 C 
HETATM   19  C25 UNL     1      91.026  49.050 266.052  1.00  0.00     0.010 C 
HETATM   20  C26 UNL     1      90.882  47.506 265.942  1.00  0.00    -0.036 C 
HETATM   21  C27 UNL     1      91.599  47.183 264.638  1.00  0.00     0.016 C 
ENDROOT
BRANCH   1  22
HETATM   22  O4  UNL     1      85.952  47.893 267.719  1.00  0.00    -0.312 OA
BRANCH  22  23
HETATM   23  C6  UNL     1      84.605  47.977 267.976  1.00  0.00     0.289 C 
HETATM   24  O3  UNL     1      83.911  48.705 267.179  1.00  0.00    -0.260 OA
BRANCH  23  25
HETATM   25  C3  UNL     1      83.892  47.323 269.061  1.00  0.00     0.018 C 
HETATM   26  C2  UNL     1      83.406  48.024 270.048  1.00  0.00    -0.018 C 
HETATM   27  C1  UNL     1      83.543  49.490 270.128  1.00  0.00     0.036 C 
BRANCH  25  28
HETATM   28  C4  UNL     1      83.761  45.849 268.967  1.00  0.00     0.104 C 
BRANCH  28  29
HETATM   29  C5  UNL     1      83.070  45.321 267.770  1.00  0.00     0.258 C 
BRANCH  29  30
HETATM   30  O1  UNL     1      81.863  44.694 267.992  1.00  0.00    -0.371 OA
ATOM     31  H1  UNL     1      81.089  45.241 267.924  1.00  0.00     0.212 HD
ENDBRANCH  29  30
BRANCH  29  32
HETATM   32  O2  UNL     1      83.912  44.476 267.015  1.00  0.00    -0.371 OA
ATOM     33  H2  UNL     1      84.671  44.942 266.685  1.00  0.00     0.212 HD
ENDBRANCH  29  32
ENDBRANCH  28  29
ENDBRANCH  25  28
ENDBRANCH  23  25
ENDBRANCH  22  23
ENDBRANCH   1  22
BRANCH  17  34
HETATM   34  C22 UNL     1      94.130  49.422 267.838  1.00  0.00     0.117 C 
BRANCH  34  35
HETATM   35  C23 UNL     1      94.223  50.866 267.711  1.00  0.00     0.172 C 
HETATM   36  O7  UNL     1      95.050  51.404 266.942  1.00  0.00    -0.648 OA
HETATM   37  O8  UNL     1      93.391  51.692 268.445  1.00  0.00    -0.648 OA
ENDBRANCH  34  35
ENDBRANCH  17  34
TORSDOF 9
ENDMDL
MODEL 3
REMARK VINA RESULT: -8.443881422      4.457      7.146
REMARK  9 active torsions:
REMARK  status: ('A' for Active; 'I' for Inactive)
REMARK    1  A    between atoms: C3_3  and  C4_4 
REMARK    2  A    between atoms: C3_3  and  C6_10 
REMARK    3  A    between atoms: C4_4  and  C5_5 
REMARK    4  A    between atoms: C5_5  and  O1_6 
REMARK    5  A    between atoms: C5_5  and  O2_8 
REMARK    6  A    between atoms: C6_10  and  O4_12 
REMARK    7  A    between atoms: O4_12  and  C7_13 
REMARK    8  A    between atoms: C21_29  and  C22_30 
REMARK    9  A    between atoms: C22_30  and  C23_31 
ROOT
HETATM    1  C7  UNL     1      89.719  43.886 268.131  1.00  0.00     0.139 C 
HETATM    2  C8  UNL     1      90.787  42.963 267.685  1.00  0.00     0.034 C 
HETATM    3  C9  UNL     1      91.415  42.043 268.623  1.00  0.00     0.015 C 
HETATM    4  C10 UNL     1      90.912  42.008 270.058  1.00  0.00    -0.002 C 
HETATM    5  C11 UNL     1      91.065  40.609 270.476  1.00  0.00     0.019 C 
HETATM    6  C12 UNL     1      91.530  43.094 270.800  1.00  0.00     0.006 C 
HETATM    7  C13 UNL     1      90.782  44.323 270.288  1.00  0.00     0.016 C 
HETATM    8  C14 UNL     1      89.531  43.800 269.630  1.00  0.00     0.057 C 
HETATM    9  C15 UNL     1      89.463  42.370 269.972  1.00  0.00     0.139 C 
HETATM   10  O5  UNL     1      88.679  41.565 269.154  1.00  0.00    -0.225 OA
HETATM   11  O6  UNL     1      87.656  41.878 269.958  1.00  0.00    -0.231 OA
HETATM   12  C16 UNL     1      88.571  41.858 270.997  1.00  0.00     0.199 C 
HETATM   13  C17 UNL     1      88.360  42.850 272.097  1.00  0.00     0.039 C 
HETATM   14  C18 UNL     1      89.395  42.557 273.156  1.00  0.00     0.008 C 
HETATM   15  C19 UNL     1      90.592  43.442 273.149  1.00  0.00    -0.005 C 
HETATM   16  C20 UNL     1      91.090  43.384 274.596  1.00  0.00     0.010 C 
HETATM   17  C21 UNL     1      92.259  44.194 274.934  1.00  0.00    -0.004 C 
HETATM   18  C24 UNL     1      93.167  44.555 273.794  1.00  0.00     0.006 C 
HETATM   19  C25 UNL     1      92.649  44.364 272.446  1.00  0.00     0.010 C 
HETATM   20  C26 UNL     1      91.710  43.141 272.255  1.00  0.00    -0.036 C 
HETATM   21  C27 UNL     1      92.566  41.971 272.723  1.00  0.00     0.016 C 
ENDROOT
BRANCH   1  22
HETATM   22  O4  UNL     1      90.030  45.207 267.725  1.00  0.00    -0.312 OA
BRANCH  22  23
HETATM   23  C6  UNL     1      89.104  45.931 267.014  1.00  0.00     0.289 C 
HETATM   24  O3  UNL     1      87.968  46.126 267.577  1.00  0.00    -0.260 OA
BRANCH  23  25
HETATM   25  C3  UNL     1      89.288  46.499 265.688  1.00  0.00     0.018 C 
HETATM   26  C2  UNL     1      90.027  47.561 265.523  1.00  0.00    -0.018 C 
HETATM   27  C1  UNL     1      90.708  48.241 266.639  1.00  0.00     0.036 C 
BRANCH  25  28
HETATM   28  C4  UNL     1      88.598  45.805 264.574  1.00  0.00     0.104 C 
BRANCH  28  29
HETATM   29  C5  UNL     1      87.303  46.374 264.142  1.00  0.00     0.258 C 
BRANCH  29  30
HETATM   30  O1  UNL     1      86.216  46.084 264.939  1.00  0.00    -0.371 OA
ATOM     31  H1  UNL     1      85.657  46.818 265.168  1.00  0.00     0.212 HD
ENDBRANCH  29  30
BRANCH  29  32
HETATM   32  O2  UNL     1      87.010  46.040 262.802  1.00  0.00    -0.371 OA
ATOM     33  H2  UNL     1      86.636  46.776 262.332  1.00  0.00     0.212 HD
ENDBRANCH  29  32
ENDBRANCH  28  29
ENDBRANCH  25  28
ENDBRANCH  23  25
ENDBRANCH  22  23
ENDBRANCH   1  22
BRANCH  17  34
HETATM   34  C22 UNL     1      91.929  45.382 275.824  1.00  0.00     0.117 C 
BRANCH  34  35
HETATM   35  C23 UNL     1      91.979  46.676 275.165  1.00  0.00     0.172 C 
HETATM   36  O7  UNL     1      91.032  47.088 274.458  1.00  0.00    -0.648 OA
HETATM   37  O8  UNL     1      93.086  47.494 275.302  1.00  0.00    -0.648 OA
ENDBRANCH  34  35
ENDBRANCH  17  34
TORSDOF 9
ENDMDL
MODEL 4
REMARK VINA RESULT: -8.437631346      4.435      7.109
REMARK  9 active torsions:
REMARK  status: ('A' for Active; 'I' for Inactive)
REMARK    1  A    between atoms: C3_3  and  C4_4 
REMARK    2  A    between atoms: C3_3  and  C6_10 
REMARK    3  A    between atoms: C4_4  and  C5_5 
REMARK    4  A    between atoms: C5_5  and  O1_6 
REMARK    5  A    between atoms: C5_5  and  O2_8 
REMARK    6  A    between atoms: C6_10  and  O4_12 
REMARK    7  A    between atoms: O4_12  and  C7_13 
REMARK    8  A    between atoms: C21_29  and  C22_30 
REMARK    9  A    between atoms: C22_30  and  C23_31 
ROOT
HETATM    1  C7  UNL     1      90.408  44.168 268.060  1.00  0.00     0.139 C 
HETATM    2  C8  UNL     1      91.189  42.954 267.734  1.00  0.00     0.034 C 
HETATM    3  C9  UNL     1      91.439  41.935 268.745  1.00  0.00     0.015 C 
HETATM    4  C10 UNL     1      90.829  42.115 270.126  1.00  0.00    -0.002 C 
HETATM    5  C11 UNL     1      90.528  40.753 270.584  1.00  0.00     0.019 C 
HETATM    6  C12 UNL     1      91.676  43.006 270.901  1.00  0.00     0.006 C 
HETATM    7  C13 UNL     1      91.369  44.375 270.297  1.00  0.00     0.016 C 
HETATM    8  C14 UNL     1      90.079  44.210 269.536  1.00  0.00     0.057 C 
HETATM    9  C15 UNL     1      89.564  42.879 269.898  1.00  0.00     0.139 C 
HETATM   10  O5  UNL     1      88.648  42.302 269.027  1.00  0.00    -0.225 OA
HETATM   11  O6  UNL     1      87.700  42.936 269.726  1.00  0.00    -0.231 OA
HETATM   12  C16 UNL     1      88.478  42.698 270.846  1.00  0.00     0.199 C 
HETATM   13  C17 UNL     1      88.478  43.758 271.902  1.00  0.00     0.039 C 
HETATM   14  C18 UNL     1      89.289  43.226 273.058  1.00  0.00     0.008 C 
HETATM   15  C19 UNL     1      90.690  43.722 273.145  1.00  0.00    -0.005 C 
HETATM   16  C20 UNL     1      91.026  43.588 274.633  1.00  0.00     0.010 C 
HETATM   17  C21 UNL     1      92.350  44.036 275.063  1.00  0.00    -0.004 C 
HETATM   18  C24 UNL     1      93.416  44.063 274.006  1.00  0.00     0.006 C 
HETATM   19  C25 UNL     1      92.979  43.970 272.619  1.00  0.00     0.010 C 
HETATM   20  C26 UNL     1      91.740  43.066 272.365  1.00  0.00    -0.036 C 
HETATM   21  C27 UNL     1      92.171  41.721 272.934  1.00  0.00     0.016 C 
ENDROOT
BRANCH   1  22
HETATM   22  O4  UNL     1      91.127  45.320 267.658  1.00  0.00    -0.312 OA
BRANCH  22  23
HETATM   23  C6  UNL     1      90.448  46.485 267.399  1.00  0.00     0.289 C 
HETATM   24  O3  UNL     1      90.898  47.551 267.953  1.00  0.00    -0.260 OA
BRANCH  23  25
HETATM   25  C3  UNL     1      89.271  46.627 266.557  1.00  0.00     0.018 C 
HETATM   26  C2  UNL     1      89.393  46.984 265.308  1.00  0.00    -0.018 C 
HETATM   27  C1  UNL     1      90.699  47.261 264.681  1.00  0.00     0.036 C 
BRANCH  25  28
HETATM   28  C4  UNL     1      87.964  46.345 267.199  1.00  0.00     0.104 C 
BRANCH  28  29
HETATM   29  C5  UNL     1      87.126  45.305 266.564  1.00  0.00     0.258 C 
BRANCH  29  30
HETATM   30  O1  UNL     1      85.872  45.702 266.154  1.00  0.00    -0.371 OA
ATOM     31  H1  UNL     1      85.501  45.225 265.421  1.00  0.00     0.212 HD
ENDBRANCH  29  30
BRANCH  29  32
HETATM   32  O2  UNL     1      87.018  44.157 267.378  1.00  0.00    -0.371 OA
ATOM     33  H2  UNL     1      86.484  43.487 266.969  1.00  0.00     0.212 HD
ENDBRANCH  29  32
ENDBRANCH  28  29
ENDBRANCH  25  28
ENDBRANCH  23  25
ENDBRANCH  22  23
ENDBRANCH   1  22
BRANCH  17  34
HETATM   34  C22 UNL     1      92.311  45.310 275.894  1.00  0.00     0.117 C 
BRANCH  34  35
HETATM   35  C23 UNL     1      92.302  46.544 275.128  1.00  0.00     0.172 C 
HETATM   36  O7  UNL     1      91.269  46.949 274.552  1.00  0.00    -0.648 OA
HETATM   37  O8  UNL     1      93.448  47.309 275.013  1.00  0.00    -0.648 OA
ENDBRANCH  34  35
ENDBRANCH  17  34
TORSDOF 9
ENDMDL
MODEL 5
REMARK VINA RESULT: -8.228842066      4.542      7.581
REMARK  9 active torsions:
REMARK  status: ('A' for Active; 'I' for Inactive)
REMARK    1  A    between atoms: C3_3  and  C4_4 
REMARK    2  A    between atoms: C3_3  and  C6_10 
REMARK    3  A    between atoms: C4_4  and  C5_5 
REMARK    4  A    between atoms: C5_5  and  O1_6 
REMARK    5  A    between atoms: C5_5  and  O2_8 
REMARK    6  A    between atoms: C6_10  and  O4_12 
REMARK    7  A    between atoms: O4_12  and  C7_13 
REMARK    8  A    between atoms: C21_29  and  C22_30 
REMARK    9  A    between atoms: C22_30  and  C23_31 
ROOT
HETATM    1  C7  UNL     1      90.166  44.108 268.180  1.00  0.00     0.139 C 
HETATM    2  C8  UNL     1      91.023  42.959 267.812  1.00  0.00     0.034 C 
HETATM    3  C9  UNL     1      91.399  41.963 268.805  1.00  0.00     0.015 C 
HETATM    4  C10 UNL     1      90.846  42.094 270.215  1.00  0.00    -0.002 C 
HETATM    5  C11 UNL     1      90.674  40.713 270.682  1.00  0.00     0.019 C 
HETATM    6  C12 UNL     1      91.658  43.048 270.952  1.00  0.00     0.006 C 
HETATM    7  C13 UNL     1      91.216  44.389 270.369  1.00  0.00     0.016 C 
HETATM    8  C14 UNL     1      89.907  44.124 269.670  1.00  0.00     0.057 C 
HETATM    9  C15 UNL     1      89.515  42.758 270.052  1.00  0.00     0.139 C 
HETATM   10  O5  UNL     1      88.606  42.111 269.224  1.00  0.00    -0.225 OA
HETATM   11  O6  UNL     1      87.646  42.669 269.970  1.00  0.00    -0.231 OA
HETATM   12  C16 UNL     1      88.494  42.493 271.050  1.00  0.00     0.199 C 
HETATM   13  C17 UNL     1      88.463  43.549 272.109  1.00  0.00     0.039 C 
HETATM   14  C18 UNL     1      89.368  43.081 273.222  1.00  0.00     0.008 C 
HETATM   15  C19 UNL     1      90.729  43.685 273.243  1.00  0.00    -0.005 C 
HETATM   16  C20 UNL     1      91.146  43.578 274.713  1.00  0.00     0.010 C 
HETATM   17  C21 UNL     1      92.451  44.127 275.080  1.00  0.00    -0.004 C 
HETATM   18  C24 UNL     1      93.458  44.237 273.973  1.00  0.00     0.006 C 
HETATM   19  C25 UNL     1      92.963  44.110 272.608  1.00  0.00     0.010 C 
HETATM   20  C26 UNL     1      91.788  43.113 272.411  1.00  0.00    -0.036 C 
HETATM   21  C27 UNL     1      92.349  41.805 272.954  1.00  0.00     0.016 C 
ENDROOT
BRANCH   1  22
HETATM   22  O4  UNL     1      90.773  45.313 267.748  1.00  0.00    -0.312 OA
BRANCH  22  23
HETATM   23  C6  UNL     1      90.025  46.240 267.064  1.00  0.00     0.289 C 
HETATM   24  O3  UNL     1      88.795  46.357 267.409  1.00  0.00    -0.260 OA
BRANCH  23  25
HETATM   25  C3  UNL     1      90.493  47.100 265.988  1.00  0.00     0.018 C 
HETATM   26  C2  UNL     1      89.933  47.045 264.811  1.00  0.00    -0.018 C 
HETATM   27  C1  UNL     1      88.819  46.132 264.498  1.00  0.00     0.036 C 
BRANCH  25  28
HETATM   28  C4  UNL     1      91.613  48.014 266.317  1.00  0.00     0.104 C 
BRANCH  28  29
HETATM   29  C5  UNL     1      92.976  47.519 266.024  1.00  0.00     0.258 C 
BRANCH  29  30
HETATM   30  O1  UNL     1      93.249  46.224 266.409  1.00  0.00    -0.371 OA
ATOM     31  H1  UNL     1      93.732  45.695 265.786  1.00  0.00     0.212 HD
ENDBRANCH  29  30
BRANCH  29  32
HETATM   32  O2  UNL     1      93.964  48.386 266.540  1.00  0.00    -0.371 OA
ATOM     33  H2  UNL     1      94.755  47.914 266.776  1.00  0.00     0.212 HD
ENDBRANCH  29  32
ENDBRANCH  28  29
ENDBRANCH  25  28
ENDBRANCH  23  25
ENDBRANCH  22  23
ENDBRANCH   1  22
BRANCH  17  34
HETATM   34  C22 UNL     1      92.353  45.394 275.917  1.00  0.00     0.117 C 
BRANCH  34  35
HETATM   35  C23 UNL     1      92.334  46.632 275.158  1.00  0.00     0.172 C 
HETATM   36  O7  UNL     1      93.329  47.389 275.114  1.00  0.00    -0.648 OA
HETATM   37  O8  UNL     1      91.203  47.011 274.457  1.00  0.00    -0.648 OA
ENDBRANCH  34  35
ENDBRANCH  17  34
TORSDOF 9
ENDMDL
