MODEL 1
REMARK VINA RESULT: -9.723881562      0.000      0.000
REMARK  7 active torsions:
REMARK  status: ('A' for Active; 'I' for Inactive)
REMARK    1  A    between atoms: N1_2  and  C2_5 
REMARK    2  A    between atoms: C2_5  and  C4_7 
REMARK       I    between atoms: C4_7  and  N2_9 
REMARK    3  A    between atoms: N2_9  and  C5_11 
REMARK    4  A    between atoms: C7_15  and  C8_16 
REMARK    5  A    between atoms: N4_19  and  C11_20 
REMARK    6  A    between atoms: C11_20  and  C12_21 
REMARK    7  A    between atoms: C21_31  and  C22_32 
ROOT
HETATM    1  C5  UNL     1      26.005 163.278 147.601  1.00  0.00     0.121 A 
HETATM    2  N3  UNL     1      25.308 164.303 148.091  1.00  0.00    -0.351 N 
ATOM      3  H3  UNL     1      24.338 164.412 147.794  1.00  0.00     0.166 HD
HETATM    4  C6  UNL     1      25.816 165.203 148.961  1.00  0.00     0.097 A 
HETATM    5  C7  UNL     1      27.142 165.093 149.397  1.00  0.00    -0.037 A 
HETATM    6  C20 UNL     1      27.872 164.048 148.905  1.00  0.00     0.027 A 
HETATM    7  C21 UNL     1      27.327 163.124 148.004  1.00  0.00     0.046 A 
ENDROOT
BRANCH   5   8
HETATM    8  C8  UNL     1      27.655 166.103 150.351  1.00  0.00     0.024 C 
HETATM    9  C9  UNL     1      29.170 165.906 150.387  1.00  0.00     0.029 C 
HETATM   10  C10 UNL     1      29.597 164.982 151.488  1.00  0.00     0.119 C 
HETATM   11  N4  UNL     1      29.208 165.536 152.740  1.00  0.00    -0.395 N 
HETATM   12  C18 UNL     1      28.061 166.355 152.763  1.00  0.00     0.177 C 
HETATM   13 CL1  UNL     1      28.576 168.072 152.654  1.00  0.00    -0.103 Cl
HETATM   14  C19 UNL     1      27.034 166.122 151.689  1.00  0.00     0.050 C 
BRANCH  11  15
HETATM   15  C11 UNL     1      29.480 164.722 153.874  1.00  0.00     0.122 C 
BRANCH  15  16
HETATM   16  C12 UNL     1      28.215 164.640 154.712  1.00  0.00     0.003 C 
HETATM   17  C13 UNL     1      28.473 164.110 156.091  1.00  0.00     0.006 C 
HETATM   18  C14 UNL     1      27.222 164.400 156.904  1.00  0.00     0.000 C 
HETATM   19  C15 UNL     1      26.042 163.801 156.190  1.00  0.00     0.000 C 
HETATM   20  C16 UNL     1      26.429 162.997 154.974  1.00  0.00     0.000 C 
HETATM   21  C17 UNL     1      27.225 163.780 153.966  1.00  0.00     0.006 C 
ENDBRANCH  15  16
ENDBRANCH  11  15
ENDBRANCH   5   8
BRANCH   7  22
HETATM   22  C22 UNL     1      28.178 162.040 147.540  1.00  0.00     0.273 C 
HETATM   23  O2  UNL     1      28.410 161.897 146.323  1.00  0.00    -0.301 OA
ENDBRANCH   7  22
BRANCH   1  24
HETATM   24  N2  UNL     1      25.510 162.456 146.773  1.00  0.00    -0.311 N 
HETATM   25  C4  UNL     1      24.311 161.757 146.805  1.00  0.00     0.253 C 
HETATM   26  O1  UNL     1      23.646 161.401 147.807  1.00  0.00    -0.271 OA
ATOM     27  H2  UNL     1      26.084 162.280 145.949  1.00  0.00     0.170 HD
BRANCH  25  28
HETATM   28  C2  UNL     1      23.725 161.370 145.455  1.00  0.00     0.273 C 
HETATM   29  C3  UNL     1      24.541 160.222 144.886  1.00  0.00     0.050 C 
BRANCH  28  30
HETATM   30  N1  UNL     1      22.351 161.049 145.658  1.00  0.00    -0.067 N 
HETATM   31  C1  UNL     1      21.454 162.033 145.138  1.00  0.00     0.267 C 
ATOM     32  H12 UNL     1      22.162 160.874 146.645  1.00  0.00     0.277 HD
ATOM     33  H11 UNL     1      22.135 160.128 145.278  1.00  0.00     0.277 HD
ENDBRANCH  28  30
ENDBRANCH  25  28
ENDBRANCH   1  24
TORSDOF 7
ENDMDL
MODEL 2
REMARK VINA RESULT: -9.628146814      1.357      2.177
REMARK  7 active torsions:
REMARK  status: ('A' for Active; 'I' for Inactive)
REMARK    1  A    between atoms: N1_2  and  C2_5 
REMARK    2  A    between atoms: C2_5  and  C4_7 
REMARK       I    between atoms: C4_7  and  N2_9 
REMARK    3  A    between atoms: N2_9  and  C5_11 
REMARK    4  A    between atoms: C7_15  and  C8_16 
REMARK    5  A    between atoms: N4_19  and  C11_20 
REMARK    6  A    between atoms: C11_20  and  C12_21 
REMARK    7  A    between atoms: C21_31  and  C22_32 
ROOT
HETATM    1  C5  UNL     1      25.129 163.265 146.572  1.00  0.00     0.121 A 
HETATM    2  N3  UNL     1      26.381 163.717 146.636  1.00  0.00    -0.351 N 
ATOM      3  H3  UNL     1      27.043 163.409 145.923  1.00  0.00     0.166 HD
HETATM    4  C6  UNL     1      26.821 164.562 147.594  1.00  0.00     0.097 A 
HETATM    5  C7  UNL     1      25.950 165.012 148.594  1.00  0.00    -0.037 A 
HETATM    6  C20 UNL     1      24.662 164.559 148.543  1.00  0.00     0.027 A 
HETATM    7  C21 UNL     1      24.224 163.683 147.542  1.00  0.00     0.046 A 
ENDROOT
BRANCH   5   8
HETATM    8  C8  UNL     1      26.478 165.938 149.622  1.00  0.00     0.024 C 
HETATM    9  C9  UNL     1      27.999 165.855 149.512  1.00  0.00     0.029 C 
HETATM   10  C10 UNL     1      28.583 164.843 150.452  1.00  0.00     0.119 C 
HETATM   11  N4  UNL     1      28.270 165.212 151.791  1.00  0.00    -0.395 N 
HETATM   12  C18 UNL     1      27.077 165.932 152.006  1.00  0.00     0.177 C 
HETATM   13 CL1  UNL     1      27.465 167.684 152.073  1.00  0.00    -0.103 Cl
HETATM   14  C19 UNL     1      25.977 165.750 150.997  1.00  0.00     0.050 C 
BRANCH  11  15
HETATM   15  C11 UNL     1      28.694 164.293 152.788  1.00  0.00     0.122 C 
BRANCH  15  16
HETATM   16  C12 UNL     1      27.841 164.511 154.027  1.00  0.00     0.003 C 
HETATM   17  C13 UNL     1      28.631 164.396 155.296  1.00  0.00     0.006 C 
HETATM   18  C14 UNL     1      27.756 164.963 156.401  1.00  0.00     0.000 C 
HETATM   19  C15 UNL     1      26.441 164.232 156.388  1.00  0.00     0.000 C 
HETATM   20  C16 UNL     1      26.405 163.092 155.400  1.00  0.00     0.000 C 
HETATM   21  C17 UNL     1      26.710 163.514 153.988  1.00  0.00     0.006 C 
ENDBRANCH  15  16
ENDBRANCH  11  15
ENDBRANCH   5   8
BRANCH   7  22
HETATM   22  C22 UNL     1      22.834 163.260 147.566  1.00  0.00     0.273 C 
HETATM   23  O2  UNL     1      22.517 162.161 148.063  1.00  0.00    -0.301 OA
ENDBRANCH   7  22
BRANCH   1  24
HETATM   24  N2  UNL     1      24.745 162.459 145.672  1.00  0.00    -0.311 N 
HETATM   25  C4  UNL     1      25.012 161.108 145.500  1.00  0.00     0.253 C 
HETATM   26  O1  UNL     1      26.011 160.457 145.887  1.00  0.00    -0.271 OA
ATOM     27  H2  UNL     1      24.144 162.870 144.958  1.00  0.00     0.170 HD
BRANCH  25  28
HETATM   28  C2  UNL     1      23.959 160.309 144.745  1.00  0.00     0.273 C 
HETATM   29  C3  UNL     1      24.430 158.870 144.636  1.00  0.00     0.050 C 
BRANCH  28  30
HETATM   30  N1  UNL     1      22.725 160.456 145.443  1.00  0.00    -0.067 N 
HETATM   31  C1  UNL     1      21.782 161.289 144.765  1.00  0.00     0.267 C 
ATOM     32  H12 UNL     1      22.884 160.791 146.393  1.00  0.00     0.277 HD
ATOM     33  H11 UNL     1      22.317 159.545 145.650  1.00  0.00     0.277 HD
ENDBRANCH  28  30
ENDBRANCH  25  28
ENDBRANCH   1  24
TORSDOF 7
ENDMDL
MODEL 3
REMARK VINA RESULT: -9.578169205      0.891      1.209
REMARK  7 active torsions:
REMARK  status: ('A' for Active; 'I' for Inactive)
REMARK    1  A    between atoms: N1_2  and  C2_5 
REMARK    2  A    between atoms: C2_5  and  C4_7 
REMARK       I    between atoms: C4_7  and  N2_9 
REMARK    3  A    between atoms: N2_9  and  C5_11 
REMARK    4  A    between atoms: C7_15  and  C8_16 
REMARK    5  A    between atoms: N4_19  and  C11_20 
REMARK    6  A    between atoms: C11_20  and  C12_21 
REMARK    7  A    between atoms: C21_31  and  C22_32 
ROOT
HETATM    1  C5  UNL     1      25.078 163.071 147.264  1.00  0.00     0.121 A 
HETATM    2  N3  UNL     1      24.383 164.098 147.754  1.00  0.00    -0.351 N 
ATOM      3  H3  UNL     1      23.401 164.184 147.495  1.00  0.00     0.166 HD
HETATM    4  C6  UNL     1      24.912 165.031 148.576  1.00  0.00     0.097 A 
HETATM    5  C7  UNL     1      26.256 164.955 148.960  1.00  0.00    -0.037 A 
HETATM    6  C20 UNL     1      26.983 163.908 148.468  1.00  0.00     0.027 A 
HETATM    7  C21 UNL     1      26.417 162.950 147.616  1.00  0.00     0.046 A 
ENDROOT
BRANCH   5   8
HETATM    8  C8  UNL     1      26.791 166.000 149.863  1.00  0.00     0.024 C 
HETATM    9  C9  UNL     1      28.310 165.929 149.724  1.00  0.00     0.029 C 
HETATM   10  C10 UNL     1      28.936 165.039 150.756  1.00  0.00     0.119 C 
HETATM   11  N4  UNL     1      28.649 165.553 152.052  1.00  0.00    -0.395 N 
HETATM   12  C18 UNL     1      27.448 166.274 152.216  1.00  0.00     0.177 C 
HETATM   13 CL1  UNL     1      27.804 168.028 152.074  1.00  0.00    -0.103 Cl
HETATM   14  C19 UNL     1      26.327 165.961 151.263  1.00  0.00     0.050 C 
BRANCH  11  15
HETATM   15  C11 UNL     1      29.114 164.760 153.136  1.00  0.00     0.122 C 
BRANCH  15  16
HETATM   16  C12 UNL     1      28.007 164.682 154.175  1.00  0.00     0.003 C 
HETATM   17  C13 UNL     1      28.524 164.331 155.538  1.00  0.00     0.006 C 
HETATM   18  C14 UNL     1      27.395 164.620 156.514  1.00  0.00     0.000 C 
HETATM   19  C15 UNL     1      26.176 163.861 156.068  1.00  0.00     0.000 C 
HETATM   20  C16 UNL     1      26.438 162.954 154.891  1.00  0.00     0.000 C 
HETATM   21  C17 UNL     1      26.994 163.674 153.692  1.00  0.00     0.006 C 
ENDBRANCH  15  16
ENDBRANCH  11  15
ENDBRANCH   5   8
BRANCH   7  22
HETATM   22  C22 UNL     1      27.267 161.868 147.147  1.00  0.00     0.273 C 
HETATM   23  O2  UNL     1      28.333 162.116 146.550  1.00  0.00    -0.301 OA
ENDBRANCH   7  22
BRANCH   1  24
HETATM   24  N2  UNL     1      24.562 162.218 146.480  1.00  0.00    -0.311 N 
HETATM   25  C4  UNL     1      23.342 161.560 146.542  1.00  0.00     0.253 C 
HETATM   26  O1  UNL     1      22.659 161.285 147.556  1.00  0.00    -0.271 OA
ATOM     27  H2  UNL     1      25.138 161.977 145.673  1.00  0.00     0.170 HD
BRANCH  25  28
HETATM   28  C2  UNL     1      22.755 161.113 145.212  1.00  0.00     0.273 C 
HETATM   29  C3  UNL     1      23.366 161.956 144.106  1.00  0.00     0.050 C 
BRANCH  28  30
HETATM   30  N1  UNL     1      23.011 159.717 145.074  1.00  0.00    -0.067 N 
HETATM   31  C1  UNL     1      24.360 159.417 144.714  1.00  0.00     0.267 C 
ATOM     32  H12 UNL     1      22.358 159.294 144.414  1.00  0.00     0.277 HD
ATOM     33  H11 UNL     1      22.743 159.217 145.921  1.00  0.00     0.277 HD
ENDBRANCH  28  30
ENDBRANCH  25  28
ENDBRANCH   1  24
TORSDOF 7
ENDMDL
MODEL 4
REMARK VINA RESULT: -9.345905708      1.453      2.239
REMARK  7 active torsions:
REMARK  status: ('A' for Active; 'I' for Inactive)
REMARK    1  A    between atoms: N1_2  and  C2_5 
REMARK    2  A    between atoms: C2_5  and  C4_7 
REMARK       I    between atoms: C4_7  and  N2_9 
REMARK    3  A    between atoms: N2_9  and  C5_11 
REMARK    4  A    between atoms: C7_15  and  C8_16 
REMARK    5  A    between atoms: N4_19  and  C11_20 
REMARK    6  A    between atoms: C11_20  and  C12_21 
REMARK    7  A    between atoms: C21_31  and  C22_32 
ROOT
HETATM    1  C5  UNL     1      26.634 162.697 147.293  1.00  0.00     0.121 A 
HETATM    2  N3  UNL     1      27.863 162.418 147.726  1.00  0.00    -0.351 N 
ATOM      3  H3  UNL     1      28.350 161.621 147.317  1.00  0.00     0.166 HD
HETATM    4  C6  UNL     1      28.499 163.136 148.678  1.00  0.00     0.097 A 
HETATM    5  C7  UNL     1      27.872 164.240 149.268  1.00  0.00    -0.037 A 
HETATM    6  C20 UNL     1      26.611 164.541 148.835  1.00  0.00     0.027 A 
HETATM    7  C21 UNL     1      25.967 163.784 147.847  1.00  0.00     0.046 A 
ENDROOT
BRANCH   5   8
HETATM    8  C8  UNL     1      28.608 164.997 150.306  1.00  0.00     0.024 C 
HETATM    9  C9  UNL     1      29.075 163.957 151.323  1.00  0.00     0.029 C 
HETATM   10  C10 UNL     1      28.106 163.793 152.455  1.00  0.00     0.119 C 
HETATM   11  N4  UNL     1      27.973 165.033 153.141  1.00  0.00    -0.395 N 
HETATM   12  C18 UNL     1      28.164 166.214 152.395  1.00  0.00     0.177 C 
HETATM   13 CL1  UNL     1      29.858 166.769 152.614  1.00  0.00    -0.103 Cl
HETATM   14  C19 UNL     1      27.900 166.138 150.916  1.00  0.00     0.050 C 
BRANCH  11  15
HETATM   15  C11 UNL     1      27.019 165.046 154.194  1.00  0.00     0.122 C 
BRANCH  15  16
HETATM   16  C12 UNL     1      27.695 164.529 155.453  1.00  0.00     0.003 C 
HETATM   17  C13 UNL     1      26.985 163.347 156.042  1.00  0.00     0.006 C 
HETATM   18  C14 UNL     1      27.934 162.739 157.062  1.00  0.00     0.000 C 
HETATM   19  C15 UNL     1      28.330 163.811 158.040  1.00  0.00     0.000 C 
HETATM   20  C16 UNL     1      27.601 165.114 157.821  1.00  0.00     0.000 C 
HETATM   21  C17 UNL     1      27.774 165.672 156.434  1.00  0.00     0.006 C 
ENDBRANCH  15  16
ENDBRANCH  11  15
ENDBRANCH   5   8
BRANCH   7  22
HETATM   22  C22 UNL     1      24.628 164.184 147.446  1.00  0.00     0.273 C 
HETATM   23  O2  UNL     1      23.650 163.456 147.701  1.00  0.00    -0.301 OA
ENDBRANCH   7  22
BRANCH   1  24
HETATM   24  N2  UNL     1      26.052 161.997 146.410  1.00  0.00    -0.311 N 
HETATM   25  C4  UNL     1      25.223 160.892 146.540  1.00  0.00     0.253 C 
HETATM   26  O1  UNL     1      25.193 160.047 147.465  1.00  0.00    -0.271 OA
ATOM     27  H2  UNL     1      26.222 162.294 145.449  1.00  0.00     0.170 HD
BRANCH  25  28
HETATM   28  C2  UNL     1      24.219 160.674 145.417  1.00  0.00     0.273 C 
HETATM   29  C3  UNL     1      24.455 159.299 144.817  1.00  0.00     0.050 C 
BRANCH  28  30
HETATM   30  N1  UNL     1      22.914 160.842 145.967  1.00  0.00    -0.067 N 
HETATM   31  C1  UNL     1      22.018 161.547 145.106  1.00  0.00     0.267 C 
ATOM     32  H12 UNL     1      22.963 161.290 146.883  1.00  0.00     0.277 HD
ATOM     33  H11 UNL     1      22.519 159.942 146.240  1.00  0.00     0.277 HD
ENDBRANCH  28  30
ENDBRANCH  25  28
ENDBRANCH   1  24
TORSDOF 7
ENDMDL
MODEL 5
REMARK VINA RESULT: -9.265926966      0.984      1.394
REMARK  7 active torsions:
REMARK  status: ('A' for Active; 'I' for Inactive)
REMARK    1  A    between atoms: N1_2  and  C2_5 
REMARK    2  A    between atoms: C2_5  and  C4_7 
REMARK       I    between atoms: C4_7  and  N2_9 
REMARK    3  A    between atoms: N2_9  and  C5_11 
REMARK    4  A    between atoms: C7_15  and  C8_16 
REMARK    5  A    between atoms: N4_19  and  C11_20 
REMARK    6  A    between atoms: C11_20  and  C12_21 
REMARK    7  A    between atoms: C21_31  and  C22_32 
ROOT
HETATM    1  C5  UNL     1      26.531 163.338 148.293  1.00  0.00     0.121 A 
HETATM    2  N3  UNL     1      26.021 164.357 148.986  1.00  0.00    -0.351 N 
ATOM      3  H3  UNL     1      25.008 164.471 149.001  1.00  0.00     0.166 HD
HETATM    4  C6  UNL     1      26.775 165.244 149.670  1.00  0.00     0.097 A 
HETATM    5  C7  UNL     1      28.171 165.128 149.680  1.00  0.00    -0.037 A 
HETATM    6  C20 UNL     1      28.710 164.089 148.974  1.00  0.00     0.027 A 
HETATM    7  C21 UNL     1      27.912 163.178 148.270  1.00  0.00     0.046 A 
ENDROOT
BRANCH   5   8
HETATM    8  C8  UNL     1      28.956 166.124 150.444  1.00  0.00     0.024 C 
HETATM    9  C9  UNL     1      30.185 165.376 150.956  1.00  0.00     0.029 C 
HETATM   10  C10 UNL     1      29.980 164.820 152.334  1.00  0.00     0.119 C 
HETATM   11  N4  UNL     1      29.722 165.889 153.237  1.00  0.00    -0.395 N 
HETATM   12  C18 UNL     1      29.094 167.041 152.721  1.00  0.00     0.177 C 
HETATM   13 CL1  UNL     1      30.355 168.256 152.321  1.00  0.00    -0.103 Cl
HETATM   14  C19 UNL     1      28.235 166.862 151.499  1.00  0.00     0.050 C 
BRANCH  11  15
HETATM   15  C11 UNL     1      29.426 165.499 154.571  1.00  0.00     0.122 C 
BRANCH  15  16
HETATM   16  C12 UNL     1      28.418 164.363 154.520  1.00  0.00     0.003 C 
HETATM   17  C13 UNL     1      27.128 164.770 153.874  1.00  0.00     0.006 C 
HETATM   18  C14 UNL     1      26.367 163.485 153.586  1.00  0.00     0.000 C 
HETATM   19  C15 UNL     1      26.234 162.715 154.871  1.00  0.00     0.000 C 
HETATM   20  C16 UNL     1      26.760 163.463 156.070  1.00  0.00     0.000 C 
HETATM   21  C17 UNL     1      28.200 163.879 155.932  1.00  0.00     0.006 C 
ENDBRANCH  15  16
ENDBRANCH  11  15
ENDBRANCH   5   8
BRANCH   7  22
HETATM   22  C22 UNL     1      28.575 162.101 147.554  1.00  0.00     0.273 C 
HETATM   23  O2  UNL     1      28.287 161.864 146.365  1.00  0.00    -0.301 OA
ENDBRANCH   7  22
BRANCH   1  24
HETATM   24  N2  UNL     1      25.802 162.529 147.645  1.00  0.00    -0.311 N 
HETATM   25  C4  UNL     1      24.467 162.617 147.275  1.00  0.00     0.253 C 
HETATM   26  O1  UNL     1      23.545 163.253 147.837  1.00  0.00    -0.271 OA
ATOM     27  H2  UNL     1      26.272 161.674 147.347  1.00  0.00     0.170 HD
BRANCH  25  28
HETATM   28  C2  UNL     1      24.066 161.844 146.027  1.00  0.00     0.273 C 
HETATM   29  C3  UNL     1      24.927 160.596 145.934  1.00  0.00     0.050 C 
BRANCH  28  30
HETATM   30  N1  UNL     1      22.670 161.569 146.120  1.00  0.00    -0.067 N 
HETATM   31  C1  UNL     1      21.983 161.677 144.871  1.00  0.00     0.267 C 
ATOM     32  H12 UNL     1      22.232 162.162 146.825  1.00  0.00     0.277 HD
ATOM     33  H11 UNL     1      22.509 160.656 146.542  1.00  0.00     0.277 HD
ENDBRANCH  28  30
ENDBRANCH  25  28
ENDBRANCH   1  24
TORSDOF 7
ENDMDL
