MODEL 1
REMARK VINA RESULT: -7.688652923      0.000      0.000
REMARK  13 active torsions:
REMARK  status: ('A' for Active; 'I' for Inactive)
REMARK    1  A    between atoms: C2_2  and  C4_4 
REMARK    2  A    between atoms: C4_4  and  N1_5 
REMARK    3  A    between atoms: N1_5  and  C5_7 
REMARK    4  A    between atoms: C6_10  and  C7_11 
REMARK    5  A    between atoms: C7_11  and  O1_12 
REMARK    6  A    between atoms: C7_11  and  N3_14 
REMARK    7  A    between atoms: N3_14  and  C9_16 
REMARK    8  A    between atoms: C9_16  and  C10_17 
REMARK    9  A    between atoms: C10_17  and  C11_18 
REMARK   10  A    between atoms: C16_25  and  C17_26 
REMARK   11  A    between atoms: C18_27  and  C19_28 
REMARK   12  A    between atoms: C19_28  and  C20_29 
REMARK   13  A    between atoms: C21_31  and  N5_32 
ROOT
HETATM    1  C5  UNL     1      24.495 163.217 146.899  1.00  0.00     0.680 A 
HETATM    2  N2  UNL     1      24.393 164.186 147.834  1.00  0.00    -0.186 N 
ATOM      3  H2  UNL     1      23.482 164.602 148.026  1.00  0.00     0.184 HD
HETATM    4  C6  UNL     1      25.473 164.615 148.521  1.00  0.00     0.122 A 
HETATM    5  C16 UNL     1      26.721 164.035 148.247  1.00  0.00     0.093 A 
HETATM    6  C21 UNL     1      26.785 163.049 147.285  1.00  0.00     0.136 A 
HETATM    7  N6  UNL     1      25.668 162.669 146.639  1.00  0.00    -0.176 N 
ATOM      8  H6  UNL     1      25.729 161.939 145.930  1.00  0.00     0.186 HD
ENDROOT
BRANCH   4   9
HETATM    9  C7  UNL     1      25.391 165.634 149.509  1.00  0.00     0.167 C 
BRANCH   9  10
HETATM   10  O1  UNL     1      24.931 165.251 150.670  1.00  0.00    -0.344 OA
ATOM     11  H1  UNL     1      24.283 165.826 151.061  1.00  0.00     0.219 HD
ENDBRANCH   9  10
BRANCH   9  12
HETATM   12  N3  UNL     1      25.711 166.983 149.473  1.00  0.00    -0.364 N 
HETATM   13  C8  UNL     1      25.896 167.831 148.341  1.00  0.00     0.151 C 
BRANCH  12  14
HETATM   14  C9  UNL     1      25.909 167.697 150.807  1.00  0.00     0.129 C 
BRANCH  14  15
HETATM   15  C10 UNL     1      27.366 168.002 150.841  1.00  0.00     0.058 C 
BRANCH  15  16
HETATM   16  C11 UNL     1      28.081 167.417 151.977  1.00  0.00    -0.054 A 
HETATM   17  C12 UNL     1      29.252 167.918 152.510  1.00  0.00     0.024 A 
HETATM   18  C13 UNL     1      29.893 167.339 153.578  1.00  0.00     0.088 A 
HETATM   19  N4  UNL     1      29.368 166.247 154.127  1.00  0.00    -0.375 N 
HETATM   20  C14 UNL     1      28.229 165.698 153.666  1.00  0.00     0.088 A 
ATOM     21  H4  UNL     1      29.842 165.812 154.920  1.00  0.00     0.164 HD
HETATM   22  C15 UNL     1      27.572 166.285 152.578  1.00  0.00     0.024 A 
ENDBRANCH  15  16
ENDBRANCH  14  15
ENDBRANCH  12  14
ENDBRANCH   9  12
ENDBRANCH   4   9
BRANCH   5  23
HETATM   23  C17 UNL     1      27.913 164.427 148.924  1.00  0.00    -0.061 C 
HETATM   24  C18 UNL     1      28.954 164.716 149.515  1.00  0.00    -0.100 C 
BRANCH  24  25
HETATM   25  C19 UNL     1      30.183 165.043 150.236  1.00  0.00     0.109 C 
BRANCH  25  26
HETATM   26  C20 UNL     1      30.436 164.054 151.363  1.00  0.00     0.126 C 
HETATM   27 CL1  UNL     1      29.919 162.448 150.739  1.00  0.00    -0.130 Cl
ENDBRANCH  25  26
ENDBRANCH  24  25
ENDBRANCH   5  23
BRANCH   1  28
HETATM   28  N1  UNL     1      23.437 162.845 146.273  1.00  0.00    -0.226 N 
ATOM     29  H1  UNL     1      22.988 163.503 145.638  1.00  0.00     0.177 HD
BRANCH  28  30
HETATM   30  C4  UNL     1      22.859 161.532 146.431  1.00  0.00     0.142 C 
BRANCH  30  31
HETATM   31  C2  UNL     1      22.865 160.784 145.113  1.00  0.00    -0.004 C 
HETATM   32  C1  UNL     1      22.890 161.720 143.937  1.00  0.00     0.011 C 
HETATM   33  C3  UNL     1      24.069 159.881 145.084  1.00  0.00     0.011 C 
ENDBRANCH  30  31
ENDBRANCH  28  30
ENDBRANCH   1  28
BRANCH   6  34
HETATM   34  N5  UNL     1      27.924 162.474 146.992  1.00  0.00    -0.384 N 
ATOM     35  H52 UNL     1      28.353 161.839 147.665  1.00  0.00     0.157 HD
ATOM     36  H51 UNL     1      28.384 162.654 146.100  1.00  0.00     0.157 HD
ENDBRANCH   6  34
TORSDOF 13
ENDMDL
MODEL 2
REMARK VINA RESULT: -7.611306653      2.371      3.863
REMARK  13 active torsions:
REMARK  status: ('A' for Active; 'I' for Inactive)
REMARK    1  A    between atoms: C2_2  and  C4_4 
REMARK    2  A    between atoms: C4_4  and  N1_5 
REMARK    3  A    between atoms: N1_5  and  C5_7 
REMARK    4  A    between atoms: C6_10  and  C7_11 
REMARK    5  A    between atoms: C7_11  and  O1_12 
REMARK    6  A    between atoms: C7_11  and  N3_14 
REMARK    7  A    between atoms: N3_14  and  C9_16 
REMARK    8  A    between atoms: C9_16  and  C10_17 
REMARK    9  A    between atoms: C10_17  and  C11_18 
REMARK   10  A    between atoms: C16_25  and  C17_26 
REMARK   11  A    between atoms: C18_27  and  C19_28 
REMARK   12  A    between atoms: C19_28  and  C20_29 
REMARK   13  A    between atoms: C21_31  and  N5_32 
ROOT
HETATM    1  C5  UNL     1      26.445 162.190 147.219  1.00  0.00     0.680 A 
HETATM    2  N2  UNL     1      27.570 162.545 147.876  1.00  0.00    -0.186 N 
ATOM      3  H2  UNL     1      28.355 161.895 147.912  1.00  0.00     0.184 HD
HETATM    4  C6  UNL     1      27.676 163.744 148.487  1.00  0.00     0.122 A 
HETATM    5  C16 UNL     1      26.588 164.629 148.430  1.00  0.00     0.093 A 
HETATM    6  C21 UNL     1      25.457 164.230 147.750  1.00  0.00     0.136 A 
HETATM    7  N6  UNL     1      25.419 163.020 147.164  1.00  0.00    -0.176 N 
ATOM      8  H6  UNL     1      24.577 162.737 146.663  1.00  0.00     0.186 HD
ENDROOT
BRANCH   4   9
HETATM    9  C7  UNL     1      28.849 164.140 149.186  1.00  0.00     0.167 C 
BRANCH   9  10
HETATM   10  O1  UNL     1      29.833 164.557 148.435  1.00  0.00    -0.344 OA
ATOM     11  H1  UNL     1      30.598 164.871 148.904  1.00  0.00     0.219 HD
ENDBRANCH   9  10
BRANCH   9  12
HETATM   12  N3  UNL     1      29.152 164.168 150.539  1.00  0.00    -0.364 N 
HETATM   13  C8  UNL     1      30.363 164.566 151.179  1.00  0.00     0.151 C 
BRANCH  12  14
HETATM   14  C9  UNL     1      28.071 163.711 151.514  1.00  0.00     0.129 C 
BRANCH  14  15
HETATM   15  C10 UNL     1      27.876 164.882 152.412  1.00  0.00     0.058 C 
BRANCH  15  16
HETATM   16  C11 UNL     1      27.517 164.537 153.790  1.00  0.00    -0.054 A 
HETATM   17  C12 UNL     1      26.639 163.534 154.145  1.00  0.00     0.024 A 
HETATM   18  C13 UNL     1      26.328 163.242 155.451  1.00  0.00     0.088 A 
HETATM   19  N4  UNL     1      26.897 163.954 156.421  1.00  0.00    -0.375 N 
HETATM   20  C14 UNL     1      27.765 164.948 156.155  1.00  0.00     0.088 A 
ATOM     21  H4  UNL     1      26.668 163.742 157.392  1.00  0.00     0.164 HD
HETATM   22  C15 UNL     1      28.083 165.249 154.826  1.00  0.00     0.024 A 
ENDBRANCH  15  16
ENDBRANCH  14  15
ENDBRANCH  12  14
ENDBRANCH   9  12
ENDBRANCH   4   9
BRANCH   5  23
HETATM   23  C17 UNL     1      26.614 165.914 149.047  1.00  0.00    -0.061 C 
HETATM   24  C18 UNL     1      26.667 167.041 149.541  1.00  0.00    -0.100 C 
BRANCH  24  25
HETATM   25  C19 UNL     1      26.755 168.378 150.125  1.00  0.00     0.109 C 
BRANCH  25  26
HETATM   26  C20 UNL     1      26.727 168.314 151.645  1.00  0.00     0.126 C 
HETATM   27 CL1  UNL     1      28.445 168.360 152.176  1.00  0.00    -0.130 Cl
ENDBRANCH  25  26
ENDBRANCH  24  25
ENDBRANCH   5  23
BRANCH   1  28
HETATM   28  N1  UNL     1      26.394 161.037 146.654  1.00  0.00    -0.226 N 
ATOM     29  H1  UNL     1      27.264 160.603 146.349  1.00  0.00     0.177 HD
BRANCH  28  30
HETATM   30  C4  UNL     1      25.155 160.329 146.435  1.00  0.00     0.142 C 
BRANCH  30  31
HETATM   31  C2  UNL     1      24.879 160.184 144.952  1.00  0.00    -0.004 C 
HETATM   32  C1  UNL     1      24.481 158.781 144.591  1.00  0.00     0.011 C 
HETATM   33  C3  UNL     1      23.785 161.147 144.575  1.00  0.00     0.011 C 
ENDBRANCH  30  31
ENDBRANCH  28  30
ENDBRANCH   1  28
BRANCH   6  34
HETATM   34  N5  UNL     1      24.415 165.017 147.666  1.00  0.00    -0.384 N 
ATOM     35  H52 UNL     1      24.352 165.831 148.278  1.00  0.00     0.157 HD
ATOM     36  H51 UNL     1      23.669 164.825 146.998  1.00  0.00     0.157 HD
ENDBRANCH   6  34
TORSDOF 13
ENDMDL
MODEL 3
REMARK VINA RESULT: -7.440110032      1.579      2.229
REMARK  13 active torsions:
REMARK  status: ('A' for Active; 'I' for Inactive)
REMARK    1  A    between atoms: C2_2  and  C4_4 
REMARK    2  A    between atoms: C4_4  and  N1_5 
REMARK    3  A    between atoms: N1_5  and  C5_7 
REMARK    4  A    between atoms: C6_10  and  C7_11 
REMARK    5  A    between atoms: C7_11  and  O1_12 
REMARK    6  A    between atoms: C7_11  and  N3_14 
REMARK    7  A    between atoms: N3_14  and  C9_16 
REMARK    8  A    between atoms: C9_16  and  C10_17 
REMARK    9  A    between atoms: C10_17  and  C11_18 
REMARK   10  A    between atoms: C16_25  and  C17_26 
REMARK   11  A    between atoms: C18_27  and  C19_28 
REMARK   12  A    between atoms: C19_28  and  C20_29 
REMARK   13  A    between atoms: C21_31  and  N5_32 
ROOT
HETATM    1  C5  UNL     1      23.923 163.081 147.261  1.00  0.00     0.680 A 
HETATM    2  N2  UNL     1      24.167 164.282 147.830  1.00  0.00    -0.186 N 
ATOM      3  H2  UNL     1      23.389 164.918 148.008  1.00  0.00     0.184 HD
HETATM    4  C6  UNL     1      25.418 164.656 148.169  1.00  0.00     0.122 A 
HETATM    5  C16 UNL     1      26.478 163.771 147.919  1.00  0.00     0.093 A 
HETATM    6  C21 UNL     1      26.190 162.555 147.336  1.00  0.00     0.136 A 
HETATM    7  N6  UNL     1      24.919 162.246 147.024  1.00  0.00    -0.176 N 
ATOM      8  H6  UNL     1      24.718 161.344 146.594  1.00  0.00     0.186 HD
ENDROOT
BRANCH   4   9
HETATM    9  C7  UNL     1      25.700 165.914 148.768  1.00  0.00     0.167 C 
BRANCH   9  10
HETATM   10  O1  UNL     1      25.459 166.957 148.018  1.00  0.00    -0.344 OA
ATOM     11  H1  UNL     1      24.592 166.987 147.629  1.00  0.00     0.219 HD
ENDBRANCH   9  10
BRANCH   9  12
HETATM   12  N3  UNL     1      26.191 166.252 150.021  1.00  0.00    -0.364 N 
HETATM   13  C8  UNL     1      27.120 167.274 150.374  1.00  0.00     0.151 C 
BRANCH  12  14
HETATM   14  C9  UNL     1      25.700 165.437 151.213  1.00  0.00     0.129 C 
BRANCH  14  15
HETATM   15  C10 UNL     1      26.878 164.613 151.598  1.00  0.00     0.058 C 
BRANCH  15  16
HETATM   16  C11 UNL     1      27.100 164.508 153.042  1.00  0.00    -0.054 A 
HETATM   17  C12 UNL     1      26.540 163.542 153.854  1.00  0.00     0.024 A 
HETATM   18  C13 UNL     1      26.774 163.477 155.206  1.00  0.00     0.088 A 
HETATM   19  N4  UNL     1      27.575 164.383 155.764  1.00  0.00    -0.375 N 
HETATM   20  C14 UNL     1      28.159 165.355 155.039  1.00  0.00     0.088 A 
ATOM     21  H4  UNL     1      27.750 164.340 156.768  1.00  0.00     0.164 HD
HETATM   22  C15 UNL     1      27.923 165.425 153.661  1.00  0.00     0.024 A 
ENDBRANCH  15  16
ENDBRANCH  14  15
ENDBRANCH  12  14
ENDBRANCH   9  12
ENDBRANCH   4   9
BRANCH   5  23
HETATM   23  C17 UNL     1      27.830 164.085 148.244  1.00  0.00    -0.061 C 
HETATM   24  C18 UNL     1      28.995 164.323 148.564  1.00  0.00    -0.100 C 
BRANCH  24  25
HETATM   25  C19 UNL     1      30.371 164.610 148.969  1.00  0.00     0.109 C 
BRANCH  25  26
HETATM   26  C20 UNL     1      30.417 165.197 150.371  1.00  0.00     0.126 C 
HETATM   27 CL1  UNL     1      30.450 163.795 151.497  1.00  0.00    -0.130 Cl
ENDBRANCH  25  26
ENDBRANCH  24  25
ENDBRANCH   5  23
BRANCH   1  28
HETATM   28  N1  UNL     1      22.714 162.772 146.957  1.00  0.00    -0.226 N 
ATOM     29  H1  UNL     1      21.986 163.477 147.070  1.00  0.00     0.177 HD
BRANCH  28  30
HETATM   30  C4  UNL     1      22.342 161.469 146.461  1.00  0.00     0.142 C 
BRANCH  30  31
HETATM   31  C2  UNL     1      21.604 161.590 145.142  1.00  0.00    -0.004 C 
HETATM   32  C1  UNL     1      20.739 162.818 145.095  1.00  0.00     0.011 C 
HETATM   33  C3  UNL     1      22.619 161.627 144.031  1.00  0.00     0.011 C 
ENDBRANCH  30  31
ENDBRANCH  28  30
ENDBRANCH   1  28
BRANCH   6  34
HETATM   34  N5  UNL     1      27.141 161.693 147.082  1.00  0.00    -0.384 N 
ATOM     35  H52 UNL     1      28.114 162.000 147.106  1.00  0.00     0.157 HD
ATOM     36  H51 UNL     1      26.920 160.723 146.861  1.00  0.00     0.157 HD
ENDBRANCH   6  34
TORSDOF 13
ENDMDL
MODEL 4
REMARK VINA RESULT: -7.413840886      0.682      1.479
REMARK  13 active torsions:
REMARK  status: ('A' for Active; 'I' for Inactive)
REMARK    1  A    between atoms: C2_2  and  C4_4 
REMARK    2  A    between atoms: C4_4  and  N1_5 
REMARK    3  A    between atoms: N1_5  and  C5_7 
REMARK    4  A    between atoms: C6_10  and  C7_11 
REMARK    5  A    between atoms: C7_11  and  O1_12 
REMARK    6  A    between atoms: C7_11  and  N3_14 
REMARK    7  A    between atoms: N3_14  and  C9_16 
REMARK    8  A    between atoms: C9_16  and  C10_17 
REMARK    9  A    between atoms: C10_17  and  C11_18 
REMARK   10  A    between atoms: C16_25  and  C17_26 
REMARK   11  A    between atoms: C18_27  and  C19_28 
REMARK   12  A    between atoms: C19_28  and  C20_29 
REMARK   13  A    between atoms: C21_31  and  N5_32 
ROOT
HETATM    1  C5  UNL     1      24.767 163.363 146.848  1.00  0.00     0.680 A 
HETATM    2  N2  UNL     1      24.634 164.311 147.800  1.00  0.00    -0.186 N 
ATOM      3  H2  UNL     1      23.720 164.736 147.958  1.00  0.00     0.184 HD
HETATM    4  C6  UNL     1      25.686 164.708 148.546  1.00  0.00     0.122 A 
HETATM    5  C16 UNL     1      26.937 164.115 148.317  1.00  0.00     0.093 A 
HETATM    6  C21 UNL     1      27.033 163.151 147.337  1.00  0.00     0.136 A 
HETATM    7  N6  UNL     1      25.943 162.803 146.630  1.00  0.00    -0.176 N 
ATOM      8  H6  UNL     1      26.027 162.088 145.907  1.00  0.00     0.186 HD
ENDROOT
BRANCH   4   9
HETATM    9  C7  UNL     1      25.571 165.705 149.553  1.00  0.00     0.167 C 
BRANCH   9  10
HETATM   10  O1  UNL     1      25.193 165.273 150.727  1.00  0.00    -0.344 OA
ATOM     11  H1  UNL     1      24.310 164.924 150.767  1.00  0.00     0.219 HD
ENDBRANCH   9  10
BRANCH   9  12
HETATM   12  N3  UNL     1      25.788 167.075 149.525  1.00  0.00    -0.364 N 
HETATM   13  C8  UNL     1      25.918 167.939 148.398  1.00  0.00     0.151 C 
BRANCH  12  14
HETATM   14  C9  UNL     1      25.918 167.796 150.863  1.00  0.00     0.129 C 
BRANCH  14  15
HETATM   15  C10 UNL     1      27.366 168.125 150.958  1.00  0.00     0.058 C 
BRANCH  15  16
HETATM   16  C11 UNL     1      28.067 167.471 152.066  1.00  0.00    -0.054 A 
HETATM   17  C12 UNL     1      27.644 166.314 152.688  1.00  0.00     0.024 A 
HETATM   18  C13 UNL     1      28.330 165.731 153.726  1.00  0.00     0.088 A 
HETATM   19  N4  UNL     1      29.453 166.303 154.154  1.00  0.00    -0.375 N 
HETATM   20  C14 UNL     1      29.931 167.432 153.598  1.00  0.00     0.088 A 
ATOM     21  H4  UNL     1      29.965 165.875 154.926  1.00  0.00     0.164 HD
HETATM   22  C15 UNL     1      29.234 168.029 152.541  1.00  0.00     0.024 A 
ENDBRANCH  15  16
ENDBRANCH  14  15
ENDBRANCH  12  14
ENDBRANCH   9  12
ENDBRANCH   4   9
BRANCH   5  23
HETATM   23  C17 UNL     1      28.101 164.474 149.059  1.00  0.00    -0.061 C 
HETATM   24  C18 UNL     1      29.111 164.735 149.713  1.00  0.00    -0.100 C 
BRANCH  24  25
HETATM   25  C19 UNL     1      30.300 165.031 150.511  1.00  0.00     0.109 C 
BRANCH  25  26
HETATM   26  C20 UNL     1      30.557 163.939 151.537  1.00  0.00     0.126 C 
HETATM   27 CL1  UNL     1      29.995 162.406 150.782  1.00  0.00    -0.130 Cl
ENDBRANCH  25  26
ENDBRANCH  24  25
ENDBRANCH   5  23
BRANCH   1  28
HETATM   28  N1  UNL     1      23.734 163.020 146.164  1.00  0.00    -0.226 N 
ATOM     29  H1  UNL     1      23.259 163.731 145.608  1.00  0.00     0.177 HD
BRANCH  28  30
HETATM   30  C4  UNL     1      23.220 161.672 146.149  1.00  0.00     0.142 C 
BRANCH  30  31
HETATM   31  C2  UNL     1      21.765 161.651 146.575  1.00  0.00    -0.004 C 
HETATM   32  C1  UNL     1      21.605 161.956 148.037  1.00  0.00     0.011 C 
HETATM   33  C3  UNL     1      21.014 162.660 145.748  1.00  0.00     0.011 C 
ENDBRANCH  30  31
ENDBRANCH  28  30
ENDBRANCH   1  28
BRANCH   6  34
HETATM   34  N5  UNL     1      28.177 162.566 147.083  1.00  0.00    -0.384 N 
ATOM     35  H52 UNL     1      28.810 162.351 147.853  1.00  0.00     0.157 HD
ATOM     36  H51 UNL     1      28.438 162.325 146.128  1.00  0.00     0.157 HD
ENDBRANCH   6  34
TORSDOF 13
ENDMDL
MODEL 5
REMARK VINA RESULT: -7.285351956      2.213      3.695
REMARK  13 active torsions:
REMARK  status: ('A' for Active; 'I' for Inactive)
REMARK    1  A    between atoms: C2_2  and  C4_4 
REMARK    2  A    between atoms: C4_4  and  N1_5 
REMARK    3  A    between atoms: N1_5  and  C5_7 
REMARK    4  A    between atoms: C6_10  and  C7_11 
REMARK    5  A    between atoms: C7_11  and  O1_12 
REMARK    6  A    between atoms: C7_11  and  N3_14 
REMARK    7  A    between atoms: N3_14  and  C9_16 
REMARK    8  A    between atoms: C9_16  and  C10_17 
REMARK    9  A    between atoms: C10_17  and  C11_18 
REMARK   10  A    between atoms: C16_25  and  C17_26 
REMARK   11  A    between atoms: C18_27  and  C19_28 
REMARK   12  A    between atoms: C19_28  and  C20_29 
REMARK   13  A    between atoms: C21_31  and  N5_32 
ROOT
HETATM    1  C5  UNL     1      25.832 162.633 146.941  1.00  0.00     0.680 A 
HETATM    2  N2  UNL     1      27.012 162.669 147.598  1.00  0.00    -0.186 N 
ATOM      3  H2  UNL     1      27.642 161.869 147.538  1.00  0.00     0.184 HD
HETATM    4  C6  UNL     1      27.373 163.742 148.333  1.00  0.00     0.122 A 
HETATM    5  C16 UNL     1      26.496 164.834 148.407  1.00  0.00     0.093 A 
HETATM    6  C21 UNL     1      25.301 164.761 147.723  1.00  0.00     0.136 A 
HETATM    7  N6  UNL     1      25.005 163.660 147.009  1.00  0.00    -0.176 N 
ATOM      8  H6  UNL     1      24.118 163.617 146.507  1.00  0.00     0.186 HD
ENDROOT
BRANCH   4   9
HETATM    9  C7  UNL     1      28.608 163.802 149.034  1.00  0.00     0.167 C 
BRANCH   9  10
HETATM   10  O1  UNL     1      29.540 164.519 148.464  1.00  0.00    -0.344 OA
ATOM     11  H1  UNL     1      29.555 165.437 148.711  1.00  0.00     0.219 HD
ENDBRANCH   9  10
BRANCH   9  12
HETATM   12  N3  UNL     1      29.019 163.233 150.230  1.00  0.00    -0.364 N 
HETATM   13  C8  UNL     1      29.458 161.900 150.485  1.00  0.00     0.151 C 
BRANCH  12  14
HETATM   14  C9  UNL     1      29.011 164.118 151.473  1.00  0.00     0.129 C 
BRANCH  14  15
HETATM   15  C10 UNL     1      27.594 164.091 151.926  1.00  0.00     0.058 C 
BRANCH  15  16
HETATM   16  C11 UNL     1      27.420 164.159 153.379  1.00  0.00    -0.054 A 
HETATM   17  C12 UNL     1      26.556 163.363 154.104  1.00  0.00     0.024 A 
HETATM   18  C13 UNL     1      26.422 163.458 155.469  1.00  0.00     0.088 A 
HETATM   19  N4  UNL     1      27.155 164.355 156.125  1.00  0.00    -0.375 N 
HETATM   20  C14 UNL     1      28.021 165.166 155.489  1.00  0.00     0.088 A 
ATOM     21  H4  UNL     1      27.058 164.430 157.138  1.00  0.00     0.164 HD
HETATM   22  C15 UNL     1      28.160 165.073 154.099  1.00  0.00     0.024 A 
ENDBRANCH  15  16
ENDBRANCH  14  15
ENDBRANCH  12  14
ENDBRANCH   9  12
ENDBRANCH   4   9
BRANCH   5  23
HETATM   23  C17 UNL     1      26.797 166.007 149.160  1.00  0.00    -0.061 C 
HETATM   24  C18 UNL     1      27.016 167.043 149.789  1.00  0.00    -0.100 C 
BRANCH  24  25
HETATM   25  C19 UNL     1      27.274 168.286 150.514  1.00  0.00     0.109 C 
BRANCH  25  26
HETATM   26  C20 UNL     1      27.657 168.008 151.959  1.00  0.00     0.126 C 
HETATM   27 CL1  UNL     1      29.433 167.720 151.955  1.00  0.00    -0.130 Cl
ENDBRANCH  25  26
ENDBRANCH  24  25
ENDBRANCH   5  23
BRANCH   1  28
HETATM   28  N1  UNL     1      25.535 161.588 146.255  1.00  0.00    -0.226 N 
ATOM     29  H1  UNL     1      26.161 161.302 145.503  1.00  0.00     0.177 HD
BRANCH  28  30
HETATM   30  C4  UNL     1      24.351 160.801 146.506  1.00  0.00     0.142 C 
BRANCH  30  31
HETATM   31  C2  UNL     1      23.723 160.352 145.202  1.00  0.00    -0.004 C 
HETATM   32  C1  UNL     1      23.634 161.475 144.207  1.00  0.00     0.011 C 
HETATM   33  C3  UNL     1      24.546 159.225 144.640  1.00  0.00     0.011 C 
ENDBRANCH  30  31
ENDBRANCH  28  30
ENDBRANCH   1  28
BRANCH   6  34
HETATM   34  N5  UNL     1      24.448 165.752 147.759  1.00  0.00    -0.384 N 
ATOM     35  H52 UNL     1      23.634 165.690 148.371  1.00  0.00     0.157 HD
ATOM     36  H51 UNL     1      24.588 166.582 147.184  1.00  0.00     0.157 HD
ENDBRANCH   6  34
TORSDOF 13
ENDMDL
