MODEL 1
REMARK VINA RESULT: -7.753145932      0.000      0.000
REMARK  10 active torsions:
REMARK  status: ('A' for Active; 'I' for Inactive)
REMARK    1  A    between atoms: C2_2  and  C3_3 
REMARK    2  A    between atoms: C3_3  and  N1_4 
REMARK    3  A    between atoms: N1_4  and  C4_6 
REMARK    4  A    between atoms: C4_6  and  N2_8 
REMARK    5  A    between atoms: N2_8  and  C5_9 
REMARK    6  A    between atoms: N2_8  and  C15_24 
REMARK    7  A    between atoms: C5_9  and  C6_10 
REMARK       I    between atoms: C6_10  and  N3_12 
REMARK    8  A    between atoms: N3_12  and  C7_14 
REMARK    9  A    between atoms: C10_17  and  N4_18 
REMARK   10  A    between atoms: C15_24  and  O2_26 
ROOT
HETATM    1  C6  UNL     1      27.033 164.900 150.583  1.00  0.00     0.240 C 
HETATM    2  O1  UNL     1      25.866 165.245 150.818  1.00  0.00    -0.271 OA
HETATM    3  N3  UNL     1      27.875 164.385 151.563  1.00  0.00    -0.325 N 
ATOM      4  H3  UNL     1      28.812 164.139 151.242  1.00  0.00     0.169 HD
ENDROOT
BRANCH   1   5
HETATM    5  C5  UNL     1      27.525 165.054 149.201  1.00  0.00     0.236 C 
BRANCH   5   6
HETATM    6  N2  UNL     1      26.571 164.430 148.233  1.00  0.00    -0.300 N 
BRANCH   6   7
HETATM    7  C4  UNL     1      27.022 163.222 147.710  1.00  0.00     0.176 C 
HETATM    8  S1  UNL     1      28.522 162.621 148.196  1.00  0.00    -0.041 SA
BRANCH   7   9
HETATM    9  N1  UNL     1      26.359 162.400 146.791  1.00  0.00    -0.367 N 
ATOM     10  H1  UNL     1      26.408 162.577 145.787  1.00  0.00     0.161 HD
BRANCH   9  11
HETATM   11  C3  UNL     1      25.580 161.257 147.339  1.00  0.00     0.121 C 
BRANCH  11  12
HETATM   12  C2  UNL     1      25.828 160.072 146.460  1.00  0.00     0.015 C 
HETATM   13  C1  UNL     1      24.924 160.001 145.254  1.00  0.00     0.006 C 
ENDBRANCH  11  12
ENDBRANCH   9  11
ENDBRANCH   7   9
ENDBRANCH   6   7
BRANCH   6  14
HETATM   14  C15 UNL     1      25.381 165.098 147.962  1.00  0.00     0.116 C 
HETATM   15  C16 UNL     1      25.126 166.412 147.361  1.00  0.00     0.097 C 
BRANCH  14  16
HETATM   16  O2  UNL     1      24.289 164.457 148.294  1.00  0.00    -0.349 OA
ATOM     17  H2  UNL     1      23.524 164.652 147.766  1.00  0.00     0.219 HD
ENDBRANCH  14  16
ENDBRANCH   6  14
ENDBRANCH   5   6
ENDBRANCH   1   5
BRANCH   3  18
HETATM   18  C7  UNL     1      27.632 164.150 152.932  1.00  0.00     0.052 A 
HETATM   19  C8  UNL     1      26.539 163.475 153.376  1.00  0.00     0.033 A 
HETATM   20  C9  UNL     1      26.364 163.277 154.753  1.00  0.00     0.031 A 
HETATM   21  C10 UNL     1      27.258 163.739 155.688  1.00  0.00     0.030 A 
HETATM   22  C13 UNL     1      28.352 164.418 155.206  1.00  0.00     0.050 A 
HETATM   23  C14 UNL     1      28.560 164.632 153.878  1.00  0.00     0.040 A 
HETATM   24 BR1  UNL     1      30.077 165.571 153.230  1.00  0.00    -0.049 Br
BRANCH  21  25
HETATM   25  N4  UNL     1      27.083 163.538 157.086  1.00  0.00    -0.390 N 
HETATM   26  C11 UNL     1      28.103 162.885 157.866  1.00  0.00     0.149 C 
HETATM   27  C12 UNL     1      25.863 164.001 157.718  1.00  0.00     0.149 C 
ENDBRANCH  21  25
ENDBRANCH   3  18
TORSDOF 10
ENDMDL
MODEL 2
REMARK VINA RESULT: -7.642396166      1.532      2.020
REMARK  10 active torsions:
REMARK  status: ('A' for Active; 'I' for Inactive)
REMARK    1  A    between atoms: C2_2  and  C3_3 
REMARK    2  A    between atoms: C3_3  and  N1_4 
REMARK    3  A    between atoms: N1_4  and  C4_6 
REMARK    4  A    between atoms: C4_6  and  N2_8 
REMARK    5  A    between atoms: N2_8  and  C5_9 
REMARK    6  A    between atoms: N2_8  and  C15_24 
REMARK    7  A    between atoms: C5_9  and  C6_10 
REMARK       I    between atoms: C6_10  and  N3_12 
REMARK    8  A    between atoms: N3_12  and  C7_14 
REMARK    9  A    between atoms: C10_17  and  N4_18 
REMARK   10  A    between atoms: C15_24  and  O2_26 
ROOT
HETATM    1  C6  UNL     1      26.959 165.053 150.632  1.00  0.00     0.240 C 
HETATM    2  O1  UNL     1      25.765 165.280 150.872  1.00  0.00    -0.271 OA
HETATM    3  N3  UNL     1      27.842 164.580 151.597  1.00  0.00    -0.325 N 
ATOM      4  H3  UNL     1      28.799 164.433 151.273  1.00  0.00     0.169 HD
ENDROOT
BRANCH   1   5
HETATM    5  C5  UNL     1      27.439 165.302 149.259  1.00  0.00     0.236 C 
BRANCH   5   6
HETATM    6  N2  UNL     1      27.049 164.177 148.354  1.00  0.00    -0.300 N 
BRANCH   6   7
HETATM    7  C4  UNL     1      25.734 164.257 147.906  1.00  0.00     0.176 C 
HETATM    8  S1  UNL     1      25.172 165.706 147.249  1.00  0.00    -0.041 SA
BRANCH   7   9
HETATM    9  N1  UNL     1      24.771 163.241 147.930  1.00  0.00    -0.367 N 
ATOM     10  H1  UNL     1      24.123 163.140 148.712  1.00  0.00     0.161 HD
BRANCH   9  11
HETATM   11  C3  UNL     1      24.733 162.314 146.766  1.00  0.00     0.121 C 
BRANCH  11  12
HETATM   12  C2  UNL     1      25.121 160.953 147.253  1.00  0.00     0.015 C 
HETATM   13  C1  UNL     1      25.842 160.115 146.226  1.00  0.00     0.006 C 
ENDBRANCH  11  12
ENDBRANCH   9  11
ENDBRANCH   7   9
ENDBRANCH   6   7
BRANCH   6  14
HETATM   14  C15 UNL     1      28.001 163.204 148.068  1.00  0.00     0.116 C 
HETATM   15  C16 UNL     1      28.885 162.429 148.948  1.00  0.00     0.097 C 
BRANCH  14  16
HETATM   16  O2  UNL     1      28.149 162.918 146.800  1.00  0.00    -0.349 OA
ATOM     17  H2  UNL     1      28.966 162.491 146.570  1.00  0.00     0.219 HD
ENDBRANCH  14  16
ENDBRANCH   6  14
ENDBRANCH   5   6
ENDBRANCH   1   5
BRANCH   3  18
HETATM   18  C7  UNL     1      27.617 164.273 152.954  1.00  0.00     0.052 A 
HETATM   19  C8  UNL     1      26.541 163.557 153.374  1.00  0.00     0.033 A 
HETATM   20  C9  UNL     1      26.384 163.287 154.741  1.00  0.00     0.031 A 
HETATM   21  C10 UNL     1      27.280 163.717 155.690  1.00  0.00     0.030 A 
HETATM   22  C13 UNL     1      28.357 164.437 155.232  1.00  0.00     0.050 A 
HETATM   23  C14 UNL     1      28.548 164.721 153.914  1.00  0.00     0.040 A 
HETATM   24 BR1  UNL     1      30.042 165.717 153.299  1.00  0.00    -0.049 Br
BRANCH  21  25
HETATM   25  N4  UNL     1      27.123 163.442 157.077  1.00  0.00    -0.390 N 
HETATM   26  C11 UNL     1      28.207 162.877 157.840  1.00  0.00     0.149 C 
HETATM   27  C12 UNL     1      25.857 163.741 157.716  1.00  0.00     0.149 C 
ENDBRANCH  21  25
ENDBRANCH   3  18
TORSDOF 10
ENDMDL
MODEL 3
REMARK VINA RESULT: -7.519527467      2.861      7.686
REMARK  10 active torsions:
REMARK  status: ('A' for Active; 'I' for Inactive)
REMARK    1  A    between atoms: C2_2  and  C3_3 
REMARK    2  A    between atoms: C3_3  and  N1_4 
REMARK    3  A    between atoms: N1_4  and  C4_6 
REMARK    4  A    between atoms: C4_6  and  N2_8 
REMARK    5  A    between atoms: N2_8  and  C5_9 
REMARK    6  A    between atoms: N2_8  and  C15_24 
REMARK    7  A    between atoms: C5_9  and  C6_10 
REMARK       I    between atoms: C6_10  and  N3_12 
REMARK    8  A    between atoms: N3_12  and  C7_14 
REMARK    9  A    between atoms: C10_17  and  N4_18 
REMARK   10  A    between atoms: C15_24  and  O2_26 
ROOT
HETATM    1  C6  UNL     1      27.361 165.083 150.165  1.00  0.00     0.240 C 
HETATM    2  O1  UNL     1      26.661 164.521 151.018  1.00  0.00    -0.271 OA
HETATM    3  N3  UNL     1      27.138 164.942 148.798  1.00  0.00    -0.325 N 
ATOM      4  H3  UNL     1      27.784 165.456 148.199  1.00  0.00     0.169 HD
ENDROOT
BRANCH   1   5
HETATM    5  C5  UNL     1      28.472 165.929 150.641  1.00  0.00     0.236 C 
BRANCH   5   6
HETATM    6  N2  UNL     1      27.988 166.899 151.671  1.00  0.00    -0.300 N 
BRANCH   6   7
HETATM    7  C4  UNL     1      28.397 166.585 152.964  1.00  0.00     0.176 C 
HETATM    8  S1  UNL     1      29.671 167.446 153.658  1.00  0.00    -0.041 SA
BRANCH   7   9
HETATM    9  N1  UNL     1      27.862 165.600 153.803  1.00  0.00    -0.367 N 
ATOM     10  H1  UNL     1      26.860 165.549 153.991  1.00  0.00     0.161 HD
BRANCH   9  11
HETATM   11  C3  UNL     1      28.815 164.630 154.407  1.00  0.00     0.121 C 
BRANCH  11  12
HETATM   12  C2  UNL     1      28.145 164.010 155.593  1.00  0.00     0.015 C 
HETATM   13  C1  UNL     1      26.755 163.493 155.314  1.00  0.00     0.006 C 
ENDBRANCH  11  12
ENDBRANCH   9  11
ENDBRANCH   7   9
ENDBRANCH   6   7
BRANCH   6  14
HETATM   14  C15 UNL     1      27.207 167.970 151.249  1.00  0.00     0.116 C 
HETATM   15  C16 UNL     1      26.910 168.478 149.904  1.00  0.00     0.097 C 
BRANCH  14  16
HETATM   16  O2  UNL     1      26.628 168.654 152.203  1.00  0.00    -0.349 OA
ATOM     17  H2  UNL     1      25.764 168.989 151.998  1.00  0.00     0.219 HD
ENDBRANCH  14  16
ENDBRANCH   6  14
ENDBRANCH   5   6
ENDBRANCH   1   5
BRANCH   3  18
HETATM   18  C7  UNL     1      26.153 164.198 148.117  1.00  0.00     0.052 A 
HETATM   19  C8  UNL     1      24.867 164.619 148.000  1.00  0.00     0.033 A 
HETATM   20  C9  UNL     1      23.943 163.827 147.304  1.00  0.00     0.031 A 
HETATM   21  C10 UNL     1      24.281 162.628 146.725  1.00  0.00     0.030 A 
HETATM   22  C13 UNL     1      25.590 162.231 146.861  1.00  0.00     0.050 A 
HETATM   23  C14 UNL     1      26.519 162.970 147.528  1.00  0.00     0.040 A 
HETATM   24 BR1  UNL     1      28.323 162.407 147.705  1.00  0.00    -0.049 Br
BRANCH  21  25
HETATM   25  N4  UNL     1      23.345 161.823 146.017  1.00  0.00    -0.390 N 
HETATM   26  C11 UNL     1      23.783 160.663 145.284  1.00  0.00     0.149 C 
HETATM   27  C12 UNL     1      21.942 162.184 146.045  1.00  0.00     0.149 C 
ENDBRANCH  21  25
ENDBRANCH   3  18
TORSDOF 10
ENDMDL
MODEL 4
REMARK VINA RESULT: -7.496074445      2.662      7.749
REMARK  10 active torsions:
REMARK  status: ('A' for Active; 'I' for Inactive)
REMARK    1  A    between atoms: C2_2  and  C3_3 
REMARK    2  A    between atoms: C3_3  and  N1_4 
REMARK    3  A    between atoms: N1_4  and  C4_6 
REMARK    4  A    between atoms: C4_6  and  N2_8 
REMARK    5  A    between atoms: N2_8  and  C5_9 
REMARK    6  A    between atoms: N2_8  and  C15_24 
REMARK    7  A    between atoms: C5_9  and  C6_10 
REMARK       I    between atoms: C6_10  and  N3_12 
REMARK    8  A    between atoms: N3_12  and  C7_14 
REMARK    9  A    between atoms: C10_17  and  N4_18 
REMARK   10  A    between atoms: C15_24  and  O2_26 
ROOT
HETATM    1  C6  UNL     1      27.325 164.725 149.657  1.00  0.00     0.240 C 
HETATM    2  O1  UNL     1      26.368 164.524 150.418  1.00  0.00    -0.271 OA
HETATM    3  N3  UNL     1      27.410 164.156 148.390  1.00  0.00    -0.325 N 
ATOM      4  H3  UNL     1      28.249 164.400 147.862  1.00  0.00     0.169 HD
ENDROOT
BRANCH   1   5
HETATM    5  C5  UNL     1      28.406 165.607 150.137  1.00  0.00     0.236 C 
BRANCH   5   6
HETATM    6  N2  UNL     1      27.990 166.311 151.390  1.00  0.00    -0.300 N 
BRANCH   6   7
HETATM    7  C4  UNL     1      28.291 165.602 152.549  1.00  0.00     0.176 C 
HETATM    8  S1  UNL     1      29.878 165.097 152.820  1.00  0.00    -0.041 SA
BRANCH   7   9
HETATM    9  N1  UNL     1      27.404 165.237 153.569  1.00  0.00    -0.367 N 
ATOM     10  H1  UNL     1      27.106 165.905 154.280  1.00  0.00     0.161 HD
BRANCH   9  11
HETATM   11  C3  UNL     1      26.912 163.832 153.571  1.00  0.00     0.121 C 
BRANCH  11  12
HETATM   12  C2  UNL     1      26.657 163.440 154.993  1.00  0.00     0.015 C 
HETATM   13  C1  UNL     1      27.822 163.690 155.918  1.00  0.00     0.006 C 
ENDBRANCH  11  12
ENDBRANCH   9  11
ENDBRANCH   7   9
ENDBRANCH   6   7
BRANCH   6  14
HETATM   14  C15 UNL     1      27.368 167.550 151.272  1.00  0.00     0.116 C 
HETATM   15  C16 UNL     1      26.772 168.225 150.113  1.00  0.00     0.097 C 
BRANCH  14  16
HETATM   16  O2  UNL     1      27.293 168.248 152.377  1.00  0.00    -0.349 OA
ATOM     17  H2  UNL     1      26.497 168.129 152.881  1.00  0.00     0.219 HD
ENDBRANCH  14  16
ENDBRANCH   6  14
ENDBRANCH   5   6
ENDBRANCH   1   5
BRANCH   3  18
HETATM   18  C7  UNL     1      26.515 163.294 147.726  1.00  0.00     0.052 A 
HETATM   19  C8  UNL     1      26.707 161.950 147.656  1.00  0.00     0.033 A 
HETATM   20  C9  UNL     1      25.771 161.154 146.980  1.00  0.00     0.031 A 
HETATM   21  C10 UNL     1      24.652 161.675 146.377  1.00  0.00     0.030 A 
HETATM   22  C13 UNL     1      24.487 163.037 146.467  1.00  0.00     0.050 A 
HETATM   23  C14 UNL     1      25.371 163.846 147.113  1.00  0.00     0.040 A 
HETATM   24 BR1  UNL     1      25.126 165.725 147.228  1.00  0.00    -0.049 Br
BRANCH  21  25
HETATM   25  N4  UNL     1      23.700 160.869 145.692  1.00  0.00    -0.390 N 
HETATM   26  C11 UNL     1      22.292 161.158 145.785  1.00  0.00     0.149 C 
HETATM   27  C12 UNL     1      24.167 159.751 144.896  1.00  0.00     0.149 C 
ENDBRANCH  21  25
ENDBRANCH   3  18
TORSDOF 10
ENDMDL
MODEL 5
REMARK VINA RESULT: -7.443041581      1.143      1.383
REMARK  10 active torsions:
REMARK  status: ('A' for Active; 'I' for Inactive)
REMARK    1  A    between atoms: C2_2  and  C3_3 
REMARK    2  A    between atoms: C3_3  and  N1_4 
REMARK    3  A    between atoms: N1_4  and  C4_6 
REMARK    4  A    between atoms: C4_6  and  N2_8 
REMARK    5  A    between atoms: N2_8  and  C5_9 
REMARK    6  A    between atoms: N2_8  and  C15_24 
REMARK    7  A    between atoms: C5_9  and  C6_10 
REMARK       I    between atoms: C6_10  and  N3_12 
REMARK    8  A    between atoms: N3_12  and  C7_14 
REMARK    9  A    between atoms: C10_17  and  N4_18 
REMARK   10  A    between atoms: C15_24  and  O2_26 
ROOT
HETATM    1  C6  UNL     1      28.182 164.296 150.600  1.00  0.00     0.240 C 
HETATM    2  O1  UNL     1      28.941 163.344 150.829  1.00  0.00    -0.271 OA
HETATM    3  N3  UNL     1      27.420 164.906 151.592  1.00  0.00    -0.325 N 
ATOM      4  H3  UNL     1      26.835 165.679 151.274  1.00  0.00     0.169 HD
ENDROOT
BRANCH   1   5
HETATM    5  C5  UNL     1      28.098 164.783 149.210  1.00  0.00     0.236 C 
BRANCH   5   6
HETATM    6  N2  UNL     1      26.773 164.433 148.610  1.00  0.00    -0.300 N 
BRANCH   6   7
HETATM    7  C4  UNL     1      26.757 163.187 147.990  1.00  0.00     0.176 C 
HETATM    8  S1  UNL     1      28.193 162.557 147.368  1.00  0.00    -0.041 SA
BRANCH   7   9
HETATM    9  N1  UNL     1      25.650 162.350 147.807  1.00  0.00    -0.367 N 
ATOM     10  H1  UNL     1      25.356 161.692 148.530  1.00  0.00     0.161 HD
BRANCH   9  11
HETATM   11  C3  UNL     1      24.920 162.461 146.515  1.00  0.00     0.121 C 
BRANCH  11  12
HETATM   12  C2  UNL     1      24.550 161.078 146.080  1.00  0.00     0.015 C 
HETATM   13  C1  UNL     1      25.643 160.057 146.278  1.00  0.00     0.006 C 
ENDBRANCH  11  12
ENDBRANCH   9  11
ENDBRANCH   7   9
ENDBRANCH   6   7
BRANCH   6  14
HETATM   14  C15 UNL     1      25.736 165.353 148.727  1.00  0.00     0.116 C 
HETATM   15  C16 UNL     1      25.447 166.583 147.980  1.00  0.00     0.097 C 
BRANCH  14  16
HETATM   16  O2  UNL     1      24.857 165.093 149.661  1.00  0.00    -0.349 OA
ATOM     17  H2  UNL     1      25.028 165.494 150.505  1.00  0.00     0.219 HD
ENDBRANCH  14  16
ENDBRANCH   6  14
ENDBRANCH   5   6
ENDBRANCH   1   5
BRANCH   3  18
HETATM   18  C7  UNL     1      27.335 164.618 152.969  1.00  0.00     0.052 A 
HETATM   19  C8  UNL     1      26.538 163.636 153.465  1.00  0.00     0.033 A 
HETATM   20  C9  UNL     1      26.507 163.404 154.847  1.00  0.00     0.031 A 
HETATM   21  C10 UNL     1      27.256 164.134 155.738  1.00  0.00     0.030 A 
HETATM   22  C13 UNL     1      28.052 165.120 155.205  1.00  0.00     0.050 A 
HETATM   23  C14 UNL     1      28.112 165.377 153.869  1.00  0.00     0.040 A 
HETATM   24 BR1  UNL     1      29.217 166.742 153.151  1.00  0.00    -0.049 Br
BRANCH  21  25
HETATM   25  N4  UNL     1      27.227 163.900 157.142  1.00  0.00    -0.390 N 
HETATM   26  C11 UNL     1      26.275 164.585 157.979  1.00  0.00     0.149 C 
HETATM   27  C12 UNL     1      28.167 162.961 157.719  1.00  0.00     0.149 C 
ENDBRANCH  21  25
ENDBRANCH   3  18
TORSDOF 10
ENDMDL
