MODEL 1
REMARK VINA RESULT: -7.420979178      0.000      0.000
REMARK  6 active torsions:
REMARK  status: ('A' for Active; 'I' for Inactive)
REMARK    1  A    between atoms: O1_2  and  C2_3 
REMARK    2  A    between atoms: C7_8  and  N1_9 
REMARK    3  A    between atoms: N1_9  and  C8_11 
REMARK    4  A    between atoms: C10_15  and  N3_16 
REMARK    5  A    between atoms: C14_26  and  C15_27 
REMARK    6  A    between atoms: C16_28  and  C17_29 
ROOT
HETATM    1  C8  UNL     1      10.415  23.334  34.369  1.00  0.00     0.125 A 
HETATM    2  N2  UNL     1      11.280  23.032  33.384  1.00  0.00    -0.336 N 
ATOM      3  H2  UNL     1      11.998  23.705  33.116  1.00  0.00     0.168 HD
HETATM    4  C9  UNL     1      11.200  21.839  32.746  1.00  0.00     0.105 A 
HETATM    5  C10 UNL     1      12.089  21.542  31.742  1.00  0.00     0.129 A 
HETATM    6  N4  UNL     1      11.977  20.347  31.134  1.00  0.00    -0.337 N 
ATOM      7  H4  UNL     1      12.629  20.109  30.386  1.00  0.00     0.168 HD
HETATM    8  C11 UNL     1      11.031  19.456  31.483  1.00  0.00     0.182 A 
HETATM    9  N5  UNL     1      10.151  19.729  32.464  1.00  0.00    -0.350 N 
ATOM     10  H5  UNL     1       9.434  19.054  32.729  1.00  0.00     0.166 HD
HETATM   11  C12 UNL     1      10.247  20.919  33.084  1.00  0.00     0.065 A 
HETATM   12  C13 UNL     1       9.358  21.253  34.111  1.00  0.00     0.056 A 
HETATM   13  C14 UNL     1       9.424  22.462  34.771  1.00  0.00     0.064 A 
ENDROOT
BRANCH   1  14
HETATM   14  N1  UNL     1      10.535  24.481  34.941  1.00  0.00    -0.339 N 
ATOM     15  H1  UNL     1      10.843  24.511  35.913  1.00  0.00     0.167 HD
BRANCH  14  16
HETATM   16  C7  UNL     1      10.263  25.691  34.286  1.00  0.00     0.067 A 
HETATM   17  C2  UNL     1      11.269  26.594  34.004  1.00  0.00     0.094 A 
HETATM   18  C3  UNL     1      11.041  27.792  33.362  1.00  0.00     0.039 A 
HETATM   19  C4  UNL     1       9.749  28.125  32.974  1.00  0.00     0.003 A 
HETATM   20  C5  UNL     1       8.738  27.242  33.246  1.00  0.00     0.002 A 
HETATM   21  C6  UNL     1       8.982  26.045  33.889  1.00  0.00     0.032 A 
BRANCH  17  22
HETATM   22  O1  UNL     1      12.566  26.289  34.379  1.00  0.00    -0.354 OA
HETATM   23  C1  UNL     1      13.218  26.970  35.431  1.00  0.00     0.210 C 
ENDBRANCH  17  22
ENDBRANCH  14  16
ENDBRANCH   1  14
BRANCH  13  24
HETATM   24  C15 UNL     1       8.516  22.817  35.826  1.00  0.00    -0.058 C 
HETATM   25  C16 UNL     1       7.754  23.130  36.712  1.00  0.00    -0.061 C 
BRANCH  25  26
HETATM   26  C17 UNL     1       6.849  23.516  37.758  1.00  0.00     0.020 A 
HETATM   27  C18 UNL     1       6.600  22.726  38.861  1.00  0.00     0.037 A 
HETATM   28  C19 UNL     1       5.732  23.102  39.861  1.00  0.00     0.089 A 
HETATM   29  N6  UNL     1       5.098  24.280  39.769  1.00  0.00    -0.375 N 
HETATM   30  C20 UNL     1       5.293  25.093  38.730  1.00  0.00     0.089 A 
ATOM     31  H6  UNL     1       4.454  24.561  40.509  1.00  0.00     0.164 HD
HETATM   32  C21 UNL     1       6.154  24.732  37.729  1.00  0.00     0.037 A 
ENDBRANCH  25  26
ENDBRANCH  13  24
BRANCH   5  33
HETATM   33  N3  UNL     1      13.011  22.398  31.397  1.00  0.00    -0.384 N 
ATOM     34  H32 UNL     1      13.740  22.689  32.049  1.00  0.00     0.157 HD
ATOM     35  H31 UNL     1      13.021  22.800  30.459  1.00  0.00     0.157 HD
ENDBRANCH   5  33
TORSDOF 6
ENDMDL
MODEL 2
REMARK VINA RESULT: -7.333917554      0.930      1.569
REMARK  6 active torsions:
REMARK  status: ('A' for Active; 'I' for Inactive)
REMARK    1  A    between atoms: O1_2  and  C2_3 
REMARK    2  A    between atoms: C7_8  and  N1_9 
REMARK    3  A    between atoms: N1_9  and  C8_11 
REMARK    4  A    between atoms: C10_15  and  N3_16 
REMARK    5  A    between atoms: C14_26  and  C15_27 
REMARK    6  A    between atoms: C16_28  and  C17_29 
ROOT
HETATM    1  C8  UNL     1      10.456  23.519  34.475  1.00  0.00     0.125 A 
HETATM    2  N2  UNL     1      11.295  23.259  33.457  1.00  0.00    -0.336 N 
ATOM      3  H2  UNL     1      12.157  23.797  33.359  1.00  0.00     0.168 HD
HETATM    4  C9  UNL     1      11.001  22.287  32.558  1.00  0.00     0.105 A 
HETATM    5  C10 UNL     1      11.865  22.031  31.523  1.00  0.00     0.129 A 
HETATM    6  N4  UNL     1      11.536  21.058  30.653  1.00  0.00    -0.337 N 
ATOM      7  H4  UNL     1      12.167  20.854  29.877  1.00  0.00     0.168 HD
HETATM    8  C11 UNL     1      10.402  20.347  30.776  1.00  0.00     0.182 A 
HETATM    9  N5  UNL     1       9.542  20.583  31.784  1.00  0.00    -0.350 N 
ATOM     10  H5  UNL     1       8.681  20.043  31.879  1.00  0.00     0.166 HD
HETATM   11  C12 UNL     1       9.853  21.552  32.664  1.00  0.00     0.065 A 
HETATM   12  C13 UNL     1       8.994  21.838  33.731  1.00  0.00     0.056 A 
HETATM   13  C14 UNL     1       9.278  22.823  34.653  1.00  0.00     0.064 A 
ENDROOT
BRANCH   1  14
HETATM   14  N1  UNL     1      10.785  24.452  35.298  1.00  0.00    -0.339 N 
ATOM     15  H1  UNL     1      10.672  24.282  36.298  1.00  0.00     0.167 HD
BRANCH  14  16
HETATM   16  C7  UNL     1      11.291  25.692  34.881  1.00  0.00     0.067 A 
HETATM   17  C2  UNL     1      12.471  26.192  35.395  1.00  0.00     0.094 A 
HETATM   18  C3  UNL     1      13.000  27.405  35.010  1.00  0.00     0.039 A 
HETATM   19  C4  UNL     1      12.332  28.174  34.065  1.00  0.00     0.003 A 
HETATM   20  C5  UNL     1      11.160  27.694  33.545  1.00  0.00     0.002 A 
HETATM   21  C6  UNL     1      10.642  26.476  33.940  1.00  0.00     0.032 A 
BRANCH  17  22
HETATM   22  O1  UNL     1      13.159  25.448  36.338  1.00  0.00    -0.354 OA
HETATM   23  C1  UNL     1      13.168  25.802  37.705  1.00  0.00     0.210 C 
ENDBRANCH  17  22
ENDBRANCH  14  16
ENDBRANCH   1  14
BRANCH  13  24
HETATM   24  C15 UNL     1       8.404  23.126  35.753  1.00  0.00    -0.058 C 
HETATM   25  C16 UNL     1       7.657  23.380  36.669  1.00  0.00    -0.061 C 
BRANCH  25  26
HETATM   26  C17 UNL     1       6.758  23.676  37.750  1.00  0.00     0.020 A 
HETATM   27  C18 UNL     1       6.023  24.842  37.812  1.00  0.00     0.037 A 
HETATM   28  C19 UNL     1       5.162  25.121  38.849  1.00  0.00     0.089 A 
HETATM   29  N6  UNL     1       5.026  24.232  39.844  1.00  0.00    -0.375 N 
HETATM   30  C20 UNL     1       5.707  23.085  39.847  1.00  0.00     0.089 A 
ATOM     31  H6  UNL     1       4.389  24.437  40.614  1.00  0.00     0.164 HD
HETATM   32  C21 UNL     1       6.566  22.795  38.821  1.00  0.00     0.037 A 
ENDBRANCH  25  26
ENDBRANCH  13  24
BRANCH   5  33
HETATM   33  N3  UNL     1      12.969  22.715  31.395  1.00  0.00    -0.384 N 
ATOM     34  H32 UNL     1      13.579  22.896  32.192  1.00  0.00     0.157 HD
ATOM     35  H31 UNL     1      13.247  23.087  30.487  1.00  0.00     0.157 HD
ENDBRANCH   5  33
TORSDOF 6
ENDMDL
MODEL 3
REMARK VINA RESULT: -7.187115503      0.919      2.048
REMARK  6 active torsions:
REMARK  status: ('A' for Active; 'I' for Inactive)
REMARK    1  A    between atoms: O1_2  and  C2_3 
REMARK    2  A    between atoms: C7_8  and  N1_9 
REMARK    3  A    between atoms: N1_9  and  C8_11 
REMARK    4  A    between atoms: C10_15  and  N3_16 
REMARK    5  A    between atoms: C14_26  and  C15_27 
REMARK    6  A    between atoms: C16_28  and  C17_29 
ROOT
HETATM    1  C8  UNL     1      10.274  23.767  34.099  1.00  0.00     0.125 A 
HETATM    2  N2  UNL     1      11.156  23.470  33.128  1.00  0.00    -0.336 N 
ATOM      3  H2  UNL     1      11.631  24.221  32.627  1.00  0.00     0.168 HD
HETATM    4  C9  UNL     1      11.416  22.177  32.811  1.00  0.00     0.105 A 
HETATM    5  C10 UNL     1      12.319  21.887  31.818  1.00  0.00     0.129 A 
HETATM    6  N4  UNL     1      12.549  20.592  31.535  1.00  0.00    -0.337 N 
ATOM      7  H4  UNL     1      13.217  20.357  30.800  1.00  0.00     0.168 HD
HETATM    8  C11 UNL     1      11.926  19.598  32.192  1.00  0.00     0.182 A 
HETATM    9  N5  UNL     1      11.038  19.862  33.168  1.00  0.00    -0.350 N 
ATOM     10  H5  UNL     1      10.565  19.108  33.667  1.00  0.00     0.166 HD
HETATM   11  C12 UNL     1      10.794  21.151  33.466  1.00  0.00     0.065 A 
HETATM   12  C13 UNL     1       9.880  21.481  34.472  1.00  0.00     0.056 A 
HETATM   13  C14 UNL     1       9.603  22.790  34.807  1.00  0.00     0.064 A 
ENDROOT
BRANCH   1  14
HETATM   14  N1  UNL     1      10.065  25.010  34.358  1.00  0.00    -0.339 N 
ATOM     15  H1  UNL     1       9.106  25.357  34.339  1.00  0.00     0.167 HD
BRANCH  14  16
HETATM   16  C7  UNL     1      11.098  25.908  34.667  1.00  0.00     0.067 A 
HETATM   17  C2  UNL     1      11.315  27.038  33.904  1.00  0.00     0.094 A 
HETATM   18  C3  UNL     1      12.318  27.943  34.176  1.00  0.00     0.039 A 
HETATM   19  C4  UNL     1      13.160  27.726  35.260  1.00  0.00     0.003 A 
HETATM   20  C5  UNL     1      12.960  26.610  36.027  1.00  0.00     0.002 A 
HETATM   21  C6  UNL     1      11.950  25.712  35.743  1.00  0.00     0.032 A 
BRANCH  17  22
HETATM   22  O1  UNL     1      10.492  27.280  32.817  1.00  0.00    -0.354 OA
HETATM   23  C1  UNL     1       9.395  28.166  32.896  1.00  0.00     0.210 C 
ENDBRANCH  17  22
ENDBRANCH  14  16
ENDBRANCH   1  14
BRANCH  13  24
HETATM   24  C15 UNL     1       8.668  23.143  35.838  1.00  0.00    -0.058 C 
HETATM   25  C16 UNL     1       7.874  23.426  36.705  1.00  0.00    -0.061 C 
BRANCH  25  26
HETATM   26  C17 UNL     1       6.925  23.748  37.736  1.00  0.00     0.020 A 
HETATM   27  C18 UNL     1       6.151  24.889  37.709  1.00  0.00     0.037 A 
HETATM   28  C19 UNL     1       5.244  25.191  38.700  1.00  0.00     0.089 A 
HETATM   29  N6  UNL     1       5.100  24.352  39.735  1.00  0.00    -0.375 N 
HETATM   30  C20 UNL     1       5.818  23.231  39.823  1.00  0.00     0.089 A 
ATOM     31  H6  UNL     1       4.428  24.575  40.470  1.00  0.00     0.164 HD
HETATM   32  C21 UNL     1       6.723  22.917  38.845  1.00  0.00     0.037 A 
ENDBRANCH  25  26
ENDBRANCH  13  24
BRANCH   5  33
HETATM   33  N3  UNL     1      12.930  22.844  31.176  1.00  0.00    -0.384 N 
ATOM     34  H32 UNL     1      13.536  22.650  30.379  1.00  0.00     0.157 HD
ATOM     35  H31 UNL     1      12.813  23.817  31.460  1.00  0.00     0.157 HD
ENDBRANCH   5  33
TORSDOF 6
ENDMDL
MODEL 4
REMARK VINA RESULT: -6.953537432      3.382      5.315
REMARK  6 active torsions:
REMARK  status: ('A' for Active; 'I' for Inactive)
REMARK    1  A    between atoms: O1_2  and  C2_3 
REMARK    2  A    between atoms: C7_8  and  N1_9 
REMARK    3  A    between atoms: N1_9  and  C8_11 
REMARK    4  A    between atoms: C10_15  and  N3_16 
REMARK    5  A    between atoms: C14_26  and  C15_27 
REMARK    6  A    between atoms: C16_28  and  C17_29 
ROOT
HETATM    1  C8  UNL     1      10.293  27.133  35.195  1.00  0.00     0.125 A 
HETATM    2  N2  UNL     1      11.500  27.681  34.970  1.00  0.00    -0.336 N 
ATOM      3  H2  UNL     1      11.733  28.032  34.041  1.00  0.00     0.168 HD
HETATM    4  C9  UNL     1      12.410  27.767  35.972  1.00  0.00     0.105 A 
HETATM    5  C10 UNL     1      13.640  28.328  35.730  1.00  0.00     0.129 A 
HETATM    6  N4  UNL     1      14.514  28.395  36.751  1.00  0.00    -0.337 N 
ATOM      7  H4  UNL     1      15.433  28.809  36.590  1.00  0.00     0.168 HD
HETATM    8  C11 UNL     1      14.212  27.932  37.977  1.00  0.00     0.182 A 
HETATM    9  N5  UNL     1      13.013  27.379  38.234  1.00  0.00    -0.350 N 
ATOM     10  H5  UNL     1      12.784  27.028  39.164  1.00  0.00     0.166 HD
HETATM   11  C12 UNL     1      12.125  27.303  37.225  1.00  0.00     0.065 A 
HETATM   12  C13 UNL     1      10.864  26.737  37.438  1.00  0.00     0.056 A 
HETATM   13  C14 UNL     1       9.927  26.641  36.431  1.00  0.00     0.064 A 
ENDROOT
BRANCH   1  14
HETATM   14  N1  UNL     1       9.468  27.077  34.208  1.00  0.00    -0.339 N 
ATOM     15  H1  UNL     1       9.012  27.937  33.904  1.00  0.00     0.167 HD
BRANCH  14  16
HETATM   16  C7  UNL     1       9.168  25.884  33.533  1.00  0.00     0.067 A 
HETATM   17  C2  UNL     1      10.168  25.095  32.998  1.00  0.00     0.094 A 
HETATM   18  C3  UNL     1       9.913  23.917  32.329  1.00  0.00     0.039 A 
HETATM   19  C4  UNL     1       8.601  23.488  32.175  1.00  0.00     0.003 A 
HETATM   20  C5  UNL     1       7.596  24.258  32.698  1.00  0.00     0.002 A 
HETATM   21  C6  UNL     1       7.867  25.436  33.367  1.00  0.00     0.032 A 
BRANCH  17  22
HETATM   22  O1  UNL     1      11.485  25.497  33.136  1.00  0.00    -0.354 OA
HETATM   23  C1  UNL     1      12.226  26.007  32.048  1.00  0.00     0.210 C 
ENDBRANCH  17  22
ENDBRANCH  14  16
ENDBRANCH   1  14
BRANCH  13  24
HETATM   24  C15 UNL     1       8.628  26.063  36.636  1.00  0.00    -0.058 C 
HETATM   25  C16 UNL     1       7.541  25.563  36.814  1.00  0.00    -0.061 C 
BRANCH  25  26
HETATM   26  C17 UNL     1       6.257  24.957  37.033  1.00  0.00     0.020 A 
HETATM   27  C18 UNL     1       5.625  24.967  38.259  1.00  0.00     0.037 A 
HETATM   28  C19 UNL     1       4.394  24.385  38.462  1.00  0.00     0.089 A 
HETATM   29  N6  UNL     1       3.777  23.782  37.436  1.00  0.00    -0.375 N 
HETATM   30  C20 UNL     1       4.332  23.736  36.224  1.00  0.00     0.089 A 
ATOM     31  H6  UNL     1       2.864  23.350  37.585  1.00  0.00     0.164 HD
HETATM   32  C21 UNL     1       5.555  24.311  36.007  1.00  0.00     0.037 A 
ENDBRANCH  25  26
ENDBRANCH  13  24
BRANCH   5  33
HETATM   33  N3  UNL     1      13.941  28.780  34.544  1.00  0.00    -0.384 N 
ATOM     34  H32 UNL     1      13.823  29.764  34.303  1.00  0.00     0.157 HD
ATOM     35  H31 UNL     1      14.303  28.153  33.826  1.00  0.00     0.157 HD
ENDBRANCH   5  33
TORSDOF 6
ENDMDL
MODEL 5
REMARK VINA RESULT: -6.935346304      3.257      5.647
REMARK  6 active torsions:
REMARK  status: ('A' for Active; 'I' for Inactive)
REMARK    1  A    between atoms: O1_2  and  C2_3 
REMARK    2  A    between atoms: C7_8  and  N1_9 
REMARK    3  A    between atoms: N1_9  and  C8_11 
REMARK    4  A    between atoms: C10_15  and  N3_16 
REMARK    5  A    between atoms: C14_26  and  C15_27 
REMARK    6  A    between atoms: C16_28  and  C17_29 
ROOT
HETATM    1  C8  UNL     1      10.373  26.883  35.079  1.00  0.00     0.125 A 
HETATM    2  N2  UNL     1      11.549  27.481  34.819  1.00  0.00    -0.336 N 
ATOM      3  H2  UNL     1      11.795  27.721  33.858  1.00  0.00     0.168 HD
HETATM    4  C9  UNL     1      12.409  27.767  35.827  1.00  0.00     0.105 A 
HETATM    5  C10 UNL     1      13.607  28.379  35.549  1.00  0.00     0.129 A 
HETATM    6  N4  UNL     1      14.433  28.645  36.577  1.00  0.00    -0.337 N 
ATOM      7  H4  UNL     1      15.327  29.099  36.390  1.00  0.00     0.168 HD
HETATM    8  C11 UNL     1      14.114  28.331  37.846  1.00  0.00     0.182 A 
HETATM    9  N5  UNL     1      12.945  27.731  38.138  1.00  0.00    -0.350 N 
ATOM     10  H5  UNL     1      12.703  27.493  39.100  1.00  0.00     0.166 HD
HETATM   11  C12 UNL     1      12.106  27.456  37.123  1.00  0.00     0.065 A 
HETATM   12  C13 UNL     1      10.879  26.834  37.372  1.00  0.00     0.056 A 
HETATM   13  C14 UNL     1       9.991  26.536  36.359  1.00  0.00     0.064 A 
ENDROOT
BRANCH   1  14
HETATM   14  N1  UNL     1       9.594  26.635  34.085  1.00  0.00    -0.339 N 
ATOM     15  H1  UNL     1       8.948  27.362  33.778  1.00  0.00     0.167 HD
BRANCH  14  16
HETATM   16  C7  UNL     1       9.596  25.408  33.403  1.00  0.00     0.067 A 
HETATM   17  C2  UNL     1       8.416  24.801  33.021  1.00  0.00     0.094 A 
HETATM   18  C3  UNL     1       8.378  23.597  32.350  1.00  0.00     0.039 A 
HETATM   19  C4  UNL     1       9.567  22.950  32.037  1.00  0.00     0.003 A 
HETATM   20  C5  UNL     1      10.747  23.537  32.409  1.00  0.00     0.002 A 
HETATM   21  C6  UNL     1      10.770  24.744  33.080  1.00  0.00     0.032 A 
BRANCH  17  22
HETATM   22  O1  UNL     1       7.216  25.423  33.319  1.00  0.00    -0.354 OA
HETATM   23  C1  UNL     1       5.973  24.837  32.996  1.00  0.00     0.210 C 
ENDBRANCH  17  22
ENDBRANCH  14  16
ENDBRANCH   1  14
BRANCH  13  24
HETATM   24  C15 UNL     1       8.728  25.898  36.602  1.00  0.00    -0.058 C 
HETATM   25  C16 UNL     1       7.670  25.352  36.816  1.00  0.00    -0.061 C 
BRANCH  25  26
HETATM   26  C17 UNL     1       6.420  24.696  37.084  1.00  0.00     0.020 A 
HETATM   27  C18 UNL     1       5.948  23.647  36.322  1.00  0.00     0.037 A 
HETATM   28  C19 UNL     1       4.750  23.023  36.584  1.00  0.00     0.089 A 
HETATM   29  N6  UNL     1       4.003  23.443  37.616  1.00  0.00    -0.375 N 
HETATM   30  C20 UNL     1       4.400  24.452  38.392  1.00  0.00     0.089 A 
ATOM     31  H6  UNL     1       3.114  22.982  37.811  1.00  0.00     0.164 HD
HETATM   32  C21 UNL     1       5.590  25.082  38.144  1.00  0.00     0.037 A 
ENDBRANCH  25  26
ENDBRANCH  13  24
BRANCH   5  33
HETATM   33  N3  UNL     1      13.924  28.689  34.322  1.00  0.00    -0.384 N 
ATOM     34  H32 UNL     1      14.836  28.451  33.931  1.00  0.00     0.157 HD
ATOM     35  H31 UNL     1      13.261  29.180  33.722  1.00  0.00     0.157 HD
ENDBRANCH   5  33
TORSDOF 6
ENDMDL
