MODEL 1
REMARK VINA RESULT: -8.615298281      0.000      0.000
REMARK  3 active torsions:
REMARK  status: ('A' for Active; 'I' for Inactive)
REMARK    1  A    between atoms: C6_6  and  N1_7 
REMARK    2  A    between atoms: N1_7  and  C7_9 
REMARK    3  A    between atoms: C14_21  and  C15_22 
ROOT
HETATM    1  C1  UNL     1      15.554  28.953  34.366  1.00  0.00     0.018 C 
HETATM    2  C2  UNL     1      14.413  28.632  34.625  1.00  0.00    -0.078 C 
HETATM    3  C3  UNL     1      13.051  28.252  34.914  1.00  0.00     0.017 A 
HETATM    4  C4  UNL     1      12.134  28.056  33.892  1.00  0.00     0.023 A 
HETATM    5  C5  UNL     1      10.829  27.691  34.161  1.00  0.00     0.031 A 
HETATM    6  C6  UNL     1      10.387  27.508  35.456  1.00  0.00     0.049 A 
HETATM    7  C18 UNL     1      11.279  27.696  36.478  1.00  0.00     0.031 A 
HETATM    8  C19 UNL     1      12.594  28.064  36.202  1.00  0.00     0.023 A 
ENDROOT
BRANCH   6   9
HETATM    9  N1  UNL     1       9.033  27.135  35.635  1.00  0.00    -0.192 N 
ATOM     10  H1  UNL     1       8.316  27.860  35.622  1.00  0.00     0.184 HD
BRANCH   9  11
HETATM   11  C7  UNL     1       8.673  25.902  35.814  1.00  0.00     0.683 A 
HETATM   12  N2  UNL     1       9.163  24.967  34.984  1.00  0.00    -0.189 N 
HETATM   13  C8  UNL     1       8.801  23.683  35.154  1.00  0.00     0.079 A 
ATOM     14  H2  UNL     1       9.803  25.227  34.233  1.00  0.00     0.184 HD
HETATM   15  C9  UNL     1       9.325  22.755  34.282  1.00  0.00     0.056 A 
HETATM   16  C13 UNL     1       7.923  23.318  36.185  1.00  0.00     0.089 A 
HETATM   17  C10 UNL     1       8.981  21.438  34.423  1.00  0.00     0.062 A 
HETATM   18  C11 UNL     1       9.494  20.430  33.547  1.00  0.00     0.101 C 
HETATM   19  C12 UNL     1       8.103  21.107  35.461  1.00  0.00     0.111 A 
HETATM   20  N3  UNL     1       9.892  19.609  32.842  1.00  0.00    -0.191 NA
HETATM   21  N4  UNL     1       7.614  22.037  36.289  1.00  0.00    -0.361 N 
ATOM     22  H4  UNL     1       6.976  21.746  37.030  1.00  0.00     0.165 HD
HETATM   23  C14 UNL     1       7.424  24.280  37.033  1.00  0.00     0.106 A 
HETATM   24  N7  UNL     1       7.836  25.538  36.793  1.00  0.00    -0.187 N 
ATOM     25  H7  UNL     1       7.483  26.273  37.407  1.00  0.00     0.184 HD
BRANCH  23  26
HETATM   26  C15 UNL     1       6.506  23.969  38.126  1.00  0.00     0.081 A 
HETATM   27  C16 UNL     1       6.888  23.146  39.188  1.00  0.00     0.124 A 
HETATM   28  N5  UNL     1       5.867  23.024  40.045  1.00  0.00    -0.317 N 
HETATM   29  C17 UNL     1       4.850  23.745  39.562  1.00  0.00     0.324 A 
ATOM     30  H5  UNL     1       5.865  22.482  40.909  1.00  0.00     0.170 HD
HETATM   31  O1  UNL     1       3.721  23.892  40.062  1.00  0.00    -0.247 OA
HETATM   32  N6  UNL     1       5.260  24.316  38.385  1.00  0.00    -0.305 N 
ATOM     33  H6  UNL     1       4.686  24.921  37.796  1.00  0.00     0.171 HD
ENDBRANCH  23  26
ENDBRANCH   9  11
ENDBRANCH   6   9
TORSDOF 3
ENDMDL
MODEL 2
REMARK VINA RESULT: -8.507305647      2.411      2.896
REMARK  3 active torsions:
REMARK  status: ('A' for Active; 'I' for Inactive)
REMARK    1  A    between atoms: C6_6  and  N1_7 
REMARK    2  A    between atoms: N1_7  and  C7_9 
REMARK    3  A    between atoms: C14_21  and  C15_22 
ROOT
HETATM    1  C1  UNL     1      18.667  26.106  36.654  1.00  0.00     0.018 C 
HETATM    2  C2  UNL     1      17.456  26.180  36.675  1.00  0.00    -0.078 C 
HETATM    3  C3  UNL     1      16.017  26.283  36.690  1.00  0.00     0.017 A 
HETATM    4  C4  UNL     1      15.366  27.265  35.957  1.00  0.00     0.023 A 
HETATM    5  C5  UNL     1      13.988  27.369  35.966  1.00  0.00     0.031 A 
HETATM    6  C6  UNL     1      13.207  26.502  36.703  1.00  0.00     0.049 A 
HETATM    7  C18 UNL     1      13.833  25.526  37.431  1.00  0.00     0.031 A 
HETATM    8  C19 UNL     1      15.221  25.424  37.421  1.00  0.00     0.023 A 
ENDROOT
BRANCH   6   9
HETATM    9  N1  UNL     1      11.803  26.686  36.651  1.00  0.00    -0.192 N 
ATOM     10  H1  UNL     1      11.410  27.569  36.975  1.00  0.00     0.184 HD
BRANCH   9  11
HETATM   11  C7  UNL     1      11.001  25.770  36.204  1.00  0.00     0.683 A 
HETATM   12  N2  UNL     1      11.284  25.195  35.022  1.00  0.00    -0.189 N 
HETATM   13  C8  UNL     1      10.464  24.244  34.543  1.00  0.00     0.079 A 
ATOM     14  H2  UNL     1      12.111  25.477  34.495  1.00  0.00     0.184 HD
HETATM   15  C9  UNL     1      10.788  23.680  33.329  1.00  0.00     0.056 A 
HETATM   16  C13 UNL     1       9.327  23.850  35.264  1.00  0.00     0.089 A 
HETATM   17  C10 UNL     1       9.978  22.708  32.808  1.00  0.00     0.062 A 
HETATM   18  C11 UNL     1      10.265  22.087  31.551  1.00  0.00     0.101 C 
HETATM   19  C12 UNL     1       8.852  22.337  33.550  1.00  0.00     0.111 A 
HETATM   20  N3  UNL     1      10.478  21.585  30.536  1.00  0.00    -0.191 NA
HETATM   21  N4  UNL     1       8.570  22.909  34.727  1.00  0.00    -0.361 N 
ATOM     22  H4  UNL     1       7.736  22.605  35.230  1.00  0.00     0.165 HD
HETATM   23  C14 UNL     1       9.043  24.441  36.473  1.00  0.00     0.106 A 
HETATM   24  N7  UNL     1       9.913  25.383  36.879  1.00  0.00    -0.187 N 
ATOM     25  H7  UNL     1       9.728  25.839  37.773  1.00  0.00     0.184 HD
BRANCH  23  26
HETATM   26  C15 UNL     1       7.876  24.079  37.273  1.00  0.00     0.081 A 
HETATM   27  C16 UNL     1       6.682  24.799  37.191  1.00  0.00     0.124 A 
HETATM   28  N5  UNL     1       5.781  24.261  38.023  1.00  0.00    -0.317 N 
HETATM   29  C17 UNL     1       6.365  23.223  38.629  1.00  0.00     0.324 A 
ATOM     30  H5  UNL     1       4.824  24.585  38.168  1.00  0.00     0.170 HD
HETATM   31  O1  UNL     1       5.864  22.460  39.475  1.00  0.00    -0.247 OA
HETATM   32  N6  UNL     1       7.648  23.126  38.158  1.00  0.00    -0.305 N 
ATOM     33  H6  UNL     1       8.328  22.422  38.448  1.00  0.00     0.171 HD
ENDBRANCH  23  26
ENDBRANCH   9  11
ENDBRANCH   6   9
TORSDOF 3
ENDMDL
MODEL 3
REMARK VINA RESULT: -8.503126653      4.502      5.676
REMARK  3 active torsions:
REMARK  status: ('A' for Active; 'I' for Inactive)
REMARK    1  A    between atoms: C6_6  and  N1_7 
REMARK    2  A    between atoms: N1_7  and  C7_9 
REMARK    3  A    between atoms: C14_21  and  C15_22 
ROOT
HETATM    1  C1  UNL     1      14.808  28.636  36.987  1.00  0.00     0.018 C 
HETATM    2  C2  UNL     1      13.788  28.347  36.399  1.00  0.00    -0.078 C 
HETATM    3  C3  UNL     1      12.581  28.009  35.682  1.00  0.00     0.017 A 
HETATM    4  C4  UNL     1      12.550  28.021  34.296  1.00  0.00     0.023 A 
HETATM    5  C5  UNL     1      11.398  27.697  33.603  1.00  0.00     0.031 A 
HETATM    6  C6  UNL     1      10.237  27.351  34.263  1.00  0.00     0.049 A 
HETATM    7  C18 UNL     1      10.250  27.332  35.632  1.00  0.00     0.031 A 
HETATM    8  C19 UNL     1      11.412  27.660  36.326  1.00  0.00     0.023 A 
ENDROOT
BRANCH   6   9
HETATM    9  N1  UNL     1       9.107  27.034  33.469  1.00  0.00    -0.192 N 
ATOM     10  H1  UNL     1       8.387  27.743  33.335  1.00  0.00     0.184 HD
BRANCH   9  11
HETATM   11  C7  UNL     1       8.958  25.875  32.908  1.00  0.00     0.683 A 
HETATM   12  N2  UNL     1       7.857  25.662  32.167  1.00  0.00    -0.189 N 
HETATM   13  C8  UNL     1       7.686  24.466  31.578  1.00  0.00     0.079 A 
ATOM     14  H2  UNL     1       7.161  26.398  32.052  1.00  0.00     0.184 HD
HETATM   15  C9  UNL     1       6.545  24.287  30.827  1.00  0.00     0.056 A 
HETATM   16  C13 UNL     1       8.640  23.450  31.729  1.00  0.00     0.089 A 
HETATM   17  C10 UNL     1       6.334  23.083  30.211  1.00  0.00     0.062 A 
HETATM   18  C11 UNL     1       5.168  22.840  29.419  1.00  0.00     0.101 C 
HETATM   19  C12 UNL     1       7.304  22.090  30.381  1.00  0.00     0.111 A 
HETATM   20  N3  UNL     1       4.228  22.627  28.785  1.00  0.00    -0.191 NA
HETATM   21  N4  UNL     1       8.400  22.301  31.120  1.00  0.00    -0.361 N 
ATOM     22  H4  UNL     1       9.078  21.546  31.216  1.00  0.00     0.165 HD
HETATM   23  C14 UNL     1       9.765  23.673  32.489  1.00  0.00     0.106 A 
HETATM   24  N7  UNL     1       9.859  24.895  33.044  1.00  0.00    -0.187 N 
ATOM     25  H7  UNL     1      10.684  25.090  33.612  1.00  0.00     0.184 HD
BRANCH  23  26
HETATM   26  C15 UNL     1      10.797  22.659  32.689  1.00  0.00     0.081 A 
HETATM   27  C16 UNL     1      10.647  21.641  33.634  1.00  0.00     0.124 A 
HETATM   28  N5  UNL     1      11.730  20.853  33.613  1.00  0.00    -0.317 N 
HETATM   29  C17 UNL     1      12.560  21.338  32.685  1.00  0.00     0.324 A 
ATOM     30  H5  UNL     1      11.891  20.033  34.198  1.00  0.00     0.170 HD
HETATM   31  O1  UNL     1      13.675  20.892  32.359  1.00  0.00    -0.247 OA
HETATM   32  N6  UNL     1      11.972  22.445  32.129  1.00  0.00    -0.305 N 
ATOM     33  H6  UNL     1      12.383  23.019  31.392  1.00  0.00     0.171 HD
ENDBRANCH  23  26
ENDBRANCH   9  11
ENDBRANCH   6   9
TORSDOF 3
ENDMDL
MODEL 4
REMARK VINA RESULT: -8.414720956      2.395      4.760
REMARK  3 active torsions:
REMARK  status: ('A' for Active; 'I' for Inactive)
REMARK    1  A    between atoms: C6_6  and  N1_7 
REMARK    2  A    between atoms: N1_7  and  C7_9 
REMARK    3  A    between atoms: C14_21  and  C15_22 
ROOT
HETATM    1  C1  UNL     1      15.505  28.969  34.347  1.00  0.00     0.018 C 
HETATM    2  C2  UNL     1      14.368  28.652  34.628  1.00  0.00    -0.078 C 
HETATM    3  C3  UNL     1      13.011  28.276  34.944  1.00  0.00     0.017 A 
HETATM    4  C4  UNL     1      12.095  28.006  33.939  1.00  0.00     0.023 A 
HETATM    5  C5  UNL     1      10.793  27.645  34.233  1.00  0.00     0.031 A 
HETATM    6  C6  UNL     1      10.356  27.540  35.538  1.00  0.00     0.049 A 
HETATM    7  C18 UNL     1      11.248  27.802  36.544  1.00  0.00     0.031 A 
HETATM    8  C19 UNL     1      12.558  28.166  36.243  1.00  0.00     0.023 A 
ENDROOT
BRANCH   6   9
HETATM    9  N1  UNL     1       9.006  27.164  35.744  1.00  0.00    -0.192 N 
ATOM     10  H1  UNL     1       8.299  27.894  35.829  1.00  0.00     0.184 HD
BRANCH   9  11
HETATM   11  C7  UNL     1       8.638  25.923  35.828  1.00  0.00     0.683 A 
HETATM   12  N2  UNL     1       7.658  25.605  36.690  1.00  0.00    -0.189 N 
HETATM   13  C8  UNL     1       7.264  24.323  36.790  1.00  0.00     0.079 A 
ATOM     14  H2  UNL     1       7.219  26.326  37.262  1.00  0.00     0.184 HD
HETATM   15  C9  UNL     1       6.257  24.038  37.686  1.00  0.00     0.056 A 
HETATM   16  C13 UNL     1       7.862  23.327  36.006  1.00  0.00     0.089 A 
HETATM   17  C10 UNL     1       5.828  22.745  37.817  1.00  0.00     0.062 A 
HETATM   18  C11 UNL     1       4.786  22.390  38.731  1.00  0.00     0.101 C 
HETATM   19  C12 UNL     1       6.444  21.775  37.021  1.00  0.00     0.111 A 
HETATM   20  N3  UNL     1       3.954  22.088  39.470  1.00  0.00    -0.191 NA
HETATM   21  N4  UNL     1       7.421  22.091  36.161  1.00  0.00    -0.361 N 
ATOM     22  H4  UNL     1       7.841  21.347  35.604  1.00  0.00     0.165 HD
HETATM   23  C14 UNL     1       8.865  23.658  35.125  1.00  0.00     0.106 A 
HETATM   24  N7  UNL     1       9.200  24.961  35.086  1.00  0.00    -0.187 N 
ATOM     25  H7  UNL     1       9.940  25.236  34.441  1.00  0.00     0.184 HD
BRANCH  23  26
HETATM   26  C15 UNL     1       9.531  22.670  34.279  1.00  0.00     0.081 A 
HETATM   27  C16 UNL     1       9.146  22.467  32.952  1.00  0.00     0.124 A 
HETATM   28  N5  UNL     1       9.912  21.513  32.408  1.00  0.00    -0.317 N 
HETATM   29  C17 UNL     1      10.771  21.106  33.348  1.00  0.00     0.324 A 
ATOM     30  H5  UNL     1       9.851  21.161  31.453  1.00  0.00     0.170 HD
HETATM   31  O1  UNL     1      11.650  20.232  33.242  1.00  0.00    -0.247 OA
HETATM   32  N6  UNL     1      10.523  21.826  34.488  1.00  0.00    -0.305 N 
ATOM     33  H6  UNL     1      11.030  21.723  35.367  1.00  0.00     0.171 HD
ENDBRANCH  23  26
ENDBRANCH   9  11
ENDBRANCH   6   9
TORSDOF 3
ENDMDL
MODEL 5
REMARK VINA RESULT: -8.372315504      4.665      6.162
REMARK  3 active torsions:
REMARK  status: ('A' for Active; 'I' for Inactive)
REMARK    1  A    between atoms: C6_6  and  N1_7 
REMARK    2  A    between atoms: N1_7  and  C7_9 
REMARK    3  A    between atoms: C14_21  and  C15_22 
ROOT
HETATM    1  C1  UNL     1      12.529  29.183  38.938  1.00  0.00     0.018 C 
HETATM    2  C2  UNL     1      12.305  28.753  37.826  1.00  0.00    -0.078 C 
HETATM    3  C3  UNL     1      12.022  28.238  36.507  1.00  0.00     0.017 A 
HETATM    4  C4  UNL     1      10.725  27.920  36.131  1.00  0.00     0.023 A 
HETATM    5  C5  UNL     1      10.445  27.428  34.871  1.00  0.00     0.031 A 
HETATM    6  C6  UNL     1      11.444  27.232  33.939  1.00  0.00     0.049 A 
HETATM    7  C18 UNL     1      12.731  27.541  34.293  1.00  0.00     0.031 A 
HETATM    8  C19 UNL     1      13.008  28.037  35.564  1.00  0.00     0.023 A 
ENDROOT
BRANCH   6   9
HETATM    9  N1  UNL     1      11.063  26.723  32.673  1.00  0.00    -0.192 N 
ATOM     10  H1  UNL     1      11.170  27.318  31.851  1.00  0.00     0.184 HD
BRANCH   9  11
HETATM   11  C7  UNL     1      10.583  25.528  32.523  1.00  0.00     0.683 A 
HETATM   12  N2  UNL     1       9.249  25.375  32.498  1.00  0.00    -0.189 N 
HETATM   13  C8  UNL     1       8.733  24.143  32.343  1.00  0.00     0.079 A 
ATOM     14  H2  UNL     1       8.634  26.183  32.594  1.00  0.00     0.184 HD
HETATM   15  C9  UNL     1       7.361  24.027  32.323  1.00  0.00     0.056 A 
HETATM   16  C13 UNL     1       9.572  23.028  32.208  1.00  0.00     0.089 A 
HETATM   17  C10 UNL     1       6.798  22.790  32.167  1.00  0.00     0.062 A 
HETATM   18  C11 UNL     1       5.379  22.610  32.139  1.00  0.00     0.101 C 
HETATM   19  C12 UNL     1       7.661  21.698  32.036  1.00  0.00     0.111 A 
HETATM   20  N3  UNL     1       4.237  22.449  32.123  1.00  0.00    -0.191 NA
HETATM   21  N4  UNL     1       8.991  21.849  32.061  1.00  0.00    -0.361 N 
ATOM     22  H4  UNL     1       9.579  21.022  31.962  1.00  0.00     0.165 HD
HETATM   23  C14 UNL     1      10.938  23.190  32.235  1.00  0.00     0.106 A 
HETATM   24  N7  UNL     1      11.371  24.454  32.393  1.00  0.00    -0.187 N 
ATOM     25  H7  UNL     1      12.380  24.605  32.416  1.00  0.00     0.184 HD
BRANCH  23  26
HETATM   26  C15 UNL     1      11.869  22.072  32.101  1.00  0.00     0.081 A 
HETATM   27  C16 UNL     1      12.340  21.660  30.852  1.00  0.00     0.124 A 
HETATM   28  N5  UNL     1      13.172  20.624  31.011  1.00  0.00    -0.317 N 
HETATM   29  C17 UNL     1      13.245  20.366  32.320  1.00  0.00     0.324 A 
ATOM     30  H5  UNL     1      13.661  20.123  30.269  1.00  0.00     0.170 HD
HETATM   31  O1  UNL     1      13.912  19.478  32.881  1.00  0.00    -0.247 OA
HETATM   32  N6  UNL     1      12.439  21.263  32.973  1.00  0.00    -0.305 N 
ATOM     33  H6  UNL     1      12.301  21.299  33.983  1.00  0.00     0.171 HD
ENDBRANCH  23  26
ENDBRANCH   9  11
ENDBRANCH   6   9
TORSDOF 3
ENDMDL
