MODEL 1
REMARK VINA RESULT: -9.696948291      0.000      0.000
REMARK  5 active torsions:
REMARK  status: ('A' for Active; 'I' for Inactive)
REMARK    1  A    between atoms: N1_1  and  S1_4 
REMARK    2  A    between atoms: S1_4  and  C1_7 
REMARK    3  A    between atoms: C5_11  and  N2_12 
REMARK    4  A    between atoms: N2_12  and  C6_14 
REMARK    5  A    between atoms: C7_17  and  C8_18 
ROOT
HETATM    1  C6  UNL     1      14.505  27.502  35.867  1.00  0.00     0.683 A 
HETATM    2  N3  UNL     1      15.756  27.021  35.787  1.00  0.00    -0.188 N 
ATOM      3  H3  UNL     1      16.199  26.960  34.871  1.00  0.00     0.184 HD
HETATM    4  C7  UNL     1      16.447  26.619  36.868  1.00  0.00     0.094 A 
HETATM    5  C15 UNL     1      15.841  26.707  38.094  1.00  0.00     0.051 A 
HETATM    6  C16 UNL     1      14.538  27.203  38.218  1.00  0.00     0.108 A 
HETATM    7  N6  UNL     1      13.925  27.582  37.078  1.00  0.00    -0.202 N 
ATOM      8  H6  UNL     1      12.975  27.948  37.137  1.00  0.00     0.183 HD
ENDROOT
BRANCH   1   9
HETATM    9  N2  UNL     1      13.886  27.874  34.798  1.00  0.00    -0.192 N 
ATOM     10  H2  UNL     1      14.282  28.637  34.249  1.00  0.00     0.184 HD
BRANCH   9  11
HETATM   11  C5  UNL     1      12.694  27.283  34.352  1.00  0.00     0.050 A 
HETATM   12  C4  UNL     1      12.491  26.886  33.035  1.00  0.00     0.030 A 
HETATM   13  C3  UNL     1      11.303  26.306  32.637  1.00  0.00     0.004 A 
HETATM   14  C2  UNL     1      10.275  26.099  33.522  1.00  0.00     0.025 A 
HETATM   15  C1  UNL     1      10.472  26.491  34.833  1.00  0.00     0.081 A 
HETATM   16  C17 UNL     1      11.652  27.069  35.236  1.00  0.00     0.055 A 
BRANCH  15  17
HETATM   17  S1  UNL     1       9.153  26.227  35.974  1.00  0.00     0.256 S 
HETATM   18  O1  UNL     1       7.929  25.913  35.147  1.00  0.00    -0.201 OA
HETATM   19  O2  UNL     1       8.955  27.482  36.784  1.00  0.00    -0.201 OA
BRANCH  17  20
HETATM   20  N1  UNL     1       9.472  24.861  36.973  1.00  0.00    -0.324 N 
ATOM     21  H12 UNL     1       9.424  23.886  36.676  1.00  0.00     0.169 HD
ATOM     22  H11 UNL     1       9.713  25.207  37.902  1.00  0.00     0.169 HD
ENDBRANCH  17  20
ENDBRANCH  15  17
ENDBRANCH   9  11
ENDBRANCH   1   9
BRANCH   4  23
HETATM   23  C8  UNL     1      17.812  26.097  36.748  1.00  0.00     0.134 A 
HETATM   24  N4  UNL     1      18.282  24.951  37.244  1.00  0.00    -0.339 N 
HETATM   25  C9  UNL     1      19.591  24.813  36.926  1.00  0.00     0.060 A 
ATOM     26  H4  UNL     1      17.737  24.278  37.784  1.00  0.00     0.167 HD
HETATM   27  C10 UNL     1      20.559  23.860  37.166  1.00  0.00     0.032 A 
HETATM   28  C14 UNL     1      19.944  25.938  36.195  1.00  0.00     0.060 A 
HETATM   29  C11 UNL     1      21.841  24.056  36.671  1.00  0.00     0.002 A 
HETATM   30  C12 UNL     1      22.173  25.178  35.947  1.00  0.00     0.002 A 
HETATM   31  C13 UNL     1      21.211  26.135  35.704  1.00  0.00     0.032 A 
HETATM   32  N5  UNL     1      18.836  26.678  36.116  1.00  0.00    -0.339 N 
ATOM     33  H5  UNL     1      18.778  27.575  35.634  1.00  0.00     0.167 HD
ENDBRANCH   4  23
TORSDOF 5
ENDMDL
MODEL 2
REMARK VINA RESULT: -9.593950608      1.363      1.524
REMARK  5 active torsions:
REMARK  status: ('A' for Active; 'I' for Inactive)
REMARK    1  A    between atoms: N1_1  and  S1_4 
REMARK    2  A    between atoms: S1_4  and  C1_7 
REMARK    3  A    between atoms: C5_11  and  N2_12 
REMARK    4  A    between atoms: N2_12  and  C6_14 
REMARK    5  A    between atoms: C7_17  and  C8_18 
ROOT
HETATM    1  C6  UNL     1      13.777  25.925  36.634  1.00  0.00     0.683 A 
HETATM    2  N3  UNL     1      15.079  25.645  36.462  1.00  0.00    -0.188 N 
ATOM      3  H3  UNL     1      15.340  24.930  35.782  1.00  0.00     0.184 HD
HETATM    4  C7  UNL     1      16.052  26.268  37.149  1.00  0.00     0.094 A 
HETATM    5  C15 UNL     1      15.689  27.228  38.058  1.00  0.00     0.051 A 
HETATM    6  C16 UNL     1      14.342  27.548  38.267  1.00  0.00     0.108 A 
HETATM    7  N6  UNL     1      13.439  26.869  37.530  1.00  0.00    -0.202 N 
ATOM      8  H6  UNL     1      12.450  27.082  37.660  1.00  0.00     0.183 HD
ENDROOT
BRANCH   1   9
HETATM    9  N2  UNL     1      12.884  25.296  35.948  1.00  0.00    -0.192 N 
ATOM     10  H2  UNL     1      13.089  24.347  35.640  1.00  0.00     0.184 HD
BRANCH   9  11
HETATM   11  C5  UNL     1      11.642  25.853  35.606  1.00  0.00     0.050 A 
HETATM   12  C4  UNL     1      11.511  26.961  34.777  1.00  0.00     0.030 A 
HETATM   13  C3  UNL     1      10.270  27.479  34.464  1.00  0.00     0.004 A 
HETATM   14  C2  UNL     1       9.116  26.922  34.957  1.00  0.00     0.025 A 
HETATM   15  C1  UNL     1       9.241  25.819  35.782  1.00  0.00     0.081 A 
HETATM   16  C17 UNL     1      10.474  25.300  36.098  1.00  0.00     0.055 A 
BRANCH  15  17
HETATM   17  S1  UNL     1       7.761  25.102  36.419  1.00  0.00     0.256 S 
HETATM   18  O1  UNL     1       6.888  24.793  35.227  1.00  0.00    -0.201 OA
HETATM   19  O2  UNL     1       7.097  26.097  37.336  1.00  0.00    -0.201 OA
BRANCH  17  20
HETATM   20  N1  UNL     1       8.097  23.614  37.220  1.00  0.00    -0.324 N 
ATOM     21  H12 UNL     1       8.871  22.987  37.002  1.00  0.00     0.169 HD
ATOM     22  H11 UNL     1       7.386  23.483  37.940  1.00  0.00     0.169 HD
ENDBRANCH  17  20
ENDBRANCH  15  17
ENDBRANCH   9  11
ENDBRANCH   1   9
BRANCH   4  23
HETATM   23  C8  UNL     1      17.465  25.938  36.938  1.00  0.00     0.134 A 
HETATM   24  N4  UNL     1      18.097  24.827  37.323  1.00  0.00    -0.339 N 
HETATM   25  C9  UNL     1      19.397  24.884  36.948  1.00  0.00     0.060 A 
ATOM     26  H4  UNL     1      17.666  24.051  37.825  1.00  0.00     0.167 HD
HETATM   27  C10 UNL     1      20.487  24.049  37.075  1.00  0.00     0.032 A 
HETATM   28  C14 UNL     1      19.572  26.098  36.299  1.00  0.00     0.060 A 
HETATM   29  C11 UNL     1      21.711  24.446  36.552  1.00  0.00     0.002 A 
HETATM   30  C12 UNL     1      21.865  25.653  35.911  1.00  0.00     0.002 A 
HETATM   31  C13 UNL     1      20.780  26.494  35.782  1.00  0.00     0.032 A 
HETATM   32  N5  UNL     1      18.377  26.693  36.320  1.00  0.00    -0.339 N 
ATOM     33  H5  UNL     1      18.185  27.609  35.916  1.00  0.00     0.167 HD
ENDBRANCH   4  23
TORSDOF 5
ENDMDL
MODEL 3
REMARK VINA RESULT: -9.577630562      1.711      2.004
REMARK  5 active torsions:
REMARK  status: ('A' for Active; 'I' for Inactive)
REMARK    1  A    between atoms: N1_1  and  S1_4 
REMARK    2  A    between atoms: S1_4  and  C1_7 
REMARK    3  A    between atoms: C5_11  and  N2_12 
REMARK    4  A    between atoms: N2_12  and  C6_14 
REMARK    5  A    between atoms: C7_17  and  C8_18 
ROOT
HETATM    1  C6  UNL     1      13.598  25.940  36.701  1.00  0.00     0.683 A 
HETATM    2  N3  UNL     1      14.897  25.648  36.526  1.00  0.00    -0.188 N 
ATOM      3  H3  UNL     1      15.147  24.896  35.883  1.00  0.00     0.184 HD
HETATM    4  C7  UNL     1      15.880  26.305  37.166  1.00  0.00     0.094 A 
HETATM    5  C15 UNL     1      15.531  27.313  38.027  1.00  0.00     0.051 A 
HETATM    6  C16 UNL     1      14.188  27.648  38.235  1.00  0.00     0.108 A 
HETATM    7  N6  UNL     1      13.273  26.932  37.549  1.00  0.00    -0.202 N 
ATOM      8  H6  UNL     1      12.287  27.155  37.680  1.00  0.00     0.183 HD
ENDROOT
BRANCH   1   9
HETATM    9  N2  UNL     1      12.694  25.277  36.062  1.00  0.00    -0.192 N 
ATOM     10  H2  UNL     1      12.564  24.292  36.291  1.00  0.00     0.184 HD
BRANCH   9  11
HETATM   11  C5  UNL     1      11.882  25.843  35.068  1.00  0.00     0.050 A 
HETATM   12  C4  UNL     1      12.222  27.002  34.379  1.00  0.00     0.030 A 
HETATM   13  C3  UNL     1      11.394  27.527  33.407  1.00  0.00     0.004 A 
HETATM   14  C2  UNL     1      10.203  26.928  33.081  1.00  0.00     0.025 A 
HETATM   15  C1  UNL     1       9.860  25.774  33.762  1.00  0.00     0.081 A 
HETATM   16  C17 UNL     1      10.680  25.247  34.732  1.00  0.00     0.055 A 
BRANCH  15  17
HETATM   17  S1  UNL     1       8.330  25.002  33.346  1.00  0.00     0.256 S 
HETATM   18  O1  UNL     1       7.325  25.462  34.374  1.00  0.00    -0.201 OA
HETATM   19  O2  UNL     1       8.514  23.507  33.396  1.00  0.00    -0.201 OA
BRANCH  17  20
HETATM   20  N1  UNL     1       7.778  25.530  31.802  1.00  0.00    -0.324 N 
ATOM     21  H12 UNL     1       7.064  25.066  31.239  1.00  0.00     0.169 HD
ATOM     22  H11 UNL     1       8.291  26.379  31.564  1.00  0.00     0.169 HD
ENDBRANCH  17  20
ENDBRANCH  15  17
ENDBRANCH   9  11
ENDBRANCH   1   9
BRANCH   4  23
HETATM   23  C8  UNL     1      17.289  25.961  36.955  1.00  0.00     0.134 A 
HETATM   24  N4  UNL     1      17.902  24.827  37.304  1.00  0.00    -0.339 N 
HETATM   25  C9  UNL     1      19.206  24.877  36.942  1.00  0.00     0.060 A 
ATOM     26  H4  UNL     1      17.454  24.040  37.774  1.00  0.00     0.167 HD
HETATM   27  C10 UNL     1      20.281  24.020  37.047  1.00  0.00     0.032 A 
HETATM   28  C14 UNL     1      19.405  26.110  36.338  1.00  0.00     0.060 A 
HETATM   29  C11 UNL     1      21.515  24.416  36.549  1.00  0.00     0.002 A 
HETATM   30  C12 UNL     1      21.693  25.643  35.953  1.00  0.00     0.002 A 
HETATM   31  C13 UNL     1      20.623  26.505  35.845  1.00  0.00     0.032 A 
HETATM   32  N5  UNL     1      18.219  26.722  36.371  1.00  0.00    -0.339 N 
ATOM     33  H5  UNL     1      18.044  27.656  35.998  1.00  0.00     0.167 HD
ENDBRANCH   4  23
TORSDOF 5
ENDMDL
MODEL 4
REMARK VINA RESULT: -9.569731757      2.081      2.519
REMARK  5 active torsions:
REMARK  status: ('A' for Active; 'I' for Inactive)
REMARK    1  A    between atoms: N1_1  and  S1_4 
REMARK    2  A    between atoms: S1_4  and  C1_7 
REMARK    3  A    between atoms: C5_11  and  N2_12 
REMARK    4  A    between atoms: N2_12  and  C6_14 
REMARK    5  A    between atoms: C7_17  and  C8_18 
ROOT
HETATM    1  C6  UNL     1      13.523  25.910  37.205  1.00  0.00     0.683 A 
HETATM    2  N3  UNL     1      14.808  25.584  36.993  1.00  0.00    -0.188 N 
ATOM      3  H3  UNL     1      15.021  24.676  36.579  1.00  0.00     0.184 HD
HETATM    4  C7  UNL     1      15.825  26.406  37.306  1.00  0.00     0.094 A 
HETATM    5  C15 UNL     1      15.526  27.623  37.861  1.00  0.00     0.051 A 
HETATM    6  C16 UNL     1      14.199  27.999  38.097  1.00  0.00     0.108 A 
HETATM    7  N6  UNL     1      13.248  27.108  37.750  1.00  0.00    -0.202 N 
ATOM      8  H6  UNL     1      12.271  27.355  37.910  1.00  0.00     0.183 HD
ENDROOT
BRANCH   1   9
HETATM    9  N2  UNL     1      12.585  25.083  36.887  1.00  0.00    -0.192 N 
ATOM     10  H2  UNL     1      12.764  24.084  36.990  1.00  0.00     0.184 HD
BRANCH   9  11
HETATM   11  C5  UNL     1      11.331  25.489  36.407  1.00  0.00     0.050 A 
HETATM   12  C4  UNL     1      10.190  25.523  37.200  1.00  0.00     0.030 A 
HETATM   13  C3  UNL     1       8.974  25.929  36.689  1.00  0.00     0.004 A 
HETATM   14  C2  UNL     1       8.840  26.315  35.379  1.00  0.00     0.025 A 
HETATM   15  C1  UNL     1       9.972  26.285  34.585  1.00  0.00     0.081 A 
HETATM   16  C17 UNL     1      11.186  25.881  35.088  1.00  0.00     0.055 A 
BRANCH  15  17
HETATM   17  S1  UNL     1       9.804  26.780  32.901  1.00  0.00     0.256 S 
HETATM   18  O1  UNL     1      11.025  26.263  32.179  1.00  0.00    -0.201 OA
HETATM   19  O2  UNL     1       9.735  28.285  32.844  1.00  0.00    -0.201 OA
BRANCH  17  20
HETATM   20  N1  UNL     1       8.422  26.046  32.181  1.00  0.00    -0.324 N 
ATOM     21  H12 UNL     1       8.254  25.042  32.113  1.00  0.00     0.169 HD
ATOM     22  H11 UNL     1       7.816  26.794  31.843  1.00  0.00     0.169 HD
ENDBRANCH  17  20
ENDBRANCH  15  17
ENDBRANCH   9  11
ENDBRANCH   1   9
BRANCH   4  23
HETATM   23  C8  UNL     1      17.218  26.020  37.063  1.00  0.00     0.134 A 
HETATM   24  N4  UNL     1      17.809  24.874  37.412  1.00  0.00    -0.339 N 
HETATM   25  C9  UNL     1      19.103  24.884  37.016  1.00  0.00     0.060 A 
ATOM     26  H4  UNL     1      17.352  24.106  37.904  1.00  0.00     0.167 HD
HETATM   27  C10 UNL     1      20.158  23.999  37.105  1.00  0.00     0.032 A 
HETATM   28  C14 UNL     1      19.320  26.103  36.391  1.00  0.00     0.060 A 
HETATM   29  C11 UNL     1      21.389  24.355  36.570  1.00  0.00     0.002 A 
HETATM   30  C12 UNL     1      21.585  25.568  35.953  1.00  0.00     0.002 A 
HETATM   31  C13 UNL     1      20.536  26.458  35.861  1.00  0.00     0.032 A 
HETATM   32  N5  UNL     1      18.153  26.748  36.446  1.00  0.00    -0.339 N 
ATOM     33  H5  UNL     1      17.994  27.681  36.065  1.00  0.00     0.167 HD
ENDBRANCH   4  23
TORSDOF 5
ENDMDL
MODEL 5
REMARK VINA RESULT: -9.549621849      4.572      7.891
REMARK  5 active torsions:
REMARK  status: ('A' for Active; 'I' for Inactive)
REMARK    1  A    between atoms: N1_1  and  S1_4 
REMARK    2  A    between atoms: S1_4  and  C1_7 
REMARK    3  A    between atoms: C5_11  and  N2_12 
REMARK    4  A    between atoms: N2_12  and  C6_14 
REMARK    5  A    between atoms: C7_17  and  C8_18 
ROOT
HETATM    1  C6  UNL     1      10.849  25.923  33.735  1.00  0.00     0.683 A 
HETATM    2  N3  UNL     1      11.230  24.937  32.907  1.00  0.00    -0.188 N 
ATOM      3  H3  UNL     1      11.958  25.130  32.219  1.00  0.00     0.184 HD
HETATM    4  C7  UNL     1      10.690  23.706  32.949  1.00  0.00     0.094 A 
HETATM    5  C15 UNL     1       9.713  23.460  33.878  1.00  0.00     0.051 A 
HETATM    6  C16 UNL     1       9.288  24.462  34.759  1.00  0.00     0.108 A 
HETATM    7  N6  UNL     1       9.889  25.664  34.641  1.00  0.00    -0.202 N 
ATOM      8  H6  UNL     1       9.601  26.413  35.270  1.00  0.00     0.183 HD
ENDROOT
BRANCH   1   9
HETATM    9  N2  UNL     1      11.400  27.087  33.651  1.00  0.00    -0.192 N 
ATOM     10  H2  UNL     1      10.976  27.781  33.037  1.00  0.00     0.184 HD
BRANCH   9  11
HETATM   11  C5  UNL     1      12.554  27.445  34.364  1.00  0.00     0.050 A 
HETATM   12  C4  UNL     1      13.438  28.428  33.933  1.00  0.00     0.030 A 
HETATM   13  C3  UNL     1      14.562  28.752  34.664  1.00  0.00     0.004 A 
HETATM   14  C2  UNL     1      14.855  28.118  35.846  1.00  0.00     0.025 A 
HETATM   15  C1  UNL     1      13.979  27.140  36.281  1.00  0.00     0.081 A 
HETATM   16  C17 UNL     1      12.858  26.813  35.557  1.00  0.00     0.055 A 
BRANCH  15  17
HETATM   17  S1  UNL     1      14.353  26.323  37.798  1.00  0.00     0.256 S 
HETATM   18  O1  UNL     1      13.150  26.507  38.691  1.00  0.00    -0.201 OA
HETATM   19  O2  UNL     1      15.580  26.958  38.401  1.00  0.00    -0.201 OA
BRANCH  17  20
HETATM   20  N1  UNL     1      14.563  24.632  37.548  1.00  0.00    -0.324 N 
ATOM     21  H12 UNL     1      14.486  23.913  38.269  1.00  0.00     0.169 HD
ATOM     22  H11 UNL     1      14.776  24.489  36.560  1.00  0.00     0.169 HD
ENDBRANCH  17  20
ENDBRANCH  15  17
ENDBRANCH   9  11
ENDBRANCH   1   9
BRANCH   4  23
HETATM   23  C8  UNL     1      11.127  22.651  32.030  1.00  0.00     0.134 A 
HETATM   24  N4  UNL     1      12.383  22.302  31.744  1.00  0.00    -0.339 N 
HETATM   25  C9  UNL     1      12.387  21.284  30.852  1.00  0.00     0.060 A 
ATOM     26  H4  UNL     1      13.217  22.738  32.139  1.00  0.00     0.167 HD
HETATM   27  C10 UNL     1      13.365  20.544  30.219  1.00  0.00     0.032 A 
HETATM   28  C14 UNL     1      11.060  20.992  30.574  1.00  0.00     0.060 A 
HETATM   29  C11 UNL     1      12.990  19.542  29.334  1.00  0.00     0.002 A 
HETATM   30  C12 UNL     1      11.669  19.267  29.071  1.00  0.00     0.002 A 
HETATM   31  C13 UNL     1      10.686  20.002  29.699  1.00  0.00     0.032 A 
HETATM   32  N5  UNL     1      10.342  21.845  31.310  1.00  0.00    -0.339 N 
ATOM     33  H5  UNL     1       9.323  21.876  31.321  1.00  0.00     0.167 HD
ENDBRANCH   4  23
TORSDOF 5
ENDMDL
