MODEL 1
REMARK VINA RESULT: -6.117247810      0.000      0.000
REMARK  9 active torsions:
REMARK  status: ('A' for Active; 'I' for Inactive)
REMARK    1  A    between atoms: O1_2  and  C2_3 
REMARK    2  A    between atoms: C2_3  and  C4_6 
REMARK    3  A    between atoms: C2_3  and  C7_10 
REMARK    4  A    between atoms: C4_6  and  N2_7 
REMARK    5  A    between atoms: C7_10  and  N3_11 
REMARK    6  A    between atoms: C8_12  and  C9_13 
REMARK    7  A    between atoms: N6_26  and  C16_28 
REMARK    8  A    between atoms: N9_35  and  N10_36 
REMARK    9  A    between atoms: C19_41  and  N12_42 
ROOT
HETATM    1  C2  UNL     1     -20.205   2.989  62.330  1.00  0.00     0.190 C 
HETATM    2  C3  UNL     1     -18.862   2.561  61.998  1.00  0.00     0.101 C 
HETATM    3  N1  UNL     1     -17.791   2.208  61.696  1.00  0.00    -0.194 NA
ENDROOT
BRANCH   1   4
HETATM    4  O1  UNL     1     -21.155   2.155  61.811  1.00  0.00    -0.367 OA
HETATM    5  C1  UNL     1     -20.851   1.332  60.786  1.00  0.00     0.204 C 
ENDBRANCH   1   4
BRANCH   1   6
HETATM    6  C4  UNL     1     -20.366   4.434  61.928  1.00  0.00     0.326 C 
BRANCH   6   7
HETATM    7  N2  UNL     1     -19.468   5.012  61.027  1.00  0.00     0.084 N 
HETATM    8  C5  UNL     1     -20.287   5.532  59.898  1.00  0.00     0.309 C 
HETATM    9  C6  UNL     1     -18.733   6.176  61.478  1.00  0.00     0.309 C 
ENDBRANCH   6   7
ENDBRANCH   1   6
BRANCH   1  10
HETATM   10  C7  UNL     1     -20.472   2.988  63.875  1.00  0.00     0.186 C 
BRANCH  10  11
HETATM   11  N3  UNL     1     -21.799   2.869  64.177  1.00  0.00    -0.323 N 
HETATM   12  C8  UNL     1     -22.646   3.845  64.555  1.00  0.00     0.119 A 
HETATM   13  N4  UNL     1     -23.906   3.328  64.682  1.00  0.00    -0.335 N 
HETATM   14  C13 UNL     1     -23.890   2.029  64.400  1.00  0.00     0.134 A 
ATOM     15  H4  UNL     1     -24.733   3.859  64.952  1.00  0.00     0.168 HD
HETATM   16  C14 UNL     1     -24.955   1.145  64.389  1.00  0.00     0.288 C 
HETATM   17  C20 UNL     1     -22.551   1.739  64.086  1.00  0.00     0.113 A 
HETATM   18  O2  UNL     1     -25.982   1.549  64.961  1.00  0.00    -0.265 OA
HETATM   19  N5  UNL     1     -25.013  -0.081  63.842  1.00  0.00    -0.153 N 
HETATM   20  C15 UNL     1     -24.031  -0.848  63.281  1.00  0.00     0.701 C 
ATOM     21  H5  UNL     1     -25.940  -0.508  63.846  1.00  0.00     0.187 HD
HETATM   22  N6  UNL     1     -24.386  -1.962  62.739  1.00  0.00    -0.019 N 
HETATM   23  N11 UNL     1     -22.701  -0.547  63.243  1.00  0.00    -0.174 N 
ATOM     24  H6  UNL     1     -23.675  -2.554  62.312  1.00  0.00     0.203 HD
HETATM   25  C19 UNL     1     -22.059   0.483  63.847  1.00  0.00     0.144 C 
ATOM     26  H11 UNL     1     -22.116  -1.175  62.690  1.00  0.00     0.186 HD
BRANCH  12  27
HETATM   27  C9  UNL     1     -22.458   5.290  64.845  1.00  0.00     0.015 A 
HETATM   28  C10 UNL     1     -23.397   6.163  65.292  1.00  0.00     0.023 A 
HETATM   29  C11 UNL     1     -23.000   7.440  65.589  1.00  0.00     0.050 A 
HETATM   30  S1  UNL     1     -21.343   7.424  65.249  1.00  0.00    -0.113 SA
HETATM   31  C12 UNL     1     -21.173   5.815  64.739  1.00  0.00     0.064 A 
ENDBRANCH  12  27
BRANCH  22  32
HETATM   32  C16 UNL     1     -25.717  -2.378  62.721  1.00  0.00     0.734 A 
HETATM   33  N7  UNL     1     -26.668  -2.094  61.821  1.00  0.00    -0.176 N 
HETATM   34  C17 UNL     1     -27.826  -2.682  62.153  1.00  0.00     0.110 A 
ATOM     35  H7  UNL     1     -26.529  -1.510  60.995  1.00  0.00     0.185 HD
HETATM   36  C18 UNL     1     -29.092  -2.600  61.408  1.00  0.00     0.091 C 
HETATM   37  N8  UNL     1     -27.567  -3.345  63.295  1.00  0.00    -0.253 N 
HETATM   38  N9  UNL     1     -26.311  -3.164  63.632  1.00  0.00    -0.025 N 
ATOM     39  H8  UNL     1     -28.243  -3.903  63.819  1.00  0.00     0.191 HD
BRANCH  38  40
HETATM   40  N10 UNL     1     -25.683  -3.711  64.775  1.00  0.00    -0.309 N 
ATOM     41 2H10 UNL     1     -25.629  -3.263  65.689  1.00  0.00     0.179 HD
ATOM     42 1H10 UNL     1     -25.213  -4.616  64.815  1.00  0.00     0.179 HD
ENDBRANCH  38  40
ENDBRANCH  22  32
BRANCH  25  43
HETATM   43  N12 UNL     1     -20.888   0.231  64.256  1.00  0.00    -0.383 N 
ATOM     44 2H12 UNL     1     -20.174   0.942  64.101  1.00  0.00     0.157 HD
ATOM     45 1H12 UNL     1     -20.772  -0.666  64.728  1.00  0.00     0.157 HD
ENDBRANCH  25  43
ENDBRANCH  10  11
ENDBRANCH   1  10
TORSDOF 9
ENDMDL
MODEL 2
REMARK VINA RESULT: -5.052695737      5.441      9.576
REMARK  9 active torsions:
REMARK  status: ('A' for Active; 'I' for Inactive)
REMARK    1  A    between atoms: O1_2  and  C2_3 
REMARK    2  A    between atoms: C2_3  and  C4_6 
REMARK    3  A    between atoms: C2_3  and  C7_10 
REMARK    4  A    between atoms: C4_6  and  N2_7 
REMARK    5  A    between atoms: C7_10  and  N3_11 
REMARK    6  A    between atoms: C8_12  and  C9_13 
REMARK    7  A    between atoms: N6_26  and  C16_28 
REMARK    8  A    between atoms: N9_35  and  N10_36 
REMARK    9  A    between atoms: C19_41  and  N12_42 
ROOT
HETATM    1  C2  UNL     1     -19.373  10.511  57.387  1.00  0.00     0.190 C 
HETATM    2  C3  UNL     1     -18.733  10.814  58.650  1.00  0.00     0.101 C 
HETATM    3  N1  UNL     1     -18.227  11.094  59.664  1.00  0.00    -0.194 NA
ENDROOT
BRANCH   1   4
HETATM    4  O1  UNL     1     -19.092  11.446  56.430  1.00  0.00    -0.367 OA
HETATM    5  C1  UNL     1     -18.307  12.503  56.721  1.00  0.00     0.204 C 
ENDBRANCH   1   4
BRANCH   1   6
HETATM    6  C4  UNL     1     -20.845  10.297  57.627  1.00  0.00     0.326 C 
BRANCH   6   7
HETATM    7  N2  UNL     1     -21.781  11.147  57.031  1.00  0.00     0.084 N 
HETATM    8  C5  UNL     1     -23.110  10.509  57.231  1.00  0.00     0.309 C 
HETATM    9  C6  UNL     1     -21.945  12.464  57.611  1.00  0.00     0.309 C 
ENDBRANCH   6   7
ENDBRANCH   1   6
BRANCH   1  10
HETATM   10  C7  UNL     1     -18.881   9.153  56.775  1.00  0.00     0.186 C 
BRANCH  10  11
HETATM   11  N3  UNL     1     -18.189   8.393  57.675  1.00  0.00    -0.323 N 
HETATM   12  C8  UNL     1     -16.900   8.526  58.042  1.00  0.00     0.119 A 
HETATM   13  N4  UNL     1     -16.616   7.622  59.029  1.00  0.00    -0.335 N 
HETATM   14  C13 UNL     1     -17.697   6.898  59.302  1.00  0.00     0.134 A 
ATOM     15  H4  UNL     1     -15.710   7.519  59.486  1.00  0.00     0.168 HD
HETATM   16  C14 UNL     1     -17.836   5.896  60.248  1.00  0.00     0.288 C 
HETATM   17  C20 UNL     1     -18.692   7.385  58.438  1.00  0.00     0.113 A 
HETATM   18  O2  UNL     1     -16.770   5.445  60.699  1.00  0.00    -0.265 OA
HETATM   19  N5  UNL     1     -18.970   5.359  60.730  1.00  0.00    -0.153 N 
HETATM   20  C15 UNL     1     -20.268   5.535  60.341  1.00  0.00     0.701 C 
ATOM     21  H5  UNL     1     -18.840   4.716  61.511  1.00  0.00     0.187 HD
HETATM   22  N6  UNL     1     -21.181   4.963  61.048  1.00  0.00    -0.019 N 
HETATM   23  N11 UNL     1     -20.694   6.261  59.267  1.00  0.00    -0.174 N 
ATOM     24  H6  UNL     1     -22.159   5.078  60.783  1.00  0.00     0.203 HD
HETATM   25  C19 UNL     1     -19.941   6.842  58.300  1.00  0.00     0.144 C 
ATOM     26  H11 UNL     1     -21.703   6.381  59.180  1.00  0.00     0.186 HD
BRANCH  12  27
HETATM   27  C9  UNL     1     -15.806   9.421  57.587  1.00  0.00     0.015 A 
HETATM   28  C10 UNL     1     -15.052  10.247  58.356  1.00  0.00     0.023 A 
HETATM   29  C11 UNL     1     -14.024  10.926  57.757  1.00  0.00     0.050 A 
HETATM   30  S1  UNL     1     -14.110  10.421  56.144  1.00  0.00    -0.113 SA
HETATM   31  C12 UNL     1     -15.434   9.366  56.247  1.00  0.00     0.064 A 
ENDBRANCH  12  27
BRANCH  22  32
HETATM   32  C16 UNL     1     -20.867   4.192  62.168  1.00  0.00     0.734 A 
HETATM   33  N7  UNL     1     -21.033   2.875  62.347  1.00  0.00    -0.176 N 
HETATM   34  C17 UNL     1     -20.611   2.505  63.565  1.00  0.00     0.110 A 
ATOM     35  H7  UNL     1     -21.428   2.241  61.652  1.00  0.00     0.185 HD
HETATM   36  C18 UNL     1     -20.634   1.142  64.119  1.00  0.00     0.091 C 
HETATM   37  N8  UNL     1     -20.173   3.639  64.143  1.00  0.00    -0.253 N 
HETATM   38  N9  UNL     1     -20.326   4.643  63.311  1.00  0.00    -0.025 N 
ATOM     39  H8  UNL     1     -19.783   3.708  65.083  1.00  0.00     0.191 HD
BRANCH  38  40
HETATM   40  N10 UNL     1     -19.976   5.987  63.576  1.00  0.00    -0.309 N 
ATOM     41 2H10 UNL     1     -19.188   6.484  63.160  1.00  0.00     0.179 HD
ATOM     42 1H10 UNL     1     -20.470   6.611  64.214  1.00  0.00     0.179 HD
ENDBRANCH  38  40
ENDBRANCH  22  32
BRANCH  25  43
HETATM   43  N12 UNL     1     -20.453   6.848  57.142  1.00  0.00    -0.383 N 
ATOM     44 2H12 UNL     1     -21.402   7.210  57.051  1.00  0.00     0.157 HD
ATOM     45 1H12 UNL     1     -19.850   6.506  56.394  1.00  0.00     0.157 HD
ENDBRANCH  25  43
ENDBRANCH  10  11
ENDBRANCH   1  10
TORSDOF 9
ENDMDL
MODEL 3
REMARK VINA RESULT: -4.920592791      0.986      1.626
REMARK  9 active torsions:
REMARK  status: ('A' for Active; 'I' for Inactive)
REMARK    1  A    between atoms: O1_2  and  C2_3 
REMARK    2  A    between atoms: C2_3  and  C4_6 
REMARK    3  A    between atoms: C2_3  and  C7_10 
REMARK    4  A    between atoms: C4_6  and  N2_7 
REMARK    5  A    between atoms: C7_10  and  N3_11 
REMARK    6  A    between atoms: C8_12  and  C9_13 
REMARK    7  A    between atoms: N6_26  and  C16_28 
REMARK    8  A    between atoms: N9_35  and  N10_36 
REMARK    9  A    between atoms: C19_41  and  N12_42 
ROOT
HETATM    1  C2  UNL     1     -20.251   3.169  62.453  1.00  0.00     0.190 C 
HETATM    2  C3  UNL     1     -20.427   2.005  61.609  1.00  0.00     0.101 C 
HETATM    3  N1  UNL     1     -20.574   1.090  60.899  1.00  0.00    -0.194 NA
ENDROOT
BRANCH   1   4
HETATM    4  O1  UNL     1     -21.129   4.169  62.142  1.00  0.00    -0.367 OA
HETATM    5  C1  UNL     1     -20.732   5.211  61.383  1.00  0.00     0.204 C 
ENDBRANCH   1   4
BRANCH   1   6
HETATM    6  C4  UNL     1     -18.802   3.584  62.411  1.00  0.00     0.326 C 
BRANCH   6   7
HETATM    7  N2  UNL     1     -17.919   2.944  61.538  1.00  0.00     0.084 N 
HETATM    8  C5  UNL     1     -17.177   4.023  60.831  1.00  0.00     0.309 C 
HETATM    9  C6  UNL     1     -16.868   2.140  62.127  1.00  0.00     0.309 C 
ENDBRANCH   6   7
ENDBRANCH   1   6
BRANCH   1  10
HETATM   10  C7  UNL     1     -20.518   2.859  63.968  1.00  0.00     0.186 C 
BRANCH  10  11
HETATM   11  N3  UNL     1     -21.850   2.759  64.254  1.00  0.00    -0.323 N 
HETATM   12  C8  UNL     1     -22.681   3.744  64.648  1.00  0.00     0.119 A 
HETATM   13  N4  UNL     1     -23.952   3.249  64.751  1.00  0.00    -0.335 N 
HETATM   14  C13 UNL     1     -23.959   1.957  64.439  1.00  0.00     0.134 A 
ATOM     15  H4  UNL     1     -24.772   3.790  65.025  1.00  0.00     0.168 HD
HETATM   16  C14 UNL     1     -25.042   1.095  64.397  1.00  0.00     0.288 C 
HETATM   17  C20 UNL     1     -22.624   1.647  64.130  1.00  0.00     0.113 A 
HETATM   18  O2  UNL     1     -26.066   1.506  64.969  1.00  0.00    -0.265 OA
HETATM   19  N5  UNL     1     -25.119  -0.117  63.822  1.00  0.00    -0.153 N 
HETATM   20  C15 UNL     1     -24.147  -0.891  63.252  1.00  0.00     0.701 C 
ATOM     21  H5  UNL     1     -26.053  -0.526  63.807  1.00  0.00     0.187 HD
HETATM   22  N6  UNL     1     -24.518  -1.984  62.681  1.00  0.00    -0.019 N 
HETATM   23  N11 UNL     1     -22.810  -0.615  63.232  1.00  0.00    -0.174 N 
ATOM     24  H6  UNL     1     -23.814  -2.580  62.246  1.00  0.00     0.203 HD
HETATM   25  C19 UNL     1     -22.154   0.388  63.867  1.00  0.00     0.144 C 
ATOM     26  H11 UNL     1     -22.233  -1.241  62.670  1.00  0.00     0.186 HD
BRANCH  12  27
HETATM   27  C9  UNL     1     -22.468   5.177  64.973  1.00  0.00     0.015 A 
HETATM   28  C10 UNL     1     -21.300   5.866  64.905  1.00  0.00     0.023 A 
HETATM   29  C11 UNL     1     -21.330   7.212  65.159  1.00  0.00     0.050 A 
HETATM   30  S1  UNL     1     -22.962   7.512  65.487  1.00  0.00    -0.113 SA
HETATM   31  C12 UNL     1     -23.582   5.944  65.302  1.00  0.00     0.064 A 
ENDBRANCH  12  27
BRANCH  22  32
HETATM   32  C16 UNL     1     -25.857  -2.373  62.640  1.00  0.00     0.734 A 
HETATM   33  N7  UNL     1     -26.780  -2.092  61.711  1.00  0.00    -0.176 N 
HETATM   34  C17 UNL     1     -27.958  -2.647  62.030  1.00  0.00     0.110 A 
ATOM     35  H7  UNL     1     -26.610  -1.532  60.876  1.00  0.00     0.185 HD
HETATM   36  C18 UNL     1     -29.204  -2.557  61.252  1.00  0.00     0.091 C 
HETATM   37  N8  UNL     1     -27.740  -3.288  63.194  1.00  0.00    -0.253 N 
HETATM   38  N9  UNL     1     -26.488  -3.124  63.556  1.00  0.00    -0.025 N 
ATOM     39  H8  UNL     1     -28.439  -3.818  63.714  1.00  0.00     0.191 HD
BRANCH  38  40
HETATM   40  N10 UNL     1     -25.899  -3.656  64.726  1.00  0.00    -0.309 N 
ATOM     41 2H10 UNL     1     -25.020  -4.171  64.762  1.00  0.00     0.179 HD
ATOM     42 1H10 UNL     1     -26.287  -3.584  65.667  1.00  0.00     0.179 HD
ENDBRANCH  38  40
ENDBRANCH  22  32
BRANCH  25  43
HETATM   43  N12 UNL     1     -20.992   0.103  64.280  1.00  0.00    -0.383 N 
ATOM     44 2H12 UNL     1     -20.261   0.800  64.142  1.00  0.00     0.157 HD
ATOM     45 1H12 UNL     1     -20.900  -0.803  64.739  1.00  0.00     0.157 HD
ENDBRANCH  25  43
ENDBRANCH  10  11
ENDBRANCH   1  10
TORSDOF 9
ENDMDL
MODEL 4
REMARK VINA RESULT: -3.400363338      1.554      1.923
REMARK  9 active torsions:
REMARK  status: ('A' for Active; 'I' for Inactive)
REMARK    1  A    between atoms: O1_2  and  C2_3 
REMARK    2  A    between atoms: C2_3  and  C4_6 
REMARK    3  A    between atoms: C2_3  and  C7_10 
REMARK    4  A    between atoms: C4_6  and  N2_7 
REMARK    5  A    between atoms: C7_10  and  N3_11 
REMARK    6  A    between atoms: C8_12  and  C9_13 
REMARK    7  A    between atoms: N6_26  and  C16_28 
REMARK    8  A    between atoms: N9_35  and  N10_36 
REMARK    9  A    between atoms: C19_41  and  N12_42 
ROOT
HETATM    1  C2  UNL     1     -19.273   3.744  62.243  1.00  0.00     0.190 C 
HETATM    2  C3  UNL     1     -19.005   3.394  63.623  1.00  0.00     0.101 C 
HETATM    3  N1  UNL     1     -18.754   3.103  64.725  1.00  0.00    -0.194 NA
ENDROOT
BRANCH   1   4
HETATM    4  O1  UNL     1     -18.706   2.860  61.368  1.00  0.00    -0.367 OA
HETATM    5  C1  UNL     1     -17.418   2.488  61.515  1.00  0.00     0.204 C 
ENDBRANCH   1   4
BRANCH   1   6
HETATM    6  C4  UNL     1     -18.868   5.179  62.020  1.00  0.00     0.326 C 
BRANCH   6   7
HETATM    7  N2  UNL     1     -18.203   5.542  60.846  1.00  0.00     0.084 N 
HETATM    8  C5  UNL     1     -19.235   6.117  59.942  1.00  0.00     0.309 C 
HETATM    9  C6  UNL     1     -17.213   6.596  60.943  1.00  0.00     0.309 C 
ENDBRANCH   6   7
ENDBRANCH   1   6
BRANCH   1  10
HETATM   10  C7  UNL     1     -20.803   3.718  61.903  1.00  0.00     0.186 C 
BRANCH  10  11
HETATM   11  N3  UNL     1     -21.555   3.186  62.912  1.00  0.00    -0.323 N 
HETATM   12  C8  UNL     1     -22.032   3.819  64.001  1.00  0.00     0.119 A 
HETATM   13  N4  UNL     1     -22.807   2.953  64.724  1.00  0.00    -0.335 N 
HETATM   14  C13 UNL     1     -22.835   1.767  64.126  1.00  0.00     0.134 A 
ATOM     15  H4  UNL     1     -23.291   3.184  65.591  1.00  0.00     0.168 HD
HETATM   16  C14 UNL     1     -23.518   0.629  64.519  1.00  0.00     0.288 C 
HETATM   17  C20 UNL     1     -22.036   1.915  62.979  1.00  0.00     0.113 A 
HETATM   18  O2  UNL     1     -23.929   0.639  65.692  1.00  0.00    -0.265 OA
HETATM   19  N5  UNL     1     -23.787  -0.472  63.796  1.00  0.00    -0.153 N 
HETATM   20  C15 UNL     1     -23.359  -0.841  62.552  1.00  0.00     0.701 C 
ATOM     21  H5  UNL     1     -24.411  -1.139  64.249  1.00  0.00     0.187 HD
HETATM   22  N6  UNL     1     -23.854  -1.919  62.050  1.00  0.00    -0.019 N 
HETATM   23  N11 UNL     1     -22.448  -0.173  61.785  1.00  0.00    -0.174 N 
ATOM     24  H6  UNL     1     -23.554  -2.218  61.123  1.00  0.00     0.203 HD
HETATM   25  C19 UNL     1     -21.692   0.899  62.129  1.00  0.00     0.144 C 
ATOM     26  H11 UNL     1     -22.321  -0.523  60.836  1.00  0.00     0.186 HD
BRANCH  12  27
HETATM   27  C9  UNL     1     -21.867   5.200  64.522  1.00  0.00     0.015 A 
HETATM   28  C10 UNL     1     -20.760   5.981  64.432  1.00  0.00     0.023 A 
HETATM   29  C11 UNL     1     -20.839   7.268  64.896  1.00  0.00     0.050 A 
HETATM   30  S1  UNL     1     -22.432   7.386  65.451  1.00  0.00    -0.113 SA
HETATM   31  C12 UNL     1     -22.975   5.819  65.093  1.00  0.00     0.064 A 
ENDBRANCH  12  27
BRANCH  22  32
HETATM   32  C16 UNL     1     -24.791  -2.688  62.741  1.00  0.00     0.734 A 
HETATM   33  N7  UNL     1     -26.115  -2.509  62.829  1.00  0.00    -0.176 N 
HETATM   34  C17 UNL     1     -26.673  -3.461  63.592  1.00  0.00     0.110 A 
ATOM     35  H7  UNL     1     -26.630  -1.753  62.378  1.00  0.00     0.185 HD
HETATM   36  C18 UNL     1     -28.102  -3.594  63.916  1.00  0.00     0.091 C 
HETATM   37  N8  UNL     1     -25.648  -4.244  63.979  1.00  0.00    -0.253 N 
HETATM   38  N9  UNL     1     -24.528  -3.782  63.472  1.00  0.00    -0.025 N 
ATOM     39  H8  UNL     1     -25.729  -5.068  64.575  1.00  0.00     0.191 HD
BRANCH  38  40
HETATM   40  N10 UNL     1     -23.248  -4.350  63.666  1.00  0.00    -0.309 N 
ATOM     41 2H10 UNL     1     -22.815  -5.049  63.062  1.00  0.00     0.179 HD
ATOM     42 1H10 UNL     1     -22.611  -4.124  64.430  1.00  0.00     0.179 HD
ENDBRANCH  38  40
ENDBRANCH  22  32
BRANCH  25  43
HETATM   43  N12 UNL     1     -20.532   0.931  61.622  1.00  0.00    -0.383 N 
ATOM     44 2H12 UNL     1     -20.214   1.820  61.237  1.00  0.00     0.157 HD
ATOM     45 1H12 UNL     1     -20.009   0.057  61.668  1.00  0.00     0.157 HD
ENDBRANCH  25  43
ENDBRANCH  10  11
ENDBRANCH   1  10
TORSDOF 9
ENDMDL
MODEL 5
REMARK VINA RESULT: -3.325147867      1.056      2.091
REMARK  9 active torsions:
REMARK  status: ('A' for Active; 'I' for Inactive)
REMARK    1  A    between atoms: O1_2  and  C2_3 
REMARK    2  A    between atoms: C2_3  and  C4_6 
REMARK    3  A    between atoms: C2_3  and  C7_10 
REMARK    4  A    between atoms: C4_6  and  N2_7 
REMARK    5  A    between atoms: C7_10  and  N3_11 
REMARK    6  A    between atoms: C8_12  and  C9_13 
REMARK    7  A    between atoms: N6_26  and  C16_28 
REMARK    8  A    between atoms: N9_35  and  N10_36 
REMARK    9  A    between atoms: C19_41  and  N12_42 
ROOT
HETATM    1  C2  UNL     1     -20.056   2.998  62.650  1.00  0.00     0.190 C 
HETATM    2  C3  UNL     1     -20.269   4.353  62.188  1.00  0.00     0.101 C 
HETATM    3  N1  UNL     1     -20.418   5.439  61.786  1.00  0.00    -0.194 NA
ENDROOT
BRANCH   1   4
HETATM    4  O1  UNL     1     -18.745   2.623  62.562  1.00  0.00    -0.367 OA
HETATM    5  C1  UNL     1     -17.905   3.275  61.731  1.00  0.00     0.204 C 
ENDBRANCH   1   4
BRANCH   1   6
HETATM    6  C4  UNL     1     -21.010   2.082  61.925  1.00  0.00     0.326 C 
BRANCH   6   7
HETATM    7  N2  UNL     1     -20.552   1.296  60.865  1.00  0.00     0.084 N 
HETATM    8  C5  UNL     1     -19.835   0.146  61.477  1.00  0.00     0.309 C 
HETATM    9  C6  UNL     1     -21.551   0.666  60.026  1.00  0.00     0.309 C 
ENDBRANCH   6   7
ENDBRANCH   1   6
BRANCH   1  10
HETATM   10  C7  UNL     1     -20.423   2.815  64.164  1.00  0.00     0.186 C 
BRANCH  10  11
HETATM   11  N3  UNL     1     -21.772   2.752  64.372  1.00  0.00    -0.323 N 
HETATM   12  C8  UNL     1     -22.604   3.766  64.678  1.00  0.00     0.119 A 
HETATM   13  N4  UNL     1     -23.889   3.300  64.720  1.00  0.00    -0.335 N 
HETATM   14  C13 UNL     1     -23.906   1.998  64.455  1.00  0.00     0.134 A 
ATOM     15  H4  UNL     1     -24.712   3.867  64.924  1.00  0.00     0.168 HD
HETATM   16  C14 UNL     1     -25.002   1.156  64.378  1.00  0.00     0.288 C 
HETATM   17  C20 UNL     1     -22.561   1.651  64.240  1.00  0.00     0.113 A 
HETATM   18  O2  UNL     1     -26.049   1.608  64.871  1.00  0.00    -0.265 OA
HETATM   19  N5  UNL     1     -25.070  -0.075  63.843  1.00  0.00    -0.153 N 
HETATM   20  C15 UNL     1     -24.082  -0.888  63.362  1.00  0.00     0.701 C 
ATOM     21  H5  UNL     1     -26.011  -0.465  63.786  1.00  0.00     0.187 HD
HETATM   22  N6  UNL     1     -24.441  -1.994  62.809  1.00  0.00    -0.019 N 
HETATM   23  N11 UNL     1     -22.741  -0.639  63.415  1.00  0.00    -0.174 N 
ATOM     24  H6  UNL     1     -23.726  -2.620  62.440  1.00  0.00     0.203 HD
HETATM   25  C19 UNL     1     -22.103   0.374  64.052  1.00  0.00     0.144 C 
ATOM     26  H11 UNL     1     -22.145  -1.297  62.913  1.00  0.00     0.186 HD
BRANCH  12  27
HETATM   27  C9  UNL     1     -22.380   5.206  64.964  1.00  0.00     0.015 A 
HETATM   28  C10 UNL     1     -21.204   5.881  64.890  1.00  0.00     0.023 A 
HETATM   29  C11 UNL     1     -21.223   7.234  65.104  1.00  0.00     0.050 A 
HETATM   30  S1  UNL     1     -22.855   7.560  65.404  1.00  0.00    -0.113 SA
HETATM   31  C12 UNL     1     -23.489   5.993  65.258  1.00  0.00     0.064 A 
ENDBRANCH  12  27
BRANCH  22  32
HETATM   32  C16 UNL     1     -25.783  -2.359  62.700  1.00  0.00     0.734 A 
HETATM   33  N7  UNL     1     -26.663  -2.030  61.744  1.00  0.00    -0.176 N 
HETATM   34  C17 UNL     1     -27.862  -2.575  61.995  1.00  0.00     0.110 A 
ATOM     35  H7  UNL     1     -26.449  -1.445  60.937  1.00  0.00     0.185 HD
HETATM   36  C18 UNL     1     -29.073  -2.437  61.171  1.00  0.00     0.091 C 
HETATM   37  N8  UNL     1     -27.702  -3.258  63.144  1.00  0.00    -0.253 N 
HETATM   38  N9  UNL     1     -26.465  -3.129  63.563  1.00  0.00    -0.025 N 
ATOM     39  H8  UNL     1     -28.431  -3.794  63.616  1.00  0.00     0.191 HD
BRANCH  38  40
HETATM   40  N10 UNL     1     -25.933  -3.710  64.737  1.00  0.00    -0.309 N 
ATOM     41 2H10 UNL     1     -26.439  -4.330  65.369  1.00  0.00     0.179 HD
ATOM     42 1H10 UNL     1     -24.984  -3.575  65.086  1.00  0.00     0.179 HD
ENDBRANCH  38  40
ENDBRANCH  22  32
BRANCH  25  43
HETATM   43  N12 UNL     1     -20.975   0.082  64.546  1.00  0.00    -0.383 N 
ATOM     44 2H12 UNL     1     -20.575  -0.823  64.298  1.00  0.00     0.157 HD
ATOM     45 1H12 UNL     1     -20.554   0.800  65.136  1.00  0.00     0.157 HD
ENDBRANCH  25  43
ENDBRANCH  10  11
ENDBRANCH   1  10
TORSDOF 9
ENDMDL
