MODEL 1
REMARK VINA RESULT: -8.349522982      0.000      0.000
REMARK  7 active torsions:
REMARK  status: ('A' for Active; 'I' for Inactive)
REMARK    1  A    between atoms: C2_3  and  N2_4 
REMARK    2  A    between atoms: C7_10  and  C8_11 
REMARK    3  A    between atoms: C8_11  and  C9_13 
REMARK    4  A    between atoms: N5_18  and  C10_19 
REMARK    5  A    between atoms: C12_29  and  N9_30 
REMARK    6  A    between atoms: N9_30  and  C13_32 
REMARK    7  A    between atoms: C13_32  and  C14_33 
ROOT
HETATM    1  C9  UNL     1     -19.184   4.127  61.328  1.00  0.00     0.146 A 
HETATM    2  N3  UNL     1     -18.182   3.274  61.669  1.00  0.00    -0.279 N 
ATOM      3  H3  UNL     1     -18.296   2.426  62.225  1.00  0.00     0.189 HD
HETATM    4  N4  UNL     1     -17.054   3.702  61.176  1.00  0.00    -0.232 N 
ATOM      5  H4  UNL     1     -16.156   3.233  61.295  1.00  0.00     0.209 HD
HETATM    6  N5  UNL     1     -17.232   4.854  60.485  1.00  0.00    -0.202 N 
HETATM    7  C12 UNL     1     -18.548   5.117  60.578  1.00  0.00     0.159 A 
ENDROOT
BRANCH   1   8
HETATM    8  C8  UNL     1     -20.587   3.999  61.679  1.00  0.00     0.223 C 
HETATM    9  O2  UNL     1     -21.455   4.904  61.563  1.00  0.00    -0.285 OA
BRANCH   8  10
HETATM   10  C7  UNL     1     -21.028   2.694  62.218  1.00  0.00     0.131 A 
HETATM   11  C2  UNL     1     -21.576   2.578  63.499  1.00  0.00     0.153 A 
HETATM   12  N1  UNL     1     -21.969   1.385  63.952  1.00  0.00    -0.287 N 
HETATM   13  C1  UNL     1     -22.544   1.232  65.257  1.00  0.00     0.163 C 
HETATM   14  C20 UNL     1     -21.844   0.268  63.182  1.00  0.00     0.330 A 
HETATM   15  N10 UNL     1     -21.324   0.348  61.953  1.00  0.00    -0.274 N 
HETATM   16  O6  UNL     1     -22.229  -0.831  63.656  1.00  0.00    -0.246 OA
HETATM   17  C19 UNL     1     -20.916   1.557  61.471  1.00  0.00     0.267 A 
ATOM     18  H10 UNL     1     -21.232  -0.490  61.380  1.00  0.00     0.173 HD
HETATM   19  O5  UNL     1     -20.446   1.559  60.332  1.00  0.00    -0.267 OA
BRANCH  11  20
HETATM   20  N2  UNL     1     -21.711   3.759  64.280  1.00  0.00    -0.241 N 
HETATM   21  C3  UNL     1     -23.007   4.334  64.576  1.00  0.00     0.158 C 
HETATM   22  C4  UNL     1     -22.872   5.649  65.293  1.00  0.00     0.024 C 
HETATM   23  C5  UNL     1     -21.658   6.441  64.939  1.00  0.00     0.030 C 
HETATM   24  C6  UNL     1     -20.466   5.670  64.505  1.00  0.00     0.201 C 
HETATM   25  O1  UNL     1     -20.590   4.325  64.761  1.00  0.00    -0.276 OA
ENDBRANCH  11  20
ENDBRANCH   8  10
ENDBRANCH   1   8
BRANCH   7  26
HETATM   26  N9  UNL     1     -19.193   6.243  60.031  1.00  0.00    -0.372 N 
ATOM     27  H9  UNL     1     -19.079   7.111  60.554  1.00  0.00     0.161 HD
BRANCH  26  28
HETATM   28  C13 UNL     1     -19.982   6.337  58.850  1.00  0.00     0.128 C 
BRANCH  28  29
HETATM   29  C14 UNL     1     -19.633   7.557  57.994  1.00  0.00     0.027 C 
HETATM   30  C15 UNL     1     -20.751   8.567  58.062  1.00  0.00     0.010 C 
HETATM   31  C16 UNL     1     -20.354   9.889  57.520  1.00  0.00     0.027 C 
HETATM   32  C17 UNL     1     -18.904  10.212  57.518  1.00  0.00     0.167 C 
HETATM   33  O4  UNL     1     -18.036   9.155  57.480  1.00  0.00    -0.391 OA
HETATM   34  C18 UNL     1     -18.364   8.214  58.460  1.00  0.00     0.173 C 
ENDBRANCH  28  29
ENDBRANCH  26  28
ENDBRANCH   7  26
BRANCH   6  35
HETATM   35  C10 UNL     1     -16.169   5.555  59.844  1.00  0.00     0.198 A 
HETATM   36  N6  UNL     1     -15.554   5.291  58.689  1.00  0.00    -0.220 N 
HETATM   37  O3  UNL     1     -14.606   6.168  58.468  1.00  0.00    -0.153 OA
ATOM     38  H6  UNL     1     -15.789   4.516  58.068  1.00  0.00     0.198 HD
HETATM   39  N7  UNL     1     -14.572   7.023  59.461  1.00  0.00    -0.222 N 
HETATM   40  C11 UNL     1     -15.545   6.668  60.351  1.00  0.00     0.169 A 
ATOM     41  H7  UNL     1     -13.933   7.813  59.553  1.00  0.00     0.198 HD
HETATM   42  N8  UNL     1     -15.765   7.318  61.434  1.00  0.00    -0.381 N 
ATOM     43  H82 UNL     1     -16.491   7.052  62.099  1.00  0.00     0.157 HD
ATOM     44  H81 UNL     1     -15.302   8.144  61.811  1.00  0.00     0.157 HD
ENDBRANCH   6  35
TORSDOF 7
ENDMDL
MODEL 2
REMARK VINA RESULT: -7.751333447      8.514     13.838
REMARK  7 active torsions:
REMARK  status: ('A' for Active; 'I' for Inactive)
REMARK    1  A    between atoms: C2_3  and  N2_4 
REMARK    2  A    between atoms: C7_10  and  C8_11 
REMARK    3  A    between atoms: C8_11  and  C9_13 
REMARK    4  A    between atoms: N5_18  and  C10_19 
REMARK    5  A    between atoms: C12_29  and  N9_30 
REMARK    6  A    between atoms: N9_30  and  C13_32 
REMARK    7  A    between atoms: C13_32  and  C14_33 
ROOT
HETATM    1  C9  UNL     1     -28.226  -2.490  62.607  1.00  0.00     0.146 A 
HETATM    2  N3  UNL     1     -27.828  -1.994  61.405  1.00  0.00    -0.279 N 
ATOM      3  H3  UNL     1     -27.065  -1.332  61.267  1.00  0.00     0.189 HD
HETATM    4  N4  UNL     1     -28.569  -2.495  60.457  1.00  0.00    -0.232 N 
ATOM      5  H4  UNL     1     -28.465  -2.275  59.466  1.00  0.00     0.209 HD
HETATM    6  N5  UNL     1     -29.495  -3.346  60.962  1.00  0.00    -0.202 N 
HETATM    7  C12 UNL     1     -29.284  -3.344  62.289  1.00  0.00     0.159 A 
ENDROOT
BRANCH   1   8
HETATM    8  C8  UNL     1     -27.651  -2.183  63.904  1.00  0.00     0.223 C 
HETATM    9  O2  UNL     1     -28.253  -2.259  65.008  1.00  0.00    -0.285 OA
BRANCH   8  10
HETATM   10  C7  UNL     1     -26.238  -1.742  63.925  1.00  0.00     0.131 A 
HETATM   11  C2  UNL     1     -25.891  -0.405  64.136  1.00  0.00     0.153 A 
HETATM   12  N1  UNL     1     -24.606  -0.043  64.154  1.00  0.00    -0.287 N 
HETATM   13  C1  UNL     1     -24.215   1.319  64.378  1.00  0.00     0.163 C 
HETATM   14  C20 UNL     1     -23.617  -0.962  63.969  1.00  0.00     0.330 A 
HETATM   15  N10 UNL     1     -23.919  -2.248  63.765  1.00  0.00    -0.274 N 
HETATM   16  O6  UNL     1     -22.424  -0.569  63.995  1.00  0.00    -0.246 OA
HETATM   17  C19 UNL     1     -25.225  -2.639  63.742  1.00  0.00     0.267 A 
ATOM     18  H10 UNL     1     -23.177  -2.933  63.627  1.00  0.00     0.173 HD
HETATM   19  O5  UNL     1     -25.432  -3.839  63.549  1.00  0.00    -0.267 OA
BRANCH  11  20
HETATM   20  N2  UNL     1     -26.938   0.535  64.342  1.00  0.00    -0.241 N 
HETATM   21  C3  UNL     1     -27.406   1.401  63.279  1.00  0.00     0.158 C 
HETATM   22  C4  UNL     1     -28.415   2.394  63.785  1.00  0.00     0.024 C 
HETATM   23  C5  UNL     1     -28.225   2.823  65.202  1.00  0.00     0.030 C 
HETATM   24  C6  UNL     1     -27.579   1.843  66.111  1.00  0.00     0.201 C 
HETATM   25  O1  UNL     1     -27.506   0.586  65.560  1.00  0.00    -0.276 OA
ENDBRANCH  11  20
ENDBRANCH   8  10
ENDBRANCH   1   8
BRANCH   7  26
HETATM   26  N9  UNL     1     -30.037  -4.067  63.234  1.00  0.00    -0.372 N 
ATOM     27  H9  UNL     1     -29.631  -4.954  63.533  1.00  0.00     0.161 HD
BRANCH  26  28
HETATM   28  C13 UNL     1     -31.285  -3.732  63.831  1.00  0.00     0.128 C 
BRANCH  28  29
HETATM   29  C14 UNL     1     -32.404  -4.712  63.468  1.00  0.00     0.027 C 
HETATM   30  C15 UNL     1     -33.009  -5.285  64.724  1.00  0.00     0.010 C 
HETATM   31  C16 UNL     1     -34.287  -5.992  64.465  1.00  0.00     0.027 C 
HETATM   32  C17 UNL     1     -35.045  -5.596  63.249  1.00  0.00     0.167 C 
HETATM   33  O4  UNL     1     -34.321  -5.066  62.217  1.00  0.00    -0.391 OA
HETATM   34  C18 UNL     1     -33.490  -4.041  62.675  1.00  0.00     0.173 C 
ENDBRANCH  28  29
ENDBRANCH  26  28
ENDBRANCH   7  26
BRANCH   6  35
HETATM   35  C10 UNL     1     -30.448  -4.033  60.154  1.00  0.00     0.198 A 
HETATM   36  N6  UNL     1     -31.781  -4.019  60.219  1.00  0.00    -0.220 N 
HETATM   37  O3  UNL     1     -32.289  -4.811  59.307  1.00  0.00    -0.153 OA
ATOM     38  H6  UNL     1     -32.326  -3.468  60.883  1.00  0.00     0.198 HD
HETATM   39  N7  UNL     1     -31.313  -5.364  58.627  1.00  0.00    -0.222 N 
HETATM   40  C11 UNL     1     -30.135  -4.896  59.134  1.00  0.00     0.169 A 
ATOM     41  H7  UNL     1     -31.416  -6.024  57.857  1.00  0.00     0.198 HD
HETATM   42  N8  UNL     1     -28.992  -5.252  58.673  1.00  0.00    -0.381 N 
ATOM     43  H82 UNL     1     -28.112  -4.903  59.052  1.00  0.00     0.157 HD
ATOM     44  H81 UNL     1     -28.760  -5.893  57.915  1.00  0.00     0.157 HD
ENDBRANCH   6  35
TORSDOF 7
ENDMDL
MODEL 3
REMARK VINA RESULT: -7.628471535      3.396      6.419
REMARK  7 active torsions:
REMARK  status: ('A' for Active; 'I' for Inactive)
REMARK    1  A    between atoms: C2_3  and  N2_4 
REMARK    2  A    between atoms: C7_10  and  C8_11 
REMARK    3  A    between atoms: C8_11  and  C9_13 
REMARK    4  A    between atoms: N5_18  and  C10_19 
REMARK    5  A    between atoms: C12_29  and  N9_30 
REMARK    6  A    between atoms: N9_30  and  C13_32 
REMARK    7  A    between atoms: C13_32  and  C14_33 
ROOT
HETATM    1  C9  UNL     1     -21.569   0.914  63.057  1.00  0.00     0.146 A 
HETATM    2  N3  UNL     1     -21.394   0.413  61.806  1.00  0.00    -0.279 N 
ATOM      3  H3  UNL     1     -21.773  -0.473  61.470  1.00  0.00     0.189 HD
HETATM    4  N4  UNL     1     -20.670   1.235  61.101  1.00  0.00    -0.232 N 
ATOM      5  H4  UNL     1     -20.401   1.080  60.129  1.00  0.00     0.209 HD
HETATM    6  N5  UNL     1     -20.322   2.324  61.830  1.00  0.00    -0.202 N 
HETATM    7  C12 UNL     1     -20.878   2.126  63.038  1.00  0.00     0.159 A 
ENDROOT
BRANCH   1   8
HETATM    8  C8  UNL     1     -22.320   0.302  64.139  1.00  0.00     0.223 C 
HETATM    9  O2  UNL     1     -21.824  -0.358  65.091  1.00  0.00    -0.285 OA
BRANCH   8  10
HETATM   10  C7  UNL     1     -23.790   0.466  64.114  1.00  0.00     0.131 A 
HETATM   11  C2  UNL     1     -24.641  -0.595  63.792  1.00  0.00     0.153 A 
HETATM   12  N1  UNL     1     -25.963  -0.412  63.785  1.00  0.00    -0.287 N 
HETATM   13  C1  UNL     1     -26.866  -1.481  63.468  1.00  0.00     0.163 C 
HETATM   14  C20 UNL     1     -26.504   0.802  64.089  1.00  0.00     0.330 A 
HETATM   15  N10 UNL     1     -25.715   1.834  64.401  1.00  0.00    -0.274 N 
HETATM   16  O6  UNL     1     -27.755   0.921  64.067  1.00  0.00    -0.246 OA
HETATM   17  C19 UNL     1     -24.361   1.669  64.414  1.00  0.00     0.267 A 
ATOM     18  H10 UNL     1     -26.123   2.741  64.628  1.00  0.00     0.173 HD
HETATM   19  O5  UNL     1     -23.694   2.663  64.710  1.00  0.00    -0.267 OA
BRANCH  11  20
HETATM   20  N2  UNL     1     -24.056  -1.856  63.493  1.00  0.00    -0.241 N 
HETATM   21  C3  UNL     1     -23.907  -2.324  62.129  1.00  0.00     0.158 C 
HETATM   22  C4  UNL     1     -23.395  -3.737  62.088  1.00  0.00     0.024 C 
HETATM   23  C5  UNL     1     -23.812  -4.595  63.234  1.00  0.00     0.030 C 
HETATM   24  C6  UNL     1     -24.072  -3.903  64.522  1.00  0.00     0.201 C 
HETATM   25  O1  UNL     1     -23.619  -2.605  64.520  1.00  0.00    -0.276 OA
ENDBRANCH  11  20
ENDBRANCH   8  10
ENDBRANCH   1   8
BRANCH   7  26
HETATM   26  N9  UNL     1     -20.756   2.993  64.141  1.00  0.00    -0.372 N 
ATOM     27  H9  UNL     1     -20.990   2.587  65.047  1.00  0.00     0.161 HD
BRANCH  26  28
HETATM   28  C13 UNL     1     -20.351   4.358  64.167  1.00  0.00     0.128 C 
BRANCH  28  29
HETATM   29  C14 UNL     1     -21.269   5.239  65.017  1.00  0.00     0.027 C 
HETATM   30  C15 UNL     1     -20.785   6.666  64.983  1.00  0.00     0.010 C 
HETATM   31  C16 UNL     1     -21.788   7.618  65.518  1.00  0.00     0.027 C 
HETATM   32  C17 UNL     1     -23.212   7.192  65.481  1.00  0.00     0.167 C 
HETATM   33  O4  UNL     1     -23.454   5.847  65.491  1.00  0.00    -0.391 OA
HETATM   34  C18 UNL     1     -22.687   5.201  64.519  1.00  0.00     0.173 C 
ENDBRANCH  28  29
ENDBRANCH  26  28
ENDBRANCH   7  26
BRANCH   6  35
HETATM   35  C10 UNL     1     -19.522   3.386  61.316  1.00  0.00     0.198 A 
HETATM   36  N6  UNL     1     -19.896   4.495  60.674  1.00  0.00    -0.220 N 
HETATM   37  O3  UNL     1     -18.846   5.206  60.347  1.00  0.00    -0.153 OA
ATOM     38  H6  UNL     1     -20.862   4.751  60.468  1.00  0.00     0.198 HD
HETATM   39  N7  UNL     1     -17.764   4.590  60.759  1.00  0.00    -0.222 N 
HETATM   40  C11 UNL     1     -18.152   3.436  61.377  1.00  0.00     0.169 A 
ATOM     41  H7  UNL     1     -16.805   4.916  60.641  1.00  0.00     0.198 HD
HETATM   42  N8  UNL     1     -17.316   2.612  61.893  1.00  0.00    -0.381 N 
ATOM     43  H82 UNL     1     -17.606   1.749  62.354  1.00  0.00     0.157 HD
ATOM     44  H81 UNL     1     -16.298   2.649  61.938  1.00  0.00     0.157 HD
ENDBRANCH   6  35
TORSDOF 7
ENDMDL
MODEL 4
REMARK VINA RESULT: -7.313960346      1.743      7.520
REMARK  7 active torsions:
REMARK  status: ('A' for Active; 'I' for Inactive)
REMARK    1  A    between atoms: C2_3  and  N2_4 
REMARK    2  A    between atoms: C7_10  and  C8_11 
REMARK    3  A    between atoms: C8_11  and  C9_13 
REMARK    4  A    between atoms: N5_18  and  C10_19 
REMARK    5  A    between atoms: C12_29  and  N9_30 
REMARK    6  A    between atoms: N9_30  and  C13_32 
REMARK    7  A    between atoms: C13_32  and  C14_33 
ROOT
HETATM    1  C9  UNL     1     -20.154   3.420  61.652  1.00  0.00     0.146 A 
HETATM    2  N3  UNL     1     -20.118   2.330  60.840  1.00  0.00    -0.279 N 
ATOM      3  H3  UNL     1     -19.737   2.315  59.894  1.00  0.00     0.189 HD
HETATM    4  N4  UNL     1     -20.645   1.309  61.454  1.00  0.00    -0.232 N 
ATOM      5  H4  UNL     1     -20.735   0.376  61.051  1.00  0.00     0.209 HD
HETATM    6  N5  UNL     1     -21.059   1.650  62.699  1.00  0.00    -0.202 N 
HETATM    7  C12 UNL     1     -20.755   2.954  62.822  1.00  0.00     0.159 A 
ENDROOT
BRANCH   1   8
HETATM    8  C8  UNL     1     -19.659   4.749  61.339  1.00  0.00     0.223 C 
HETATM    9  O2  UNL     1     -20.193   5.831  61.700  1.00  0.00    -0.285 OA
BRANCH   8  10
HETATM   10  C7  UNL     1     -18.426   4.833  60.525  1.00  0.00     0.131 A 
HETATM   11  C2  UNL     1     -18.341   5.669  59.408  1.00  0.00     0.153 A 
HETATM   12  N1  UNL     1     -17.211   5.724  58.700  1.00  0.00    -0.287 N 
HETATM   13  C1  UNL     1     -17.086   6.578  57.554  1.00  0.00     0.163 C 
HETATM   14  C20 UNL     1     -16.128   4.973  59.048  1.00  0.00     0.330 A 
HETATM   15  N10 UNL     1     -16.181   4.165  60.111  1.00  0.00    -0.274 N 
HETATM   16  O6  UNL     1     -15.089   5.061  58.347  1.00  0.00    -0.246 OA
HETATM   17  C19 UNL     1     -17.326   4.093  60.849  1.00  0.00     0.267 A 
ATOM     18  H10 UNL     1     -15.369   3.604  60.369  1.00  0.00     0.173 HD
HETATM   19  O5  UNL     1     -17.305   3.328  61.815  1.00  0.00    -0.267 OA
BRANCH  11  20
HETATM   20  N2  UNL     1     -19.477   6.455  59.071  1.00  0.00    -0.241 N 
HETATM   21  C3  UNL     1     -20.592   5.906  58.326  1.00  0.00     0.158 C 
HETATM   22  C4  UNL     1     -21.596   6.969  57.977  1.00  0.00     0.024 C 
HETATM   23  C5  UNL     1     -21.025   8.331  57.761  1.00  0.00     0.030 C 
HETATM   24  C6  UNL     1     -19.780   8.655  58.502  1.00  0.00     0.201 C 
HETATM   25  O1  UNL     1     -19.501   7.734  59.485  1.00  0.00    -0.276 OA
ENDBRANCH  11  20
ENDBRANCH   8  10
ENDBRANCH   1   8
BRANCH   7  26
HETATM   26  N9  UNL     1     -21.030   3.751  63.949  1.00  0.00    -0.372 N 
ATOM     27  H9  UNL     1     -20.225   3.981  64.532  1.00  0.00     0.161 HD
BRANCH  26  28
HETATM   28  C13 UNL     1     -22.276   4.281  64.389  1.00  0.00     0.128 C 
BRANCH  28  29
HETATM   29  C14 UNL     1     -22.125   5.562  65.213  1.00  0.00     0.027 C 
HETATM   30  C15 UNL     1     -20.956   6.364  64.701  1.00  0.00     0.010 C 
HETATM   31  C16 UNL     1     -20.938   7.747  65.238  1.00  0.00     0.027 C 
HETATM   32  C17 UNL     1     -22.236   8.312  65.691  1.00  0.00     0.167 C 
HETATM   33  O4  UNL     1     -23.190   7.420  66.096  1.00  0.00    -0.391 OA
HETATM   34  C18 UNL     1     -23.360   6.415  65.141  1.00  0.00     0.173 C 
ENDBRANCH  28  29
ENDBRANCH  26  28
ENDBRANCH   7  26
BRANCH   6  35
HETATM   35  C10 UNL     1     -21.682   0.734  63.595  1.00  0.00     0.198 A 
HETATM   36  N6  UNL     1     -21.150  -0.289  64.267  1.00  0.00    -0.220 N 
HETATM   37  O3  UNL     1     -22.072  -0.901  64.968  1.00  0.00    -0.153 OA
ATOM     38  H6  UNL     1     -20.165  -0.557  64.238  1.00  0.00     0.198 HD
HETATM   39  N7  UNL     1     -23.223  -0.304  64.778  1.00  0.00    -0.222 N 
HETATM   40  C11 UNL     1     -23.017   0.735  63.916  1.00  0.00     0.169 A 
ATOM     41  H7  UNL     1     -24.114  -0.567  65.199  1.00  0.00     0.198 HD
HETATM   42  N8  UNL     1     -23.958   1.516  63.534  1.00  0.00    -0.381 N 
ATOM     43  H82 UNL     1     -23.804   2.292  62.890  1.00  0.00     0.157 HD
ATOM     44  H81 UNL     1     -24.950   1.517  63.772  1.00  0.00     0.157 HD
ENDBRANCH   6  35
TORSDOF 7
ENDMDL
MODEL 5
REMARK VINA RESULT: -7.005407976      2.003      4.358
REMARK  7 active torsions:
REMARK  status: ('A' for Active; 'I' for Inactive)
REMARK    1  A    between atoms: C2_3  and  N2_4 
REMARK    2  A    between atoms: C7_10  and  C8_11 
REMARK    3  A    between atoms: C8_11  and  C9_13 
REMARK    4  A    between atoms: N5_18  and  C10_19 
REMARK    5  A    between atoms: C12_29  and  N9_30 
REMARK    6  A    between atoms: N9_30  and  C13_32 
REMARK    7  A    between atoms: C13_32  and  C14_33 
ROOT
HETATM    1  C9  UNL     1     -19.637   4.940  61.006  1.00  0.00     0.146 A 
HETATM    2  N3  UNL     1     -20.587   4.768  60.048  1.00  0.00    -0.279 N 
ATOM      3  H3  UNL     1     -21.402   4.160  60.132  1.00  0.00     0.189 HD
HETATM    4  N4  UNL     1     -20.298   5.497  59.007  1.00  0.00    -0.232 N 
ATOM      5  H4  UNL     1     -20.860   5.538  58.157  1.00  0.00     0.209 HD
HETATM    6  N5  UNL     1     -19.152   6.193  59.205  1.00  0.00    -0.202 N 
HETATM    7  C12 UNL     1     -18.744   5.850  60.439  1.00  0.00     0.159 A 
ENDROOT
BRANCH   1   8
HETATM    8  C8  UNL     1     -19.601   4.310  62.313  1.00  0.00     0.223 C 
HETATM    9  O2  UNL     1     -18.764   3.445  62.685  1.00  0.00    -0.285 OA
BRANCH   8  10
HETATM   10  C7  UNL     1     -20.639   4.718  63.285  1.00  0.00     0.131 A 
HETATM   11  C2  UNL     1     -21.670   3.853  63.664  1.00  0.00     0.153 A 
HETATM   12  N1  UNL     1     -22.586   4.254  64.548  1.00  0.00    -0.287 N 
HETATM   13  C1  UNL     1     -23.652   3.389  64.966  1.00  0.00     0.163 C 
HETATM   14  C20 UNL     1     -22.536   5.501  65.094  1.00  0.00     0.330 A 
HETATM   15  N10 UNL     1     -21.562   6.350  64.751  1.00  0.00    -0.274 N 
HETATM   16  O6  UNL     1     -23.424   5.829  65.921  1.00  0.00    -0.246 OA
HETATM   17  C19 UNL     1     -20.615   5.962  63.849  1.00  0.00     0.267 A 
ATOM     18  H10 UNL     1     -21.526   7.283  65.161  1.00  0.00     0.173 HD
HETATM   19  O5  UNL     1     -19.746   6.793  63.578  1.00  0.00    -0.267 OA
BRANCH  11  20
HETATM   20  N2  UNL     1     -21.696   2.551  63.094  1.00  0.00    -0.241 N 
HETATM   21  C3  UNL     1     -21.440   1.365  63.886  1.00  0.00     0.158 C 
HETATM   22  C4  UNL     1     -21.385   0.133  63.027  1.00  0.00     0.024 C 
HETATM   23  C5  UNL     1     -20.874   0.349  61.642  1.00  0.00     0.030 C 
HETATM   24  C6  UNL     1     -21.097   1.694  61.054  1.00  0.00     0.201 C 
HETATM   25  O1  UNL     1     -21.988   2.444  61.785  1.00  0.00    -0.276 OA
ENDBRANCH  11  20
ENDBRANCH   8  10
ENDBRANCH   1   8
BRANCH   7  26
HETATM   26  N9  UNL     1     -17.569   6.310  61.064  1.00  0.00    -0.372 N 
ATOM     27  H9  UNL     1     -17.704   7.020  61.784  1.00  0.00     0.161 HD
BRANCH  26  28
HETATM   28  C13 UNL     1     -16.219   5.921  60.832  1.00  0.00     0.128 C 
BRANCH  28  29
HETATM   29  C14 UNL     1     -15.332   7.081  60.375  1.00  0.00     0.027 C 
HETATM   30  C15 UNL     1     -14.700   6.751  59.047  1.00  0.00     0.010 C 
HETATM   31  C16 UNL     1     -14.086   7.936  58.401  1.00  0.00     0.027 C 
HETATM   32  C17 UNL     1     -14.612   9.269  58.794  1.00  0.00     0.167 C 
HETATM   33  O4  UNL     1     -15.178   9.367  60.035  1.00  0.00    -0.391 OA
HETATM   34  C18 UNL     1     -16.119   8.353  60.229  1.00  0.00     0.173 C 
ENDBRANCH  28  29
ENDBRANCH  26  28
ENDBRANCH   7  26
BRANCH   6  35
HETATM   35  C10 UNL     1     -18.590   7.067  58.229  1.00  0.00     0.198 A 
HETATM   36  N6  UNL     1     -17.605   6.842  57.356  1.00  0.00    -0.220 N 
HETATM   37  O3  UNL     1     -17.371   7.920  56.648  1.00  0.00    -0.153 OA
ATOM     38  H6  UNL     1     -17.106   5.958  57.256  1.00  0.00     0.198 HD
HETATM   39  N7  UNL     1     -18.186   8.872  57.032  1.00  0.00    -0.222 N 
HETATM   40  C11 UNL     1     -18.972   8.371  58.030  1.00  0.00     0.169 A 
ATOM     41  H7  UNL     1     -18.226   9.818  56.654  1.00  0.00     0.198 HD
HETATM   42  N8  UNL     1     -19.877   9.065  58.614  1.00  0.00    -0.381 N 
ATOM     43  H82 UNL     1     -20.464   8.691  59.360  1.00  0.00     0.157 HD
ATOM     44  H81 UNL     1     -20.161  10.033  58.467  1.00  0.00     0.157 HD
ENDBRANCH   6  35
TORSDOF 7
ENDMDL
