MODEL 1
REMARK VINA RESULT: -6.558648366      0.000      0.000
REMARK  10 active torsions:
REMARK  status: ('A' for Active; 'I' for Inactive)
REMARK    1  A    between atoms: C2_2  and  C3_3 
REMARK    2  A    between atoms: C3_3  and  C4_4 
REMARK    3  A    between atoms: C4_4  and  C5_5 
REMARK    4  A    between atoms: C5_5  and  N1_6 
REMARK    5  A    between atoms: N1_6  and  C6_9 
REMARK    6  A    between atoms: C6_9  and  C7_10 
REMARK    7  A    between atoms: C7_10  and  N2_11 
REMARK    8  A    between atoms: N2_11  and  C8_14 
REMARK    9  A    between atoms: C8_14  and  C11_17 
REMARK   10  A    between atoms: C11_17  and  C12_18 
ROOT
HETATM    1  N2  UNL     1     -12.750  -3.363  32.706  1.00  0.00    -0.065 N 
ATOM      2  H21 UNL     1     -11.956  -2.727  32.776  1.00  0.00     0.278 HD
ATOM      3  H22 UNL     1     -12.601  -3.713  31.759  1.00  0.00     0.278 HD
ENDROOT
BRANCH   1   4
HETATM    4  C7  UNL     1     -13.991  -2.641  32.793  1.00  0.00     0.260 C 
BRANCH   4   5
HETATM    5  C6  UNL     1     -13.707  -1.158  32.811  1.00  0.00     0.259 C 
BRANCH   5   6
HETATM    6  N1  UNL     1     -14.578  -0.392  33.645  1.00  0.00    -0.074 N 
ATOM      7  H12 UNL     1     -15.540  -0.453  33.313  1.00  0.00     0.277 HD
ATOM      8  H11 UNL     1     -14.416   0.606  33.513  1.00  0.00     0.277 HD
BRANCH   6   9
HETATM    9  C5  UNL     1     -14.498  -0.741  35.045  1.00  0.00     0.232 C 
BRANCH   9  10
HETATM   10  C4  UNL     1     -15.633  -0.202  35.849  1.00  0.00     0.031 C 
BRANCH  10  11
HETATM   11  C3  UNL     1     -16.184  -1.237  36.761  1.00  0.00     0.028 C 
BRANCH  11  12
HETATM   12  C2  UNL     1     -15.222  -2.349  36.906  1.00  0.00    -0.037 C 
HETATM   13  C1  UNL     1     -15.252  -3.094  37.994  1.00  0.00     0.007 C 
ENDBRANCH  11  12
ENDBRANCH  10  11
ENDBRANCH   9  10
ENDBRANCH   6   9
ENDBRANCH   5   6
ENDBRANCH   4   5
ENDBRANCH   1   4
BRANCH   1  14
HETATM   14  C8  UNL     1     -12.639  -4.432  33.672  1.00  0.00     0.122 C 
HETATM   15  C9  UNL     1     -12.707  -3.956  35.100  1.00  0.00     0.046 C 
HETATM   16  C10 UNL     1     -13.752  -5.443  33.480  1.00  0.00     0.046 C 
BRANCH  14  17
HETATM   17  C11 UNL     1     -11.263  -5.028  33.494  1.00  0.00     0.078 C 
BRANCH  17  18
HETATM   18  C12 UNL     1     -11.214  -6.225  32.659  1.00  0.00    -0.032 A 
HETATM   19  C13 UNL     1     -11.284  -7.521  33.113  1.00  0.00     0.033 A 
HETATM   20  C14 UNL     1     -11.203  -8.333  32.004  1.00  0.00     0.142 A 
HETATM   21  O1  UNL     1     -11.090  -7.584  30.942  1.00  0.00    -0.334 OA
HETATM   22  C15 UNL     1     -11.094  -6.328  31.284  1.00  0.00     0.148 A 
ENDBRANCH  17  18
ENDBRANCH  14  17
ENDBRANCH   1  14
TORSDOF 10
ENDMDL
MODEL 2
REMARK VINA RESULT: -6.521915760      2.597      6.208
REMARK  10 active torsions:
REMARK  status: ('A' for Active; 'I' for Inactive)
REMARK    1  A    between atoms: C2_2  and  C3_3 
REMARK    2  A    between atoms: C3_3  and  C4_4 
REMARK    3  A    between atoms: C4_4  and  C5_5 
REMARK    4  A    between atoms: C5_5  and  N1_6 
REMARK    5  A    between atoms: N1_6  and  C6_9 
REMARK    6  A    between atoms: C6_9  and  C7_10 
REMARK    7  A    between atoms: C7_10  and  N2_11 
REMARK    8  A    between atoms: N2_11  and  C8_14 
REMARK    9  A    between atoms: C8_14  and  C11_17 
REMARK   10  A    between atoms: C11_17  and  C12_18 
ROOT
HETATM    1  N2  UNL     1     -12.949  -1.165  32.682  1.00  0.00    -0.065 N 
ATOM      2  H21 UNL     1     -12.548  -0.230  32.755  1.00  0.00     0.278 HD
ATOM      3  H22 UNL     1     -12.219  -1.699  33.152  1.00  0.00     0.278 HD
ENDROOT
BRANCH   1   4
HETATM    4  C7  UNL     1     -13.067  -1.564  31.305  1.00  0.00     0.260 C 
BRANCH   4   5
HETATM    5  C6  UNL     1     -11.887  -2.430  30.933  1.00  0.00     0.259 C 
BRANCH   5   6
HETATM    6  N1  UNL     1     -11.696  -3.572  31.769  1.00  0.00    -0.074 N 
ATOM      7  H12 UNL     1     -12.522  -4.169  31.758  1.00  0.00     0.277 HD
ATOM      8  H11 UNL     1     -11.693  -3.302  32.752  1.00  0.00     0.277 HD
BRANCH   6   9
HETATM    9  C5  UNL     1     -10.512  -4.337  31.447  1.00  0.00     0.232 C 
BRANCH   9  10
HETATM   10  C4  UNL     1     -10.491  -5.682  32.090  1.00  0.00     0.031 C 
BRANCH  10  11
HETATM   11  C3  UNL     1     -11.617  -5.837  33.047  1.00  0.00     0.028 C 
BRANCH  11  12
HETATM   12  C2  UNL     1     -12.292  -7.134  32.829  1.00  0.00    -0.037 C 
HETATM   13  C1  UNL     1     -11.572  -8.238  32.779  1.00  0.00     0.007 C 
ENDBRANCH  11  12
ENDBRANCH  10  11
ENDBRANCH   9  10
ENDBRANCH   6   9
ENDBRANCH   5   6
ENDBRANCH   4   5
ENDBRANCH   1   4
BRANCH   1  14
HETATM   14  C8  UNL     1     -14.194  -1.247  33.411  1.00  0.00     0.122 C 
HETATM   15  C9  UNL     1     -15.230  -0.259  32.939  1.00  0.00     0.046 C 
HETATM   16  C10 UNL     1     -14.799  -2.630  33.281  1.00  0.00     0.046 C 
BRANCH  14  17
HETATM   17  C11 UNL     1     -13.879  -0.872  34.840  1.00  0.00     0.078 C 
BRANCH  17  18
HETATM   18  C12 UNL     1     -14.437  -1.769  35.849  1.00  0.00    -0.032 A 
HETATM   19  C13 UNL     1     -13.779  -2.827  36.430  1.00  0.00     0.033 A 
HETATM   20  C14 UNL     1     -14.661  -3.400  37.318  1.00  0.00     0.142 A 
HETATM   21  O1  UNL     1     -15.784  -2.738  37.282  1.00  0.00    -0.334 OA
HETATM   22  C15 UNL     1     -15.694  -1.762  36.425  1.00  0.00     0.148 A 
ENDBRANCH  17  18
ENDBRANCH  14  17
ENDBRANCH   1  14
TORSDOF 10
ENDMDL
MODEL 3
REMARK VINA RESULT: -6.396763506      1.640      2.539
REMARK  10 active torsions:
REMARK  status: ('A' for Active; 'I' for Inactive)
REMARK    1  A    between atoms: C2_2  and  C3_3 
REMARK    2  A    between atoms: C3_3  and  C4_4 
REMARK    3  A    between atoms: C4_4  and  C5_5 
REMARK    4  A    between atoms: C5_5  and  N1_6 
REMARK    5  A    between atoms: N1_6  and  C6_9 
REMARK    6  A    between atoms: C6_9  and  C7_10 
REMARK    7  A    between atoms: C7_10  and  N2_11 
REMARK    8  A    between atoms: N2_11  and  C8_14 
REMARK    9  A    between atoms: C8_14  and  C11_17 
REMARK   10  A    between atoms: C11_17  and  C12_18 
ROOT
HETATM    1  N2  UNL     1     -12.694  -5.775  32.656  1.00  0.00    -0.065 N 
ATOM      2  H21 UNL     1     -13.104  -5.376  31.811  1.00  0.00     0.278 HD
ATOM      3  H22 UNL     1     -13.254  -6.624  32.730  1.00  0.00     0.278 HD
ENDROOT
BRANCH   1   4
HETATM    4  C7  UNL     1     -12.917  -4.916  33.787  1.00  0.00     0.260 C 
BRANCH   4   5
HETATM    5  C6  UNL     1     -13.852  -3.798  33.389  1.00  0.00     0.259 C 
BRANCH   5   6
HETATM    6  N1  UNL     1     -13.336  -2.483  33.598  1.00  0.00    -0.074 N 
ATOM      7  H12 UNL     1     -12.851  -2.150  32.766  1.00  0.00     0.277 HD
ATOM      8  H11 UNL     1     -12.556  -2.502  34.254  1.00  0.00     0.277 HD
BRANCH   6   9
HETATM    9  C5  UNL     1     -14.335  -1.527  34.022  1.00  0.00     0.232 C 
BRANCH   9  10
HETATM   10  C4  UNL     1     -14.214  -1.152  35.460  1.00  0.00     0.031 C 
BRANCH  10  11
HETATM   11  C3  UNL     1     -15.209  -1.881  36.290  1.00  0.00     0.028 C 
BRANCH  11  12
HETATM   12  C2  UNL     1     -14.526  -2.874  37.145  1.00  0.00    -0.037 C 
HETATM   13  C1  UNL     1     -15.160  -3.375  38.187  1.00  0.00     0.007 C 
ENDBRANCH  11  12
ENDBRANCH  10  11
ENDBRANCH   9  10
ENDBRANCH   6   9
ENDBRANCH   5   6
ENDBRANCH   4   5
ENDBRANCH   1   4
BRANCH   1  14
HETATM   14  C8  UNL     1     -11.301  -6.097  32.447  1.00  0.00     0.122 C 
HETATM   15  C9  UNL     1     -10.488  -4.934  31.936  1.00  0.00     0.046 C 
HETATM   16  C10 UNL     1     -10.660  -6.562  33.739  1.00  0.00     0.046 C 
BRANCH  14  17
HETATM   17  C11 UNL     1     -11.262  -7.144  31.359  1.00  0.00     0.078 C 
BRANCH  17  18
HETATM   18  C12 UNL     1     -12.279  -8.186  31.471  1.00  0.00    -0.032 A 
HETATM   19  C13 UNL     1     -12.260  -9.230  32.366  1.00  0.00     0.033 A 
HETATM   20  C14 UNL     1     -13.398  -9.970  32.133  1.00  0.00     0.142 A 
HETATM   21  O1  UNL     1     -14.068  -9.416  31.162  1.00  0.00    -0.334 OA
HETATM   22  C15 UNL     1     -13.441  -8.355  30.740  1.00  0.00     0.148 A 
ENDBRANCH  17  18
ENDBRANCH  14  17
ENDBRANCH   1  14
TORSDOF 10
ENDMDL
MODEL 4
REMARK VINA RESULT: -6.365928317      2.925      7.466
REMARK  10 active torsions:
REMARK  status: ('A' for Active; 'I' for Inactive)
REMARK    1  A    between atoms: C2_2  and  C3_3 
REMARK    2  A    between atoms: C3_3  and  C4_4 
REMARK    3  A    between atoms: C4_4  and  C5_5 
REMARK    4  A    between atoms: C5_5  and  N1_6 
REMARK    5  A    between atoms: N1_6  and  C6_9 
REMARK    6  A    between atoms: C6_9  and  C7_10 
REMARK    7  A    between atoms: C7_10  and  N2_11 
REMARK    8  A    between atoms: N2_11  and  C8_14 
REMARK    9  A    between atoms: C8_14  and  C11_17 
REMARK   10  A    between atoms: C11_17  and  C12_18 
ROOT
HETATM    1  N2  UNL     1     -12.034  -3.729  32.918  1.00  0.00    -0.065 N 
ATOM      2  H21 UNL     1     -12.176  -3.359  31.979  1.00  0.00     0.278 HD
ATOM      3  H22 UNL     1     -11.495  -2.963  33.321  1.00  0.00     0.278 HD
ENDROOT
BRANCH   1   4
HETATM    4  C7  UNL     1     -11.252  -4.936  32.878  1.00  0.00     0.260 C 
BRANCH   4   5
HETATM    5  C6  UNL     1     -10.458  -4.975  31.594  1.00  0.00     0.259 C 
BRANCH   5   6
HETATM    6  N1  UNL     1     -10.850  -6.000  30.679  1.00  0.00    -0.074 N 
ATOM      7  H12 UNL     1     -10.123  -6.156  29.981  1.00  0.00     0.277 HD
ATOM      8  H11 UNL     1     -11.602  -5.673  30.073  1.00  0.00     0.277 HD
BRANCH   6   9
HETATM    9  C5  UNL     1     -11.216  -7.243  31.320  1.00  0.00     0.232 C 
BRANCH   9  10
HETATM   10  C4  UNL     1     -11.608  -8.308  30.352  1.00  0.00     0.031 C 
BRANCH  10  11
HETATM   11  C3  UNL     1     -11.173  -7.966  28.973  1.00  0.00     0.028 C 
BRANCH  11  12
HETATM   12  C2  UNL     1     -11.536  -9.055  28.042  1.00  0.00    -0.037 C 
HETATM   13  C1  UNL     1     -11.131  -8.997  26.789  1.00  0.00     0.007 C 
ENDBRANCH  11  12
ENDBRANCH  10  11
ENDBRANCH   9  10
ENDBRANCH   6   9
ENDBRANCH   5   6
ENDBRANCH   4   5
ENDBRANCH   1   4
BRANCH   1  14
HETATM   14  C8  UNL     1     -13.295  -3.886  33.605  1.00  0.00     0.122 C 
HETATM   15  C9  UNL     1     -13.876  -5.271  33.480  1.00  0.00     0.046 C 
HETATM   16  C10 UNL     1     -13.139  -3.594  35.084  1.00  0.00     0.046 C 
BRANCH  14  17
HETATM   17  C11 UNL     1     -14.273  -2.959  32.921  1.00  0.00     0.078 C 
BRANCH  17  18
HETATM   18  C12 UNL     1     -13.722  -1.665  32.528  1.00  0.00    -0.032 A 
HETATM   19  C13 UNL     1     -13.100  -1.390  31.333  1.00  0.00     0.033 A 
HETATM   20  C14 UNL     1     -12.737  -0.063  31.373  1.00  0.00     0.142 A 
HETATM   21  O1  UNL     1     -13.111   0.441  32.517  1.00  0.00    -0.334 OA
HETATM   22  C15 UNL     1     -13.700  -0.474  33.231  1.00  0.00     0.148 A 
ENDBRANCH  17  18
ENDBRANCH  14  17
ENDBRANCH   1  14
TORSDOF 10
ENDMDL
MODEL 5
REMARK VINA RESULT: -6.359516432      2.024      3.377
REMARK  10 active torsions:
REMARK  status: ('A' for Active; 'I' for Inactive)
REMARK    1  A    between atoms: C2_2  and  C3_3 
REMARK    2  A    between atoms: C3_3  and  C4_4 
REMARK    3  A    between atoms: C4_4  and  C5_5 
REMARK    4  A    between atoms: C5_5  and  N1_6 
REMARK    5  A    between atoms: N1_6  and  C6_9 
REMARK    6  A    between atoms: C6_9  and  C7_10 
REMARK    7  A    between atoms: C7_10  and  N2_11 
REMARK    8  A    between atoms: N2_11  and  C8_14 
REMARK    9  A    between atoms: C8_14  and  C11_17 
REMARK   10  A    between atoms: C11_17  and  C12_18 
ROOT
HETATM    1  N2  UNL     1     -11.349  -5.851  31.533  1.00  0.00    -0.065 N 
ATOM      2  H21 UNL     1     -10.926  -6.584  30.963  1.00  0.00     0.278 HD
ATOM      3  H22 UNL     1     -12.179  -5.660  30.973  1.00  0.00     0.278 HD
ENDROOT
BRANCH   1   4
HETATM    4  C7  UNL     1     -10.496  -4.695  31.593  1.00  0.00     0.260 C 
BRANCH   4   5
HETATM    5  C6  UNL     1     -11.183  -3.531  30.920  1.00  0.00     0.259 C 
BRANCH   5   6
HETATM    6  N1  UNL     1     -12.197  -2.900  31.703  1.00  0.00    -0.074 N 
ATOM      7  H12 UNL     1     -11.874  -2.752  32.659  1.00  0.00     0.277 HD
ATOM      8  H11 UNL     1     -12.967  -3.544  31.881  1.00  0.00     0.277 HD
BRANCH   6   9
HETATM    9  C5  UNL     1     -12.686  -1.664  31.135  1.00  0.00     0.232 C 
BRANCH   9  10
HETATM   10  C4  UNL     1     -13.428  -0.821  32.116  1.00  0.00     0.031 C 
BRANCH  10  11
HETATM   11  C3  UNL     1     -14.200  -1.660  33.069  1.00  0.00     0.028 C 
BRANCH  11  12
HETATM   12  C2  UNL     1     -13.966  -1.200  34.454  1.00  0.00    -0.037 C 
HETATM   13  C1  UNL     1     -14.894  -0.489  35.065  1.00  0.00     0.007 C 
ENDBRANCH  11  12
ENDBRANCH  10  11
ENDBRANCH   9  10
ENDBRANCH   6   9
ENDBRANCH   5   6
ENDBRANCH   4   5
ENDBRANCH   1   4
BRANCH   1  14
HETATM   14  C8  UNL     1     -11.715  -6.362  32.835  1.00  0.00     0.122 C 
HETATM   15  C9  UNL     1     -10.877  -5.800  33.955  1.00  0.00     0.046 C 
HETATM   16  C10 UNL     1     -13.162  -6.039  33.148  1.00  0.00     0.046 C 
BRANCH  14  17
HETATM   17  C11 UNL     1     -11.434  -7.846  32.807  1.00  0.00     0.078 C 
BRANCH  17  18
HETATM   18  C12 UNL     1     -11.908  -8.539  31.612  1.00  0.00    -0.032 A 
HETATM   19  C13 UNL     1     -11.128  -8.916  30.543  1.00  0.00     0.033 A 
HETATM   20  C14 UNL     1     -11.966  -9.536  29.643  1.00  0.00     0.142 A 
HETATM   21  O1  UNL     1     -13.176  -9.538  30.128  1.00  0.00    -0.334 OA
HETATM   22  C15 UNL     1     -13.187  -8.959  31.294  1.00  0.00     0.148 A 
ENDBRANCH  17  18
ENDBRANCH  14  17
ENDBRANCH   1  14
TORSDOF 10
ENDMDL
