MODEL 1
REMARK VINA RESULT: -7.194954999      0.000      0.000
REMARK  11 active torsions:
REMARK  status: ('A' for Active; 'I' for Inactive)
REMARK    1  A    between atoms: C2_2  and  C3_3 
REMARK    2  A    between atoms: C3_3  and  C4_4 
REMARK    3  A    between atoms: C4_4  and  O1_5 
REMARK    4  A    between atoms: O1_5  and  C5_6 
REMARK    5  A    between atoms: C5_6  and  C6_7 
REMARK    6  A    between atoms: C6_7  and  C7_8 
REMARK    7  A    between atoms: C7_8  and  O2_9 
REMARK    8  A    between atoms: C7_8  and  C8_11 
REMARK    9  A    between atoms: C8_11  and  C9_12 
REMARK   10  A    between atoms: C9_12  and  O3_13 
REMARK   11  A    between atoms: C9_12  and  C10_15 
ROOT
HETATM    1  C7  UNL     1     -11.913  -4.881  33.163  1.00  0.00     0.123 C 
ENDROOT
BRANCH   1   2
HETATM    2  C6  UNL     1     -11.809  -6.405  33.186  1.00  0.00     0.058 C 
BRANCH   2   3
HETATM    3  C5  UNL     1     -11.081  -6.925  31.971  1.00  0.00     0.170 C 
BRANCH   3   4
HETATM    4  O1  UNL     1     -11.110  -8.297  31.897  1.00  0.00    -0.391 OA
BRANCH   4   5
HETATM    5  C4  UNL     1     -11.036  -8.816  30.612  1.00  0.00     0.171 C 
BRANCH   5   6
HETATM    6  C3  UNL     1     -11.542  -7.769  29.631  1.00  0.00     0.052 C 
BRANCH   6   7
HETATM    7  C2  UNL     1     -10.896  -7.989  28.329  1.00  0.00    -0.035 C 
HETATM    8  C1  UNL     1     -11.314  -8.960  27.534  1.00  0.00     0.007 C 
ENDBRANCH   6   7
ENDBRANCH   5   6
ENDBRANCH   4   5
ENDBRANCH   3   4
ENDBRANCH   2   3
ENDBRANCH   1   2
BRANCH   1   9
HETATM    9  O2  UNL     1     -10.723  -4.331  33.542  1.00  0.00    -0.395 OA
ATOM     10  H2  UNL     1     -10.086  -4.430  32.844  1.00  0.00     0.210 HD
ENDBRANCH   1   9
BRANCH   1  11
HETATM   11  C8  UNL     1     -13.139  -4.397  33.896  1.00  0.00     0.068 C 
BRANCH  11  12
HETATM   12  C9  UNL     1     -12.861  -3.562  35.098  1.00  0.00     0.153 C 
BRANCH  12  13
HETATM   13  O3  UNL     1     -12.159  -4.285  36.079  1.00  0.00    -0.391 OA
ATOM     14  H3  UNL     1     -12.342  -5.216  36.022  1.00  0.00     0.210 HD
ENDBRANCH  12  13
BRANCH  12  15
HETATM   15  C10 UNL     1     -13.942  -2.792  35.664  1.00  0.00    -0.030 A 
HETATM   16  C11 UNL     1     -14.495  -3.255  36.870  1.00  0.00     0.010 A 
HETATM   17  C12 UNL     1     -15.510  -2.589  37.512  1.00  0.00     0.001 A 
HETATM   18  C13 UNL     1     -16.003  -1.430  36.958  1.00  0.00     0.000 A 
HETATM   19  C14 UNL     1     -15.503  -0.923  35.775  1.00  0.00     0.001 A 
HETATM   20  C15 UNL     1     -14.477  -1.633  35.166  1.00  0.00     0.010 A 
ENDBRANCH  12  15
ENDBRANCH  11  12
ENDBRANCH   1  11
TORSDOF 11
ENDMDL
MODEL 2
REMARK VINA RESULT: -7.122711399      0.515      1.226
REMARK  11 active torsions:
REMARK  status: ('A' for Active; 'I' for Inactive)
REMARK    1  A    between atoms: C2_2  and  C3_3 
REMARK    2  A    between atoms: C3_3  and  C4_4 
REMARK    3  A    between atoms: C4_4  and  O1_5 
REMARK    4  A    between atoms: O1_5  and  C5_6 
REMARK    5  A    between atoms: C5_6  and  C6_7 
REMARK    6  A    between atoms: C6_7  and  C7_8 
REMARK    7  A    between atoms: C7_8  and  O2_9 
REMARK    8  A    between atoms: C7_8  and  C8_11 
REMARK    9  A    between atoms: C8_11  and  C9_12 
REMARK   10  A    between atoms: C9_12  and  O3_13 
REMARK   11  A    between atoms: C9_12  and  C10_15 
ROOT
HETATM    1  C7  UNL     1     -12.012  -4.865  33.187  1.00  0.00     0.123 C 
ENDROOT
BRANCH   1   2
HETATM    2  C6  UNL     1     -12.146  -6.386  33.144  1.00  0.00     0.058 C 
BRANCH   2   3
HETATM    3  C5  UNL     1     -10.943  -7.027  32.498  1.00  0.00     0.170 C 
BRANCH   3   4
HETATM    4  O1  UNL     1     -11.174  -7.355  31.183  1.00  0.00    -0.391 OA
BRANCH   4   5
HETATM    5  C4  UNL     1     -11.092  -8.710  30.895  1.00  0.00     0.171 C 
BRANCH   5   6
HETATM    6  C3  UNL     1     -11.751  -8.966  29.548  1.00  0.00     0.052 C 
BRANCH   6   7
HETATM    7  C2  UNL     1     -11.053  -8.178  28.522  1.00  0.00    -0.035 C 
HETATM    8  C1  UNL     1     -11.025  -8.595  27.268  1.00  0.00     0.007 C 
ENDBRANCH   6   7
ENDBRANCH   5   6
ENDBRANCH   4   5
ENDBRANCH   3   4
ENDBRANCH   2   3
ENDBRANCH   1   2
BRANCH   1   9
HETATM    9  O2  UNL     1     -10.788  -4.523  33.685  1.00  0.00    -0.395 OA
ATOM     10  H2  UNL     1     -10.870  -3.760  34.245  1.00  0.00     0.210 HD
ENDBRANCH   1   9
BRANCH   1  11
HETATM   11  C8  UNL     1     -13.206  -4.221  33.844  1.00  0.00     0.068 C 
BRANCH  11  12
HETATM   12  C9  UNL     1     -12.907  -3.482  35.102  1.00  0.00     0.153 C 
BRANCH  12  13
HETATM   13  O3  UNL     1     -12.269  -4.307  36.045  1.00  0.00    -0.391 OA
ATOM     14  H3  UNL     1     -12.611  -4.165  36.920  1.00  0.00     0.210 HD
ENDBRANCH  12  13
BRANCH  12  15
HETATM   15  C10 UNL     1     -13.954  -2.689  35.698  1.00  0.00    -0.030 A 
HETATM   16  C11 UNL     1     -14.283  -1.480  35.063  1.00  0.00     0.010 A 
HETATM   17  C12 UNL     1     -15.280  -0.657  35.528  1.00  0.00     0.001 A 
HETATM   18  C13 UNL     1     -15.981  -1.027  36.653  1.00  0.00     0.000 A 
HETATM   19  C14 UNL     1     -15.706  -2.204  37.323  1.00  0.00     0.001 A 
HETATM   20  C15 UNL     1     -14.689  -2.999  36.813  1.00  0.00     0.010 A 
ENDBRANCH  12  15
ENDBRANCH  11  12
ENDBRANCH   1  11
TORSDOF 11
ENDMDL
MODEL 3
REMARK VINA RESULT: -7.111021625      2.240      7.481
REMARK  11 active torsions:
REMARK  status: ('A' for Active; 'I' for Inactive)
REMARK    1  A    between atoms: C2_2  and  C3_3 
REMARK    2  A    between atoms: C3_3  and  C4_4 
REMARK    3  A    between atoms: C4_4  and  O1_5 
REMARK    4  A    between atoms: O1_5  and  C5_6 
REMARK    5  A    between atoms: C5_6  and  C6_7 
REMARK    6  A    between atoms: C6_7  and  C7_8 
REMARK    7  A    between atoms: C7_8  and  O2_9 
REMARK    8  A    between atoms: C7_8  and  C8_11 
REMARK    9  A    between atoms: C8_11  and  C9_12 
REMARK   10  A    between atoms: C9_12  and  O3_13 
REMARK   11  A    between atoms: C9_12  and  C10_15 
ROOT
HETATM    1  C7  UNL     1     -13.124  -2.878  33.284  1.00  0.00     0.123 C 
ENDROOT
BRANCH   1   2
HETATM    2  C6  UNL     1     -14.502  -2.220  33.235  1.00  0.00     0.058 C 
BRANCH   2   3
HETATM    3  C5  UNL     1     -14.479  -0.848  33.864  1.00  0.00     0.170 C 
BRANCH   3   4
HETATM    4  O1  UNL     1     -14.378  -0.908  35.234  1.00  0.00    -0.391 OA
BRANCH   4   5
HETATM    5  C4  UNL     1     -15.482  -0.426  35.923  1.00  0.00     0.171 C 
BRANCH   5   6
HETATM    6  C3  UNL     1     -16.096  -1.566  36.722  1.00  0.00     0.052 C 
BRANCH   6   7
HETATM    7  C2  UNL     1     -15.037  -2.522  37.075  1.00  0.00    -0.035 C 
HETATM    8  C1  UNL     1     -15.175  -3.308  38.129  1.00  0.00     0.007 C 
ENDBRANCH   6   7
ENDBRANCH   5   6
ENDBRANCH   4   5
ENDBRANCH   3   4
ENDBRANCH   2   3
ENDBRANCH   1   2
BRANCH   1   9
HETATM    9  O2  UNL     1     -12.674  -3.101  32.015  1.00  0.00    -0.395 OA
ATOM     10  H2  UNL     1     -12.000  -3.771  32.027  1.00  0.00     0.210 HD
ENDBRANCH   1   9
BRANCH   1  11
HETATM   11  C8  UNL     1     -13.107  -4.060  34.220  1.00  0.00     0.068 C 
BRANCH  11  12
HETATM   12  C9  UNL     1     -11.923  -4.953  34.080  1.00  0.00     0.153 C 
BRANCH  12  13
HETATM   13  O3  UNL     1     -10.808  -4.256  33.581  1.00  0.00    -0.391 OA
ATOM     14  H3  UNL     1     -11.009  -3.817  32.764  1.00  0.00     0.210 HD
ENDBRANCH  12  13
BRANCH  12  15
HETATM   15  C10 UNL     1     -12.097  -6.229  33.432  1.00  0.00    -0.030 A 
HETATM   16  C11 UNL     1     -13.405  -6.591  33.069  1.00  0.00     0.010 A 
HETATM   17  C12 UNL     1     -13.686  -7.771  32.425  1.00  0.00     0.001 A 
HETATM   18  C13 UNL     1     -12.654  -8.628  32.122  1.00  0.00     0.000 A 
HETATM   19  C14 UNL     1     -11.345  -8.331  32.452  1.00  0.00     0.001 A 
HETATM   20  C15 UNL     1     -11.115  -7.127  33.102  1.00  0.00     0.010 A 
ENDBRANCH  12  15
ENDBRANCH  11  12
ENDBRANCH   1  11
TORSDOF 11
ENDMDL
MODEL 4
REMARK VINA RESULT: -7.070340196      1.537      7.883
REMARK  11 active torsions:
REMARK  status: ('A' for Active; 'I' for Inactive)
REMARK    1  A    between atoms: C2_2  and  C3_3 
REMARK    2  A    between atoms: C3_3  and  C4_4 
REMARK    3  A    between atoms: C4_4  and  O1_5 
REMARK    4  A    between atoms: O1_5  and  C5_6 
REMARK    5  A    between atoms: C5_6  and  C6_7 
REMARK    6  A    between atoms: C6_7  and  C7_8 
REMARK    7  A    between atoms: C7_8  and  O2_9 
REMARK    8  A    between atoms: C7_8  and  C8_11 
REMARK    9  A    between atoms: C8_11  and  C9_12 
REMARK   10  A    between atoms: C9_12  and  O3_13 
REMARK   11  A    between atoms: C9_12  and  C10_15 
ROOT
HETATM    1  C7  UNL     1     -11.471  -5.068  33.941  1.00  0.00     0.123 C 
ENDROOT
BRANCH   1   2
HETATM    2  C6  UNL     1     -12.565  -4.213  34.579  1.00  0.00     0.058 C 
BRANCH   2   3
HETATM    3  C5  UNL     1     -13.633  -3.850  33.577  1.00  0.00     0.170 C 
BRANCH   3   4
HETATM    4  O1  UNL     1     -14.647  -3.115  34.143  1.00  0.00    -0.391 OA
BRANCH   4   5
HETATM    5  C4  UNL     1     -14.230  -2.051  34.930  1.00  0.00     0.171 C 
BRANCH   5   6
HETATM    6  C3  UNL     1     -15.116  -1.976  36.164  1.00  0.00     0.052 C 
BRANCH   6   7
HETATM    7  C2  UNL     1     -14.495  -2.760  37.241  1.00  0.00    -0.035 C 
HETATM    8  C1  UNL     1     -15.250  -3.424  38.100  1.00  0.00     0.007 C 
ENDBRANCH   6   7
ENDBRANCH   5   6
ENDBRANCH   4   5
ENDBRANCH   3   4
ENDBRANCH   2   3
ENDBRANCH   1   2
BRANCH   1   9
HETATM    9  O2  UNL     1     -10.509  -4.262  33.405  1.00  0.00    -0.395 OA
ATOM     10  H2  UNL     1     -10.916  -3.524  32.966  1.00  0.00     0.210 HD
ENDBRANCH   1   9
BRANCH   1  11
HETATM   11  C8  UNL     1     -12.050  -6.120  33.029  1.00  0.00     0.068 C 
BRANCH  11  12
HETATM   12  C9  UNL     1     -11.043  -6.951  32.312  1.00  0.00     0.153 C 
BRANCH  12  13
HETATM   13  O3  UNL     1     -10.207  -6.163  31.501  1.00  0.00    -0.391 OA
ATOM     14  H3  UNL     1     -10.115  -6.534  30.631  1.00  0.00     0.210 HD
ENDBRANCH  12  13
BRANCH  12  15
HETATM   15  C10 UNL     1     -11.494  -8.139  31.629  1.00  0.00    -0.030 A 
HETATM   16  C11 UNL     1     -12.140  -9.117  32.403  1.00  0.00     0.010 A 
HETATM   17  C12 UNL     1     -12.633 -10.276  31.856  1.00  0.00     0.001 A 
HETATM   18  C13 UNL     1     -12.490 -10.489  30.504  1.00  0.00     0.000 A 
HETATM   19  C14 UNL     1     -11.864  -9.567  29.688  1.00  0.00     0.001 A 
HETATM   20  C15 UNL     1     -11.384  -8.412  30.291  1.00  0.00     0.010 A 
ENDBRANCH  12  15
ENDBRANCH  11  12
ENDBRANCH   1  11
TORSDOF 11
ENDMDL
MODEL 5
REMARK VINA RESULT: -7.066456051      1.359      2.411
REMARK  11 active torsions:
REMARK  status: ('A' for Active; 'I' for Inactive)
REMARK    1  A    between atoms: C2_2  and  C3_3 
REMARK    2  A    between atoms: C3_3  and  C4_4 
REMARK    3  A    between atoms: C4_4  and  O1_5 
REMARK    4  A    between atoms: O1_5  and  C5_6 
REMARK    5  A    between atoms: C5_6  and  C6_7 
REMARK    6  A    between atoms: C6_7  and  C7_8 
REMARK    7  A    between atoms: C7_8  and  O2_9 
REMARK    8  A    between atoms: C7_8  and  C8_11 
REMARK    9  A    between atoms: C8_11  and  C9_12 
REMARK   10  A    between atoms: C9_12  and  O3_13 
REMARK   11  A    between atoms: C9_12  and  C10_15 
ROOT
HETATM    1  C7  UNL     1     -11.493  -6.886  32.005  1.00  0.00     0.123 C 
ENDROOT
BRANCH   1   2
HETATM    2  C6  UNL     1     -11.428  -8.385  32.294  1.00  0.00     0.058 C 
BRANCH   2   3
HETATM    3  C5  UNL     1     -11.089  -9.170  31.051  1.00  0.00     0.170 C 
BRANCH   3   4
HETATM    4  O1  UNL     1     -11.206  -8.411  29.910  1.00  0.00    -0.391 OA
BRANCH   4   5
HETATM    5  C4  UNL     1     -11.887  -9.022  28.868  1.00  0.00     0.171 C 
BRANCH   5   6
HETATM    6  C3  UNL     1     -11.145  -8.747  27.568  1.00  0.00     0.052 C 
BRANCH   6   7
HETATM    7  C2  UNL     1     -11.443  -9.826  26.616  1.00  0.00    -0.035 C 
HETATM    8  C1  UNL     1     -12.282  -9.617  25.615  1.00  0.00     0.007 C 
ENDBRANCH   6   7
ENDBRANCH   5   6
ENDBRANCH   4   5
ENDBRANCH   3   4
ENDBRANCH   2   3
ENDBRANCH   1   2
BRANCH   1   9
HETATM    9  O2  UNL     1     -10.245  -6.418  31.708  1.00  0.00    -0.395 OA
ATOM     10  H2  UNL     1     -10.199  -5.487  31.890  1.00  0.00     0.210 HD
ENDBRANCH   1   9
BRANCH   1  11
HETATM   11  C8  UNL     1     -12.248  -6.146  33.080  1.00  0.00     0.068 C 
BRANCH  11  12
HETATM   12  C9  UNL     1     -11.902  -4.703  33.209  1.00  0.00     0.153 C 
BRANCH  12  13
HETATM   13  O3  UNL     1     -10.660  -4.524  33.844  1.00  0.00    -0.391 OA
ATOM     14  H3  UNL     1     -10.766  -4.198  34.729  1.00  0.00     0.210 HD
ENDBRANCH  12  13
BRANCH  12  15
HETATM   15  C10 UNL     1     -12.904  -3.799  33.718  1.00  0.00    -0.030 A 
HETATM   16  C11 UNL     1     -12.984  -3.651  35.113  1.00  0.00     0.010 A 
HETATM   17  C12 UNL     1     -13.883  -2.800  35.708  1.00  0.00     0.001 A 
HETATM   18  C13 UNL     1     -14.733  -2.066  34.913  1.00  0.00     0.000 A 
HETATM   19  C14 UNL     1     -14.705  -2.166  33.536  1.00  0.00     0.001 A 
HETATM   20  C15 UNL     1     -13.779  -3.040  32.985  1.00  0.00     0.010 A 
ENDBRANCH  12  15
ENDBRANCH  11  12
ENDBRANCH   1  11
TORSDOF 11
ENDMDL
