MODEL 1
REMARK VINA RESULT: -5.855484720      0.000      0.000
REMARK  12 active torsions:
REMARK  status: ('A' for Active; 'I' for Inactive)
REMARK    1  A    between atoms: C2_2  and  C3_3 
REMARK    2  A    between atoms: C3_3  and  C4_4 
REMARK    3  A    between atoms: C4_4  and  C5_5 
REMARK    4  A    between atoms: C6_6  and  C7_7 
REMARK    5  A    between atoms: C7_7  and  C8_8 
REMARK    6  A    between atoms: C9_9  and  C10_10 
REMARK    7  A    between atoms: C10_10  and  S1_11 
REMARK    8  A    between atoms: S1_11  and  C11_12 
REMARK    9  A    between atoms: C11_12  and  C12_13 
REMARK   10  A    between atoms: C12_13  and  N1_14 
REMARK   11  A    between atoms: C12_13  and  C13_18 
REMARK   12  A    between atoms: C13_18  and  O1_19 
ROOT
HETATM    1  C10 UNL     1     -11.588  -4.805  34.215  1.00  0.00     0.100 C 
ENDROOT
BRANCH   1   2
HETATM    2  C9  UNL     1     -12.868  -4.038  34.276  1.00  0.00    -0.020 C 
HETATM    3  C8  UNL     1     -13.358  -3.509  33.176  1.00  0.00    -0.026 C 
BRANCH   3   4
HETATM    4  C7  UNL     1     -14.646  -2.741  33.245  1.00  0.00     0.053 C 
BRANCH   4   5
HETATM    5  C6  UNL     1     -14.293  -1.319  33.038  1.00  0.00    -0.027 C 
HETATM    6  C5  UNL     1     -14.147  -0.495  34.036  1.00  0.00    -0.030 C 
BRANCH   6   7
HETATM    7  C4  UNL     1     -14.284  -0.756  35.471  1.00  0.00     0.030 C 
BRANCH   7   8
HETATM    8  C3  UNL     1     -15.643  -0.181  35.910  1.00  0.00     0.030 C 
BRANCH   8   9
HETATM    9  C2  UNL     1     -16.302  -1.250  36.682  1.00  0.00    -0.037 C 
HETATM   10  C1  UNL     1     -15.609  -2.273  37.127  1.00  0.00     0.007 C 
ENDBRANCH   8   9
ENDBRANCH   7   8
ENDBRANCH   6   7
ENDBRANCH   4   5
ENDBRANCH   3   4
ENDBRANCH   1   2
BRANCH   1  11
HETATM   11  S1  UNL     1     -11.503  -5.725  32.700  1.00  0.00    -0.163 SA
BRANCH  11  12
HETATM   12  C11 UNL     1     -11.773  -7.482  32.789  1.00  0.00     0.109 C 
BRANCH  12  13
HETATM   13  C12 UNL     1     -13.090  -7.984  32.327  1.00  0.00     0.216 C 
BRANCH  13  14
HETATM   14  N1  UNL     1     -14.157  -7.033  32.657  1.00  0.00    -0.072 N 
ATOM     15  H13 UNL     1     -14.292  -6.954  33.665  1.00  0.00     0.274 HD
ATOM     16  H12 UNL     1     -13.877  -6.072  32.463  1.00  0.00     0.274 HD
ATOM     17  H11 UNL     1     -15.023  -7.278  32.178  1.00  0.00     0.274 HD
ENDBRANCH  13  14
BRANCH  13  18
HETATM   18  C13 UNL     1     -13.148  -8.495  30.940  1.00  0.00     0.197 C 
BRANCH  18  19
HETATM   19  O1  UNL     1     -14.444  -8.342  30.406  1.00  0.00    -0.399 OA
ATOM     20  H1  UNL     1     -15.083  -8.802  30.938  1.00  0.00     0.209 HD
ENDBRANCH  18  19
ENDBRANCH  13  18
ENDBRANCH  12  13
ENDBRANCH  11  12
ENDBRANCH   1  11
TORSDOF 12
ENDMDL
MODEL 2
REMARK VINA RESULT: -5.824903782      3.526      7.500
REMARK  12 active torsions:
REMARK  status: ('A' for Active; 'I' for Inactive)
REMARK    1  A    between atoms: C2_2  and  C3_3 
REMARK    2  A    between atoms: C3_3  and  C4_4 
REMARK    3  A    between atoms: C4_4  and  C5_5 
REMARK    4  A    between atoms: C6_6  and  C7_7 
REMARK    5  A    between atoms: C7_7  and  C8_8 
REMARK    6  A    between atoms: C9_9  and  C10_10 
REMARK    7  A    between atoms: C10_10  and  S1_11 
REMARK    8  A    between atoms: S1_11  and  C11_12 
REMARK    9  A    between atoms: C11_12  and  C12_13 
REMARK   10  A    between atoms: C12_13  and  N1_14 
REMARK   11  A    between atoms: C12_13  and  C13_18 
REMARK   12  A    between atoms: C13_18  and  O1_19 
ROOT
HETATM    1  C10 UNL     1     -12.725  -3.900  34.762  1.00  0.00     0.100 C 
ENDROOT
BRANCH   1   2
HETATM    2  C9  UNL     1     -12.445  -4.872  33.663  1.00  0.00    -0.020 C 
HETATM    3  C8  UNL     1     -11.248  -5.409  33.565  1.00  0.00    -0.026 C 
BRANCH   3   4
HETATM    4  C7  UNL     1     -10.974  -6.387  32.460  1.00  0.00     0.053 C 
BRANCH   4   5
HETATM    5  C6  UNL     1     -11.241  -7.731  33.018  1.00  0.00    -0.027 C 
HETATM    6  C5  UNL     1     -11.941  -8.617  32.369  1.00  0.00    -0.030 C 
BRANCH   6   7
HETATM    7  C4  UNL     1     -12.573  -8.506  31.053  1.00  0.00     0.030 C 
BRANCH   7   8
HETATM    8  C3  UNL     1     -11.916  -9.560  30.142  1.00  0.00     0.030 C 
BRANCH   8   9
HETATM    9  C2  UNL     1     -11.651  -8.877  28.862  1.00  0.00    -0.037 C 
HETATM   10  C1  UNL     1     -11.095  -7.687  28.847  1.00  0.00     0.007 C 
ENDBRANCH   8   9
ENDBRANCH   7   8
ENDBRANCH   6   7
ENDBRANCH   4   5
ENDBRANCH   3   4
ENDBRANCH   1   2
BRANCH   1  11
HETATM   11  S1  UNL     1     -13.848  -2.648  34.195  1.00  0.00    -0.163 SA
BRANCH  11  12
HETATM   12  C11 UNL     1     -13.827  -2.250  32.461  1.00  0.00     0.109 C 
BRANCH  12  13
HETATM   13  C12 UNL     1     -13.535  -0.842  32.098  1.00  0.00     0.216 C 
BRANCH  13  14
HETATM   14  N1  UNL     1     -13.275  -0.036  33.296  1.00  0.00    -0.072 N 
ATOM     15  H13 UNL     1     -13.061   0.932  33.060  1.00  0.00     0.274 HD
ATOM     16  H12 UNL     1     -14.126   0.121  33.836  1.00  0.00     0.274 HD
ATOM     17  H11 UNL     1     -12.540  -0.457  33.864  1.00  0.00     0.274 HD
ENDBRANCH  13  14
BRANCH  13  18
HETATM   18  C13 UNL     1     -12.554  -0.635  31.010  1.00  0.00     0.197 C 
BRANCH  18  19
HETATM   19  O1  UNL     1     -12.092  -1.871  30.514  1.00  0.00    -0.399 OA
ATOM     20  H1  UNL     1     -11.152  -1.949  30.628  1.00  0.00     0.209 HD
ENDBRANCH  18  19
ENDBRANCH  13  18
ENDBRANCH  12  13
ENDBRANCH  11  12
ENDBRANCH   1  11
TORSDOF 12
ENDMDL
MODEL 3
REMARK VINA RESULT: -5.769420472      1.640      1.700
REMARK  12 active torsions:
REMARK  status: ('A' for Active; 'I' for Inactive)
REMARK    1  A    between atoms: C2_2  and  C3_3 
REMARK    2  A    between atoms: C3_3  and  C4_4 
REMARK    3  A    between atoms: C4_4  and  C5_5 
REMARK    4  A    between atoms: C6_6  and  C7_7 
REMARK    5  A    between atoms: C7_7  and  C8_8 
REMARK    6  A    between atoms: C9_9  and  C10_10 
REMARK    7  A    between atoms: C10_10  and  S1_11 
REMARK    8  A    between atoms: S1_11  and  C11_12 
REMARK    9  A    between atoms: C11_12  and  C12_13 
REMARK   10  A    between atoms: C12_13  and  N1_14 
REMARK   11  A    between atoms: C12_13  and  C13_18 
REMARK   12  A    between atoms: C13_18  and  O1_19 
ROOT
HETATM    1  C10 UNL     1     -11.784  -5.383  33.330  1.00  0.00     0.100 C 
ENDROOT
BRANCH   1   2
HETATM    2  C9  UNL     1     -13.058  -4.652  33.603  1.00  0.00    -0.020 C 
HETATM    3  C8  UNL     1     -13.292  -3.511  32.993  1.00  0.00    -0.026 C 
BRANCH   3   4
HETATM    4  C7  UNL     1     -14.575  -2.783  33.270  1.00  0.00     0.053 C 
BRANCH   4   5
HETATM    5  C6  UNL     1     -14.293  -1.347  33.052  1.00  0.00    -0.027 C 
HETATM    6  C5  UNL     1     -14.179  -0.511  34.045  1.00  0.00    -0.030 C 
BRANCH   6   7
HETATM    7  C4  UNL     1     -14.293  -0.769  35.482  1.00  0.00     0.030 C 
BRANCH   7   8
HETATM    8  C3  UNL     1     -15.650  -0.204  35.940  1.00  0.00     0.030 C 
BRANCH   8   9
HETATM    9  C2  UNL     1     -16.299  -1.285  36.703  1.00  0.00    -0.037 C 
HETATM   10  C1  UNL     1     -15.589  -2.283  37.178  1.00  0.00     0.007 C 
ENDBRANCH   8   9
ENDBRANCH   7   8
ENDBRANCH   6   7
ENDBRANCH   4   5
ENDBRANCH   3   4
ENDBRANCH   1   2
BRANCH   1  11
HETATM   11  S1  UNL     1     -12.135  -7.044  32.814  1.00  0.00    -0.163 SA
BRANCH  11  12
HETATM   12  C11 UNL     1     -11.119  -7.737  31.527  1.00  0.00     0.109 C 
BRANCH  12  13
HETATM   13  C12 UNL     1     -11.535  -7.476  30.128  1.00  0.00     0.216 C 
BRANCH  13  14
HETATM   14  N1  UNL     1     -10.912  -6.249  29.619  1.00  0.00    -0.072 N 
ATOM     15  H13 UNL     1     -11.217  -6.038  28.668  1.00  0.00     0.274 HD
ATOM     16  H12 UNL     1     -11.278  -5.419  30.085  1.00  0.00     0.274 HD
ATOM     17  H11 UNL     1      -9.896  -6.302  29.686  1.00  0.00     0.274 HD
ENDBRANCH  13  14
BRANCH  13  18
HETATM   18  C13 UNL     1     -11.457  -8.621  29.196  1.00  0.00     0.197 C 
BRANCH  18  19
HETATM   19  O1  UNL     1     -12.505  -9.533  29.437  1.00  0.00    -0.399 OA
ATOM     20  H1  UNL     1     -13.029  -9.657  28.655  1.00  0.00     0.209 HD
ENDBRANCH  18  19
ENDBRANCH  13  18
ENDBRANCH  12  13
ENDBRANCH  11  12
ENDBRANCH   1  11
TORSDOF 12
ENDMDL
MODEL 4
REMARK VINA RESULT: -5.759002613      3.245      7.637
REMARK  12 active torsions:
REMARK  status: ('A' for Active; 'I' for Inactive)
REMARK    1  A    between atoms: C2_2  and  C3_3 
REMARK    2  A    between atoms: C3_3  and  C4_4 
REMARK    3  A    between atoms: C4_4  and  C5_5 
REMARK    4  A    between atoms: C6_6  and  C7_7 
REMARK    5  A    between atoms: C7_7  and  C8_8 
REMARK    6  A    between atoms: C9_9  and  C10_10 
REMARK    7  A    between atoms: C10_10  and  S1_11 
REMARK    8  A    between atoms: S1_11  and  C11_12 
REMARK    9  A    between atoms: C11_12  and  C12_13 
REMARK   10  A    between atoms: C12_13  and  N1_14 
REMARK   11  A    between atoms: C12_13  and  C13_18 
REMARK   12  A    between atoms: C13_18  and  O1_19 
ROOT
HETATM    1  C10 UNL     1     -12.127  -4.640  33.617  1.00  0.00     0.100 C 
ENDROOT
BRANCH   1   2
HETATM    2  C9  UNL     1     -12.227  -6.062  33.170  1.00  0.00    -0.020 C 
HETATM    3  C8  UNL     1     -11.154  -6.823  33.188  1.00  0.00    -0.026 C 
BRANCH   3   4
HETATM    4  C7  UNL     1     -11.261  -8.251  32.740  1.00  0.00     0.053 C 
BRANCH   4   5
HETATM    5  C6  UNL     1     -12.667  -8.451  32.323  1.00  0.00    -0.027 C 
HETATM    6  C5  UNL     1     -12.976  -9.127  31.254  1.00  0.00    -0.030 C 
BRANCH   6   7
HETATM    7  C4  UNL     1     -12.089  -9.791  30.297  1.00  0.00     0.030 C 
BRANCH   7   8
HETATM    8  C3  UNL     1     -12.142  -8.980  28.989  1.00  0.00     0.030 C 
BRANCH   8   9
HETATM    9  C2  UNL     1     -10.934  -8.136  28.989  1.00  0.00    -0.037 C 
HETATM   10  C1  UNL     1     -11.036  -6.829  29.070  1.00  0.00     0.007 C 
ENDBRANCH   8   9
ENDBRANCH   7   8
ENDBRANCH   6   7
ENDBRANCH   4   5
ENDBRANCH   3   4
ENDBRANCH   1   2
BRANCH   1  11
HETATM   11  S1  UNL     1     -13.721  -3.866  33.542  1.00  0.00    -0.163 SA
BRANCH  11  12
HETATM   12  C11 UNL     1     -13.797  -2.112  33.834  1.00  0.00     0.109 C 
BRANCH  12  13
HETATM   13  C12 UNL     1     -13.764  -1.229  32.643  1.00  0.00     0.216 C 
BRANCH  13  14
HETATM   14  N1  UNL     1     -13.416   0.145  33.021  1.00  0.00    -0.072 N 
ATOM     15  H13 UNL     1     -14.242   0.740  33.080  1.00  0.00     0.274 HD
ATOM     16  H12 UNL     1     -13.114   0.203  33.993  1.00  0.00     0.274 HD
ATOM     17  H11 UNL     1     -12.718   0.531  32.385  1.00  0.00     0.274 HD
ENDBRANCH  13  14
BRANCH  13  18
HETATM   18  C13 UNL     1     -13.020  -1.737  31.471  1.00  0.00     0.197 C 
BRANCH  18  19
HETATM   19  O1  UNL     1     -13.594  -1.265  30.273  1.00  0.00    -0.399 OA
ATOM     20  H1  UNL     1     -12.927  -0.915  29.695  1.00  0.00     0.209 HD
ENDBRANCH  18  19
ENDBRANCH  13  18
ENDBRANCH  12  13
ENDBRANCH  11  12
ENDBRANCH   1  11
TORSDOF 12
ENDMDL
MODEL 5
REMARK VINA RESULT: -5.752186595      3.218      6.508
REMARK  12 active torsions:
REMARK  status: ('A' for Active; 'I' for Inactive)
REMARK    1  A    between atoms: C2_2  and  C3_3 
REMARK    2  A    between atoms: C3_3  and  C4_4 
REMARK    3  A    between atoms: C4_4  and  C5_5 
REMARK    4  A    between atoms: C6_6  and  C7_7 
REMARK    5  A    between atoms: C7_7  and  C8_8 
REMARK    6  A    between atoms: C9_9  and  C10_10 
REMARK    7  A    between atoms: C10_10  and  S1_11 
REMARK    8  A    between atoms: S1_11  and  C11_12 
REMARK    9  A    between atoms: C11_12  and  C12_13 
REMARK   10  A    between atoms: C12_13  and  N1_14 
REMARK   11  A    between atoms: C12_13  and  C13_18 
REMARK   12  A    between atoms: C13_18  and  O1_19 
ROOT
HETATM    1  C10 UNL     1     -14.011  -3.122  35.941  1.00  0.00     0.100 C 
ENDROOT
BRANCH   1   2
HETATM    2  C9  UNL     1     -12.890  -3.524  35.039  1.00  0.00    -0.020 C 
HETATM    3  C8  UNL     1     -13.144  -4.267  33.983  1.00  0.00    -0.026 C 
BRANCH   3   4
HETATM    4  C7  UNL     1     -12.013  -4.666  33.080  1.00  0.00     0.053 C 
BRANCH   4   5
HETATM    5  C6  UNL     1     -11.160  -5.586  33.863  1.00  0.00    -0.027 C 
HETATM    6  C5  UNL     1     -10.861  -6.779  33.434  1.00  0.00    -0.030 C 
BRANCH   6   7
HETATM    7  C4  UNL     1     -11.262  -7.434  32.187  1.00  0.00     0.030 C 
BRANCH   7   8
HETATM    8  C3  UNL     1     -12.268  -8.539  32.556  1.00  0.00     0.030 C 
BRANCH   8   9
HETATM    9  C2  UNL     1     -13.572  -8.088  32.036  1.00  0.00    -0.037 C 
HETATM   10  C1  UNL     1     -14.457  -7.549  32.842  1.00  0.00     0.007 C 
ENDBRANCH   8   9
ENDBRANCH   7   8
ENDBRANCH   6   7
ENDBRANCH   4   5
ENDBRANCH   3   4
ENDBRANCH   1   2
BRANCH   1  11
HETATM   11  S1  UNL     1     -14.814  -1.674  35.303  1.00  0.00    -0.163 SA
BRANCH  11  12
HETATM   12  C11 UNL     1     -13.919  -0.690  34.121  1.00  0.00     0.109 C 
BRANCH  12  13
HETATM   13  C12 UNL     1     -14.245  -0.896  32.689  1.00  0.00     0.216 C 
BRANCH  13  14
HETATM   14  N1  UNL     1     -15.196   0.118  32.220  1.00  0.00    -0.072 N 
ATOM     15  H13 UNL     1     -15.179   0.209  31.204  1.00  0.00     0.274 HD
ATOM     16  H12 UNL     1     -16.161  -0.190  32.331  1.00  0.00     0.274 HD
ATOM     17  H11 UNL     1     -15.029   1.013  32.681  1.00  0.00     0.274 HD
ENDBRANCH  13  14
BRANCH  13  18
HETATM   18  C13 UNL     1     -13.100  -1.113  31.780  1.00  0.00     0.197 C 
BRANCH  18  19
HETATM   19  O1  UNL     1     -13.546  -1.508  30.502  1.00  0.00    -0.399 OA
ATOM     20  H1  UNL     1     -14.417  -1.168  30.330  1.00  0.00     0.209 HD
ENDBRANCH  18  19
ENDBRANCH  13  18
ENDBRANCH  12  13
ENDBRANCH  11  12
ENDBRANCH   1  11
TORSDOF 12
ENDMDL
