MODEL 1
REMARK VINA RESULT: -5.592638317      0.000      0.000
REMARK  10 active torsions:
REMARK  status: ('A' for Active; 'I' for Inactive)
REMARK    1  A    between atoms: C2_2  and  N1_3 
REMARK    2  A    between atoms: N1_3  and  C3_4 
REMARK    3  A    between atoms: N1_3  and  C8_10 
REMARK    4  A    between atoms: C3_4  and  C4_5 
REMARK    5  A    between atoms: C5_6  and  C6_7 
REMARK    6  A    between atoms: C6_7  and  C7_8 
REMARK    7  A    between atoms: C8_10  and  C9_11 
REMARK    8  A    between atoms: C9_11  and  N2_12 
REMARK    9  A    between atoms: N2_12  and  C10_14 
REMARK   10  A    between atoms: C10_14  and  C11_15 
ROOT
HETATM    1  N1  UNL     1     -12.626  -8.553  30.877  1.00  0.00     0.092 N 
ENDROOT
BRANCH   1   2
HETATM    2  C2  UNL     1     -13.310  -9.806  31.128  1.00  0.00     0.268 C 
HETATM    3  C1  UNL     1     -12.463 -11.019  31.028  1.00  0.00     0.037 C 
ENDBRANCH   1   2
BRANCH   1   4
HETATM    4  C3  UNL     1     -11.343  -8.760  30.249  1.00  0.00     0.299 C 
BRANCH   4   5
HETATM    5  C4  UNL     1     -11.133  -7.912  29.066  1.00  0.00    -0.001 C 
HETATM    6  C5  UNL     1     -11.228  -8.375  27.853  1.00  0.00    -0.028 C 
BRANCH   6   7
HETATM    7  C6  UNL     1     -11.540  -9.744  27.398  1.00  0.00     0.038 C 
BRANCH   7   8
HETATM    8  C7  UNL     1     -12.104  -9.649  25.990  1.00  0.00     0.090 C 
HETATM    9  S1  UNL     1     -10.772  -9.605  24.784  1.00  0.00    -0.097 SA
ENDBRANCH   7   8
ENDBRANCH   6   7
ENDBRANCH   4   5
ENDBRANCH   1   4
BRANCH   1  10
HETATM   10  C8  UNL     1     -12.580  -7.848  32.128  1.00  0.00     0.292 C 
BRANCH  10  11
HETATM   11  C9  UNL     1     -11.257  -7.869  32.838  1.00  0.00     0.149 C 
BRANCH  11  12
HETATM   12  N2  UNL     1     -10.816  -6.578  33.265  1.00  0.00    -0.400 N 
ATOM     13  H2  UNL     1     -10.153  -6.483  34.035  1.00  0.00     0.158 HD
BRANCH  12  14
HETATM   14  C10 UNL     1     -11.314  -5.445  32.604  1.00  0.00     0.060 C 
BRANCH  14  15
HETATM   15  C11 UNL     1     -10.425  -4.649  31.729  1.00  0.00     0.024 A 
HETATM   16  C12 UNL     1     -11.135  -3.502  30.942  1.00  0.00     0.010 A 
HETATM   17  C13 UNL     1     -10.377  -4.637  30.277  1.00  0.00     0.010 A 
ENDBRANCH  14  15
ENDBRANCH  12  14
ENDBRANCH  11  12
ENDBRANCH  10  11
ENDBRANCH   1  10
TORSDOF 10
ENDMDL
MODEL 2
REMARK VINA RESULT: -5.582835607      3.377      5.216
REMARK  10 active torsions:
REMARK  status: ('A' for Active; 'I' for Inactive)
REMARK    1  A    between atoms: C2_2  and  N1_3 
REMARK    2  A    between atoms: N1_3  and  C3_4 
REMARK    3  A    between atoms: N1_3  and  C8_10 
REMARK    4  A    between atoms: C3_4  and  C4_5 
REMARK    5  A    between atoms: C5_6  and  C6_7 
REMARK    6  A    between atoms: C6_7  and  C7_8 
REMARK    7  A    between atoms: C8_10  and  C9_11 
REMARK    8  A    between atoms: C9_11  and  N2_12 
REMARK    9  A    between atoms: N2_12  and  C10_14 
REMARK   10  A    between atoms: C10_14  and  C11_15 
ROOT
HETATM    1  N1  UNL     1     -10.694  -5.403  32.590  1.00  0.00     0.092 N 
ENDROOT
BRANCH   1   2
HETATM    2  C2  UNL     1     -10.603  -4.277  31.682  1.00  0.00     0.268 C 
HETATM    3  C1  UNL     1     -10.388  -4.631  30.258  1.00  0.00     0.037 C 
ENDBRANCH   1   2
BRANCH   1   4
HETATM    4  C3  UNL     1     -11.115  -6.606  31.912  1.00  0.00     0.299 C 
BRANCH   4   5
HETATM    5  C4  UNL     1     -11.219  -7.769  32.806  1.00  0.00    -0.001 C 
HETATM    6  C5  UNL     1     -11.998  -8.779  32.546  1.00  0.00    -0.028 C 
BRANCH   6   7
HETATM    7  C6  UNL     1     -12.894  -8.994  31.393  1.00  0.00     0.038 C 
BRANCH   7   8
HETATM    8  C7  UNL     1     -12.184  -9.919  30.418  1.00  0.00     0.090 C 
HETATM    9  S1  UNL     1     -11.777  -9.040  28.905  1.00  0.00    -0.097 SA
ENDBRANCH   7   8
ENDBRANCH   6   7
ENDBRANCH   4   5
ENDBRANCH   1   4
BRANCH   1  10
HETATM   10  C8  UNL     1     -11.543  -4.993  33.675  1.00  0.00     0.292 C 
BRANCH  10  11
HETATM   11  C9  UNL     1     -12.667  -4.067  33.307  1.00  0.00     0.149 C 
BRANCH  11  12
HETATM   12  N2  UNL     1     -12.999  -3.132  34.336  1.00  0.00    -0.400 N 
ATOM     13  H2  UNL     1     -12.968  -2.128  34.158  1.00  0.00     0.158 HD
BRANCH  12  14
HETATM   14  C10 UNL     1     -13.368  -3.625  35.598  1.00  0.00     0.060 C 
BRANCH  14  15
HETATM   15  C11 UNL     1     -13.891  -2.701  36.628  1.00  0.00     0.024 A 
HETATM   16  C12 UNL     1     -14.746  -3.380  37.745  1.00  0.00     0.010 A 
HETATM   17  C13 UNL     1     -15.266  -2.281  36.836  1.00  0.00     0.010 A 
ENDBRANCH  14  15
ENDBRANCH  12  14
ENDBRANCH  11  12
ENDBRANCH  10  11
ENDBRANCH   1  10
TORSDOF 10
ENDMDL
MODEL 3
REMARK VINA RESULT: -5.572746041      3.337      5.993
REMARK  10 active torsions:
REMARK  status: ('A' for Active; 'I' for Inactive)
REMARK    1  A    between atoms: C2_2  and  N1_3 
REMARK    2  A    between atoms: N1_3  and  C3_4 
REMARK    3  A    between atoms: N1_3  and  C8_10 
REMARK    4  A    between atoms: C3_4  and  C4_5 
REMARK    5  A    between atoms: C5_6  and  C6_7 
REMARK    6  A    between atoms: C6_7  and  C7_8 
REMARK    7  A    between atoms: C8_10  and  C9_11 
REMARK    8  A    between atoms: C9_11  and  N2_12 
REMARK    9  A    between atoms: N2_12  and  C10_14 
REMARK   10  A    between atoms: C10_14  and  C11_15 
ROOT
HETATM    1  N1  UNL     1     -11.806  -9.296  30.963  1.00  0.00     0.092 N 
ENDROOT
BRANCH   1   2
HETATM    2  C2  UNL     1     -12.295 -10.623  30.643  1.00  0.00     0.268 C 
HETATM    3  C1  UNL     1     -12.972 -11.330  31.756  1.00  0.00     0.037 C 
ENDBRANCH   1   2
BRANCH   1   4
HETATM    4  C3  UNL     1     -12.144  -8.912  32.313  1.00  0.00     0.299 C 
BRANCH   4   5
HETATM    5  C4  UNL     1     -11.045  -8.228  33.013  1.00  0.00    -0.001 C 
HETATM    6  C5  UNL     1     -11.105  -6.970  33.341  1.00  0.00    -0.028 C 
BRANCH   6   7
HETATM    7  C6  UNL     1     -12.192  -5.998  33.114  1.00  0.00     0.038 C 
BRANCH   7   8
HETATM    8  C7  UNL     1     -11.863  -4.740  33.901  1.00  0.00     0.090 C 
HETATM    9  S1  UNL     1     -13.329  -3.716  34.085  1.00  0.00    -0.097 SA
ENDBRANCH   7   8
ENDBRANCH   6   7
ENDBRANCH   4   5
ENDBRANCH   1   4
BRANCH   1  10
HETATM   10  C8  UNL     1     -12.302  -8.414  29.942  1.00  0.00     0.292 C 
BRANCH  10  11
HETATM   11  C9  UNL     1     -11.309  -7.430  29.395  1.00  0.00     0.149 C 
BRANCH  11  12
HETATM   12  N2  UNL     1     -10.578  -7.920  28.268  1.00  0.00    -0.400 N 
ATOM     13  H2  UNL     1      -9.655  -7.549  28.044  1.00  0.00     0.158 HD
BRANCH  12  14
HETATM   14  C10 UNL     1     -11.159  -8.922  27.475  1.00  0.00     0.060 C 
BRANCH  14  15
HETATM   15  C11 UNL     1     -11.327  -8.710  26.020  1.00  0.00     0.024 A 
HETATM   16  C12 UNL     1     -12.391  -9.630  25.342  1.00  0.00     0.010 A 
HETATM   17  C13 UNL     1     -10.928  -9.593  24.937  1.00  0.00     0.010 A 
ENDBRANCH  14  15
ENDBRANCH  12  14
ENDBRANCH  11  12
ENDBRANCH  10  11
ENDBRANCH   1  10
TORSDOF 10
ENDMDL
MODEL 4
REMARK VINA RESULT: -5.531284632      3.781      5.491
REMARK  10 active torsions:
REMARK  status: ('A' for Active; 'I' for Inactive)
REMARK    1  A    between atoms: C2_2  and  N1_3 
REMARK    2  A    between atoms: N1_3  and  C3_4 
REMARK    3  A    between atoms: N1_3  and  C8_10 
REMARK    4  A    between atoms: C3_4  and  C4_5 
REMARK    5  A    between atoms: C5_6  and  C6_7 
REMARK    6  A    between atoms: C6_7  and  C7_8 
REMARK    7  A    between atoms: C8_10  and  C9_11 
REMARK    8  A    between atoms: C9_11  and  N2_12 
REMARK    9  A    between atoms: N2_12  and  C10_14 
REMARK   10  A    between atoms: C10_14  and  C11_15 
ROOT
HETATM    1  N1  UNL     1     -10.674  -5.451  32.582  1.00  0.00     0.092 N 
ENDROOT
BRANCH   1   2
HETATM    2  C2  UNL     1     -10.653  -4.306  31.693  1.00  0.00     0.268 C 
HETATM    3  C1  UNL     1     -10.385  -4.618  30.269  1.00  0.00     0.037 C 
ENDBRANCH   1   2
BRANCH   1   4
HETATM    4  C3  UNL     1     -11.116  -6.647  31.904  1.00  0.00     0.299 C 
BRANCH   4   5
HETATM    5  C4  UNL     1     -11.379  -7.767  32.820  1.00  0.00    -0.001 C 
HETATM    6  C5  UNL     1     -11.886  -8.895  32.412  1.00  0.00    -0.028 C 
BRANCH   6   7
HETATM    7  C6  UNL     1     -12.290  -9.298  31.052  1.00  0.00     0.038 C 
BRANCH   7   8
HETATM    8  C7  UNL     1     -12.439 -10.811  31.039  1.00  0.00     0.090 C 
HETATM    9  S1  UNL     1     -13.708 -11.323  32.205  1.00  0.00    -0.097 SA
ENDBRANCH   7   8
ENDBRANCH   6   7
ENDBRANCH   4   5
ENDBRANCH   1   4
BRANCH   1  10
HETATM   10  C8  UNL     1     -11.464  -5.076  33.722  1.00  0.00     0.292 C 
BRANCH  10  11
HETATM   11  C9  UNL     1     -12.665  -4.225  33.430  1.00  0.00     0.149 C 
BRANCH  11  12
HETATM   12  N2  UNL     1     -12.926  -3.238  34.431  1.00  0.00    -0.400 N 
ATOM     13  H2  UNL     1     -12.880  -2.244  34.207  1.00  0.00     0.158 HD
BRANCH  12  14
HETATM   14  C10 UNL     1     -13.245  -3.666  35.730  1.00  0.00     0.060 C 
BRANCH  14  15
HETATM   15  C11 UNL     1     -13.843  -2.717  36.694  1.00  0.00     0.024 A 
HETATM   16  C12 UNL     1     -14.788  -3.369  37.754  1.00  0.00     0.010 A 
HETATM   17  C13 UNL     1     -15.228  -2.288  36.783  1.00  0.00     0.010 A 
ENDBRANCH  14  15
ENDBRANCH  12  14
ENDBRANCH  11  12
ENDBRANCH  10  11
ENDBRANCH   1  10
TORSDOF 10
ENDMDL
MODEL 5
REMARK VINA RESULT: -5.513820921      3.512      6.411
REMARK  10 active torsions:
REMARK  status: ('A' for Active; 'I' for Inactive)
REMARK    1  A    between atoms: C2_2  and  N1_3 
REMARK    2  A    between atoms: N1_3  and  C3_4 
REMARK    3  A    between atoms: N1_3  and  C8_10 
REMARK    4  A    between atoms: C3_4  and  C4_5 
REMARK    5  A    between atoms: C5_6  and  C6_7 
REMARK    6  A    between atoms: C6_7  and  C7_8 
REMARK    7  A    between atoms: C8_10  and  C9_11 
REMARK    8  A    between atoms: C9_11  and  N2_12 
REMARK    9  A    between atoms: N2_12  and  C10_14 
REMARK   10  A    between atoms: C10_14  and  C11_15 
ROOT
HETATM    1  N1  UNL     1     -11.943  -8.768  32.303  1.00  0.00     0.092 N 
ENDROOT
BRANCH   1   2
HETATM    2  C2  UNL     1     -13.159  -9.542  32.148  1.00  0.00     0.268 C 
HETATM    3  C1  UNL     1     -12.971 -11.012  32.109  1.00  0.00     0.037 C 
ENDBRANCH   1   2
BRANCH   1   4
HETATM    4  C3  UNL     1     -12.223  -7.371  32.537  1.00  0.00     0.299 C 
BRANCH   4   5
HETATM    5  C4  UNL     1     -11.198  -6.705  33.356  1.00  0.00    -0.001 C 
HETATM    6  C5  UNL     1     -11.289  -5.452  33.699  1.00  0.00    -0.028 C 
BRANCH   6   7
HETATM    7  C6  UNL     1     -12.346  -4.472  33.383  1.00  0.00     0.038 C 
BRANCH   7   8
HETATM    8  C7  UNL     1     -12.796  -3.836  34.688  1.00  0.00     0.090 C 
HETATM    9  S1  UNL     1     -13.920  -2.471  34.363  1.00  0.00    -0.097 SA
ENDBRANCH   7   8
ENDBRANCH   6   7
ENDBRANCH   4   5
ENDBRANCH   1   4
BRANCH   1  10
HETATM   10  C8  UNL     1     -11.131  -9.035  31.147  1.00  0.00     0.292 C 
BRANCH  10  11
HETATM   11  C9  UNL     1     -11.486  -8.261  29.911  1.00  0.00     0.149 C 
BRANCH  11  12
HETATM   12  N2  UNL     1     -11.930  -9.083  28.828  1.00  0.00    -0.400 N 
ATOM     13  H2  UNL     1     -12.690  -9.750  28.958  1.00  0.00     0.158 HD
BRANCH  12  14
HETATM   14  C10 UNL     1     -11.298  -8.951  27.581  1.00  0.00     0.060 C 
BRANCH  14  15
HETATM   15  C11 UNL     1     -11.746  -9.771  26.435  1.00  0.00     0.024 A 
HETATM   16  C12 UNL     1     -11.074  -9.415  25.071  1.00  0.00     0.010 A 
HETATM   17  C13 UNL     1     -12.572  -9.362  25.312  1.00  0.00     0.010 A 
ENDBRANCH  14  15
ENDBRANCH  12  14
ENDBRANCH  11  12
ENDBRANCH  10  11
ENDBRANCH   1  10
TORSDOF 10
ENDMDL
