MODEL 1
REMARK VINA RESULT: -6.537810156      0.000      0.000
REMARK  10 active torsions:
REMARK  status: ('A' for Active; 'I' for Inactive)
REMARK    1  A    between atoms: N1_2  and  C2_5 
REMARK    2  A    between atoms: C2_5  and  C3_6 
REMARK    3  A    between atoms: C3_6  and  O1_7 
REMARK    4  A    between atoms: O1_7  and  C4_8 
REMARK    5  A    between atoms: C4_8  and  C5_9 
REMARK    6  A    between atoms: C5_9  and  N2_10 
REMARK    7  A    between atoms: N2_10  and  C6_13 
REMARK    8  A    between atoms: C6_13  and  C7_14 
REMARK    9  A    between atoms: C7_14  and  C8_15 
REMARK   10  A    between atoms: C8_15  and  C9_16 
ROOT
HETATM    1  N2  UNL     1     -12.295  -3.090  31.701  1.00  0.00    -0.073 N 
ATOM      2  H21 UNL     1     -12.172  -3.238  32.703  1.00  0.00     0.277 HD
ATOM      3  H22 UNL     1     -13.088  -3.709  31.535  1.00  0.00     0.277 HD
ENDROOT
BRANCH   1   4
HETATM    4  C5  UNL     1     -11.141  -3.535  30.977  1.00  0.00     0.258 C 
BRANCH   4   5
HETATM    5  C4  UNL     1     -10.438  -4.630  31.745  1.00  0.00     0.195 C 
BRANCH   5   6
HETATM    6  O1  UNL     1     -10.703  -4.601  33.089  1.00  0.00    -0.388 OA
BRANCH   6   7
HETATM    7  C3  UNL     1     -10.933  -5.815  33.670  1.00  0.00     0.195 C 
BRANCH   7   8
HETATM    8  C2  UNL     1     -12.007  -6.574  32.884  1.00  0.00     0.258 C 
BRANCH   8   9
HETATM    9  N1  UNL     1     -13.297  -6.108  33.326  1.00  0.00    -0.077 N 
HETATM   10  C1  UNL     1     -14.300  -7.081  32.990  1.00  0.00     0.267 C 
ATOM     11  H12 UNL     1     -13.520  -5.183  32.959  1.00  0.00     0.276 HD
ATOM     12  H11 UNL     1     -13.304  -5.877  34.320  1.00  0.00     0.276 HD
ENDBRANCH   8   9
ENDBRANCH   7   8
ENDBRANCH   6   7
ENDBRANCH   5   6
ENDBRANCH   4   5
ENDBRANCH   1   4
BRANCH   1  13
HETATM   13  C6  UNL     1     -12.654  -1.701  31.423  1.00  0.00     0.232 C 
BRANCH  13  14
HETATM   14  C7  UNL     1     -13.663  -1.182  32.394  1.00  0.00     0.028 C 
BRANCH  14  15
HETATM   15  C8  UNL     1     -14.568  -2.152  33.030  1.00  0.00     0.006 C 
BRANCH  15  16
HETATM   16  C9  UNL     1     -14.655  -2.271  34.485  1.00  0.00    -0.014 C 
HETATM   17  C10 UNL     1     -13.514  -2.974  35.185  1.00  0.00     0.004 C 
HETATM   18  C11 UNL     1     -13.912  -3.343  36.567  1.00  0.00     0.000 C 
HETATM   19  C12 UNL     1     -14.986  -2.608  37.232  1.00  0.00     0.000 C 
HETATM   20  C13 UNL     1     -15.704  -1.529  36.497  1.00  0.00     0.000 C 
HETATM   21  C14 UNL     1     -14.919  -1.029  35.289  1.00  0.00     0.004 C 
ENDBRANCH  15  16
ENDBRANCH  14  15
ENDBRANCH  13  14
ENDBRANCH   1  13
TORSDOF 10
ENDMDL
MODEL 2
REMARK VINA RESULT: -6.464551995      1.710      2.584
REMARK  10 active torsions:
REMARK  status: ('A' for Active; 'I' for Inactive)
REMARK    1  A    between atoms: N1_2  and  C2_5 
REMARK    2  A    between atoms: C2_5  and  C3_6 
REMARK    3  A    between atoms: C3_6  and  O1_7 
REMARK    4  A    between atoms: O1_7  and  C4_8 
REMARK    5  A    between atoms: C4_8  and  C5_9 
REMARK    6  A    between atoms: C5_9  and  N2_10 
REMARK    7  A    between atoms: N2_10  and  C6_13 
REMARK    8  A    between atoms: C6_13  and  C7_14 
REMARK    9  A    between atoms: C7_14  and  C8_15 
REMARK   10  A    between atoms: C8_15  and  C9_16 
ROOT
HETATM    1  N2  UNL     1     -12.347  -0.463  31.770  1.00  0.00    -0.073 N 
ATOM      2  H21 UNL     1     -11.811   0.120  31.127  1.00  0.00     0.277 HD
ATOM      3  H22 UNL     1     -11.610  -0.708  32.430  1.00  0.00     0.277 HD
ENDROOT
BRANCH   1   4
HETATM    4  C5  UNL     1     -12.842  -1.631  31.103  1.00  0.00     0.258 C 
BRANCH   4   5
HETATM    5  C4  UNL     1     -11.883  -2.783  31.295  1.00  0.00     0.195 C 
BRANCH   5   6
HETATM    6  O1  UNL     1     -11.232  -3.140  30.144  1.00  0.00    -0.388 OA
BRANCH   6   7
HETATM    7  C3  UNL     1     -10.495  -4.287  30.216  1.00  0.00     0.195 C 
BRANCH   7   8
HETATM    8  C2  UNL     1     -10.498  -4.821  31.651  1.00  0.00     0.258 C 
BRANCH   8   9
HETATM    9  N1  UNL     1     -10.595  -6.258  31.593  1.00  0.00    -0.077 N 
HETATM   10  C1  UNL     1     -11.016  -6.764  32.870  1.00  0.00     0.267 C 
ATOM     11  H12 UNL     1      -9.727  -6.690  31.275  1.00  0.00     0.276 HD
ATOM     12  H11 UNL     1     -11.201  -6.573  30.835  1.00  0.00     0.276 HD
ENDBRANCH   8   9
ENDBRANCH   7   8
ENDBRANCH   6   7
ENDBRANCH   5   6
ENDBRANCH   4   5
ENDBRANCH   1   4
BRANCH   1  13
HETATM   13  C6  UNL     1     -13.394   0.317  32.426  1.00  0.00     0.232 C 
BRANCH  13  14
HETATM   14  C7  UNL     1     -14.366  -0.554  33.151  1.00  0.00     0.028 C 
BRANCH  14  15
HETATM   15  C8  UNL     1     -14.552  -0.326  34.592  1.00  0.00     0.006 C 
BRANCH  15  16
HETATM   16  C9  UNL     1     -14.511  -1.430  35.550  1.00  0.00    -0.014 C 
HETATM   17  C10 UNL     1     -15.774  -1.705  36.335  1.00  0.00     0.004 C 
HETATM   18  C11 UNL     1     -15.474  -2.577  37.498  1.00  0.00     0.000 C 
HETATM   19  C12 UNL     1     -14.292  -3.436  37.474  1.00  0.00     0.000 C 
HETATM   20  C13 UNL     1     -13.374  -3.390  36.300  1.00  0.00     0.000 C 
HETATM   21  C14 UNL     1     -14.033  -2.773  35.072  1.00  0.00     0.004 C 
ENDBRANCH  15  16
ENDBRANCH  14  15
ENDBRANCH  13  14
ENDBRANCH   1  13
TORSDOF 10
ENDMDL
MODEL 3
REMARK VINA RESULT: -6.330222127      0.868      1.106
REMARK  10 active torsions:
REMARK  status: ('A' for Active; 'I' for Inactive)
REMARK    1  A    between atoms: N1_2  and  C2_5 
REMARK    2  A    between atoms: C2_5  and  C3_6 
REMARK    3  A    between atoms: C3_6  and  O1_7 
REMARK    4  A    between atoms: O1_7  and  C4_8 
REMARK    5  A    between atoms: C4_8  and  C5_9 
REMARK    6  A    between atoms: C5_9  and  N2_10 
REMARK    7  A    between atoms: N2_10  and  C6_13 
REMARK    8  A    between atoms: C6_13  and  C7_14 
REMARK    9  A    between atoms: C7_14  and  C8_15 
REMARK   10  A    between atoms: C8_15  and  C9_16 
ROOT
HETATM    1  N2  UNL     1     -12.283  -3.093  31.717  1.00  0.00    -0.073 N 
ATOM      2  H21 UNL     1     -12.152  -3.229  32.720  1.00  0.00     0.277 HD
ATOM      3  H22 UNL     1     -13.060  -3.734  31.560  1.00  0.00     0.277 HD
ENDROOT
BRANCH   1   4
HETATM    4  C5  UNL     1     -11.122  -3.514  30.990  1.00  0.00     0.258 C 
BRANCH   4   5
HETATM    5  C4  UNL     1     -10.420  -4.627  31.734  1.00  0.00     0.195 C 
BRANCH   5   6
HETATM    6  O1  UNL     1     -10.653  -4.603  33.084  1.00  0.00    -0.388 OA
BRANCH   6   7
HETATM    7  C3  UNL     1     -10.851  -5.821  33.668  1.00  0.00     0.195 C 
BRANCH   7   8
HETATM    8  C2  UNL     1     -11.927  -6.599  32.905  1.00  0.00     0.258 C 
BRANCH   8   9
HETATM    9  N1  UNL     1     -11.520  -7.980  32.841  1.00  0.00    -0.077 N 
HETATM   10  C1  UNL     1     -11.115  -8.301  31.501  1.00  0.00     0.267 C 
ATOM     11  H12 UNL     1     -12.244  -8.611  33.186  1.00  0.00     0.276 HD
ATOM     12  H11 UNL     1     -10.797  -8.200  33.526  1.00  0.00     0.276 HD
ENDBRANCH   8   9
ENDBRANCH   7   8
ENDBRANCH   6   7
ENDBRANCH   5   6
ENDBRANCH   4   5
ENDBRANCH   1   4
BRANCH   1  13
HETATM   13  C6  UNL     1     -12.680  -1.716  31.430  1.00  0.00     0.232 C 
BRANCH  13  14
HETATM   14  C7  UNL     1     -13.655  -1.196  32.435  1.00  0.00     0.028 C 
BRANCH  14  15
HETATM   15  C8  UNL     1     -14.575  -2.158  33.061  1.00  0.00     0.006 C 
BRANCH  15  16
HETATM   16  C9  UNL     1     -14.658  -2.297  34.514  1.00  0.00    -0.014 C 
HETATM   17  C10 UNL     1     -13.513  -3.005  35.202  1.00  0.00     0.004 C 
HETATM   18  C11 UNL     1     -13.905  -3.393  36.580  1.00  0.00     0.000 C 
HETATM   19  C12 UNL     1     -14.980  -2.671  37.258  1.00  0.00     0.000 C 
HETATM   20  C13 UNL     1     -15.704  -1.585  36.538  1.00  0.00     0.000 C 
HETATM   21  C14 UNL     1     -14.924  -1.066  35.336  1.00  0.00     0.004 C 
ENDBRANCH  15  16
ENDBRANCH  14  15
ENDBRANCH  13  14
ENDBRANCH   1  13
TORSDOF 10
ENDMDL
MODEL 4
REMARK VINA RESULT: -6.251634592      1.670      1.959
REMARK  10 active torsions:
REMARK  status: ('A' for Active; 'I' for Inactive)
REMARK    1  A    between atoms: N1_2  and  C2_5 
REMARK    2  A    between atoms: C2_5  and  C3_6 
REMARK    3  A    between atoms: C3_6  and  O1_7 
REMARK    4  A    between atoms: O1_7  and  C4_8 
REMARK    5  A    between atoms: C4_8  and  C5_9 
REMARK    6  A    between atoms: C5_9  and  N2_10 
REMARK    7  A    between atoms: N2_10  and  C6_13 
REMARK    8  A    between atoms: C6_13  and  C7_14 
REMARK    9  A    between atoms: C7_14  and  C8_15 
REMARK   10  A    between atoms: C8_15  and  C9_16 
ROOT
HETATM    1  N2  UNL     1     -11.866  -3.506  31.907  1.00  0.00    -0.073 N 
ATOM      2  H21 UNL     1     -11.786  -3.994  31.015  1.00  0.00     0.277 HD
ATOM      3  H22 UNL     1     -10.894  -3.229  32.036  1.00  0.00     0.277 HD
ENDROOT
BRANCH   1   4
HETATM    4  C5  UNL     1     -12.280  -4.406  32.943  1.00  0.00     0.258 C 
BRANCH   4   5
HETATM    5  C4  UNL     1     -11.075  -5.089  33.548  1.00  0.00     0.195 C 
BRANCH   5   6
HETATM    6  O1  UNL     1     -10.527  -6.040  32.728  1.00  0.00    -0.388 OA
BRANCH   6   7
HETATM    7  C3  UNL     1     -11.153  -7.254  32.733  1.00  0.00     0.195 C 
BRANCH   7   8
HETATM    8  C2  UNL     1     -11.129  -7.860  31.327  1.00  0.00     0.258 C 
BRANCH   8   9
HETATM    9  N1  UNL     1     -11.172  -6.780  30.373  1.00  0.00    -0.077 N 
HETATM   10  C1  UNL     1     -11.216  -7.316  29.041  1.00  0.00     0.267 C 
ATOM     11  H12 UNL     1     -10.401  -6.124  30.499  1.00  0.00     0.276 HD
ATOM     12  H11 UNL     1     -11.942  -6.136  30.555  1.00  0.00     0.276 HD
ENDBRANCH   8   9
ENDBRANCH   7   8
ENDBRANCH   6   7
ENDBRANCH   5   6
ENDBRANCH   4   5
ENDBRANCH   1   4
BRANCH   1  13
HETATM   13  C6  UNL     1     -12.728  -2.333  31.780  1.00  0.00     0.232 C 
BRANCH  13  14
HETATM   14  C7  UNL     1     -13.966  -2.460  32.606  1.00  0.00     0.028 C 
BRANCH  14  15
HETATM   15  C8  UNL     1     -14.225  -1.426  33.620  1.00  0.00     0.006 C 
BRANCH  15  16
HETATM   16  C9  UNL     1     -14.653  -1.777  34.973  1.00  0.00    -0.014 C 
HETATM   17  C10 UNL     1     -13.669  -2.545  35.826  1.00  0.00     0.004 C 
HETATM   18  C11 UNL     1     -14.361  -3.140  36.996  1.00  0.00     0.000 C 
HETATM   19  C12 UNL     1     -15.614  -2.556  37.471  1.00  0.00     0.000 C 
HETATM   20  C13 UNL     1     -16.208  -1.397  36.745  1.00  0.00     0.000 C 
HETATM   21  C14 UNL     1     -15.191  -0.687  35.858  1.00  0.00     0.004 C 
ENDBRANCH  15  16
ENDBRANCH  14  15
ENDBRANCH  13  14
ENDBRANCH   1  13
TORSDOF 10
ENDMDL
MODEL 5
REMARK VINA RESULT: -6.185271962      2.692      6.574
REMARK  10 active torsions:
REMARK  status: ('A' for Active; 'I' for Inactive)
REMARK    1  A    between atoms: N1_2  and  C2_5 
REMARK    2  A    between atoms: C2_5  and  C3_6 
REMARK    3  A    between atoms: C3_6  and  O1_7 
REMARK    4  A    between atoms: O1_7  and  C4_8 
REMARK    5  A    between atoms: C4_8  and  C5_9 
REMARK    6  A    between atoms: C5_9  and  N2_10 
REMARK    7  A    between atoms: N2_10  and  C6_13 
REMARK    8  A    between atoms: C6_13  and  C7_14 
REMARK    9  A    between atoms: C7_14  and  C8_15 
REMARK   10  A    between atoms: C8_15  and  C9_16 
ROOT
HETATM    1  N2  UNL     1     -12.296  -3.760  32.502  1.00  0.00    -0.073 N 
ATOM      2  H21 UNL     1     -12.030  -2.784  32.630  1.00  0.00     0.277 HD
ATOM      3  H22 UNL     1     -12.635  -3.718  31.541  1.00  0.00     0.277 HD
ENDROOT
BRANCH   1   4
HETATM    4  C5  UNL     1     -13.353  -4.122  33.398  1.00  0.00     0.258 C 
BRANCH   4   5
HETATM    5  C4  UNL     1     -13.894  -2.889  34.085  1.00  0.00     0.195 C 
BRANCH   5   6
HETATM    6  O1  UNL     1     -14.431  -3.151  35.318  1.00  0.00    -0.388 OA
BRANCH   6   7
HETATM    7  C3  UNL     1     -14.449  -2.099  36.188  1.00  0.00     0.195 C 
BRANCH   7   8
HETATM    8  C2  UNL     1     -15.700  -2.171  37.069  1.00  0.00     0.258 C 
BRANCH   8   9
HETATM    9  N1  UNL     1     -16.505  -1.006  36.798  1.00  0.00    -0.077 N 
HETATM   10  C1  UNL     1     -15.770  -0.097  35.962  1.00  0.00     0.267 C 
ATOM     11  H12 UNL     1     -16.836  -0.560  37.654  1.00  0.00     0.276 HD
ATOM     12  H11 UNL     1     -17.412  -1.249  36.399  1.00  0.00     0.276 HD
ENDBRANCH   8   9
ENDBRANCH   7   8
ENDBRANCH   6   7
ENDBRANCH   5   6
ENDBRANCH   4   5
ENDBRANCH   1   4
BRANCH   1  13
HETATM   13  C6  UNL     1     -11.127  -4.632  32.602  1.00  0.00     0.232 C 
BRANCH  13  14
HETATM   14  C7  UNL     1     -11.253  -5.604  33.728  1.00  0.00     0.028 C 
BRANCH  14  15
HETATM   15  C8  UNL     1     -10.803  -6.986  33.497  1.00  0.00     0.006 C 
BRANCH  15  16
HETATM   16  C9  UNL     1     -11.555  -7.898  32.638  1.00  0.00    -0.014 C 
HETATM   17  C10 UNL     1     -13.057  -7.722  32.598  1.00  0.00     0.004 C 
HETATM   18  C11 UNL     1     -13.697  -8.920  32.002  1.00  0.00     0.000 C 
HETATM   19  C12 UNL     1     -12.926  -9.788  31.113  1.00  0.00     0.000 C 
HETATM   20  C13 UNL     1     -11.489  -9.485  30.856  1.00  0.00     0.000 C 
HETATM   21  C14 UNL     1     -11.128  -8.046  31.204  1.00  0.00     0.004 C 
ENDBRANCH  15  16
ENDBRANCH  14  15
ENDBRANCH  13  14
ENDBRANCH   1  13
TORSDOF 10
ENDMDL
