MODEL 1
REMARK VINA RESULT: -7.176944812      0.000      0.000
REMARK  11 active torsions:
REMARK  status: ('A' for Active; 'I' for Inactive)
REMARK    1  A    between atoms: S1_2  and  C2_3 
REMARK    2  A    between atoms: C2_3  and  C3_4 
REMARK    3  A    between atoms: C3_4  and  C4_5 
REMARK    4  A    between atoms: C4_5  and  N1_6 
REMARK    5  A    between atoms: C4_5  and  C5_10 
REMARK       I    between atoms: C5_10  and  N2_12 
REMARK    6  A    between atoms: N2_12  and  C6_14 
REMARK    7  A    between atoms: C9_18  and  C10_19 
REMARK       I    between atoms: N4_27  and  C14_28 
REMARK       I    between atoms: C14_28  and  N5_30 
REMARK    8  A    between atoms: N5_30  and  N6_32 
REMARK    9  A    between atoms: C15_35  and  O6_36 
REMARK   10  A    between atoms: C18_41  and  C19_42 
REMARK   11  A    between atoms: C20_45  and  O10_46 
ROOT
HETATM    1  C6  UNL     1       4.081   5.950  49.350  1.00  0.00     0.072 A 
HETATM    2  C7  UNL     1       4.879   4.872  49.109  1.00  0.00     0.070 A 
HETATM    3  C8  UNL     1       5.121   3.979  50.148  1.00  0.00     0.094 A 
HETATM    4  O2  UNL     1       5.887   2.945  49.921  1.00  0.00    -0.304 OA
HETATM    5  C9  UNL     1       6.210   2.017  50.788  1.00  0.00     0.141 A 
HETATM    6  C15 UNL     1       5.715   2.105  52.065  1.00  0.00     0.153 A 
HETATM    7  C16 UNL     1       4.888   3.193  52.373  1.00  0.00     0.222 A 
HETATM    8  O7  UNL     1       4.461   3.240  53.533  1.00  0.00    -0.284 OA
HETATM    9  C17 UNL     1       4.580   4.140  51.429  1.00  0.00     0.071 A 
HETATM   10  C18 UNL     1       3.780   5.220  51.669  1.00  0.00     0.093 A 
HETATM   11  C20 UNL     1       3.525   6.137  50.625  1.00  0.00     0.110 A 
ENDROOT
BRANCH   5  12
HETATM   12  C10 UNL     1       7.079   0.908  50.407  1.00  0.00     0.091 A 
HETATM   13  C11 UNL     1       6.420  -0.195  49.853  1.00  0.00     0.107 A 
HETATM   14  C12 UNL     1       7.172  -1.303  49.550  1.00  0.00     0.251 A 
HETATM   15  O3  UNL     1       6.602  -2.308  49.049  1.00  0.00    -0.268 OA
HETATM   16  N3  UNL     1       8.485  -1.285  49.794  1.00  0.00    -0.275 N 
HETATM   17  C13 UNL     1       9.108  -0.246  50.314  1.00  0.00     0.338 A 
ATOM     18  H3  UNL     1       9.032  -2.116  49.567  1.00  0.00     0.173 HD
HETATM   19  O4  UNL     1      10.344  -0.279  50.526  1.00  0.00    -0.246 OA
HETATM   20  N4  UNL     1       8.391   0.903  50.634  1.00  0.00    -0.211 N 
HETATM   21  C14 UNL     1       9.223   1.989  50.934  1.00  0.00     0.349 C 
HETATM   22  O5  UNL     1      10.383   1.728  51.429  1.00  0.00    -0.244 OA
HETATM   23  N5  UNL     1       8.958   3.330  50.746  1.00  0.00    -0.257 N 
ATOM     24  H5  UNL     1       8.066   3.611  50.338  1.00  0.00     0.191 HD
BRANCH  23  25
HETATM   25  N6  UNL     1       9.910   4.333  51.114  1.00  0.00    -0.341 N 
ATOM     26  H62 UNL     1       9.945   4.634  52.088  1.00  0.00     0.177 HD
ATOM     27  H61 UNL     1      10.541   4.742  50.424  1.00  0.00     0.177 HD
ENDBRANCH  23  25
ENDBRANCH   5  12
BRANCH   6  28
HETATM   28  O6  UNL     1       5.995   1.160  53.061  1.00  0.00    -0.355 OA
ATOM     29  H6  UNL     1       6.020   0.225  52.897  1.00  0.00     0.218 HD
ENDBRANCH   6  28
BRANCH   1  30
HETATM   30  N2  UNL     1       3.788   6.918  48.364  1.00  0.00    -0.323 N 
HETATM   31  C5  UNL     1       2.615   7.183  47.671  1.00  0.00     0.253 C 
HETATM   32  O1  UNL     1       1.569   6.519  47.872  1.00  0.00    -0.271 OA
ATOM     33  H2  UNL     1       4.571   7.525  48.120  1.00  0.00     0.169 HD
BRANCH  31  34
HETATM   34  C4  UNL     1       2.522   8.255  46.658  1.00  0.00     0.275 C 
BRANCH  34  35
HETATM   35  C3  UNL     1       2.917   9.624  47.093  1.00  0.00     0.053 C 
BRANCH  35  36
HETATM   36  C2  UNL     1       3.727  10.439  46.164  1.00  0.00     0.076 C 
BRANCH  36  37
HETATM   37  S1  UNL     1       3.926   9.703  44.557  1.00  0.00    -0.173 SA
HETATM   38  C1  UNL     1       3.673  10.877  43.212  1.00  0.00     0.089 C 
ENDBRANCH  36  37
ENDBRANCH  35  36
ENDBRANCH  34  35
BRANCH  34  39
HETATM   39  N1  UNL     1       1.052   8.365  46.396  1.00  0.00    -0.066 N 
ATOM     40  H13 UNL     1       0.532   8.848  47.129  1.00  0.00     0.275 HD
ATOM     41  H12 UNL     1       0.808   9.008  45.644  1.00  0.00     0.275 HD
ATOM     42  H11 UNL     1       0.755   7.403  46.236  1.00  0.00     0.275 HD
ENDBRANCH  34  39
ENDBRANCH  31  34
ENDBRANCH   1  30
BRANCH  10  43
HETATM   43  C19 UNL     1       3.171   5.485  52.938  1.00  0.00     0.213 C 
HETATM   44  O8  UNL     1       1.924   5.120  53.107  1.00  0.00    -0.644 OA
HETATM   45  O9  UNL     1       3.655   6.067  54.045  1.00  0.00    -0.644 OA
ENDBRANCH  10  43
BRANCH  11  46
HETATM   46  O10 UNL     1       2.755   7.172  50.860  1.00  0.00    -0.357 OA
ATOM     47  H10 UNL     1       2.587   7.446  51.753  1.00  0.00     0.217 HD
ENDBRANCH  11  46
TORSDOF 11
ENDMDL
MODEL 2
REMARK VINA RESULT: -7.167152452      1.656      2.753
REMARK  11 active torsions:
REMARK  status: ('A' for Active; 'I' for Inactive)
REMARK    1  A    between atoms: S1_2  and  C2_3 
REMARK    2  A    between atoms: C2_3  and  C3_4 
REMARK    3  A    between atoms: C3_4  and  C4_5 
REMARK    4  A    between atoms: C4_5  and  N1_6 
REMARK    5  A    between atoms: C4_5  and  C5_10 
REMARK       I    between atoms: C5_10  and  N2_12 
REMARK    6  A    between atoms: N2_12  and  C6_14 
REMARK    7  A    between atoms: C9_18  and  C10_19 
REMARK       I    between atoms: N4_27  and  C14_28 
REMARK       I    between atoms: C14_28  and  N5_30 
REMARK    8  A    between atoms: N5_30  and  N6_32 
REMARK    9  A    between atoms: C15_35  and  O6_36 
REMARK   10  A    between atoms: C18_41  and  C19_42 
REMARK   11  A    between atoms: C20_45  and  O10_46 
ROOT
HETATM    1  C6  UNL     1       3.578   6.610  49.056  1.00  0.00     0.072 A 
HETATM    2  C7  UNL     1       4.522   5.627  49.078  1.00  0.00     0.070 A 
HETATM    3  C8  UNL     1       4.661   4.864  50.233  1.00  0.00     0.094 A 
HETATM    4  O2  UNL     1       5.566   3.922  50.257  1.00  0.00    -0.304 OA
HETATM    5  C9  UNL     1       5.820   3.120  51.262  1.00  0.00     0.141 A 
HETATM    6  C15 UNL     1       5.085   3.251  52.414  1.00  0.00     0.153 A 
HETATM    7  C16 UNL     1       4.099   4.245  52.452  1.00  0.00     0.222 A 
HETATM    8  O7  UNL     1       3.458   4.335  53.506  1.00  0.00    -0.284 OA
HETATM    9  C17 UNL     1       3.873   5.062  51.372  1.00  0.00     0.071 A 
HETATM   10  C18 UNL     1       2.927   6.046  51.349  1.00  0.00     0.093 A 
HETATM   11  C20 UNL     1       2.774   6.831  50.184  1.00  0.00     0.110 A 
ENDROOT
BRANCH   5  12
HETATM   12  C10 UNL     1       6.863   2.104  51.163  1.00  0.00     0.091 A 
HETATM   13  C11 UNL     1       8.165   2.569  51.381  1.00  0.00     0.107 A 
HETATM   14  C12 UNL     1       9.196   1.678  51.221  1.00  0.00     0.251 A 
HETATM   15  O3  UNL     1      10.377   2.072  51.413  1.00  0.00    -0.268 OA
HETATM   16  N3  UNL     1       8.922   0.420  50.867  1.00  0.00    -0.275 N 
HETATM   17  C13 UNL     1       7.696  -0.021  50.664  1.00  0.00     0.338 A 
ATOM     18  H3  UNL     1       9.698  -0.231  50.749  1.00  0.00     0.173 HD
HETATM   19  O4  UNL     1       7.489  -1.213  50.331  1.00  0.00    -0.246 OA
HETATM   20  N4  UNL     1       6.615   0.842  50.817  1.00  0.00    -0.211 N 
HETATM   21  C14 UNL     1       5.386   0.169  50.815  1.00  0.00     0.349 C 
HETATM   22  O5  UNL     1       5.314  -0.930  50.148  1.00  0.00    -0.244 OA
HETATM   23  N5  UNL     1       4.225   0.535  51.464  1.00  0.00    -0.257 N 
ATOM     24  H5  UNL     1       4.214   1.383  52.029  1.00  0.00     0.191 HD
BRANCH  23  25
HETATM   25  N6  UNL     1       3.036  -0.255  51.358  1.00  0.00    -0.341 N 
ATOM     26  H62 UNL     1       2.850  -0.950  52.082  1.00  0.00     0.177 HD
ATOM     27  H61 UNL     1       2.386  -0.133  50.581  1.00  0.00     0.177 HD
ENDBRANCH  23  25
ENDBRANCH   5  12
BRANCH   6  28
HETATM   28  O6  UNL     1       5.275   2.438  53.539  1.00  0.00    -0.355 OA
ATOM     29  H6  UNL     1       5.874   2.659  54.244  1.00  0.00     0.218 HD
ENDBRANCH   6  28
BRANCH   1  30
HETATM   30  N2  UNL     1       3.372   7.445  47.936  1.00  0.00    -0.323 N 
HETATM   31  C5  UNL     1       2.303   7.537  47.055  1.00  0.00     0.253 C 
HETATM   32  O1  UNL     1       1.289   6.808  47.176  1.00  0.00    -0.271 OA
ATOM     33  H2  UNL     1       4.139   8.090  47.741  1.00  0.00     0.169 HD
BRANCH  31  34
HETATM   34  C4  UNL     1       2.290   8.490  45.926  1.00  0.00     0.275 C 
BRANCH  34  35
HETATM   35  C3  UNL     1       3.151   9.698  46.059  1.00  0.00     0.053 C 
BRANCH  35  36
HETATM   36  C2  UNL     1       4.079  10.013  44.953  1.00  0.00     0.076 C 
BRANCH  36  37
HETATM   37  S1  UNL     1       3.418   9.649  43.342  1.00  0.00    -0.173 SA
HETATM   38  C1  UNL     1       4.614   8.842  42.260  1.00  0.00     0.089 C 
ENDBRANCH  36  37
ENDBRANCH  35  36
ENDBRANCH  34  35
BRANCH  34  39
HETATM   39  N1  UNL     1       0.895   9.032  45.939  1.00  0.00    -0.066 N 
ATOM     40  H13 UNL     1       0.573   9.335  46.858  1.00  0.00     0.275 HD
ATOM     41  H12 UNL     1       0.793   9.937  45.481  1.00  0.00     0.275 HD
ATOM     42  H11 UNL     1       0.335   8.287  45.523  1.00  0.00     0.275 HD
ENDBRANCH  34  39
ENDBRANCH  31  34
ENDBRANCH   1  30
BRANCH  10  43
HETATM   43  C19 UNL     1       2.063   6.337  52.454  1.00  0.00     0.213 C 
HETATM   44  O8  UNL     1       0.821   5.923  52.386  1.00  0.00    -0.644 OA
HETATM   45  O9  UNL     1       2.290   6.987  53.605  1.00  0.00    -0.644 OA
ENDBRANCH  10  43
BRANCH  11  46
HETATM   46  O10 UNL     1       1.863   7.774  50.167  1.00  0.00    -0.357 OA
ATOM     47  H10 UNL     1       0.943   7.547  50.209  1.00  0.00     0.217 HD
ENDBRANCH  11  46
TORSDOF 11
ENDMDL
MODEL 3
REMARK VINA RESULT: -7.087499065      1.794      1.834
REMARK  11 active torsions:
REMARK  status: ('A' for Active; 'I' for Inactive)
REMARK    1  A    between atoms: S1_2  and  C2_3 
REMARK    2  A    between atoms: C2_3  and  C3_4 
REMARK    3  A    between atoms: C3_4  and  C4_5 
REMARK    4  A    between atoms: C4_5  and  N1_6 
REMARK    5  A    between atoms: C4_5  and  C5_10 
REMARK       I    between atoms: C5_10  and  N2_12 
REMARK    6  A    between atoms: N2_12  and  C6_14 
REMARK    7  A    between atoms: C9_18  and  C10_19 
REMARK       I    between atoms: N4_27  and  C14_28 
REMARK       I    between atoms: C14_28  and  N5_30 
REMARK    8  A    between atoms: N5_30  and  N6_32 
REMARK    9  A    between atoms: C15_35  and  O6_36 
REMARK   10  A    between atoms: C18_41  and  C19_42 
REMARK   11  A    between atoms: C20_45  and  O10_46 
ROOT
HETATM    1  C6  UNL     1       3.876   6.088  49.324  1.00  0.00     0.072 A 
HETATM    2  C7  UNL     1       4.812   5.295  48.729  1.00  0.00     0.070 A 
HETATM    3  C8  UNL     1       5.384   4.269  49.473  1.00  0.00     0.094 A 
HETATM    4  O2  UNL     1       6.282   3.508  48.904  1.00  0.00    -0.304 OA
HETATM    5  C9  UNL     1       6.911   2.504  49.465  1.00  0.00     0.141 A 
HETATM    6  C15 UNL     1       6.624   2.191  50.770  1.00  0.00     0.153 A 
HETATM    7  C16 UNL     1       5.670   2.970  51.436  1.00  0.00     0.222 A 
HETATM    8  O7  UNL     1       5.438   2.660  52.611  1.00  0.00    -0.284 OA
HETATM    9  C17 UNL     1       5.040   4.013  50.805  1.00  0.00     0.071 A 
HETATM   10  C18 UNL     1       4.102   4.806  51.400  1.00  0.00     0.093 A 
HETATM   11  C20 UNL     1       3.512   5.855  50.659  1.00  0.00     0.110 A 
ENDROOT
BRANCH   5  12
HETATM   12  C10 UNL     1       7.898   1.730  48.720  1.00  0.00     0.091 A 
HETATM   13  C11 UNL     1       7.432   0.512  48.210  1.00  0.00     0.107 A 
HETATM   14  C12 UNL     1       8.334  -0.300  47.570  1.00  0.00     0.251 A 
HETATM   15  O3  UNL     1       7.938  -1.400  47.101  1.00  0.00    -0.268 OA
HETATM   16  N3  UNL     1       9.604   0.097  47.460  1.00  0.00    -0.275 N 
HETATM   17  C13 UNL     1      10.045   1.245  47.936  1.00  0.00     0.338 A 
ATOM     18  H3  UNL     1      10.265  -0.517  46.984  1.00  0.00     0.173 HD
HETATM   19  O4  UNL     1      11.250   1.573  47.809  1.00  0.00    -0.246 OA
HETATM   20  N4  UNL     1       9.169   2.106  48.591  1.00  0.00    -0.211 N 
HETATM   21  C14 UNL     1       9.724   3.373  48.808  1.00  0.00     0.349 C 
HETATM   22  O5  UNL     1      11.003   3.445  48.940  1.00  0.00    -0.244 OA
HETATM   23  N5  UNL     1       9.062   4.581  48.885  1.00  0.00    -0.257 N 
ATOM     24  H5  UNL     1       8.049   4.604  48.769  1.00  0.00     0.191 HD
BRANCH  23  25
HETATM   25  N6  UNL     1       9.770   5.802  49.125  1.00  0.00    -0.341 N 
ATOM     26  H62 UNL     1       9.486   6.379  49.916  1.00  0.00     0.177 HD
ATOM     27  H61 UNL     1      10.540   6.094  48.523  1.00  0.00     0.177 HD
ENDBRANCH  23  25
ENDBRANCH   5  12
BRANCH   6  28
HETATM   28  O6  UNL     1       7.235   1.133  51.455  1.00  0.00    -0.355 OA
ATOM     29  H6  UNL     1       7.385   1.139  52.394  1.00  0.00     0.218 HD
ENDBRANCH   6  28
BRANCH   1  30
HETATM   30  N2  UNL     1       3.251   7.163  48.656  1.00  0.00    -0.323 N 
HETATM   31  C5  UNL     1       2.066   7.218  47.934  1.00  0.00     0.253 C 
HETATM   32  O1  UNL     1       1.341   6.205  47.784  1.00  0.00    -0.271 OA
ATOM     33  H2  UNL     1       3.753   8.049  48.714  1.00  0.00     0.169 HD
BRANCH  31  34
HETATM   34  C4  UNL     1       1.587   8.463  47.299  1.00  0.00     0.275 C 
BRANCH  34  35
HETATM   35  C3  UNL     1       1.844   8.613  45.839  1.00  0.00     0.053 C 
BRANCH  35  36
HETATM   36  C2  UNL     1       3.150   9.160  45.419  1.00  0.00     0.076 C 
BRANCH  36  37
HETATM   37  S1  UNL     1       3.209   9.629  43.704  1.00  0.00    -0.173 SA
HETATM   38  C1  UNL     1       4.713   9.075  42.877  1.00  0.00     0.089 C 
ENDBRANCH  36  37
ENDBRANCH  35  36
ENDBRANCH  34  35
BRANCH  34  39
HETATM   39  N1  UNL     1       2.429   9.527  47.930  1.00  0.00    -0.066 N 
ATOM     40  H13 UNL     1       3.257   9.175  48.409  1.00  0.00     0.275 HD
ATOM     41  H12 UNL     1       2.929  10.116  47.264  1.00  0.00     0.275 HD
ATOM     42  H11 UNL     1       1.780  10.034  48.531  1.00  0.00     0.275 HD
ENDBRANCH  34  39
ENDBRANCH  31  34
ENDBRANCH   1  30
BRANCH  10  43
HETATM   43  C19 UNL     1       3.670   4.639  52.755  1.00  0.00     0.213 C 
HETATM   44  O8  UNL     1       2.561   3.972  52.967  1.00  0.00    -0.644 OA
HETATM   45  O9  UNL     1       4.208   5.054  53.911  1.00  0.00    -0.644 OA
ENDBRANCH  10  43
BRANCH  11  46
HETATM   46  O10 UNL     1       2.611   6.614  51.235  1.00  0.00    -0.357 OA
ATOM     47  H10 UNL     1       2.361   6.455  52.137  1.00  0.00     0.217 HD
ENDBRANCH  11  46
TORSDOF 11
ENDMDL
MODEL 4
REMARK VINA RESULT: -7.073819393      4.299      7.665
REMARK  11 active torsions:
REMARK  status: ('A' for Active; 'I' for Inactive)
REMARK    1  A    between atoms: S1_2  and  C2_3 
REMARK    2  A    between atoms: C2_3  and  C3_4 
REMARK    3  A    between atoms: C3_4  and  C4_5 
REMARK    4  A    between atoms: C4_5  and  N1_6 
REMARK    5  A    between atoms: C4_5  and  C5_10 
REMARK       I    between atoms: C5_10  and  N2_12 
REMARK    6  A    between atoms: N2_12  and  C6_14 
REMARK    7  A    between atoms: C9_18  and  C10_19 
REMARK       I    between atoms: N4_27  and  C14_28 
REMARK       I    between atoms: C14_28  and  N5_30 
REMARK    8  A    between atoms: N5_30  and  N6_32 
REMARK    9  A    between atoms: C15_35  and  O6_36 
REMARK   10  A    between atoms: C18_41  and  C19_42 
REMARK   11  A    between atoms: C20_45  and  O10_46 
ROOT
HETATM    1  C6  UNL     1       2.488   6.737  49.773  1.00  0.00     0.072 A 
HETATM    2  C7  UNL     1       1.323   6.492  50.436  1.00  0.00     0.070 A 
HETATM    3  C8  UNL     1       1.265   5.403  51.299  1.00  0.00     0.094 A 
HETATM    4  O2  UNL     1       0.149   5.165  51.935  1.00  0.00    -0.304 OA
HETATM    5  C9  UNL     1      -0.066   4.186  52.779  1.00  0.00     0.141 A 
HETATM    6  C15 UNL     1       0.954   3.308  53.046  1.00  0.00     0.153 A 
HETATM    7  C16 UNL     1       2.178   3.508  52.395  1.00  0.00     0.222 A 
HETATM    8  O7  UNL     1       3.074   2.697  52.659  1.00  0.00    -0.284 OA
HETATM    9  C17 UNL     1       2.352   4.549  51.517  1.00  0.00     0.071 A 
HETATM   10  C18 UNL     1       3.520   4.795  50.854  1.00  0.00     0.093 A 
HETATM   11  C20 UNL     1       3.595   5.897  49.972  1.00  0.00     0.110 A 
ENDROOT
BRANCH   5  12
HETATM   12  C10 UNL     1      -1.365   4.028  53.426  1.00  0.00     0.091 A 
HETATM   13  C11 UNL     1      -1.478   4.637  54.681  1.00  0.00     0.107 A 
HETATM   14  C12 UNL     1      -2.647   4.455  55.376  1.00  0.00     0.251 A 
HETATM   15  O3  UNL     1      -2.774   4.995  56.507  1.00  0.00    -0.268 OA
HETATM   16  N3  UNL     1      -3.618   3.714  54.836  1.00  0.00    -0.275 N 
HETATM   17  C13 UNL     1      -3.515   3.141  53.653  1.00  0.00     0.338 A 
ATOM     18  H3  UNL     1      -4.481   3.584  55.365  1.00  0.00     0.173 HD
HETATM   19  O4  UNL     1      -4.455   2.452  53.189  1.00  0.00    -0.246 OA
HETATM   20  N4  UNL     1      -2.351   3.298  52.906  1.00  0.00    -0.211 N 
HETATM   21  C14 UNL     1      -2.494   2.849  51.587  1.00  0.00     0.349 C 
HETATM   22  O5  UNL     1      -3.339   1.901  51.373  1.00  0.00    -0.244 OA
HETATM   23  N5  UNL     1      -1.843   3.314  50.464  1.00  0.00    -0.257 N 
ATOM     24  H5  UNL     1      -1.174   4.079  50.554  1.00  0.00     0.191 HD
BRANCH  23  25
HETATM   25  N6  UNL     1      -2.088   2.743  49.174  1.00  0.00    -0.341 N 
ATOM     26  H62 UNL     1      -2.891   3.077  48.641  1.00  0.00     0.177 HD
ATOM     27  H61 UNL     1      -1.479   2.019  48.791  1.00  0.00     0.177 HD
ENDBRANCH  23  25
ENDBRANCH   5  12
BRANCH   6  28
HETATM   28  O6  UNL     1       0.827   2.235  53.938  1.00  0.00    -0.355 OA
ATOM     29  H6  UNL     1       1.182   1.371  53.765  1.00  0.00     0.218 HD
ENDBRANCH   6  28
BRANCH   1  30
HETATM   30  N2  UNL     1       2.639   7.809  48.866  1.00  0.00    -0.323 N 
HETATM   31  C5  UNL     1       2.138   7.992  47.584  1.00  0.00     0.253 C 
HETATM   32  O1  UNL     1       1.412   7.129  47.034  1.00  0.00    -0.271 OA
ATOM     33  H2  UNL     1       3.213   8.578  49.211  1.00  0.00     0.169 HD
BRANCH  31  34
HETATM   34  C4  UNL     1       2.426   9.204  46.790  1.00  0.00     0.275 C 
BRANCH  34  35
HETATM   35  C3  UNL     1       2.572   9.023  45.319  1.00  0.00     0.053 C 
BRANCH  35  36
HETATM   36  C2  UNL     1       3.726   9.661  44.653  1.00  0.00     0.076 C 
BRANCH  36  37
HETATM   37  S1  UNL     1       3.577   9.734  42.882  1.00  0.00    -0.173 SA
HETATM   38  C1  UNL     1       4.764   8.674  42.034  1.00  0.00     0.089 C 
ENDBRANCH  36  37
ENDBRANCH  35  36
ENDBRANCH  34  35
BRANCH  34  39
HETATM   39  N1  UNL     1       3.794   9.606  47.246  1.00  0.00    -0.066 N 
ATOM     40  H13 UNL     1       4.497   8.873  47.155  1.00  0.00     0.275 HD
ATOM     41  H12 UNL     1       4.257  10.281  46.637  1.00  0.00     0.275 HD
ATOM     42  H11 UNL     1       3.652   9.934  48.201  1.00  0.00     0.275 HD
ENDBRANCH  34  39
ENDBRANCH  31  34
ENDBRANCH   1  30
BRANCH  10  43
HETATM   43  C19 UNL     1       4.696   3.991  51.000  1.00  0.00     0.213 C 
HETATM   44  O8  UNL     1       4.946   3.099  50.073  1.00  0.00    -0.644 OA
HETATM   45  O9  UNL     1       5.641   3.973  51.951  1.00  0.00    -0.644 OA
ENDBRANCH  10  43
BRANCH  11  46
HETATM   46  O10 UNL     1       4.718   6.130  49.338  1.00  0.00    -0.357 OA
ATOM     47  H10 UNL     1       4.868   5.751  48.480  1.00  0.00     0.217 HD
ENDBRANCH  11  46
TORSDOF 11
ENDMDL
MODEL 5
REMARK VINA RESULT: -6.903714724      4.384      7.929
REMARK  11 active torsions:
REMARK  status: ('A' for Active; 'I' for Inactive)
REMARK    1  A    between atoms: S1_2  and  C2_3 
REMARK    2  A    between atoms: C2_3  and  C3_4 
REMARK    3  A    between atoms: C3_4  and  C4_5 
REMARK    4  A    between atoms: C4_5  and  N1_6 
REMARK    5  A    between atoms: C4_5  and  C5_10 
REMARK       I    between atoms: C5_10  and  N2_12 
REMARK    6  A    between atoms: N2_12  and  C6_14 
REMARK    7  A    between atoms: C9_18  and  C10_19 
REMARK       I    between atoms: N4_27  and  C14_28 
REMARK       I    between atoms: C14_28  and  N5_30 
REMARK    8  A    between atoms: N5_30  and  N6_32 
REMARK    9  A    between atoms: C15_35  and  O6_36 
REMARK   10  A    between atoms: C18_41  and  C19_42 
REMARK   11  A    between atoms: C20_45  and  O10_46 
ROOT
HETATM    1  C6  UNL     1       2.395   6.419  50.175  1.00  0.00     0.072 A 
HETATM    2  C7  UNL     1       1.215   6.314  50.849  1.00  0.00     0.070 A 
HETATM    3  C8  UNL     1       1.129   5.412  51.903  1.00  0.00     0.094 A 
HETATM    4  O2  UNL     1      -0.002   5.309  52.550  1.00  0.00    -0.304 OA
HETATM    5  C9  UNL     1      -0.244   4.511  53.561  1.00  0.00     0.141 A 
HETATM    6  C15 UNL     1       0.761   3.693  54.012  1.00  0.00     0.153 A 
HETATM    7  C16 UNL     1       1.999   3.755  53.359  1.00  0.00     0.222 A 
HETATM    8  O7  UNL     1       2.880   3.002  53.793  1.00  0.00    -0.284 OA
HETATM    9  C17 UNL     1       2.201   4.607  52.303  1.00  0.00     0.071 A 
HETATM   10  C18 UNL     1       3.384   4.712  51.629  1.00  0.00     0.093 A 
HETATM   11  C20 UNL     1       3.488   5.624  50.553  1.00  0.00     0.110 A 
ENDROOT
BRANCH   5  12
HETATM   12  C10 UNL     1      -1.556   4.490  54.200  1.00  0.00     0.091 A 
HETATM   13  C11 UNL     1      -1.683   5.324  55.317  1.00  0.00     0.107 A 
HETATM   14  C12 UNL     1      -2.867   5.287  56.010  1.00  0.00     0.251 A 
HETATM   15  O3  UNL     1      -3.006   6.029  57.018  1.00  0.00    -0.268 OA
HETATM   16  N3  UNL     1      -3.838   4.469  55.598  1.00  0.00    -0.275 N 
HETATM   17  C13 UNL     1      -3.722   3.684  54.545  1.00  0.00     0.338 A 
ATOM     18  H3  UNL     1      -4.712   4.449  56.124  1.00  0.00     0.173 HD
HETATM   19  O4  UNL     1      -4.664   2.931  54.198  1.00  0.00    -0.246 OA
HETATM   20  N4  UNL     1      -2.543   3.688  53.805  1.00  0.00    -0.211 N 
HETATM   21  C14 UNL     1      -2.669   3.002  52.590  1.00  0.00     0.349 C 
HETATM   22  O5  UNL     1      -3.524   2.040  52.539  1.00  0.00    -0.244 OA
HETATM   23  N5  UNL     1      -1.991   3.243  51.413  1.00  0.00    -0.257 N 
ATOM     24  H5  UNL     1      -1.313   4.003  51.373  1.00  0.00     0.191 HD
BRANCH  23  25
HETATM   25  N6  UNL     1      -2.222   2.444  50.248  1.00  0.00    -0.341 N 
ATOM     26  H62 UNL     1      -2.778   1.594  50.344  1.00  0.00     0.177 HD
ATOM     27  H61 UNL     1      -1.842   2.712  49.339  1.00  0.00     0.177 HD
ENDBRANCH  23  25
ENDBRANCH   5  12
BRANCH   6  28
HETATM   28  O6  UNL     1       0.604   2.812  55.090  1.00  0.00    -0.355 OA
ATOM     29  H6  UNL     1       0.903   3.010  55.971  1.00  0.00     0.218 HD
ENDBRANCH   6  28
BRANCH   1  30
HETATM   30  N2  UNL     1       2.575   7.295  49.083  1.00  0.00    -0.323 N 
HETATM   31  C5  UNL     1       2.029   7.281  47.806  1.00  0.00     0.253 C 
HETATM   32  O1  UNL     1       1.223   6.389  47.447  1.00  0.00    -0.271 OA
ATOM     33  H2  UNL     1       3.214   8.070  49.262  1.00  0.00     0.169 HD
BRANCH  31  34
HETATM   34  C4  UNL     1       2.361   8.306  46.795  1.00  0.00     0.275 C 
BRANCH  34  35
HETATM   35  C3  UNL     1       2.943   9.581  47.299  1.00  0.00     0.053 C 
BRANCH  35  36
HETATM   36  C2  UNL     1       3.643  10.452  46.332  1.00  0.00     0.076 C 
BRANCH  36  37
HETATM   37  S1  UNL     1       3.969   9.667  44.770  1.00  0.00    -0.173 SA
HETATM   38  C1  UNL     1       3.685  10.760  43.364  1.00  0.00     0.089 C 
ENDBRANCH  36  37
ENDBRANCH  35  36
ENDBRANCH  34  35
BRANCH  34  39
HETATM   39  N1  UNL     1       1.026   8.705  46.248  1.00  0.00    -0.066 N 
ATOM     40  H13 UNL     1       0.262   8.639  46.920  1.00  0.00     0.275 HD
ATOM     41  H12 UNL     1       0.929   9.703  46.066  1.00  0.00     0.275 HD
ATOM     42  H11 UNL     1       0.909   8.117  45.423  1.00  0.00     0.275 HD
ENDBRANCH  34  39
ENDBRANCH  31  34
ENDBRANCH   1  30
BRANCH  10  43
HETATM   43  C19 UNL     1       4.548   3.942  51.949  1.00  0.00     0.213 C 
HETATM   44  O8  UNL     1       4.795   2.877  51.226  1.00  0.00    -0.644 OA
HETATM   45  O9  UNL     1       5.482   4.106  52.896  1.00  0.00    -0.644 OA
ENDBRANCH  10  43
BRANCH  11  46
HETATM   46  O10 UNL     1       4.625   5.722  49.909  1.00  0.00    -0.357 OA
ATOM     47  H10 UNL     1       5.319   6.273  50.251  1.00  0.00     0.217 HD
ENDBRANCH  11  46
TORSDOF 11
ENDMDL
