MODEL 1
REMARK VINA RESULT: -7.107410249      0.000      0.000
REMARK  16 active torsions:
REMARK  status: ('A' for Active; 'I' for Inactive)
REMARK    1  A    between atoms: N1_2  and  C2_3 
REMARK    2  A    between atoms: N1_2  and  C15_26 
REMARK    3  A    between atoms: C2_3  and  C3_4 
REMARK    4  A    between atoms: N2_11  and  C10_13 
REMARK    5  A    between atoms: C10_13  and  O1_14 
REMARK    6  A    between atoms: C10_13  and  O2_16 
REMARK    7  A    between atoms: C11_18  and  C12_19 
REMARK    8  A    between atoms: C13_20  and  N3_21 
REMARK    9  A    between atoms: N7_34  and  C19_35 
REMARK   10  A    between atoms: C19_35  and  O3_36 
REMARK   11  A    between atoms: O3_36  and  C20_37 
REMARK   12  A    between atoms: C20_37  and  C21_38 
REMARK   13  A    between atoms: C20_37  and  C22_41 
REMARK   14  A    between atoms: C21_38  and  O4_39 
REMARK   15  A    between atoms: C22_41  and  O5_42 
REMARK   16  A    between atoms: C24_46  and  N9_47 
ROOT
HETATM    1  C1  UNL     1      -0.410   2.275  50.786  1.00  0.00     0.151 C 
HETATM    2  N1  UNL     1       0.303   3.318  51.482  1.00  0.00    -0.364 N 
ENDROOT
BRANCH   2   3
HETATM    3  C2  UNL     1      -0.135   3.822  52.759  1.00  0.00     0.162 C 
BRANCH   3   4
HETATM    4  C3  UNL     1       0.240   2.949  53.888  1.00  0.00    -0.039 A 
HETATM    5  C4  UNL     1      -0.414   1.780  54.209  1.00  0.00     0.010 A 
HETATM    6  C5  UNL     1      -0.040   0.986  55.271  1.00  0.00     0.015 A 
HETATM    7  C6  UNL     1       1.026   1.359  56.052  1.00  0.00     0.002 A 
HETATM    8  C7  UNL     1       1.714   2.539  55.757  1.00  0.00     0.005 A 
HETATM    9  C14 UNL     1       1.631   0.732  57.211  1.00  0.00     0.078 A 
HETATM   10  C8  UNL     1       1.323   3.318  54.691  1.00  0.00     0.023 A 
HETATM   11  C9  UNL     1       2.761   2.626  56.764  1.00  0.00     0.064 A 
HETATM   12  N2  UNL     1       3.642   3.504  56.926  1.00  0.00    -0.340 N 
HETATM   13  C11 UNL     1       2.643   1.430  57.661  1.00  0.00     0.071 A 
ATOM     14  H2  UNL     1       4.256   3.317  57.718  1.00  0.00     0.164 HD
HETATM   15  N4  UNL     1       1.224  -0.503  57.842  1.00  0.00    -0.100 NA
BRANCH  12  16
HETATM   16  C10 UNL     1       3.962   4.692  56.243  1.00  0.00     0.365 C 
BRANCH  16  17
HETATM   17  O1  UNL     1       4.760   4.414  55.084  1.00  0.00    -0.355 OA
ATOM     18  H1  UNL     1       4.417   4.866  54.323  1.00  0.00     0.214 HD
ENDBRANCH  16  17
BRANCH  16  19
HETATM   19  O2  UNL     1       4.740   5.568  57.038  1.00  0.00    -0.355 OA
ATOM     20  H2  UNL     1       4.672   6.470  56.746  1.00  0.00     0.214 HD
ENDBRANCH  16  19
ENDBRANCH  12  16
BRANCH  13  21
HETATM   21  C12 UNL     1       3.508   1.167  58.776  1.00  0.00    -0.040 C 
HETATM   22  C13 UNL     1       4.245   0.951  59.728  1.00  0.00     0.009 C 
BRANCH  22  23
HETATM   23  N3  UNL     1       5.082   0.682  60.817  1.00  0.00    -0.359 N 
ATOM     24  H32 UNL     1       5.053   0.587  59.802  1.00  0.00     0.166 HD
ATOM     25  H31 UNL     1       5.681   0.491  61.622  1.00  0.00     0.166 HD
ENDBRANCH  22  23
ENDBRANCH  13  21
ENDBRANCH   3   4
ENDBRANCH   2   3
BRANCH   2  26
HETATM   26  C15 UNL     1       1.464   3.858  50.888  1.00  0.00     0.149 A 
HETATM   27  N5  UNL     1       1.437   5.060  50.336  1.00  0.00    -0.322 N 
HETATM   28  C16 UNL     1       2.584   5.536  49.776  1.00  0.00     0.157 A 
ATOM     29  H5  UNL     1       0.581   5.615  50.329  1.00  0.00     0.169 HD
HETATM   30  C17 UNL     1       3.750   4.823  49.764  1.00  0.00     0.155 A 
HETATM   31  N7  UNL     1       2.841   6.712  49.153  1.00  0.00    -0.304 N 
HETATM   32  N6  UNL     1       4.720   5.536  49.146  1.00  0.00    -0.335 N 
HETATM   33  N8  UNL     1       3.757   3.587  50.337  1.00  0.00    -0.318 N 
HETATM   34  C18 UNL     1       4.129   6.695  48.781  1.00  0.00     0.188 A 
ATOM     35  H6  UNL     1       5.689   5.259  48.990  1.00  0.00     0.168 HD
HETATM   36  C23 UNL     1       4.988   2.831  50.327  1.00  0.00     0.159 C 
HETATM   37  C24 UNL     1       2.618   3.120  50.890  1.00  0.00     0.147 A 
BRANCH  37  38
HETATM   38  N9  UNL     1       2.601   1.955  51.439  1.00  0.00    -0.382 N 
ATOM     39  H92 UNL     1       2.213   1.160  50.932  1.00  0.00     0.157 HD
ATOM     40  H91 UNL     1       2.982   1.855  52.380  1.00  0.00     0.157 HD
ENDBRANCH  37  38
BRANCH  31  41
HETATM   41  C19 UNL     1       1.842   7.728  49.005  1.00  0.00     0.301 C 
BRANCH  41  42
HETATM   42  O3  UNL     1       2.393   8.968  48.813  1.00  0.00    -0.362 OA
BRANCH  42  43
HETATM   43  C20 UNL     1       2.118   9.534  47.614  1.00  0.00     0.170 C 
BRANCH  43  44
HETATM   44  C21 UNL     1       3.398   9.995  46.919  1.00  0.00     0.198 C 
BRANCH  44  45
HETATM   45  O4  UNL     1       3.271  11.260  46.397  1.00  0.00    -0.398 OA
ATOM     46  H4  UNL     1       3.642  11.920  46.971  1.00  0.00     0.209 HD
ENDBRANCH  44  45
ENDBRANCH  43  44
BRANCH  43  47
HETATM   47  C22 UNL     1       1.411   8.587  46.656  1.00  0.00     0.198 C 
BRANCH  47  48
HETATM   48  O5  UNL     1       0.979   9.325  45.572  1.00  0.00    -0.398 OA
ATOM     49  H5  UNL     1       1.248   8.869  44.783  1.00  0.00     0.209 HD
ENDBRANCH  47  48
ENDBRANCH  43  47
ENDBRANCH  42  43
ENDBRANCH  41  42
ENDBRANCH  31  41
ENDBRANCH   2  26
TORSDOF 16
ENDMDL
MODEL 2
REMARK VINA RESULT: -7.024790769      3.551      5.844
REMARK  16 active torsions:
REMARK  status: ('A' for Active; 'I' for Inactive)
REMARK    1  A    between atoms: N1_2  and  C2_3 
REMARK    2  A    between atoms: N1_2  and  C15_26 
REMARK    3  A    between atoms: C2_3  and  C3_4 
REMARK    4  A    between atoms: N2_11  and  C10_13 
REMARK    5  A    between atoms: C10_13  and  O1_14 
REMARK    6  A    between atoms: C10_13  and  O2_16 
REMARK    7  A    between atoms: C11_18  and  C12_19 
REMARK    8  A    between atoms: C13_20  and  N3_21 
REMARK    9  A    between atoms: N7_34  and  C19_35 
REMARK   10  A    between atoms: C19_35  and  O3_36 
REMARK   11  A    between atoms: O3_36  and  C20_37 
REMARK   12  A    between atoms: C20_37  and  C21_38 
REMARK   13  A    between atoms: C20_37  and  C22_41 
REMARK   14  A    between atoms: C21_38  and  O4_39 
REMARK   15  A    between atoms: C22_41  and  O5_42 
REMARK   16  A    between atoms: C24_46  and  N9_47 
ROOT
HETATM    1  C1  UNL     1       3.496  -1.299  51.379  1.00  0.00     0.151 C 
HETATM    2  N1  UNL     1       3.855  -0.131  52.146  1.00  0.00    -0.364 N 
ENDROOT
BRANCH   2   3
HETATM    3  C2  UNL     1       2.917   0.527  53.020  1.00  0.00     0.162 C 
BRANCH   3   4
HETATM    4  C3  UNL     1       2.730   1.956  52.703  1.00  0.00    -0.039 A 
HETATM    5  C4  UNL     1       2.141   2.417  51.546  1.00  0.00     0.010 A 
HETATM    6  C5  UNL     1       1.980   3.760  51.278  1.00  0.00     0.015 A 
HETATM    7  C6  UNL     1       2.419   4.688  52.189  1.00  0.00     0.002 A 
HETATM    8  C7  UNL     1       3.022   4.257  53.374  1.00  0.00     0.005 A 
HETATM    9  C14 UNL     1       2.383   6.138  52.173  1.00  0.00     0.078 A 
HETATM   10  C8  UNL     1       3.173   2.911  53.621  1.00  0.00     0.023 A 
HETATM   11  C9  UNL     1       3.359   5.477  54.091  1.00  0.00     0.064 A 
HETATM   12  N2  UNL     1       3.916   5.622  55.206  1.00  0.00    -0.340 N 
HETATM   13  C11 UNL     1       2.917   6.643  53.256  1.00  0.00     0.071 A 
ATOM     14  H2  UNL     1       4.033   6.598  55.475  1.00  0.00     0.164 HD
HETATM   15  N4  UNL     1       1.844   6.982  51.132  1.00  0.00    -0.100 NA
BRANCH  12  16
HETATM   16  C10 UNL     1       4.413   4.718  56.162  1.00  0.00     0.365 C 
BRANCH  16  17
HETATM   17  O1  UNL     1       3.339   4.036  56.825  1.00  0.00    -0.355 OA
ATOM     18  H1  UNL     1       3.501   3.100  56.854  1.00  0.00     0.214 HD
ENDBRANCH  16  17
BRANCH  16  19
HETATM   19  O2  UNL     1       5.134   5.375  57.189  1.00  0.00    -0.355 OA
ATOM     20  H2  UNL     1       4.631   5.441  57.992  1.00  0.00     0.214 HD
ENDBRANCH  16  19
ENDBRANCH  12  16
BRANCH  13  21
HETATM   21  C12 UNL     1       3.081   8.018  53.636  1.00  0.00    -0.040 C 
HETATM   22  C13 UNL     1       3.219   9.187  53.967  1.00  0.00     0.009 C 
BRANCH  22  23
HETATM   23  N3  UNL     1       3.389  10.529  54.328  1.00  0.00    -0.359 N 
ATOM     24  H32 UNL     1       3.869   9.631  54.381  1.00  0.00     0.166 HD
ATOM     25  H31 UNL     1       3.498  11.511  54.584  1.00  0.00     0.166 HD
ENDBRANCH  22  23
ENDBRANCH  13  21
ENDBRANCH   3   4
ENDBRANCH   2   3
BRANCH   2  26
HETATM   26  C15 UNL     1       5.167   0.378  52.032  1.00  0.00     0.149 A 
HETATM   27  N5  UNL     1       5.464   1.259  51.091  1.00  0.00    -0.322 N 
HETATM   28  C16 UNL     1       6.745   1.720  51.025  1.00  0.00     0.157 A 
ATOM     29  H5  UNL     1       4.755   1.585  50.435  1.00  0.00     0.169 HD
HETATM   30  C17 UNL     1       7.723   1.307  51.884  1.00  0.00     0.155 A 
HETATM   31  N7  UNL     1       7.320   2.609  50.178  1.00  0.00    -0.304 N 
HETATM   32  N6  UNL     1       8.889   1.925  51.586  1.00  0.00    -0.335 N 
HETATM   33  N8  UNL     1       7.397   0.398  52.846  1.00  0.00    -0.318 N 
HETATM   34  C18 UNL     1       8.609   2.720  50.532  1.00  0.00     0.188 A 
ATOM     35  H6  UNL     1       9.788   1.814  52.057  1.00  0.00     0.168 HD
HETATM   36  C23 UNL     1       8.428  -0.040  53.757  1.00  0.00     0.159 C 
HETATM   37  C24 UNL     1       6.127  -0.055  52.908  1.00  0.00     0.147 A 
BRANCH  37  38
HETATM   38  N9  UNL     1       5.795  -0.913  53.809  1.00  0.00    -0.382 N 
ATOM     39  H92 UNL     1       4.875  -0.861  54.246  1.00  0.00     0.157 HD
ATOM     40  H91 UNL     1       6.469  -1.635  54.066  1.00  0.00     0.157 HD
ENDBRANCH  37  38
BRANCH  31  41
HETATM   41  C19 UNL     1       6.576   3.272  49.150  1.00  0.00     0.301 C 
BRANCH  41  42
HETATM   42  O3  UNL     1       6.115   4.497  49.556  1.00  0.00    -0.362 OA
BRANCH  42  43
HETATM   43  C20 UNL     1       4.786   4.691  49.380  1.00  0.00     0.170 C 
BRANCH  43  44
HETATM   44  C21 UNL     1       4.501   6.109  48.885  1.00  0.00     0.198 C 
BRANCH  44  45
HETATM   45  O4  UNL     1       4.717   7.047  49.866  1.00  0.00    -0.398 OA
ATOM     46  H4  UNL     1       5.271   7.757  49.561  1.00  0.00     0.209 HD
ENDBRANCH  44  45
ENDBRANCH  43  44
BRANCH  43  47
HETATM   47  C22 UNL     1       4.172   3.736  48.368  1.00  0.00     0.198 C 
BRANCH  47  48
HETATM   48  O5  UNL     1       3.002   4.304  47.905  1.00  0.00    -0.398 OA
ATOM     49  H5  UNL     1       2.772   3.874  47.090  1.00  0.00     0.209 HD
ENDBRANCH  47  48
ENDBRANCH  43  47
ENDBRANCH  42  43
ENDBRANCH  41  42
ENDBRANCH  31  41
ENDBRANCH   2  26
TORSDOF 16
ENDMDL
MODEL 3
REMARK VINA RESULT: -6.958790938      2.899      4.465
REMARK  16 active torsions:
REMARK  status: ('A' for Active; 'I' for Inactive)
REMARK    1  A    between atoms: N1_2  and  C2_3 
REMARK    2  A    between atoms: N1_2  and  C15_26 
REMARK    3  A    between atoms: C2_3  and  C3_4 
REMARK    4  A    between atoms: N2_11  and  C10_13 
REMARK    5  A    between atoms: C10_13  and  O1_14 
REMARK    6  A    between atoms: C10_13  and  O2_16 
REMARK    7  A    between atoms: C11_18  and  C12_19 
REMARK    8  A    between atoms: C13_20  and  N3_21 
REMARK    9  A    between atoms: N7_34  and  C19_35 
REMARK   10  A    between atoms: C19_35  and  O3_36 
REMARK   11  A    between atoms: O3_36  and  C20_37 
REMARK   12  A    between atoms: C20_37  and  C21_38 
REMARK   13  A    between atoms: C20_37  and  C22_41 
REMARK   14  A    between atoms: C21_38  and  O4_39 
REMARK   15  A    between atoms: C22_41  and  O5_42 
REMARK   16  A    between atoms: C24_46  and  N9_47 
ROOT
HETATM    1  C1  UNL     1       1.665   7.789  54.789  1.00  0.00     0.151 C 
HETATM    2  N1  UNL     1       2.495   6.846  54.081  1.00  0.00    -0.364 N 
ENDROOT
BRANCH   2   3
HETATM    3  C2  UNL     1       3.786   6.440  54.579  1.00  0.00     0.162 C 
BRANCH   3   4
HETATM    4  C3  UNL     1       3.914   4.980  54.741  1.00  0.00    -0.039 A 
HETATM    5  C4  UNL     1       3.636   4.308  55.911  1.00  0.00     0.010 A 
HETATM    6  C5  UNL     1       3.765   2.941  56.033  1.00  0.00     0.015 A 
HETATM    7  C6  UNL     1       4.187   2.203  54.954  1.00  0.00     0.002 A 
HETATM    8  C7  UNL     1       4.478   2.850  53.751  1.00  0.00     0.005 A 
HETATM    9  C14 UNL     1       4.409   0.779  54.795  1.00  0.00     0.078 A 
HETATM   10  C8  UNL     1       4.343   4.217  53.651  1.00  0.00     0.023 A 
HETATM   11  C9  UNL     1       4.888   1.791  52.842  1.00  0.00     0.064 A 
HETATM   12  N2  UNL     1       5.249   1.861  51.643  1.00  0.00    -0.340 N 
HETATM   13  C11 UNL     1       4.818   0.490  53.585  1.00  0.00     0.071 A 
ATOM     14  H2  UNL     1       5.484   0.955  51.238  1.00  0.00     0.164 HD
HETATM   15  N4  UNL     1       4.226  -0.246  55.797  1.00  0.00    -0.100 NA
BRANCH  12  16
HETATM   16  C10 UNL     1       5.397   2.928  50.738  1.00  0.00     0.365 C 
BRANCH  16  17
HETATM   17  O1  UNL     1       5.189   2.485  49.390  1.00  0.00    -0.355 OA
ATOM     18  H1  UNL     1       5.165   3.223  48.793  1.00  0.00     0.214 HD
ENDBRANCH  16  17
BRANCH  16  19
HETATM   19  O2  UNL     1       6.706   3.467  50.762  1.00  0.00    -0.355 OA
ATOM     20  H2  UNL     1       7.348   2.859  50.416  1.00  0.00     0.214 HD
ENDBRANCH  16  19
ENDBRANCH  12  16
BRANCH  13  21
HETATM   21  C12 UNL     1       5.148  -0.786  53.016  1.00  0.00    -0.040 C 
HETATM   22  C13 UNL     1       5.426  -1.877  52.536  1.00  0.00     0.009 C 
BRANCH  22  23
HETATM   23  N3  UNL     1       5.748  -3.115  51.967  1.00  0.00    -0.359 N 
ATOM     24  H32 UNL     1       5.035  -2.675  52.549  1.00  0.00     0.166 HD
ATOM     25  H31 UNL     1       5.997  -4.010  51.547  1.00  0.00     0.166 HD
ENDBRANCH  22  23
ENDBRANCH  13  21
ENDBRANCH   3   4
ENDBRANCH   2   3
BRANCH   2  26
HETATM   26  C15 UNL     1       2.025   6.309  52.863  1.00  0.00     0.149 A 
HETATM   27  N5  UNL     1       2.532   6.715  51.711  1.00  0.00    -0.322 N 
HETATM   28  C16 UNL     1       2.043   6.165  50.564  1.00  0.00     0.157 A 
ATOM     29  H5  UNL     1       3.268   7.420  51.682  1.00  0.00     0.169 HD
HETATM   30  C17 UNL     1       1.058   5.219  50.562  1.00  0.00     0.155 A 
HETATM   31  N7  UNL     1       2.371   6.389  49.268  1.00  0.00    -0.304 N 
HETATM   32  N6  UNL     1       0.772   4.854  49.291  1.00  0.00    -0.335 N 
HETATM   33  N8  UNL     1       0.548   4.814  51.759  1.00  0.00    -0.318 N 
HETATM   34  C18 UNL     1       1.597   5.592  48.518  1.00  0.00     0.188 A 
ATOM     35  H6  UNL     1       0.081   4.169  48.982  1.00  0.00     0.168 HD
HETATM   36  C23 UNL     1      -0.494   3.813  51.761  1.00  0.00     0.159 C 
HETATM   37  C24 UNL     1       1.035   5.362  52.892  1.00  0.00     0.147 A 
BRANCH  37  38
HETATM   38  N9  UNL     1       0.570   4.994  54.035  1.00  0.00    -0.382 N 
ATOM     39  H92 UNL     1      -0.437   4.903  54.169  1.00  0.00     0.157 HD
ATOM     40  H91 UNL     1       1.229   4.799  54.789  1.00  0.00     0.157 HD
ENDBRANCH  37  38
BRANCH  31  41
HETATM   41  C19 UNL     1       3.399   7.312  48.892  1.00  0.00     0.301 C 
BRANCH  41  42
HETATM   42  O3  UNL     1       3.360   7.611  47.556  1.00  0.00    -0.362 OA
BRANCH  42  43
HETATM   43  C20 UNL     1       2.780   8.797  47.254  1.00  0.00     0.170 C 
BRANCH  43  44
HETATM   44  C21 UNL     1       3.711   9.662  46.407  1.00  0.00     0.198 C 
BRANCH  44  45
HETATM   45  O4  UNL     1       4.494  10.484  47.182  1.00  0.00    -0.398 OA
ATOM     46  H4  UNL     1       4.219  10.481  48.091  1.00  0.00     0.209 HD
ENDBRANCH  44  45
ENDBRANCH  43  44
BRANCH  43  47
HETATM   47  C22 UNL     1       1.484   8.645  46.474  1.00  0.00     0.198 C 
BRANCH  47  48
HETATM   48  O5  UNL     1       1.527   7.433  45.813  1.00  0.00    -0.398 OA
ATOM     49  H5  UNL     1       0.688   7.004  45.936  1.00  0.00     0.209 HD
ENDBRANCH  47  48
ENDBRANCH  43  47
ENDBRANCH  42  43
ENDBRANCH  41  42
ENDBRANCH  31  41
ENDBRANCH   2  26
TORSDOF 16
ENDMDL
MODEL 4
REMARK VINA RESULT: -6.873274846      3.472      7.711
REMARK  16 active torsions:
REMARK  status: ('A' for Active; 'I' for Inactive)
REMARK    1  A    between atoms: N1_2  and  C2_3 
REMARK    2  A    between atoms: N1_2  and  C15_26 
REMARK    3  A    between atoms: C2_3  and  C3_4 
REMARK    4  A    between atoms: N2_11  and  C10_13 
REMARK    5  A    between atoms: C10_13  and  O1_14 
REMARK    6  A    between atoms: C10_13  and  O2_16 
REMARK    7  A    between atoms: C11_18  and  C12_19 
REMARK    8  A    between atoms: C13_20  and  N3_21 
REMARK    9  A    between atoms: N7_34  and  C19_35 
REMARK   10  A    between atoms: C19_35  and  O3_36 
REMARK   11  A    between atoms: O3_36  and  C20_37 
REMARK   12  A    between atoms: C20_37  and  C21_38 
REMARK   13  A    between atoms: C20_37  and  C22_41 
REMARK   14  A    between atoms: C21_38  and  O4_39 
REMARK   15  A    between atoms: C22_41  and  O5_42 
REMARK   16  A    between atoms: C24_46  and  N9_47 
ROOT
HETATM    1  C1  UNL     1       2.113   1.443  54.007  1.00  0.00     0.151 C 
HETATM    2  N1  UNL     1       3.073   2.345  53.420  1.00  0.00    -0.364 N 
ENDROOT
BRANCH   2   3
HETATM    3  C2  UNL     1       4.480   2.267  53.725  1.00  0.00     0.162 C 
BRANCH   3   4
HETATM    4  C3  UNL     1       5.304   1.861  52.570  1.00  0.00    -0.039 A 
HETATM    5  C4  UNL     1       6.179   0.798  52.584  1.00  0.00     0.010 A 
HETATM    6  C5  UNL     1       6.936   0.443  51.488  1.00  0.00     0.015 A 
HETATM    7  C6  UNL     1       6.826   1.169  50.327  1.00  0.00     0.002 A 
HETATM    8  C7  UNL     1       5.948   2.255  50.276  1.00  0.00     0.005 A 
HETATM    9  C14 UNL     1       7.486   1.028  49.044  1.00  0.00     0.078 A 
HETATM   10  C8  UNL     1       5.202   2.592  51.383  1.00  0.00     0.023 A 
HETATM   11  C9  UNL     1       6.082   2.784  48.927  1.00  0.00     0.064 A 
HETATM   12  N2  UNL     1       5.503   3.758  48.390  1.00  0.00    -0.340 N 
HETATM   13  C11 UNL     1       7.087   1.943  48.197  1.00  0.00     0.071 A 
ATOM     14  H2  UNL     1       5.785   3.912  47.423  1.00  0.00     0.164 HD
HETATM   15  N4  UNL     1       8.466   0.033  48.675  1.00  0.00    -0.100 NA
BRANCH  12  16
HETATM   16  C10 UNL     1       4.545   4.684  48.843  1.00  0.00     0.365 C 
BRANCH  16  17
HETATM   17  O1  UNL     1       3.586   4.968  47.815  1.00  0.00    -0.355 OA
ATOM     18  H1  UNL     1       2.715   5.059  48.182  1.00  0.00     0.214 HD
ENDBRANCH  16  17
BRANCH  16  19
HETATM   19  O2  UNL     1       5.126   5.932  49.173  1.00  0.00    -0.355 OA
ATOM     20  H2  UNL     1       6.057   5.857  49.347  1.00  0.00     0.214 HD
ENDBRANCH  16  19
ENDBRANCH  12  16
BRANCH  13  21
HETATM   21  C12 UNL     1       7.484   2.160  46.834  1.00  0.00    -0.040 C 
HETATM   22  C13 UNL     1       7.815   2.345  45.671  1.00  0.00     0.009 C 
BRANCH  22  23
HETATM   23  N3  UNL     1       8.214   2.562  44.347  1.00  0.00    -0.359 N 
ATOM     24  H32 UNL     1       8.298   2.977  45.275  1.00  0.00     0.166 HD
ATOM     25  H31 UNL     1       8.497   2.707  43.377  1.00  0.00     0.166 HD
ENDBRANCH  22  23
ENDBRANCH  13  21
ENDBRANCH   3   4
ENDBRANCH   2   3
BRANCH   2  26
HETATM   26  C15 UNL     1       2.615   3.332  52.521  1.00  0.00     0.149 A 
HETATM   27  N5  UNL     1       2.799   4.615  52.784  1.00  0.00    -0.322 N 
HETATM   28  C16 UNL     1       2.339   5.528  51.884  1.00  0.00     0.157 A 
ATOM     29  H5  UNL     1       3.274   4.913  53.637  1.00  0.00     0.169 HD
HETATM   30  C17 UNL     1       1.698   5.170  50.732  1.00  0.00     0.155 A 
HETATM   31  N7  UNL     1       2.389   6.883  51.896  1.00  0.00    -0.304 N 
HETATM   32  N6  UNL     1       1.353   6.276  50.033  1.00  0.00    -0.335 N 
HETATM   33  N8  UNL     1       1.516   3.843  50.480  1.00  0.00    -0.318 N 
HETATM   34  C18 UNL     1       1.792   7.315  50.776  1.00  0.00     0.188 A 
ATOM     35  H6  UNL     1       0.866   6.317  49.138  1.00  0.00     0.168 HD
HETATM   36  C23 UNL     1       0.840   3.460  49.262  1.00  0.00     0.159 C 
HETATM   37  C24 UNL     1       1.975   2.942  51.374  1.00  0.00     0.147 A 
BRANCH  37  38
HETATM   38  N9  UNL     1       1.816   1.683  51.157  1.00  0.00    -0.382 N 
ATOM     39  H92 UNL     1       2.195   1.262  50.309  1.00  0.00     0.157 HD
ATOM     40  H91 UNL     1       1.309   1.130  51.848  1.00  0.00     0.157 HD
ENDBRANCH  37  38
BRANCH  31  41
HETATM   41  C19 UNL     1       3.021   7.611  52.955  1.00  0.00     0.301 C 
BRANCH  41  42
HETATM   42  O3  UNL     1       2.556   7.237  54.188  1.00  0.00    -0.362 OA
BRANCH  42  43
HETATM   43  C20 UNL     1       2.723   8.160  55.164  1.00  0.00     0.170 C 
BRANCH  43  44
HETATM   44  C21 UNL     1       3.396   7.545  56.390  1.00  0.00     0.198 C 
BRANCH  44  45
HETATM   45  O4  UNL     1       3.015   8.171  57.553  1.00  0.00    -0.398 OA
ATOM     46  H4  UNL     1       2.084   8.362  57.564  1.00  0.00     0.209 HD
ENDBRANCH  44  45
ENDBRANCH  43  44
BRANCH  43  47
HETATM   47  C22 UNL     1       3.584   9.337  54.730  1.00  0.00     0.198 C 
BRANCH  47  48
HETATM   48  O5  UNL     1       3.846  10.105  55.847  1.00  0.00    -0.398 OA
ATOM     49  H5  UNL     1       4.771  10.322  55.842  1.00  0.00     0.209 HD
ENDBRANCH  47  48
ENDBRANCH  43  47
ENDBRANCH  42  43
ENDBRANCH  41  42
ENDBRANCH  31  41
ENDBRANCH   2  26
TORSDOF 16
ENDMDL
MODEL 5
REMARK VINA RESULT: -6.821171081      3.478      7.371
REMARK  16 active torsions:
REMARK  status: ('A' for Active; 'I' for Inactive)
REMARK    1  A    between atoms: N1_2  and  C2_3 
REMARK    2  A    between atoms: N1_2  and  C15_26 
REMARK    3  A    between atoms: C2_3  and  C3_4 
REMARK    4  A    between atoms: N2_11  and  C10_13 
REMARK    5  A    between atoms: C10_13  and  O1_14 
REMARK    6  A    between atoms: C10_13  and  O2_16 
REMARK    7  A    between atoms: C11_18  and  C12_19 
REMARK    8  A    between atoms: C13_20  and  N3_21 
REMARK    9  A    between atoms: N7_34  and  C19_35 
REMARK   10  A    between atoms: C19_35  and  O3_36 
REMARK   11  A    between atoms: O3_36  and  C20_37 
REMARK   12  A    between atoms: C20_37  and  C21_38 
REMARK   13  A    between atoms: C20_37  and  C22_41 
REMARK   14  A    between atoms: C21_38  and  O4_39 
REMARK   15  A    between atoms: C22_41  and  O5_42 
REMARK   16  A    between atoms: C24_46  and  N9_47 
ROOT
HETATM    1  C1  UNL     1       2.592   1.193  52.518  1.00  0.00     0.151 C 
HETATM    2  N1  UNL     1       3.712   1.969  52.988  1.00  0.00    -0.364 N 
ENDROOT
BRANCH   2   3
HETATM    3  C2  UNL     1       4.990   1.368  53.278  1.00  0.00     0.162 C 
BRANCH   3   4
HETATM    4  C3  UNL     1       5.802   1.117  52.072  1.00  0.00    -0.039 A 
HETATM    5  C4  UNL     1       6.727   0.102  51.964  1.00  0.00     0.010 A 
HETATM    6  C5  UNL     1       7.471  -0.108  50.823  1.00  0.00     0.015 A 
HETATM    7  C6  UNL     1       7.297   0.719  49.741  1.00  0.00     0.002 A 
HETATM    8  C7  UNL     1       6.367   1.760  49.814  1.00  0.00     0.005 A 
HETATM    9  C14 UNL     1       7.929   0.736  48.436  1.00  0.00     0.078 A 
HETATM   10  C8  UNL     1       5.635   1.952  50.964  1.00  0.00     0.023 A 
HETATM   11  C9  UNL     1       6.440   2.422  48.521  1.00  0.00     0.064 A 
HETATM   12  N2  UNL     1       5.802   3.413  48.093  1.00  0.00    -0.340 N 
HETATM   13  C11 UNL     1       7.465   1.707  47.690  1.00  0.00     0.071 A 
ATOM     14  H2  UNL     1       6.052   3.673  47.139  1.00  0.00     0.164 HD
HETATM   15  N4  UNL     1       8.946  -0.169  47.951  1.00  0.00    -0.100 NA
BRANCH  12  16
HETATM   16  C10 UNL     1       4.813   4.242  48.654  1.00  0.00     0.365 C 
BRANCH  16  17
HETATM   17  O1  UNL     1       3.761   4.489  47.710  1.00  0.00    -0.355 OA
ATOM     18  H1  UNL     1       2.910   4.409  48.126  1.00  0.00     0.214 HD
ENDBRANCH  16  17
BRANCH  16  19
HETATM   19  O2  UNL     1       5.321   5.519  48.996  1.00  0.00    -0.355 OA
ATOM     20  H2  UNL     1       5.475   6.058  48.230  1.00  0.00     0.214 HD
ENDBRANCH  16  19
ENDBRANCH  12  16
BRANCH  13  21
HETATM   21  C12 UNL     1       7.816   2.073  46.347  1.00  0.00    -0.040 C 
HETATM   22  C13 UNL     1       8.121   2.379  45.203  1.00  0.00     0.009 C 
BRANCH  22  23
HETATM   23  N3  UNL     1       8.449   2.738  43.890  1.00  0.00    -0.359 N 
ATOM     24  H32 UNL     1       7.797   2.981  44.635  1.00  0.00     0.166 HD
ATOM     25  H31 UNL     1       8.700   2.988  42.933  1.00  0.00     0.166 HD
ENDBRANCH  22  23
ENDBRANCH  13  21
ENDBRANCH   3   4
ENDBRANCH   2   3
BRANCH   2  26
HETATM   26  C15 UNL     1       3.546   3.359  53.169  1.00  0.00     0.149 A 
HETATM   27  N5  UNL     1       3.130   4.120  52.171  1.00  0.00    -0.322 N 
HETATM   28  C16 UNL     1       2.985   5.455  52.398  1.00  0.00     0.157 A 
ATOM     29  H5  UNL     1       2.922   3.718  51.257  1.00  0.00     0.169 HD
HETATM   30  C17 UNL     1       3.254   6.031  53.608  1.00  0.00     0.155 A 
HETATM   31  N7  UNL     1       2.583   6.453  51.573  1.00  0.00    -0.304 N 
HETATM   32  N6  UNL     1       3.024   7.363  53.545  1.00  0.00    -0.335 N 
HETATM   33  N8  UNL     1       3.683   5.231  54.623  1.00  0.00    -0.318 N 
HETATM   34  C18 UNL     1       2.612   7.592  52.279  1.00  0.00     0.188 A 
ATOM     35  H6  UNL     1       3.138   8.048  54.293  1.00  0.00     0.168 HD
HETATM   36  C23 UNL     1       3.967   5.836  55.904  1.00  0.00     0.159 C 
HETATM   37  C24 UNL     1       3.824   3.908  54.394  1.00  0.00     0.147 A 
BRANCH  37  38
HETATM   38  N9  UNL     1       4.226   3.132  55.339  1.00  0.00    -0.382 N 
ATOM     39  H92 UNL     1       3.601   2.417  55.711  1.00  0.00     0.157 HD
ATOM     40  H91 UNL     1       5.175   3.251  55.696  1.00  0.00     0.157 HD
ENDBRANCH  37  38
BRANCH  31  41
HETATM   41  C19 UNL     1       2.191   6.207  50.217  1.00  0.00     0.301 C 
BRANCH  41  42
HETATM   42  O3  UNL     1       2.802   7.064  49.341  1.00  0.00    -0.362 OA
BRANCH  42  43
HETATM   43  C20 UNL     1       1.975   7.638  48.435  1.00  0.00     0.170 C 
BRANCH  43  44
HETATM   44  C21 UNL     1       1.803   9.130  48.719  1.00  0.00     0.198 C 
BRANCH  44  45
HETATM   45  O4  UNL     1       2.340   9.907  47.721  1.00  0.00    -0.398 OA
ATOM     46  H4  UNL     1       2.145  10.828  47.846  1.00  0.00     0.209 HD
ENDBRANCH  44  45
ENDBRANCH  43  44
BRANCH  43  47
HETATM   47  C22 UNL     1       2.478   7.515  47.005  1.00  0.00     0.198 C 
BRANCH  47  48
HETATM   48  O5  UNL     1       1.394   7.237  46.197  1.00  0.00    -0.398 OA
ATOM     49  H5  UNL     1       1.119   8.050  45.788  1.00  0.00     0.209 HD
ENDBRANCH  47  48
ENDBRANCH  43  47
ENDBRANCH  42  43
ENDBRANCH  41  42
ENDBRANCH  31  41
ENDBRANCH   2  26
TORSDOF 16
ENDMDL
