MODEL 1
REMARK VINA RESULT: -6.976470161      0.000      0.000
REMARK  16 active torsions:
REMARK  status: ('A' for Active; 'I' for Inactive)
REMARK    1  A    between atoms: O1_2  and  N1_3 
REMARK    2  A    between atoms: N1_3  and  C2_4 
REMARK    3  A    between atoms: C3_5  and  C4_6 
REMARK    4  A    between atoms: C4_6  and  O2_7 
REMARK    5  A    between atoms: O2_7  and  C5_8 
REMARK    6  A    between atoms: C5_8  and  C6_10 
REMARK    7  A    between atoms: C6_10  and  O4_11 
REMARK    8  A    between atoms: O4_11  and  C7_12 
REMARK    9  A    between atoms: C9_14  and  O5_15 
REMARK   10  A    between atoms: C10_17  and  O6_18 
REMARK   11  A    between atoms: C11_20  and  C12_21 
REMARK   12  A    between atoms: C16_27  and  O8_28 
REMARK   13  A    between atoms: C19_32  and  O9_33 
REMARK   14  A    between atoms: C21_35  and  O10_36 
REMARK   15  A    between atoms: C24_40  and  O11_41 
REMARK   16  A    between atoms: C24_40  and  O12_43 
ROOT
HETATM    1  C12 UNL     1       2.595   9.328  46.954  1.00  0.00     0.264 C 
HETATM    2  O7  UNL     1       1.760   9.559  46.032  1.00  0.00    -0.275 OA
HETATM    3  C13 UNL     1       3.787  10.074  47.005  1.00  0.00     0.144 C 
HETATM    4  N2  UNL     1       4.778  10.714  47.025  1.00  0.00    -0.188 NA
ENDROOT
BRANCH   1   5
HETATM    5  C11 UNL     1       2.269   8.290  47.918  1.00  0.00     0.064 A 
HETATM    6  C10 UNL     1       1.710   7.057  47.554  1.00  0.00     0.114 A 
HETATM    7  C9  UNL     1       1.415   6.101  48.493  1.00  0.00     0.102 A 
HETATM    8  C8  UNL     1       1.676   6.357  49.827  1.00  0.00     0.076 A 
HETATM    9  C7  UNL     1       2.223   7.546  50.241  1.00  0.00     0.073 A 
HETATM   10  C14 UNL     1       2.505   8.482  49.266  1.00  0.00     0.056 A 
BRANCH   6  11
HETATM   11  O6  UNL     1       1.475   6.870  46.201  1.00  0.00    -0.357 OA
ATOM     12  H6  UNL     1       1.679   7.532  45.550  1.00  0.00     0.217 HD
ENDBRANCH   6  11
BRANCH   7  13
HETATM   13  O5  UNL     1       0.862   4.888  48.103  1.00  0.00    -0.358 OA
ATOM     14  H5  UNL     1       0.223   4.854  47.401  1.00  0.00     0.217 HD
ENDBRANCH   7  13
BRANCH   9  15
HETATM   15  O4  UNL     1       2.488   7.818  51.574  1.00  0.00    -0.341 OA
BRANCH  15  16
HETATM   16  C6  UNL     1       3.559   7.359  52.335  1.00  0.00     0.286 C 
BRANCH  16  17
HETATM   17  C5  UNL     1       3.095   6.609  53.506  1.00  0.00     0.283 C 
HETATM   18  O3  UNL     1       1.930   6.746  53.959  1.00  0.00    -0.263 OA
BRANCH  17  19
HETATM   19  O2  UNL     1       3.892   5.702  54.198  1.00  0.00    -0.315 OA
BRANCH  19  20
HETATM   20  C4  UNL     1       3.698   4.325  54.084  1.00  0.00     0.216 C 
BRANCH  20  21
HETATM   21  C3  UNL     1       3.489   3.841  52.702  1.00  0.00    -0.015 A 
HETATM   22  C2  UNL     1       4.636   3.817  51.757  1.00  0.00     0.205 A 
HETATM   23  C24 UNL     1       4.433   3.395  50.388  1.00  0.00     0.204 A 
HETATM   24  C23 UNL     1       3.050   2.977  50.098  1.00  0.00     0.058 A 
HETATM   25  C22 UNL     1       2.089   3.003  50.985  1.00  0.00     0.015 A 
HETATM   26  C15 UNL     1       2.309   3.440  52.306  1.00  0.00     0.017 A 
HETATM   27  C21 UNL     1       0.838   2.602  50.585  1.00  0.00     0.110 A 
HETATM   28  C16 UNL     1       1.210   3.436  53.148  1.00  0.00     0.086 A 
HETATM   29  C17 UNL     1      -0.060   3.037  52.765  1.00  0.00     0.008 A 
HETATM   30  C18 UNL     1      -1.192   3.071  53.761  1.00  0.00     0.054 C 
HETATM   31  C19 UNL     1      -0.250   2.619  51.486  1.00  0.00     0.110 A 
BRANCH  22  32
HETATM   32  N1  UNL     1       5.781   3.137  52.385  1.00  0.00    -0.086 NA
BRANCH  32  33
HETATM   33  O1  UNL     1       6.940   3.660  51.989  1.00  0.00    -0.291 OA
HETATM   34  C1  UNL     1       7.986   2.764  51.926  1.00  0.00     0.231 C 
ENDBRANCH  32  33
ENDBRANCH  22  32
BRANCH  23  35
HETATM   35  O11 UNL     1       5.346   2.406  49.953  1.00  0.00    -0.361 OA
ATOM     36  H11 UNL     1       5.756   2.602  49.120  1.00  0.00     0.213 HD
ENDBRANCH  23  35
BRANCH  23  37
HETATM   37  O12 UNL     1       4.649   4.504  49.514  1.00  0.00    -0.361 OA
ATOM     38  H12 UNL     1       3.968   5.151  49.653  1.00  0.00     0.213 HD
ENDBRANCH  23  37
BRANCH  28  39
HETATM   39  O8  UNL     1       1.352   3.843  54.444  1.00  0.00    -0.359 OA
ATOM     40  H8  UNL     1       0.653   4.332  54.861  1.00  0.00     0.217 HD
ENDBRANCH  28  39
BRANCH  31  41
HETATM   41  O9  UNL     1      -1.515   2.211  51.072  1.00  0.00    -0.352 OA
HETATM   42  C20 UNL     1      -1.809   0.834  51.144  1.00  0.00     0.210 C 
ENDBRANCH  31  41
BRANCH  27  43
HETATM   43  O10 UNL     1       0.554   2.169  49.327  1.00  0.00    -0.357 OA
ATOM     44  H10 UNL     1       1.303   1.920  48.798  1.00  0.00     0.217 HD
ENDBRANCH  27  43
ENDBRANCH  20  21
ENDBRANCH  19  20
ENDBRANCH  17  19
ENDBRANCH  16  17
ENDBRANCH  15  16
ENDBRANCH   9  15
ENDBRANCH   1   5
TORSDOF 16
ENDMDL
MODEL 2
REMARK VINA RESULT: -6.799803935      1.336      1.785
REMARK  16 active torsions:
REMARK  status: ('A' for Active; 'I' for Inactive)
REMARK    1  A    between atoms: O1_2  and  N1_3 
REMARK    2  A    between atoms: N1_3  and  C2_4 
REMARK    3  A    between atoms: C3_5  and  C4_6 
REMARK    4  A    between atoms: C4_6  and  O2_7 
REMARK    5  A    between atoms: O2_7  and  C5_8 
REMARK    6  A    between atoms: C5_8  and  C6_10 
REMARK    7  A    between atoms: C6_10  and  O4_11 
REMARK    8  A    between atoms: O4_11  and  C7_12 
REMARK    9  A    between atoms: C9_14  and  O5_15 
REMARK   10  A    between atoms: C10_17  and  O6_18 
REMARK   11  A    between atoms: C11_20  and  C12_21 
REMARK   12  A    between atoms: C16_27  and  O8_28 
REMARK   13  A    between atoms: C19_32  and  O9_33 
REMARK   14  A    between atoms: C21_35  and  O10_36 
REMARK   15  A    between atoms: C24_40  and  O11_41 
REMARK   16  A    between atoms: C24_40  and  O12_43 
ROOT
HETATM    1  C12 UNL     1       2.559   9.329  46.877  1.00  0.00     0.264 C 
HETATM    2  O7  UNL     1       1.726   9.537  45.946  1.00  0.00    -0.275 OA
HETATM    3  C13 UNL     1       3.747  10.080  46.916  1.00  0.00     0.144 C 
HETATM    4  N2  UNL     1       4.735  10.724  46.927  1.00  0.00    -0.188 NA
ENDROOT
BRANCH   1   5
HETATM    5  C11 UNL     1       2.233   8.310  47.860  1.00  0.00     0.064 A 
HETATM    6  C10 UNL     1       1.772   7.032  47.514  1.00  0.00     0.114 A 
HETATM    7  C9  UNL     1       1.475   6.096  48.472  1.00  0.00     0.102 A 
HETATM    8  C8  UNL     1       1.633   6.418  49.808  1.00  0.00     0.076 A 
HETATM    9  C7  UNL     1       2.080   7.654  50.205  1.00  0.00     0.073 A 
HETATM   10  C14 UNL     1       2.368   8.568  49.212  1.00  0.00     0.056 A 
BRANCH   6  11
HETATM   11  O6  UNL     1       1.637   6.779  46.158  1.00  0.00    -0.357 OA
ATOM     12  H6  UNL     1       1.062   6.104  45.819  1.00  0.00     0.217 HD
ENDBRANCH   6  11
BRANCH   7  13
HETATM   13  O5  UNL     1       1.020   4.837  48.100  1.00  0.00    -0.358 OA
ATOM     14  H5  UNL     1       1.630   4.115  47.998  1.00  0.00     0.217 HD
ENDBRANCH   7  13
BRANCH   9  15
HETATM   15  O4  UNL     1       2.241   7.991  51.540  1.00  0.00    -0.341 OA
BRANCH  15  16
HETATM   16  C6  UNL     1       3.421   7.986  52.278  1.00  0.00     0.286 C 
BRANCH  16  17
HETATM   17  C5  UNL     1       3.147   8.063  53.716  1.00  0.00     0.283 C 
HETATM   18  O3  UNL     1       2.872   9.153  54.279  1.00  0.00    -0.263 OA
BRANCH  17  19
HETATM   19  O2  UNL     1       3.170   6.956  54.559  1.00  0.00    -0.315 OA
BRANCH  19  20
HETATM   20  C4  UNL     1       2.222   5.937  54.452  1.00  0.00     0.216 C 
BRANCH  20  21
HETATM   21  C3  UNL     1       2.551   4.888  53.464  1.00  0.00    -0.015 A 
HETATM   22  C2  UNL     1       3.975   4.562  53.192  1.00  0.00     0.205 A 
HETATM   23  C24 UNL     1       4.311   3.574  52.191  1.00  0.00     0.204 A 
HETATM   24  C23 UNL     1       3.133   2.948  51.562  1.00  0.00     0.058 A 
HETATM   25  C22 UNL     1       1.902   3.267  51.863  1.00  0.00     0.015 A 
HETATM   26  C15 UNL     1       1.603   4.249  52.827  1.00  0.00     0.017 A 
HETATM   27  C21 UNL     1       0.891   2.620  51.194  1.00  0.00     0.110 A 
HETATM   28  C16 UNL     1       0.261   4.509  53.048  1.00  0.00     0.086 A 
HETATM   29  C17 UNL     1      -0.773   3.871  52.384  1.00  0.00     0.008 A 
HETATM   30  C18 UNL     1      -2.204   4.229  52.698  1.00  0.00     0.054 C 
HETATM   31  C19 UNL     1      -0.462   2.925  51.458  1.00  0.00     0.110 A 
BRANCH  22  32
HETATM   32  N1  UNL     1       4.680   4.328  54.463  1.00  0.00    -0.086 NA
BRANCH  32  33
HETATM   33  O1  UNL     1       4.182   3.280  55.116  1.00  0.00    -0.291 OA
HETATM   34  C1  UNL     1       4.129   3.423  56.486  1.00  0.00     0.231 C 
ENDBRANCH  32  33
ENDBRANCH  22  32
BRANCH  23  35
HETATM   35  O11 UNL     1       5.210   2.581  52.644  1.00  0.00    -0.361 OA
ATOM     36  H11 UNL     1       6.124   2.806  52.520  1.00  0.00     0.213 HD
ENDBRANCH  23  35
BRANCH  23  37
HETATM   37  O12 UNL     1       4.984   4.211  51.104  1.00  0.00    -0.361 OA
ATOM     38  H12 UNL     1       5.181   3.567  50.435  1.00  0.00     0.213 HD
ENDBRANCH  23  37
BRANCH  28  39
HETATM   39  O8  UNL     1      -0.101   5.447  53.972  1.00  0.00    -0.359 OA
ATOM     40  H8  UNL     1      -0.946   5.382  54.400  1.00  0.00     0.217 HD
ENDBRANCH  28  39
BRANCH  31  41
HETATM   41  O9  UNL     1      -1.480   2.266  50.774  1.00  0.00    -0.352 OA
HETATM   42  C20 UNL     1      -1.883   2.803  49.535  1.00  0.00     0.210 C 
ENDBRANCH  31  41
BRANCH  27  43
HETATM   43  O10 UNL     1       1.107   1.662  50.252  1.00  0.00    -0.357 OA
ATOM     44  H10 UNL     1       1.990   1.315  50.212  1.00  0.00     0.217 HD
ENDBRANCH  27  43
ENDBRANCH  20  21
ENDBRANCH  19  20
ENDBRANCH  17  19
ENDBRANCH  16  17
ENDBRANCH  15  16
ENDBRANCH   9  15
ENDBRANCH   1   5
TORSDOF 16
ENDMDL
MODEL 3
REMARK VINA RESULT: -6.792184153      1.681      2.385
REMARK  16 active torsions:
REMARK  status: ('A' for Active; 'I' for Inactive)
REMARK    1  A    between atoms: O1_2  and  N1_3 
REMARK    2  A    between atoms: N1_3  and  C2_4 
REMARK    3  A    between atoms: C3_5  and  C4_6 
REMARK    4  A    between atoms: C4_6  and  O2_7 
REMARK    5  A    between atoms: O2_7  and  C5_8 
REMARK    6  A    between atoms: C5_8  and  C6_10 
REMARK    7  A    between atoms: C6_10  and  O4_11 
REMARK    8  A    between atoms: O4_11  and  C7_12 
REMARK    9  A    between atoms: C9_14  and  O5_15 
REMARK   10  A    between atoms: C10_17  and  O6_18 
REMARK   11  A    between atoms: C11_20  and  C12_21 
REMARK   12  A    between atoms: C16_27  and  O8_28 
REMARK   13  A    between atoms: C19_32  and  O9_33 
REMARK   14  A    between atoms: C21_35  and  O10_36 
REMARK   15  A    between atoms: C24_40  and  O11_41 
REMARK   16  A    between atoms: C24_40  and  O12_43 
ROOT
HETATM    1  C12 UNL     1       2.616   9.329  46.933  1.00  0.00     0.264 C 
HETATM    2  O7  UNL     1       1.758   9.580  46.036  1.00  0.00    -0.275 OA
HETATM    3  C13 UNL     1       3.815  10.064  46.962  1.00  0.00     0.144 C 
HETATM    4  N2  UNL     1       4.812  10.694  46.964  1.00  0.00    -0.188 NA
ENDROOT
BRANCH   1   5
HETATM    5  C11 UNL     1       2.306   8.281  47.890  1.00  0.00     0.064 A 
HETATM    6  C10 UNL     1       1.716   7.062  47.526  1.00  0.00     0.114 A 
HETATM    7  C9  UNL     1       1.439   6.095  48.459  1.00  0.00     0.102 A 
HETATM    8  C8  UNL     1       1.748   6.327  49.788  1.00  0.00     0.076 A 
HETATM    9  C7  UNL     1       2.326   7.501  50.202  1.00  0.00     0.073 A 
HETATM   10  C14 UNL     1       2.589   8.448  49.233  1.00  0.00     0.056 A 
BRANCH   6  11
HETATM   11  O6  UNL     1       1.435   6.900  46.179  1.00  0.00    -0.357 OA
ATOM     12  H6  UNL     1       0.547   6.841  45.846  1.00  0.00     0.217 HD
ENDBRANCH   6  11
BRANCH   7  13
HETATM   13  O5  UNL     1       0.854   4.897  48.070  1.00  0.00    -0.358 OA
ATOM     14  H5  UNL     1       0.419   4.825  47.228  1.00  0.00     0.217 HD
ENDBRANCH   7  13
BRANCH   9  15
HETATM   15  O4  UNL     1       2.638   7.747  51.529  1.00  0.00    -0.341 OA
BRANCH  15  16
HETATM   16  C6  UNL     1       3.116   6.838  52.469  1.00  0.00     0.286 C 
BRANCH  16  17
HETATM   17  C5  UNL     1       2.186   6.700  53.594  1.00  0.00     0.283 C 
HETATM   18  O3  UNL     1       2.496   7.065  54.756  1.00  0.00    -0.263 OA
BRANCH  17  19
HETATM   19  O2  UNL     1       0.908   6.162  53.468  1.00  0.00    -0.315 OA
BRANCH  19  20
HETATM   20  C4  UNL     1       0.628   4.849  53.847  1.00  0.00     0.216 C 
BRANCH  20  21
HETATM   21  C3  UNL     1       0.593   3.877  52.733  1.00  0.00    -0.015 A 
HETATM   22  C2  UNL     1       1.869   3.334  52.199  1.00  0.00     0.205 A 
HETATM   23  C24 UNL     1       1.851   2.422  51.076  1.00  0.00     0.204 A 
HETATM   24  C23 UNL     1       0.493   2.094  50.605  1.00  0.00     0.058 A 
HETATM   25  C22 UNL     1      -0.593   2.592  51.135  1.00  0.00     0.015 A 
HETATM   26  C15 UNL     1      -0.546   3.496  52.214  1.00  0.00     0.017 A 
HETATM   27  C21 UNL     1      -1.799   2.219  50.594  1.00  0.00     0.110 A 
HETATM   28  C16 UNL     1      -1.763   3.966  52.679  1.00  0.00     0.086 A 
HETATM   29  C17 UNL     1      -2.989   3.604  52.148  1.00  0.00     0.008 A 
HETATM   30  C18 UNL     1      -4.259   4.175  52.728  1.00  0.00     0.054 C 
HETATM   31  C19 UNL     1      -3.012   2.730  51.107  1.00  0.00     0.110 A 
BRANCH  22  32
HETATM   32  N1  UNL     1       2.697   2.833  53.309  1.00  0.00    -0.086 NA
BRANCH  32  33
HETATM   33  O1  UNL     1       3.941   3.304  53.246  1.00  0.00    -0.291 OA
HETATM   34  C1  UNL     1       4.413   3.850  54.419  1.00  0.00     0.231 C 
ENDBRANCH  32  33
ENDBRANCH  22  32
BRANCH  23  35
HETATM   35  O11 UNL     1       2.596   1.239  51.287  1.00  0.00    -0.361 OA
ATOM     36  H11 UNL     1       3.288   1.102  50.652  1.00  0.00     0.213 HD
ENDBRANCH  23  35
BRANCH  23  37
HETATM   37  O12 UNL     1       2.465   3.048  49.949  1.00  0.00    -0.361 OA
ATOM     38  H12 UNL     1       2.482   2.438  49.221  1.00  0.00     0.213 HD
ENDBRANCH  23  37
BRANCH  28  39
HETATM   39  O8  UNL     1      -1.791   4.842  53.726  1.00  0.00    -0.359 OA
ATOM     40  H8  UNL     1      -2.615   5.240  53.982  1.00  0.00     0.217 HD
ENDBRANCH  28  39
BRANCH  31  41
HETATM   41  O9  UNL     1      -4.229   2.346  50.552  1.00  0.00    -0.352 OA
HETATM   42  C20 UNL     1      -4.703   3.088  49.451  1.00  0.00     0.210 C 
ENDBRANCH  31  41
BRANCH  27  43
HETATM   43  O10 UNL     1      -1.919   1.351  49.553  1.00  0.00    -0.357 OA
ATOM     44  H10 UNL     1      -1.186   1.330  48.948  1.00  0.00     0.217 HD
ENDBRANCH  27  43
ENDBRANCH  20  21
ENDBRANCH  19  20
ENDBRANCH  17  19
ENDBRANCH  16  17
ENDBRANCH  15  16
ENDBRANCH   9  15
ENDBRANCH   1   5
TORSDOF 16
ENDMDL
MODEL 4
REMARK VINA RESULT: -6.628096182      2.267      2.999
REMARK  16 active torsions:
REMARK  status: ('A' for Active; 'I' for Inactive)
REMARK    1  A    between atoms: O1_2  and  N1_3 
REMARK    2  A    between atoms: N1_3  and  C2_4 
REMARK    3  A    between atoms: C3_5  and  C4_6 
REMARK    4  A    between atoms: C4_6  and  O2_7 
REMARK    5  A    between atoms: O2_7  and  C5_8 
REMARK    6  A    between atoms: C5_8  and  C6_10 
REMARK    7  A    between atoms: C6_10  and  O4_11 
REMARK    8  A    between atoms: O4_11  and  C7_12 
REMARK    9  A    between atoms: C9_14  and  O5_15 
REMARK   10  A    between atoms: C10_17  and  O6_18 
REMARK   11  A    between atoms: C11_20  and  C12_21 
REMARK   12  A    between atoms: C16_27  and  O8_28 
REMARK   13  A    between atoms: C19_32  and  O9_33 
REMARK   14  A    between atoms: C21_35  and  O10_36 
REMARK   15  A    between atoms: C24_40  and  O11_41 
REMARK   16  A    between atoms: C24_40  and  O12_43 
ROOT
HETATM    1  C12 UNL     1       2.429   9.230  47.010  1.00  0.00     0.264 C 
HETATM    2  O7  UNL     1       1.540   9.463  46.140  1.00  0.00    -0.275 OA
HETATM    3  C13 UNL     1       3.626   9.966  46.984  1.00  0.00     0.144 C 
HETATM    4  N2  UNL     1       4.622  10.598  46.940  1.00  0.00    -0.188 NA
ENDROOT
BRANCH   1   5
HETATM    5  C11 UNL     1       2.154   8.199  47.997  1.00  0.00     0.064 A 
HETATM    6  C10 UNL     1       1.724   6.908  47.656  1.00  0.00     0.114 A 
HETATM    7  C9  UNL     1       1.476   5.961  48.617  1.00  0.00     0.102 A 
HETATM    8  C8  UNL     1       1.653   6.284  49.950  1.00  0.00     0.076 A 
HETATM    9  C7  UNL     1       2.072   7.531  50.342  1.00  0.00     0.073 A 
HETATM   10  C14 UNL     1       2.311   8.456  49.346  1.00  0.00     0.056 A 
BRANCH   6  11
HETATM   11  O6  UNL     1       1.568   6.656  46.302  1.00  0.00    -0.357 OA
ATOM     12  H6  UNL     1       2.053   7.128  45.635  1.00  0.00     0.217 HD
ENDBRANCH   6  11
BRANCH   7  13
HETATM   13  O5  UNL     1       1.051   4.690  48.250  1.00  0.00    -0.358 OA
ATOM     14  H5  UNL     1       1.575   4.158  47.662  1.00  0.00     0.217 HD
ENDBRANCH   7  13
BRANCH   9  15
HETATM   15  O4  UNL     1       2.251   7.869  51.674  1.00  0.00    -0.341 OA
BRANCH  15  16
HETATM   16  C6  UNL     1       3.369   7.626  52.466  1.00  0.00     0.286 C 
BRANCH  16  17
HETATM   17  C5  UNL     1       2.982   7.184  53.809  1.00  0.00     0.283 C 
HETATM   18  O3  UNL     1       2.635   8.002  54.699  1.00  0.00    -0.263 OA
BRANCH  17  19
HETATM   19  O2  UNL     1       2.966   5.849  54.201  1.00  0.00    -0.315 OA
BRANCH  19  20
HETATM   20  C4  UNL     1       4.068   5.017  54.001  1.00  0.00     0.216 C 
BRANCH  20  21
HETATM   21  C3  UNL     1       3.763   3.737  53.325  1.00  0.00    -0.015 A 
HETATM   22  C2  UNL     1       3.729   3.687  51.840  1.00  0.00     0.205 A 
HETATM   23  C24 UNL     1       3.382   2.454  51.168  1.00  0.00     0.204 A 
HETATM   24  C23 UNL     1       3.135   1.330  52.089  1.00  0.00     0.058 A 
HETATM   25  C22 UNL     1       3.202   1.436  53.390  1.00  0.00     0.015 A 
HETATM   26  C15 UNL     1       3.521   2.655  54.019  1.00  0.00     0.017 A 
HETATM   27  C21 UNL     1       2.934   0.317  54.139  1.00  0.00     0.110 A 
HETATM   28  C16 UNL     1       3.546   2.647  55.404  1.00  0.00     0.086 A 
HETATM   29  C17 UNL     1       3.279   1.530  56.178  1.00  0.00     0.008 A 
HETATM   30  C18 UNL     1       3.333   1.627  57.682  1.00  0.00     0.054 C 
HETATM   31  C19 UNL     1       2.974   0.364  55.550  1.00  0.00     0.110 A 
BRANCH  22  32
HETATM   32  N1  UNL     1       4.957   4.290  51.296  1.00  0.00    -0.086 NA
BRANCH  32  33
HETATM   33  O1  UNL     1       4.689   5.167  50.331  1.00  0.00    -0.291 OA
HETATM   34  C1  UNL     1       5.282   4.891  49.118  1.00  0.00     0.231 C 
ENDBRANCH  32  33
ENDBRANCH  22  32
BRANCH  23  35
HETATM   35  O11 UNL     1       4.300   2.072  50.163  1.00  0.00    -0.361 OA
ATOM     36  H11 UNL     1       3.889   1.773  49.361  1.00  0.00     0.213 HD
ENDBRANCH  23  35
BRANCH  23  37
HETATM   37  O12 UNL     1       2.138   2.621  50.486  1.00  0.00    -0.361 OA
ATOM     38  H12 UNL     1       1.993   3.544  50.317  1.00  0.00     0.213 HD
ENDBRANCH  23  37
BRANCH  28  39
HETATM   39  O8  UNL     1       3.853   3.793  56.080  1.00  0.00    -0.359 OA
ATOM     40  H8  UNL     1       3.459   3.956  56.928  1.00  0.00     0.217 HD
ENDBRANCH  28  39
BRANCH  31  41
HETATM   41  O9  UNL     1       2.701  -0.775  56.302  1.00  0.00    -0.352 OA
HETATM   42  C20 UNL     1       1.347  -1.066  56.571  1.00  0.00     0.210 C 
ENDBRANCH  31  41
BRANCH  27  43
HETATM   43  O10 UNL     1       2.620  -0.891  53.598  1.00  0.00    -0.357 OA
ATOM     44  H10 UNL     1       3.347  -1.492  53.482  1.00  0.00     0.217 HD
ENDBRANCH  27  43
ENDBRANCH  20  21
ENDBRANCH  19  20
ENDBRANCH  17  19
ENDBRANCH  16  17
ENDBRANCH  15  16
ENDBRANCH   9  15
ENDBRANCH   1   5
TORSDOF 16
ENDMDL
MODEL 5
REMARK VINA RESULT: -6.618176814      2.702      3.499
REMARK  16 active torsions:
REMARK  status: ('A' for Active; 'I' for Inactive)
REMARK    1  A    between atoms: O1_2  and  N1_3 
REMARK    2  A    between atoms: N1_3  and  C2_4 
REMARK    3  A    between atoms: C3_5  and  C4_6 
REMARK    4  A    between atoms: C4_6  and  O2_7 
REMARK    5  A    between atoms: O2_7  and  C5_8 
REMARK    6  A    between atoms: C5_8  and  C6_10 
REMARK    7  A    between atoms: C6_10  and  O4_11 
REMARK    8  A    between atoms: O4_11  and  C7_12 
REMARK    9  A    between atoms: C9_14  and  O5_15 
REMARK   10  A    between atoms: C10_17  and  O6_18 
REMARK   11  A    between atoms: C11_20  and  C12_21 
REMARK   12  A    between atoms: C16_27  and  O8_28 
REMARK   13  A    between atoms: C19_32  and  O9_33 
REMARK   14  A    between atoms: C21_35  and  O10_36 
REMARK   15  A    between atoms: C24_40  and  O11_41 
REMARK   16  A    between atoms: C24_40  and  O12_43 
ROOT
HETATM    1  C12 UNL     1       2.676   9.229  47.011  1.00  0.00     0.264 C 
HETATM    2  O7  UNL     1       1.745   9.497  46.195  1.00  0.00    -0.275 OA
HETATM    3  C13 UNL     1       3.852  10.000  46.989  1.00  0.00     0.144 C 
HETATM    4  N2  UNL     1       4.828  10.661  46.949  1.00  0.00    -0.188 NA
ENDROOT
BRANCH   1   5
HETATM    5  C11 UNL     1       2.469   8.126  47.934  1.00  0.00     0.064 A 
HETATM    6  C10 UNL     1       1.763   6.964  47.591  1.00  0.00     0.114 A 
HETATM    7  C9  UNL     1       1.589   5.942  48.489  1.00  0.00     0.102 A 
HETATM    8  C8  UNL     1       2.122   6.058  49.761  1.00  0.00     0.076 A 
HETATM    9  C7  UNL     1       2.822   7.172  50.151  1.00  0.00     0.073 A 
HETATM   10  C14 UNL     1       2.975   8.178  49.219  1.00  0.00     0.056 A 
BRANCH   6  11
HETATM   11  O6  UNL     1       1.258   6.916  46.301  1.00  0.00    -0.357 OA
ATOM     12  H6  UNL     1       1.195   7.686  45.748  1.00  0.00     0.217 HD
ENDBRANCH   6  11
BRANCH   7  13
HETATM   13  O5  UNL     1       0.885   4.802  48.122  1.00  0.00    -0.358 OA
ATOM     14  H5  UNL     1       0.196   4.851  47.470  1.00  0.00     0.217 HD
ENDBRANCH   7  13
BRANCH   9  15
HETATM   15  O4  UNL     1       3.359   7.304  51.422  1.00  0.00    -0.341 OA
BRANCH  15  16
HETATM   16  C6  UNL     1       2.679   7.266  52.636  1.00  0.00     0.286 C 
BRANCH  16  17
HETATM   17  C5  UNL     1       3.240   6.245  53.526  1.00  0.00     0.283 C 
HETATM   18  O3  UNL     1       3.310   6.418  54.770  1.00  0.00    -0.263 OA
BRANCH  17  19
HETATM   19  O2  UNL     1       3.731   5.023  53.075  1.00  0.00    -0.315 OA
BRANCH  19  20
HETATM   20  C4  UNL     1       4.750   4.351  53.752  1.00  0.00     0.216 C 
BRANCH  20  21
HETATM   21  C3  UNL     1       4.848   2.908  53.448  1.00  0.00    -0.015 A 
HETATM   22  C2  UNL     1       5.451   2.472  52.162  1.00  0.00     0.205 A 
HETATM   23  C24 UNL     1       5.505   1.066  51.830  1.00  0.00     0.204 A 
HETATM   24  C23 UNL     1       4.967   0.189  52.887  1.00  0.00     0.058 A 
HETATM   25  C22 UNL     1       4.468   0.637  54.009  1.00  0.00     0.015 A 
HETATM   26  C15 UNL     1       4.407   2.015  54.297  1.00  0.00     0.017 A 
HETATM   27  C21 UNL     1       3.984  -0.282  54.907  1.00  0.00     0.110 A 
HETATM   28  C16 UNL     1       3.843   2.367  55.512  1.00  0.00     0.086 A 
HETATM   29  C17 UNL     1       3.348   1.457  56.430  1.00  0.00     0.008 A 
HETATM   30  C18 UNL     1       2.752   1.944  57.727  1.00  0.00     0.054 C 
HETATM   31  C19 UNL     1       3.418   0.132  56.133  1.00  0.00     0.110 A 
BRANCH  22  32
HETATM   32  N1  UNL     1       6.750   3.139  51.973  1.00  0.00    -0.086 NA
BRANCH  32  33
HETATM   33  O1  UNL     1       6.886   3.610  50.735  1.00  0.00    -0.291 OA
HETATM   34  C1  UNL     1       8.066   3.264  50.112  1.00  0.00     0.231 C 
ENDBRANCH  32  33
ENDBRANCH  22  32
BRANCH  23  35
HETATM   35  O11 UNL     1       6.787   0.621  51.430  1.00  0.00    -0.361 OA
ATOM     36  H11 UNL     1       7.219   0.069  52.070  1.00  0.00     0.213 HD
ENDBRANCH  23  35
BRANCH  23  37
HETATM   37  O12 UNL     1       4.660   0.811  50.707  1.00  0.00    -0.361 OA
ATOM     38  H12 UNL     1       3.819   0.494  51.012  1.00  0.00     0.213 HD
ENDBRANCH  23  37
BRANCH  28  39
HETATM   39  O8  UNL     1       3.755   3.685  55.858  1.00  0.00    -0.359 OA
ATOM     40  H8  UNL     1       4.334   4.033  56.525  1.00  0.00     0.217 HD
ENDBRANCH  28  39
BRANCH  31  41
HETATM   41  O9  UNL     1       2.929  -0.807  57.036  1.00  0.00    -0.352 OA
HETATM   42  C20 UNL     1       3.803  -1.248  58.051  1.00  0.00     0.210 C 
ENDBRANCH  31  41
BRANCH  27  43
HETATM   43  O10 UNL     1       4.011  -1.626  54.694  1.00  0.00    -0.357 OA
ATOM     44  H10 UNL     1       3.379  -2.134  55.189  1.00  0.00     0.217 HD
ENDBRANCH  27  43
ENDBRANCH  20  21
ENDBRANCH  19  20
ENDBRANCH  17  19
ENDBRANCH  16  17
ENDBRANCH  15  16
ENDBRANCH   9  15
ENDBRANCH   1   5
TORSDOF 16
ENDMDL
