MODEL 1
REMARK VINA RESULT: -7.380257121      0.000      0.000
REMARK  12 active torsions:
REMARK  status: ('A' for Active; 'I' for Inactive)
REMARK    1  A    between atoms: O1_2  and  C2_3 
REMARK    2  A    between atoms: C4_5  and  C5_6 
REMARK    3  A    between atoms: N1_7  and  N2_9 
REMARK    4  A    between atoms: N2_9  and  C6_11 
REMARK    5  A    between atoms: C7_14  and  N4_15 
REMARK    6  A    between atoms: C8_20  and  N6_21 
REMARK    7  A    between atoms: C12_28  and  N8_29 
REMARK       I    between atoms: N8_29  and  C13_31 
REMARK    8  A    between atoms: C13_31  and  C14_33 
REMARK    9  A    between atoms: C14_33  and  S1_34 
REMARK   10  A    between atoms: S1_34  and  C15_35 
REMARK   11  A    between atoms: C18_41  and  O5_42 
REMARK   12  A    between atoms: C20_44  and  O6_45 
ROOT
HETATM    1  C6  UNL     1     -16.946  21.029  -6.164  1.00  0.00     0.170 C 
HETATM    2  N3  UNL     1     -17.806  20.498  -7.035  1.00  0.00    -0.173 N 
ATOM      3  H3  UNL     1     -18.751  20.316  -6.694  1.00  0.00     0.186 HD
HETATM    4  C7  UNL     1     -17.553  20.177  -8.318  1.00  0.00     0.679 C 
HETATM    5  N5  UNL     1     -16.470  20.374  -9.089  1.00  0.00    -0.176 N 
ATOM      6  H5  UNL     1     -16.460  19.894  -9.988  1.00  0.00     0.186 HD
HETATM    7  C8  UNL     1     -15.390  21.140  -8.804  1.00  0.00     0.129 C 
HETATM    8  C9  UNL     1     -15.102  21.802  -7.628  1.00  0.00     0.071 A 
HETATM    9  C10 UNL     1     -14.047  22.658  -7.395  1.00  0.00     0.112 A 
HETATM   10  C11 UNL     1     -13.044  23.015  -8.355  1.00  0.00     0.105 C 
HETATM   11  N7  UNL     1     -12.226  23.316  -9.116  1.00  0.00    -0.191 NA
HETATM   12  C12 UNL     1     -14.116  23.112  -6.087  1.00  0.00     0.172 A 
HETATM   13  O4  UNL     1     -15.176  22.543  -5.569  1.00  0.00    -0.287 OA
HETATM   14  C16 UNL     1     -15.791  21.766  -6.426  1.00  0.00     0.139 A 
ENDROOT
BRANCH  12  15
HETATM   15  N8  UNL     1     -13.198  24.015  -5.471  1.00  0.00    -0.305 N 
HETATM   16  C13 UNL     1     -13.530  25.369  -5.239  1.00  0.00     0.233 C 
HETATM   17  O2  UNL     1     -14.655  25.778  -5.586  1.00  0.00    -0.272 OA
ATOM     18  H8  UNL     1     -12.278  23.674  -5.191  1.00  0.00     0.171 HD
BRANCH  16  19
HETATM   19  C14 UNL     1     -12.565  26.277  -4.603  1.00  0.00     0.186 C 
BRANCH  19  20
HETATM   20  S1  UNL     1     -12.083  25.615  -3.002  1.00  0.00    -0.063 SA
BRANCH  20  21
HETATM   21  C15 UNL     1     -12.672  26.586  -1.653  1.00  0.00     0.293 C 
HETATM   22  N9  UNL     1     -12.771  26.006  -0.360  1.00  0.00    -0.051 NA
HETATM   23  O3  UNL     1     -13.011  27.786  -1.798  1.00  0.00    -0.264 OA
ENDBRANCH  20  21
ENDBRANCH  19  20
ENDBRANCH  16  19
ENDBRANCH  12  15
BRANCH   7  24
HETATM   24  N6  UNL     1     -14.526  21.275  -9.725  1.00  0.00    -0.384 N 
ATOM     25  H62 UNL     1     -14.618  22.120 -10.287  1.00  0.00     0.157 HD
ATOM     26  H61 UNL     1     -13.829  20.534  -9.813  1.00  0.00     0.157 HD
ENDBRANCH   7  24
BRANCH   1  27
HETATM   27  N2  UNL     1     -17.169  20.867  -4.925  1.00  0.00    -0.283 N 
ATOM     28  H2  UNL     1     -17.604  19.981  -4.666  1.00  0.00     0.188 HD
BRANCH  27  29
HETATM   29  N1  UNL     1     -16.904  21.723  -3.887  1.00  0.00    -0.309 N 
HETATM   30  C5  UNL     1     -16.445  21.406  -2.739  1.00  0.00     0.118 C 
ATOM     31  H1  UNL     1     -17.094  22.712  -4.049  1.00  0.00     0.186 HD
BRANCH  30  32
HETATM   32  C4  UNL     1     -16.191  22.376  -1.689  1.00  0.00    -0.014 A 
HETATM   33  C3  UNL     1     -16.328  23.741  -1.971  1.00  0.00     0.052 A 
HETATM   34  C2  UNL     1     -16.090  24.675  -0.988  1.00  0.00     0.104 A 
HETATM   35  C20 UNL     1     -15.720  24.277   0.267  1.00  0.00     0.133 A 
HETATM   36  C18 UNL     1     -15.581  22.933   0.557  1.00  0.00     0.104 A 
HETATM   37  C17 UNL     1     -15.818  21.994  -0.423  1.00  0.00     0.052 A 
BRANCH  34  38
HETATM   38  O1  UNL     1     -16.222  26.051  -1.250  1.00  0.00    -0.353 OA
HETATM   39  C1  UNL     1     -16.233  26.480  -2.595  1.00  0.00     0.210 C 
ENDBRANCH  34  38
BRANCH  35  40
HETATM   40  O6  UNL     1     -15.467  25.199   1.299  1.00  0.00    -0.356 OA
ATOM     41  H6  UNL     1     -14.695  25.141   1.850  1.00  0.00     0.218 HD
ENDBRANCH  35  40
BRANCH  36  42
HETATM   42  O5  UNL     1     -15.202  22.559   1.846  1.00  0.00    -0.353 OA
HETATM   43  C19 UNL     1     -13.860  22.287   2.196  1.00  0.00     0.210 C 
ENDBRANCH  36  42
ENDBRANCH  30  32
ENDBRANCH  27  29
ENDBRANCH   1  27
BRANCH   4  44
HETATM   44  N4  UNL     1     -18.546  19.569  -8.901  1.00  0.00    -0.234 N 
ATOM     45  H42 UNL     1     -19.432  19.603  -8.397  1.00  0.00     0.174 HD
ATOM     46  H41 UNL     1     -18.289  19.139  -9.789  1.00  0.00     0.174 HD
ENDBRANCH   4  44
TORSDOF 12
ENDMDL
MODEL 2
REMARK VINA RESULT: -7.373160840      3.356      8.406
REMARK  12 active torsions:
REMARK  status: ('A' for Active; 'I' for Inactive)
REMARK    1  A    between atoms: O1_2  and  C2_3 
REMARK    2  A    between atoms: C4_5  and  C5_6 
REMARK    3  A    between atoms: N1_7  and  N2_9 
REMARK    4  A    between atoms: N2_9  and  C6_11 
REMARK    5  A    between atoms: C7_14  and  N4_15 
REMARK    6  A    between atoms: C8_20  and  N6_21 
REMARK    7  A    between atoms: C12_28  and  N8_29 
REMARK       I    between atoms: N8_29  and  C13_31 
REMARK    8  A    between atoms: C13_31  and  C14_33 
REMARK    9  A    between atoms: C14_33  and  S1_34 
REMARK   10  A    between atoms: S1_34  and  C15_35 
REMARK   11  A    between atoms: C18_41  and  O5_42 
REMARK   12  A    between atoms: C20_44  and  O6_45 
ROOT
HETATM    1  C6  UNL     1     -13.372  24.292  -6.826  1.00  0.00     0.170 C 
HETATM    2  N3  UNL     1     -13.521  25.470  -7.436  1.00  0.00    -0.173 N 
ATOM      3  H3  UNL     1     -13.641  25.450  -8.449  1.00  0.00     0.186 HD
HETATM    4  C7  UNL     1     -13.529  26.682  -6.850  1.00  0.00     0.679 C 
HETATM    5  N5  UNL     1     -13.497  27.046  -5.556  1.00  0.00    -0.176 N 
ATOM      6  H5  UNL     1     -13.348  28.037  -5.368  1.00  0.00     0.186 HD
HETATM    7  C8  UNL     1     -13.639  26.243  -4.475  1.00  0.00     0.129 C 
HETATM    8  C9  UNL     1     -13.741  24.867  -4.444  1.00  0.00     0.071 A 
HETATM    9  C10 UNL     1     -13.987  24.078  -3.340  1.00  0.00     0.112 A 
HETATM   10  C11 UNL     1     -14.182  24.562  -2.005  1.00  0.00     0.105 C 
HETATM   11  N7  UNL     1     -14.344  24.933  -0.921  1.00  0.00    -0.191 NA
HETATM   12  C12 UNL     1     -14.013  22.749  -3.734  1.00  0.00     0.172 A 
HETATM   13  O4  UNL     1     -13.791  22.757  -5.025  1.00  0.00    -0.287 OA
HETATM   14  C16 UNL     1     -13.624  23.969  -5.493  1.00  0.00     0.139 A 
ENDROOT
BRANCH  12  15
HETATM   15  N8  UNL     1     -14.240  21.632  -2.874  1.00  0.00    -0.305 N 
HETATM   16  C13 UNL     1     -15.499  20.996  -2.798  1.00  0.00     0.233 C 
HETATM   17  O2  UNL     1     -16.432  21.429  -3.503  1.00  0.00    -0.272 OA
ATOM     18  H8  UNL     1     -13.472  21.284  -2.299  1.00  0.00     0.171 HD
BRANCH  16  19
HETATM   19  C14 UNL     1     -15.704  19.848  -1.904  1.00  0.00     0.186 C 
BRANCH  19  20
HETATM   20  S1  UNL     1     -16.310  20.427  -0.313  1.00  0.00    -0.063 SA
BRANCH  20  21
HETATM   21  C15 UNL     1     -15.129  21.408   0.554  1.00  0.00     0.293 C 
HETATM   22  N9  UNL     1     -15.571  22.492   1.360  1.00  0.00    -0.051 NA
HETATM   23  O3  UNL     1     -13.897  21.178   0.484  1.00  0.00    -0.264 OA
ENDBRANCH  20  21
ENDBRANCH  19  20
ENDBRANCH  16  19
ENDBRANCH  12  15
BRANCH   7  24
HETATM   24  N6  UNL     1     -13.686  26.814  -3.341  1.00  0.00    -0.384 N 
ATOM     25  H62 UNL     1     -14.594  27.199  -3.086  1.00  0.00     0.157 HD
ATOM     26  H61 UNL     1     -12.821  26.831  -2.800  1.00  0.00     0.157 HD
ENDBRANCH   7  24
BRANCH   1  27
HETATM   27  N2  UNL     1     -12.949  23.311  -7.510  1.00  0.00    -0.283 N 
ATOM     28  H2  UNL     1     -11.938  23.271  -7.647  1.00  0.00     0.188 HD
BRANCH  27  29
HETATM   29  N1  UNL     1     -13.666  22.297  -8.091  1.00  0.00    -0.309 N 
HETATM   30  C5  UNL     1     -13.932  22.169  -9.333  1.00  0.00     0.118 C 
ATOM     31  H1  UNL     1     -14.023  21.573  -7.467  1.00  0.00     0.186 HD
BRANCH  30  32
HETATM   32  C4  UNL     1     -14.702  21.061  -9.870  1.00  0.00    -0.014 A 
HETATM   33  C3  UNL     1     -15.764  20.539  -9.122  1.00  0.00     0.052 A 
HETATM   34  C2  UNL     1     -16.504  19.488  -9.615  1.00  0.00     0.104 A 
HETATM   35  C20 UNL     1     -16.207  18.949 -10.836  1.00  0.00     0.133 A 
HETATM   36  C18 UNL     1     -15.160  19.455 -11.584  1.00  0.00     0.104 A 
HETATM   37  C17 UNL     1     -14.417  20.507 -11.095  1.00  0.00     0.052 A 
BRANCH  34  38
HETATM   38  O1  UNL     1     -17.575  18.948  -8.880  1.00  0.00    -0.353 OA
HETATM   39  C1  UNL     1     -18.084  19.691  -7.793  1.00  0.00     0.210 C 
ENDBRANCH  34  38
BRANCH  35  40
HETATM   40  O6  UNL     1     -16.937  17.874 -11.376  1.00  0.00    -0.356 OA
ATOM     41  H6  UNL     1     -17.085  17.070 -10.892  1.00  0.00     0.218 HD
ENDBRANCH  35  40
BRANCH  36  42
HETATM   42  O5  UNL     1     -14.883  18.883 -12.825  1.00  0.00    -0.353 OA
HETATM   43  C19 UNL     1     -14.369  19.630 -13.910  1.00  0.00     0.210 C 
ENDBRANCH  36  42
ENDBRANCH  30  32
ENDBRANCH  27  29
ENDBRANCH   1  27
BRANCH   4  44
HETATM   44  N4  UNL     1     -13.578  27.664  -7.702  1.00  0.00    -0.234 N 
ATOM     45  H42 UNL     1     -14.501  27.860  -8.087  1.00  0.00     0.174 HD
ATOM     46  H41 UNL     1     -12.671  28.102  -7.864  1.00  0.00     0.174 HD
ENDBRANCH   4  44
TORSDOF 12
ENDMDL
MODEL 3
REMARK VINA RESULT: -7.237542504      2.994      7.729
REMARK  12 active torsions:
REMARK  status: ('A' for Active; 'I' for Inactive)
REMARK    1  A    between atoms: O1_2  and  C2_3 
REMARK    2  A    between atoms: C4_5  and  C5_6 
REMARK    3  A    between atoms: N1_7  and  N2_9 
REMARK    4  A    between atoms: N2_9  and  C6_11 
REMARK    5  A    between atoms: C7_14  and  N4_15 
REMARK    6  A    between atoms: C8_20  and  N6_21 
REMARK    7  A    between atoms: C12_28  and  N8_29 
REMARK       I    between atoms: N8_29  and  C13_31 
REMARK    8  A    between atoms: C13_31  and  C14_33 
REMARK    9  A    between atoms: C14_33  and  S1_34 
REMARK   10  A    between atoms: S1_34  and  C15_35 
REMARK   11  A    between atoms: C18_41  and  O5_42 
REMARK   12  A    between atoms: C20_44  and  O6_45 
ROOT
HETATM    1  C6  UNL     1     -14.314  22.435  -3.405  1.00  0.00     0.170 C 
HETATM    2  N3  UNL     1     -14.702  21.179  -3.171  1.00  0.00    -0.173 N 
ATOM      3  H3  UNL     1     -14.495  20.493  -3.897  1.00  0.00     0.186 HD
HETATM    4  C7  UNL     1     -15.339  20.728  -2.074  1.00  0.00     0.679 C 
HETATM    5  N5  UNL     1     -15.662  21.334  -0.919  1.00  0.00    -0.176 N 
ATOM      6  H5  UNL     1     -16.291  20.824  -0.299  1.00  0.00     0.186 HD
HETATM    7  C8  UNL     1     -15.246  22.548  -0.485  1.00  0.00     0.129 C 
HETATM    8  C9  UNL     1     -14.490  23.481  -1.165  1.00  0.00     0.071 A 
HETATM    9  C10 UNL     1     -13.993  24.667  -0.668  1.00  0.00     0.112 A 
HETATM   10  C11 UNL     1     -14.181  25.146   0.670  1.00  0.00     0.105 C 
HETATM   11  N7  UNL     1     -14.321  25.549   1.745  1.00  0.00    -0.191 NA
HETATM   12  C12 UNL     1     -13.288  25.315  -1.671  1.00  0.00     0.172 A 
HETATM   13  O4  UNL     1     -13.366  24.535  -2.721  1.00  0.00    -0.287 OA
HETATM   14  C16 UNL     1     -14.059  23.449  -2.482  1.00  0.00     0.139 A 
ENDROOT
BRANCH  12  15
HETATM   15  N8  UNL     1     -12.625  26.573  -1.541  1.00  0.00    -0.305 N 
HETATM   16  C13 UNL     1     -11.238  26.710  -1.772  1.00  0.00     0.233 C 
HETATM   17  O2  UNL     1     -10.583  25.701  -2.096  1.00  0.00    -0.272 OA
ATOM     18  H8  UNL     1     -13.168  27.395  -1.274  1.00  0.00     0.171 HD
BRANCH  16  19
HETATM   19  C14 UNL     1     -10.582  28.018  -1.631  1.00  0.00     0.186 C 
BRANCH  19  20
HETATM   20  S1  UNL     1     -10.284  28.355   0.110  1.00  0.00    -0.063 SA
BRANCH  20  21
HETATM   21  C15 UNL     1     -10.021  26.891   1.057  1.00  0.00     0.293 C 
HETATM   22  N9  UNL     1      -8.768  26.224   0.989  1.00  0.00    -0.051 NA
HETATM   23  O3  UNL     1     -10.914  26.412   1.798  1.00  0.00    -0.264 OA
ENDBRANCH  20  21
ENDBRANCH  19  20
ENDBRANCH  16  19
ENDBRANCH  12  15
BRANCH   7  24
HETATM   24  N6  UNL     1     -15.587  22.882   0.692  1.00  0.00    -0.384 N 
ATOM     25  H62 UNL     1     -16.589  22.998   0.837  1.00  0.00     0.157 HD
ATOM     26  H61 UNL     1     -14.835  23.001   1.371  1.00  0.00     0.157 HD
ENDBRANCH   7  24
BRANCH   1  27
HETATM   27  N2  UNL     1     -14.141  22.796  -4.609  1.00  0.00    -0.283 N 
ATOM     28  H2  UNL     1     -13.667  23.690  -4.738  1.00  0.00     0.188 HD
BRANCH  27  29
HETATM   29  N1  UNL     1     -14.506  22.146  -5.760  1.00  0.00    -0.309 N 
HETATM   30  C5  UNL     1     -15.616  22.263  -6.379  1.00  0.00     0.118 C 
ATOM     31  H1  UNL     1     -13.821  21.504  -6.161  1.00  0.00     0.186 HD
BRANCH  30  32
HETATM   32  C4  UNL     1     -15.926  21.536  -7.598  1.00  0.00    -0.014 A 
HETATM   33  C3  UNL     1     -17.195  20.963  -7.748  1.00  0.00     0.052 A 
HETATM   34  C2  UNL     1     -17.506  20.270  -8.896  1.00  0.00     0.104 A 
HETATM   35  C20 UNL     1     -16.581  20.137  -9.894  1.00  0.00     0.133 A 
HETATM   36  C18 UNL     1     -15.324  20.698  -9.757  1.00  0.00     0.104 A 
HETATM   37  C17 UNL     1     -15.008  21.393  -8.610  1.00  0.00     0.052 A 
BRANCH  34  38
HETATM   38  O1  UNL     1     -18.774  19.687  -9.069  1.00  0.00    -0.353 OA
HETATM   39  C1  UNL     1     -19.800  20.468  -9.644  1.00  0.00     0.210 C 
ENDBRANCH  34  38
BRANCH  35  40
HETATM   40  O6  UNL     1     -16.858  19.436 -11.082  1.00  0.00    -0.356 OA
ATOM     41  H6  UNL     1     -17.032  19.882 -11.903  1.00  0.00     0.218 HD
ENDBRANCH  35  40
BRANCH  36  42
HETATM   42  O5  UNL     1     -14.403  20.545 -10.792  1.00  0.00    -0.353 OA
HETATM   43  C19 UNL     1     -13.227  21.324 -10.887  1.00  0.00     0.210 C 
ENDBRANCH  36  42
ENDBRANCH  30  32
ENDBRANCH  27  29
ENDBRANCH   1  27
BRANCH   4  44
HETATM   44  N4  UNL     1     -15.697  19.480  -2.165  1.00  0.00    -0.234 N 
ATOM     45  H42 UNL     1     -14.931  18.814  -2.264  1.00  0.00     0.174 HD
ATOM     46  H41 UNL     1     -16.708  19.347  -2.126  1.00  0.00     0.174 HD
ENDBRANCH   4  44
TORSDOF 12
ENDMDL
MODEL 4
REMARK VINA RESULT: -7.223220803      4.683      7.573
REMARK  12 active torsions:
REMARK  status: ('A' for Active; 'I' for Inactive)
REMARK    1  A    between atoms: O1_2  and  C2_3 
REMARK    2  A    between atoms: C4_5  and  C5_6 
REMARK    3  A    between atoms: N1_7  and  N2_9 
REMARK    4  A    between atoms: N2_9  and  C6_11 
REMARK    5  A    between atoms: C7_14  and  N4_15 
REMARK    6  A    between atoms: C8_20  and  N6_21 
REMARK    7  A    between atoms: C12_28  and  N8_29 
REMARK       I    between atoms: N8_29  and  C13_31 
REMARK    8  A    between atoms: C13_31  and  C14_33 
REMARK    9  A    between atoms: C14_33  and  S1_34 
REMARK   10  A    between atoms: S1_34  and  C15_35 
REMARK   11  A    between atoms: C18_41  and  O5_42 
REMARK   12  A    between atoms: C20_44  and  O6_45 
ROOT
HETATM    1  C6  UNL     1     -16.222  23.433  -0.617  1.00  0.00     0.170 C 
HETATM    2  N3  UNL     1     -16.364  22.222  -1.158  1.00  0.00    -0.173 N 
ATOM      3  H3  UNL     1     -16.894  22.167  -2.028  1.00  0.00     0.186 HD
HETATM    4  C7  UNL     1     -15.879  21.064  -0.671  1.00  0.00     0.679 C 
HETATM    5  N5  UNL     1     -15.074  20.805   0.374  1.00  0.00    -0.176 N 
ATOM      6  H5  UNL     1     -14.977  19.825   0.639  1.00  0.00     0.186 HD
HETATM    7  C8  UNL     1     -14.377  21.699   1.114  1.00  0.00     0.129 C 
HETATM    8  C9  UNL     1     -14.414  23.077   1.039  1.00  0.00     0.071 A 
HETATM    9  C10 UNL     1     -13.620  23.966   1.733  1.00  0.00     0.112 A 
HETATM   10  C11 UNL     1     -12.600  23.605   2.673  1.00  0.00     0.105 C 
HETATM   11  N7  UNL     1     -11.772  23.334   3.433  1.00  0.00    -0.191 NA
HETATM   12  C12 UNL     1     -13.973  25.258   1.374  1.00  0.00     0.172 A 
HETATM   13  O4  UNL     1     -14.938  25.133   0.498  1.00  0.00    -0.287 OA
HETATM   14  C16 UNL     1     -15.237  23.879   0.265  1.00  0.00     0.139 A 
ENDROOT
BRANCH  12  15
HETATM   15  N8  UNL     1     -13.377  26.453   1.879  1.00  0.00    -0.305 N 
HETATM   16  C13 UNL     1     -12.266  27.055   1.247  1.00  0.00     0.233 C 
HETATM   17  O2  UNL     1     -11.799  26.522   0.222  1.00  0.00    -0.272 OA
ATOM     18  H8  UNL     1     -13.764  26.884   2.720  1.00  0.00     0.171 HD
BRANCH  16  19
HETATM   19  C14 UNL     1     -11.672  28.285   1.790  1.00  0.00     0.186 C 
BRANCH  19  20
HETATM   20  S1  UNL     1     -12.352  29.710   0.930  1.00  0.00    -0.063 SA
BRANCH  20  21
HETATM   21  C15 UNL     1     -14.114  29.689   0.855  1.00  0.00     0.293 C 
HETATM   22  N9  UNL     1     -14.768  28.857  -0.093  1.00  0.00    -0.051 NA
HETATM   23  O3  UNL     1     -14.818  30.392   1.620  1.00  0.00    -0.264 OA
ENDBRANCH  20  21
ENDBRANCH  19  20
ENDBRANCH  16  19
ENDBRANCH  12  15
BRANCH   7  24
HETATM   24  N6  UNL     1     -13.588  21.226   1.989  1.00  0.00    -0.384 N 
ATOM     25  H62 UNL     1     -13.975  20.477   2.562  1.00  0.00     0.157 HD
ATOM     26  H61 UNL     1     -12.654  21.635   2.035  1.00  0.00     0.157 HD
ENDBRANCH   7  24
BRANCH   1  27
HETATM   27  N2  UNL     1     -17.070  24.329  -0.918  1.00  0.00    -0.283 N 
ATOM     28  H2  UNL     1     -17.993  24.222  -0.495  1.00  0.00     0.188 HD
BRANCH  27  29
HETATM   29  N1  UNL     1     -16.913  25.419  -1.733  1.00  0.00    -0.309 N 
HETATM   30  C5  UNL     1     -16.413  25.424  -2.908  1.00  0.00     0.118 C 
ATOM     31  H1  UNL     1     -17.228  26.317  -1.364  1.00  0.00     0.186 HD
BRANCH  30  32
HETATM   32  C4  UNL     1     -16.282  26.627  -3.710  1.00  0.00    -0.014 A 
HETATM   33  C3  UNL     1     -15.068  26.887  -4.360  1.00  0.00     0.052 A 
HETATM   34  C2  UNL     1     -14.926  28.023  -5.124  1.00  0.00     0.104 A 
HETATM   35  C20 UNL     1     -15.965  28.903  -5.253  1.00  0.00     0.133 A 
HETATM   36  C18 UNL     1     -17.167  28.657  -4.616  1.00  0.00     0.104 A 
HETATM   37  C17 UNL     1     -17.315  27.521  -3.850  1.00  0.00     0.052 A 
BRANCH  34  38
HETATM   38  O1  UNL     1     -13.717  28.305  -5.785  1.00  0.00    -0.353 OA
HETATM   39  C1  UNL     1     -12.600  28.681  -5.008  1.00  0.00     0.210 C 
ENDBRANCH  34  38
BRANCH  35  40
HETATM   40  O6  UNL     1     -15.861  30.075  -6.024  1.00  0.00    -0.356 OA
ATOM     41  H6  UNL     1     -16.547  30.351  -6.620  1.00  0.00     0.218 HD
ENDBRANCH  35  40
BRANCH  36  42
HETATM   42  O5  UNL     1     -18.208  29.573  -4.768  1.00  0.00    -0.353 OA
HETATM   43  C19 UNL     1     -19.504  29.191  -5.182  1.00  0.00     0.210 C 
ENDBRANCH  36  42
ENDBRANCH  30  32
ENDBRANCH  27  29
ENDBRANCH   1  27
BRANCH   4  44
HETATM   44  N4  UNL     1     -16.267  20.021  -1.345  1.00  0.00    -0.234 N 
ATOM     45  H42 UNL     1     -17.124  20.145  -1.883  1.00  0.00     0.174 HD
ATOM     46  H41 UNL     1     -15.649  19.217  -1.234  1.00  0.00     0.174 HD
ENDBRANCH   4  44
TORSDOF 12
ENDMDL
MODEL 5
REMARK VINA RESULT: -7.222740333      4.695      7.479
REMARK  12 active torsions:
REMARK  status: ('A' for Active; 'I' for Inactive)
REMARK    1  A    between atoms: O1_2  and  C2_3 
REMARK    2  A    between atoms: C4_5  and  C5_6 
REMARK    3  A    between atoms: N1_7  and  N2_9 
REMARK    4  A    between atoms: N2_9  and  C6_11 
REMARK    5  A    between atoms: C7_14  and  N4_15 
REMARK    6  A    between atoms: C8_20  and  N6_21 
REMARK    7  A    between atoms: C12_28  and  N8_29 
REMARK       I    between atoms: N8_29  and  C13_31 
REMARK    8  A    between atoms: C13_31  and  C14_33 
REMARK    9  A    between atoms: C14_33  and  S1_34 
REMARK   10  A    between atoms: S1_34  and  C15_35 
REMARK   11  A    between atoms: C18_41  and  O5_42 
REMARK   12  A    between atoms: C20_44  and  O6_45 
ROOT
HETATM    1  C6  UNL     1     -16.216  23.444  -0.615  1.00  0.00     0.170 C 
HETATM    2  N3  UNL     1     -16.359  22.232  -1.156  1.00  0.00    -0.173 N 
ATOM      3  H3  UNL     1     -16.888  22.178  -2.026  1.00  0.00     0.186 HD
HETATM    4  C7  UNL     1     -15.874  21.075  -0.668  1.00  0.00     0.679 C 
HETATM    5  N5  UNL     1     -15.070  20.816   0.378  1.00  0.00    -0.176 N 
ATOM      6  H5  UNL     1     -14.974  19.836   0.644  1.00  0.00     0.186 HD
HETATM    7  C8  UNL     1     -14.374  21.710   1.119  1.00  0.00     0.129 C 
HETATM    8  C9  UNL     1     -14.410  23.088   1.044  1.00  0.00     0.071 A 
HETATM    9  C10 UNL     1     -13.617  23.977   1.738  1.00  0.00     0.112 A 
HETATM   10  C11 UNL     1     -12.598  23.615   2.679  1.00  0.00     0.105 C 
HETATM   11  N7  UNL     1     -11.770  23.344   3.441  1.00  0.00    -0.191 NA
HETATM   12  C12 UNL     1     -13.968  25.269   1.378  1.00  0.00     0.172 A 
HETATM   13  O4  UNL     1     -14.933  25.143   0.501  1.00  0.00    -0.287 OA
HETATM   14  C16 UNL     1     -15.232  23.889   0.268  1.00  0.00     0.139 A 
ENDROOT
BRANCH  12  15
HETATM   15  N8  UNL     1     -13.372  26.464   1.884  1.00  0.00    -0.305 N 
HETATM   16  C13 UNL     1     -12.262  27.066   1.252  1.00  0.00     0.233 C 
HETATM   17  O2  UNL     1     -11.795  26.533   0.226  1.00  0.00    -0.272 OA
ATOM     18  H8  UNL     1     -13.759  26.894   2.725  1.00  0.00     0.171 HD
BRANCH  16  19
HETATM   19  C14 UNL     1     -11.668  28.296   1.795  1.00  0.00     0.186 C 
BRANCH  19  20
HETATM   20  S1  UNL     1     -12.333  29.720   0.921  1.00  0.00    -0.063 SA
BRANCH  20  21
HETATM   21  C15 UNL     1     -14.095  29.715   0.843  1.00  0.00     0.293 C 
HETATM   22  N9  UNL     1     -14.756  28.861  -0.080  1.00  0.00    -0.051 NA
HETATM   23  O3  UNL     1     -14.793  30.449   1.585  1.00  0.00    -0.264 OA
ENDBRANCH  20  21
ENDBRANCH  19  20
ENDBRANCH  16  19
ENDBRANCH  12  15
BRANCH   7  24
HETATM   24  N6  UNL     1     -13.586  21.237   1.995  1.00  0.00    -0.384 N 
ATOM     25  H62 UNL     1     -12.904  20.564   1.648  1.00  0.00     0.157 HD
ATOM     26  H61 UNL     1     -13.708  21.572   2.951  1.00  0.00     0.157 HD
ENDBRANCH   7  24
BRANCH   1  27
HETATM   27  N2  UNL     1     -17.064  24.340  -0.916  1.00  0.00    -0.283 N 
ATOM     28  H2  UNL     1     -17.986  24.236  -0.492  1.00  0.00     0.188 HD
BRANCH  27  29
HETATM   29  N1  UNL     1     -16.907  25.428  -1.735  1.00  0.00    -0.309 N 
HETATM   30  C5  UNL     1     -16.411  25.428  -2.912  1.00  0.00     0.118 C 
ATOM     31  H1  UNL     1     -17.217  26.328  -1.367  1.00  0.00     0.186 HD
BRANCH  30  32
HETATM   32  C4  UNL     1     -16.279  26.629  -3.718  1.00  0.00    -0.014 A 
HETATM   33  C3  UNL     1     -17.371  27.498  -3.835  1.00  0.00     0.052 A 
HETATM   34  C2  UNL     1     -17.264  28.640  -4.596  1.00  0.00     0.104 A 
HETATM   35  C20 UNL     1     -16.094  28.933  -5.240  1.00  0.00     0.133 A 
HETATM   36  C18 UNL     1     -15.009  28.082  -5.132  1.00  0.00     0.104 A 
HETATM   37  C17 UNL     1     -15.111  26.938  -4.372  1.00  0.00     0.052 A 
BRANCH  34  38
HETATM   38  O1  UNL     1     -18.348  29.527  -4.727  1.00  0.00    -0.353 OA
HETATM   39  C1  UNL     1     -19.601  29.002  -5.111  1.00  0.00     0.210 C 
ENDBRANCH  34  38
BRANCH  35  40
HETATM   40  O6  UNL     1     -15.943  30.089  -6.027  1.00  0.00    -0.356 OA
ATOM     41  H6  UNL     1     -15.168  30.244  -6.554  1.00  0.00     0.218 HD
ENDBRANCH  35  40
BRANCH  36  42
HETATM   42  O5  UNL     1     -13.830  28.409  -5.801  1.00  0.00    -0.353 OA
HETATM   43  C19 UNL     1     -12.617  28.669  -5.123  1.00  0.00     0.210 C 
ENDBRANCH  36  42
ENDBRANCH  30  32
ENDBRANCH  27  29
ENDBRANCH   1  27
BRANCH   4  44
HETATM   44  N4  UNL     1     -16.262  20.031  -1.341  1.00  0.00    -0.234 N 
ATOM     45  H42 UNL     1     -15.799  19.897  -2.240  1.00  0.00     0.174 HD
ATOM     46  H41 UNL     1     -16.986  19.491  -0.866  1.00  0.00     0.174 HD
ENDBRANCH   4  44
TORSDOF 12
ENDMDL
