MODEL 1
REMARK VINA RESULT: -7.523549833      0.000      0.000
REMARK  9 active torsions:
REMARK  status: ('A' for Active; 'I' for Inactive)
REMARK    1  A    between atoms: C3_7  and  S1_8 
REMARK    2  A    between atoms: S1_8  and  C4_9 
REMARK    3  A    between atoms: C4_9  and  C5_10 
REMARK    4  A    between atoms: C6_11  and  C7_12 
REMARK    5  A    between atoms: C8_16  and  C9_17 
REMARK    6  A    between atoms: C10_20  and  S2_21 
REMARK    7  A    between atoms: S2_21  and  S3_22 
REMARK    8  A    between atoms: S3_22  and  C11_23 
REMARK    9  A    between atoms: N6_28  and  O5_29 
ROOT
HETATM    1  C5  UNL     1     -15.090  23.962  -3.491  1.00  0.00     0.025 C 
HETATM    2  C6  UNL     1     -14.134  24.035  -2.593  1.00  0.00     0.128 C 
HETATM    3  N3  UNL     1     -14.305  23.148  -1.479  1.00  0.00    -0.302 N 
HETATM    4  C8  UNL     1     -14.243  23.362  -0.088  1.00  0.00     0.150 C 
HETATM    5  C10 UNL     1     -14.146  22.318   0.739  1.00  0.00     0.127 C 
HETATM    6  N7  UNL     1     -14.229  21.037   0.140  1.00  0.00    -0.292 N 
ATOM      7  H7  UNL     1     -13.725  20.244   0.537  1.00  0.00     0.183 HD
HETATM    8  N8  UNL     1     -15.031  20.879  -1.029  1.00  0.00    -0.103 NA
HETATM    9  C12 UNL     1     -14.634  21.809  -2.010  1.00  0.00     0.272 C 
HETATM   10  S4  UNL     1     -16.063  22.473  -2.990  1.00  0.00    -0.086 SA
ENDROOT
BRANCH   1  11
HETATM   11  C4  UNL     1     -15.430  24.673  -4.705  1.00  0.00     0.130 C 
BRANCH  11  12
HETATM   12  S1  UNL     1     -16.802  25.865  -4.416  1.00  0.00    -0.098 SA
BRANCH  12  13
HETATM   13  C3  UNL     1     -16.446  26.896  -2.989  1.00  0.00     0.128 A 
HETATM   14  N2  UNL     1     -16.426  26.569  -1.702  1.00  0.00    -0.287 N 
HETATM   15  N1  UNL     1     -16.155  27.438  -0.830  1.00  0.00    -0.297 N 
ATOM     16  H2  UNL     1     -16.630  25.611  -1.419  1.00  0.00     0.188 HD
HETATM   17  C2  UNL     1     -15.887  28.685  -1.202  1.00  0.00     0.065 A 
ATOM     18  H1  UNL     1     -16.140  27.184   0.158  1.00  0.00     0.187 HD
HETATM   19  C1  UNL     1     -15.545  29.854  -0.312  1.00  0.00     0.078 C 
HETATM   20  S5  UNL     1     -16.042  28.569  -2.899  1.00  0.00    -0.050 SA
ENDBRANCH  12  13
ENDBRANCH  11  12
ENDBRANCH   1  11
BRANCH   2  21
HETATM   21  C7  UNL     1     -13.027  24.980  -2.619  1.00  0.00     0.228 C 
HETATM   22  O1  UNL     1     -11.818  24.668  -2.900  1.00  0.00    -0.643 OA
HETATM   23  O2  UNL     1     -13.290  26.332  -2.318  1.00  0.00    -0.643 OA
ENDBRANCH   2  21
BRANCH   4  24
HETATM   24  C9  UNL     1     -14.319  24.683   0.521  1.00  0.00     0.230 C 
HETATM   25  O3  UNL     1     -15.470  25.102   0.881  1.00  0.00    -0.643 OA
HETATM   26  O4  UNL     1     -13.278  25.529   0.736  1.00  0.00    -0.643 OA
ENDBRANCH   4  24
BRANCH   5  27
HETATM   27  S2  UNL     1     -14.051  22.513   2.494  1.00  0.00    -0.028 SA
BRANCH  27  28
HETATM   28  S3  UNL     1     -12.203  23.341   3.102  1.00  0.00    -0.009 SA
BRANCH  28  29
HETATM   29  C11 UNL     1     -12.492  24.983   3.749  1.00  0.00     0.218 A 
HETATM   30  N4  UNL     1     -11.916  26.201   3.650  1.00  0.00    -0.259 N 
HETATM   31  N5  UNL     1     -12.833  26.733   4.460  1.00  0.00    -0.212 N 
ATOM     32  H4  UNL     1     -11.103  26.568   3.154  1.00  0.00     0.191 HD
HETATM   33  N6  UNL     1     -13.395  25.543   4.555  1.00  0.00    -0.122 N 
ATOM     34  H5  UNL     1     -13.020  27.661   4.841  1.00  0.00     0.211 HD
BRANCH  33  35
HETATM   35  O5  UNL     1     -14.506  25.092   5.246  1.00  0.00    -0.265 OA
ATOM     36  H5  UNL     1     -14.665  24.766   6.123  1.00  0.00     0.247 HD
ENDBRANCH  33  35
ENDBRANCH  28  29
ENDBRANCH  27  28
ENDBRANCH   5  27
TORSDOF 9
ENDMDL
MODEL 2
REMARK VINA RESULT: -7.290717566      2.718      4.413
REMARK  9 active torsions:
REMARK  status: ('A' for Active; 'I' for Inactive)
REMARK    1  A    between atoms: C3_7  and  S1_8 
REMARK    2  A    between atoms: S1_8  and  C4_9 
REMARK    3  A    between atoms: C4_9  and  C5_10 
REMARK    4  A    between atoms: C6_11  and  C7_12 
REMARK    5  A    between atoms: C8_16  and  C9_17 
REMARK    6  A    between atoms: C10_20  and  S2_21 
REMARK    7  A    between atoms: S2_21  and  S3_22 
REMARK    8  A    between atoms: S3_22  and  C11_23 
REMARK    9  A    between atoms: N6_28  and  O5_29 
ROOT
HETATM    1  C5  UNL     1     -15.376  23.167  -3.349  1.00  0.00     0.025 C 
HETATM    2  C6  UNL     1     -14.395  23.445  -2.519  1.00  0.00     0.128 C 
HETATM    3  N3  UNL     1     -14.443  22.716  -1.286  1.00  0.00    -0.302 N 
HETATM    4  C8  UNL     1     -14.347  23.130   0.057  1.00  0.00     0.150 C 
HETATM    5  C10 UNL     1     -14.125  22.226   1.015  1.00  0.00     0.127 C 
HETATM    6  N7  UNL     1     -14.118  20.870   0.605  1.00  0.00    -0.292 N 
ATOM      7  H7  UNL     1     -13.530  20.186   1.082  1.00  0.00     0.183 HD
HETATM    8  N8  UNL     1     -14.948  20.482  -0.489  1.00  0.00    -0.103 NA
HETATM    9  C12 UNL     1     -14.673  21.292  -1.608  1.00  0.00     0.272 C 
HETATM   10  S4  UNL     1     -16.193  21.690  -2.597  1.00  0.00    -0.086 SA
ENDROOT
BRANCH   1  11
HETATM   11  C4  UNL     1     -15.824  23.666  -4.630  1.00  0.00     0.130 C 
BRANCH  11  12
HETATM   12  S1  UNL     1     -16.234  22.285  -5.776  1.00  0.00    -0.098 SA
BRANCH  12  13
HETATM   13  C3  UNL     1     -15.009  22.171  -7.083  1.00  0.00     0.128 A 
HETATM   14  N2  UNL     1     -13.749  22.593  -7.093  1.00  0.00    -0.287 N 
HETATM   15  N1  UNL     1     -13.031  22.427  -8.115  1.00  0.00    -0.297 N 
ATOM     16  H2  UNL     1     -13.362  23.053  -6.269  1.00  0.00     0.188 HD
HETATM   17  C2  UNL     1     -13.537  21.826  -9.186  1.00  0.00     0.065 A 
ATOM     18  H1  UNL     1     -12.064  22.753  -8.120  1.00  0.00     0.187 HD
HETATM   19  C1  UNL     1     -12.839  21.541 -10.493  1.00  0.00     0.078 C 
HETATM   20  S5  UNL     1     -15.129  21.496  -8.665  1.00  0.00    -0.050 SA
ENDBRANCH  12  13
ENDBRANCH  11  12
ENDBRANCH   1  11
BRANCH   2  21
HETATM   21  C7  UNL     1     -13.378  24.465  -2.733  1.00  0.00     0.228 C 
HETATM   22  O1  UNL     1     -12.133  24.219  -2.899  1.00  0.00    -0.643 OA
HETATM   23  O2  UNL     1     -13.777  25.817  -2.762  1.00  0.00    -0.643 OA
ENDBRANCH   2  21
BRANCH   4  24
HETATM   24  C9  UNL     1     -14.515  24.514   0.480  1.00  0.00     0.230 C 
HETATM   25  O3  UNL     1     -15.682  24.882   0.843  1.00  0.00    -0.643 OA
HETATM   26  O4  UNL     1     -13.546  25.466   0.516  1.00  0.00    -0.643 OA
ENDBRANCH   4  24
BRANCH   5  27
HETATM   27  S2  UNL     1     -13.979  22.677   2.718  1.00  0.00    -0.028 SA
BRANCH  27  28
HETATM   28  S3  UNL     1     -12.186  23.727   3.112  1.00  0.00    -0.009 SA
BRANCH  28  29
HETATM   29  C11 UNL     1     -12.578  25.220   4.013  1.00  0.00     0.218 A 
HETATM   30  N4  UNL     1     -12.050  26.456   4.160  1.00  0.00    -0.259 N 
HETATM   31  N5  UNL     1     -13.031  26.807   4.994  1.00  0.00    -0.212 N 
ATOM     32  H4  UNL     1     -11.229  26.929   3.783  1.00  0.00     0.191 HD
HETATM   33  N6  UNL     1     -13.545  25.602   4.850  1.00  0.00    -0.122 N 
ATOM     34  H5  UNL     1     -13.277  27.648   5.518  1.00  0.00     0.211 HD
BRANCH  33  35
HETATM   35  O5  UNL     1     -14.670  25.000   5.386  1.00  0.00    -0.265 OA
ATOM     36  H5  UNL     1     -15.491  24.677   5.034  1.00  0.00     0.247 HD
ENDBRANCH  33  35
ENDBRANCH  28  29
ENDBRANCH  27  28
ENDBRANCH   5  27
TORSDOF 9
ENDMDL
MODEL 3
REMARK VINA RESULT: -7.137885317      3.331      5.198
REMARK  9 active torsions:
REMARK  status: ('A' for Active; 'I' for Inactive)
REMARK    1  A    between atoms: C3_7  and  S1_8 
REMARK    2  A    between atoms: S1_8  and  C4_9 
REMARK    3  A    between atoms: C4_9  and  C5_10 
REMARK    4  A    between atoms: C6_11  and  C7_12 
REMARK    5  A    between atoms: C8_16  and  C9_17 
REMARK    6  A    between atoms: C10_20  and  S2_21 
REMARK    7  A    between atoms: S2_21  and  S3_22 
REMARK    8  A    between atoms: S3_22  and  C11_23 
REMARK    9  A    between atoms: N6_28  and  O5_29 
ROOT
HETATM    1  C5  UNL     1     -15.769  23.651  -3.397  1.00  0.00     0.025 C 
HETATM    2  C6  UNL     1     -16.220  23.496  -2.173  1.00  0.00     0.128 C 
HETATM    3  N3  UNL     1     -15.255  23.774  -1.150  1.00  0.00    -0.302 N 
HETATM    4  C8  UNL     1     -14.852  23.047  -0.012  1.00  0.00     0.150 C 
HETATM    5  C10 UNL     1     -14.147  23.653   0.946  1.00  0.00     0.127 C 
HETATM    6  N7  UNL     1     -13.751  24.987   0.681  1.00  0.00    -0.292 N 
ATOM      7  H7  UNL     1     -13.653  25.661   1.441  1.00  0.00     0.183 HD
HETATM    8  N8  UNL     1     -13.493  25.369  -0.669  1.00  0.00    -0.103 NA
HETATM    9  C12 UNL     1     -14.608  25.063  -1.473  1.00  0.00     0.272 C 
HETATM   10  S4  UNL     1     -14.130  24.476  -3.169  1.00  0.00    -0.086 SA
ENDROOT
BRANCH   1  11
HETATM   11  C4  UNL     1     -16.284  23.424  -4.730  1.00  0.00     0.130 C 
BRANCH  11  12
HETATM   12  S1  UNL     1     -15.805  21.759  -5.353  1.00  0.00    -0.098 SA
BRANCH  12  13
HETATM   13  C3  UNL     1     -14.758  21.911  -6.804  1.00  0.00     0.128 A 
HETATM   14  N2  UNL     1     -13.618  22.576  -6.950  1.00  0.00    -0.287 N 
HETATM   15  N1  UNL     1     -13.017  22.572  -8.059  1.00  0.00    -0.297 N 
ATOM     16  H2  UNL     1     -13.227  23.093  -6.163  1.00  0.00     0.188 HD
HETATM   17  C2  UNL     1     -13.527  21.897  -9.082  1.00  0.00     0.065 A 
ATOM     18  H1  UNL     1     -12.142  23.084  -8.169  1.00  0.00     0.187 HD
HETATM   19  C1  UNL     1     -12.959  21.774 -10.474  1.00  0.00     0.078 C 
HETATM   20  S5  UNL     1     -14.943  21.247  -8.383  1.00  0.00    -0.050 SA
ENDBRANCH  12  13
ENDBRANCH  11  12
ENDBRANCH   1  11
BRANCH   2  21
HETATM   21  C7  UNL     1     -17.541  22.993  -1.823  1.00  0.00     0.228 C 
HETATM   22  O1  UNL     1     -18.393  23.634  -1.116  1.00  0.00    -0.643 OA
HETATM   23  O2  UNL     1     -17.919  21.716  -2.286  1.00  0.00    -0.643 OA
ENDBRANCH   2  21
BRANCH   4  24
HETATM   24  C9  UNL     1     -15.134  21.630   0.170  1.00  0.00     0.230 C 
HETATM   25  O3  UNL     1     -16.232  21.315   0.740  1.00  0.00    -0.643 OA
HETATM   26  O4  UNL     1     -14.333  20.597  -0.200  1.00  0.00    -0.643 OA
ENDBRANCH   4  24
BRANCH   5  27
HETATM   27  S2  UNL     1     -13.621  22.806   2.406  1.00  0.00    -0.028 SA
BRANCH  27  28
HETATM   28  S3  UNL     1     -12.051  23.821   3.392  1.00  0.00    -0.009 SA
BRANCH  28  29
HETATM   29  C11 UNL     1     -12.720  25.267   4.205  1.00  0.00     0.218 A 
HETATM   30  N4  UNL     1     -12.384  26.569   4.344  1.00  0.00    -0.259 N 
HETATM   31  N5  UNL     1     -13.468  26.799   5.088  1.00  0.00    -0.212 N 
ATOM     32  H4  UNL     1     -11.610  27.145   4.013  1.00  0.00     0.191 HD
HETATM   33  N6  UNL     1     -13.794  25.529   4.951  1.00  0.00    -0.122 N 
ATOM     34  H5  UNL     1     -13.870  27.609   5.559  1.00  0.00     0.211 HD
BRANCH  33  35
HETATM   35  O5  UNL     1     -14.864  24.787   5.422  1.00  0.00    -0.265 OA
ATOM     36  H5  UNL     1     -15.606  24.963   5.988  1.00  0.00     0.247 HD
ENDBRANCH  33  35
ENDBRANCH  28  29
ENDBRANCH  27  28
ENDBRANCH   5  27
TORSDOF 9
ENDMDL
MODEL 4
REMARK VINA RESULT: -7.133717531      2.548      4.292
REMARK  9 active torsions:
REMARK  status: ('A' for Active; 'I' for Inactive)
REMARK    1  A    between atoms: C3_7  and  S1_8 
REMARK    2  A    between atoms: S1_8  and  C4_9 
REMARK    3  A    between atoms: C4_9  and  C5_10 
REMARK    4  A    between atoms: C6_11  and  C7_12 
REMARK    5  A    between atoms: C8_16  and  C9_17 
REMARK    6  A    between atoms: C10_20  and  S2_21 
REMARK    7  A    between atoms: S2_21  and  S3_22 
REMARK    8  A    between atoms: S3_22  and  C11_23 
REMARK    9  A    between atoms: N6_28  and  O5_29 
ROOT
HETATM    1  C5  UNL     1     -15.171  23.925  -3.430  1.00  0.00     0.025 C 
HETATM    2  C6  UNL     1     -14.200  24.018  -2.549  1.00  0.00     0.128 C 
HETATM    3  N3  UNL     1     -14.342  23.143  -1.423  1.00  0.00    -0.302 N 
HETATM    4  C8  UNL     1     -14.258  23.374  -0.035  1.00  0.00     0.150 C 
HETATM    5  C10 UNL     1     -14.135  22.341   0.802  1.00  0.00     0.127 C 
HETATM    6  N7  UNL     1     -14.216  21.052   0.220  1.00  0.00    -0.292 N 
ATOM      7  H7  UNL     1     -13.697  20.269   0.618  1.00  0.00     0.183 HD
HETATM    8  N8  UNL     1     -15.037  20.872  -0.933  1.00  0.00    -0.103 NA
HETATM    9  C12 UNL     1     -14.666  21.794  -1.931  1.00  0.00     0.272 C 
HETATM   10  S4  UNL     1     -16.120  22.432  -2.894  1.00  0.00    -0.086 SA
ENDROOT
BRANCH   1  11
HETATM   11  C4  UNL     1     -15.540  24.617  -4.646  1.00  0.00     0.130 C 
BRANCH  11  12
HETATM   12  S1  UNL     1     -14.319  24.301  -5.987  1.00  0.00    -0.098 SA
BRANCH  12  13
HETATM   13  C3  UNL     1     -14.755  22.814  -6.894  1.00  0.00     0.128 A 
HETATM   14  N2  UNL     1     -13.964  21.949  -7.519  1.00  0.00    -0.287 N 
HETATM   15  N1  UNL     1     -14.456  20.952  -8.113  1.00  0.00    -0.297 N 
ATOM     16  H2  UNL     1     -12.954  22.093  -7.518  1.00  0.00     0.188 HD
HETATM   17  C2  UNL     1     -15.771  20.766  -8.112  1.00  0.00     0.065 A 
ATOM     18  H1  UNL     1     -13.846  20.290  -8.593  1.00  0.00     0.187 HD
HETATM   19  C1  UNL     1     -16.539  19.643  -8.762  1.00  0.00     0.078 C 
HETATM   20  S5  UNL     1     -16.299  22.111  -7.202  1.00  0.00    -0.050 SA
ENDBRANCH  12  13
ENDBRANCH  11  12
ENDBRANCH   1  11
BRANCH   2  21
HETATM   21  C7  UNL     1     -13.103  24.974  -2.607  1.00  0.00     0.228 C 
HETATM   22  O1  UNL     1     -11.884  24.661  -2.838  1.00  0.00    -0.643 OA
HETATM   23  O2  UNL     1     -13.389  26.338  -2.396  1.00  0.00    -0.643 OA
ENDBRANCH   2  21
BRANCH   4  24
HETATM   24  C9  UNL     1     -14.336  24.702   0.559  1.00  0.00     0.230 C 
HETATM   25  O3  UNL     1     -15.488  25.123   0.912  1.00  0.00    -0.643 OA
HETATM   26  O4  UNL     1     -13.296  25.551   0.768  1.00  0.00    -0.643 OA
ENDBRANCH   4  24
BRANCH   5  27
HETATM   27  S2  UNL     1     -14.011  22.558   2.552  1.00  0.00    -0.028 SA
BRANCH  27  28
HETATM   28  S3  UNL     1     -12.171  23.434   3.116  1.00  0.00    -0.009 SA
BRANCH  28  29
HETATM   29  C11 UNL     1     -12.493  25.037   3.841  1.00  0.00     0.218 A 
HETATM   30  N4  UNL     1     -11.924  26.263   3.826  1.00  0.00    -0.259 N 
HETATM   31  N5  UNL     1     -12.870  26.744   4.634  1.00  0.00    -0.212 N 
ATOM     32  H4  UNL     1     -11.099  26.660   3.376  1.00  0.00     0.191 HD
HETATM   33  N6  UNL     1     -13.425  25.547   4.647  1.00  0.00    -0.122 N 
ATOM     34  H5  UNL     1     -13.077  27.648   5.059  1.00  0.00     0.211 HD
BRANCH  33  35
HETATM   35  O5  UNL     1     -14.553  25.052   5.277  1.00  0.00    -0.265 OA
ATOM     36  H5  UNL     1     -14.997  25.229   6.098  1.00  0.00     0.247 HD
ENDBRANCH  33  35
ENDBRANCH  28  29
ENDBRANCH  27  28
ENDBRANCH   5  27
TORSDOF 9
ENDMDL
MODEL 5
REMARK VINA RESULT: -7.060257101      3.445      5.435
REMARK  9 active torsions:
REMARK  status: ('A' for Active; 'I' for Inactive)
REMARK    1  A    between atoms: C3_7  and  S1_8 
REMARK    2  A    between atoms: S1_8  and  C4_9 
REMARK    3  A    between atoms: C4_9  and  C5_10 
REMARK    4  A    between atoms: C6_11  and  C7_12 
REMARK    5  A    between atoms: C8_16  and  C9_17 
REMARK    6  A    between atoms: C10_20  and  S2_21 
REMARK    7  A    between atoms: S2_21  and  S3_22 
REMARK    8  A    between atoms: S3_22  and  C11_23 
REMARK    9  A    between atoms: N6_28  and  O5_29 
ROOT
HETATM    1  C5  UNL     1     -15.150  22.516  -3.023  1.00  0.00     0.025 C 
HETATM    2  C6  UNL     1     -15.653  22.887  -1.867  1.00  0.00     0.128 C 
HETATM    3  N3  UNL     1     -14.775  23.699  -1.077  1.00  0.00    -0.302 N 
HETATM    4  C8  UNL     1     -14.372  23.615   0.270  1.00  0.00     0.150 C 
HETATM    5  C10 UNL     1     -13.778  24.661   0.851  1.00  0.00     0.127 C 
HETATM    6  N7  UNL     1     -13.490  25.763   0.009  1.00  0.00    -0.292 N 
ATOM      7  H7  UNL     1     -13.495  26.714   0.377  1.00  0.00     0.183 HD
HETATM    8  N8  UNL     1     -13.193  25.515  -1.365  1.00  0.00    -0.103 NA
HETATM    9  C12 UNL     1     -14.230  24.761  -1.949  1.00  0.00     0.272 C 
HETATM   10  S4  UNL     1     -13.608  23.522  -3.184  1.00  0.00    -0.086 SA
ENDROOT
BRANCH   1  11
HETATM   11  C4  UNL     1     -15.568  21.655  -4.109  1.00  0.00     0.130 C 
BRANCH  11  12
HETATM   12  S1  UNL     1     -16.079  22.639  -5.578  1.00  0.00    -0.098 SA
BRANCH  12  13
HETATM   13  C3  UNL     1     -14.910  22.409  -6.922  1.00  0.00     0.128 A 
HETATM   14  N2  UNL     1     -13.631  22.761  -6.992  1.00  0.00    -0.287 N 
HETATM   15  N1  UNL     1     -12.961  22.518  -8.032  1.00  0.00    -0.297 N 
ATOM     16  H2  UNL     1     -13.190  23.229  -6.200  1.00  0.00     0.188 HD
HETATM   17  C2  UNL     1     -13.537  21.907  -9.060  1.00  0.00     0.065 A 
ATOM     18  H1  UNL     1     -11.979  22.790  -8.082  1.00  0.00     0.187 HD
HETATM   19  C1  UNL     1     -12.904  21.535 -10.378  1.00  0.00     0.078 C 
HETATM   20  S5  UNL     1     -15.124  21.684  -8.471  1.00  0.00    -0.050 SA
ENDBRANCH  12  13
ENDBRANCH  11  12
ENDBRANCH   1  11
BRANCH   2  21
HETATM   21  C7  UNL     1     -16.940  22.461  -1.336  1.00  0.00     0.228 C 
HETATM   22  O1  UNL     1     -17.946  23.235  -1.176  1.00  0.00    -0.643 OA
HETATM   23  O2  UNL     1     -17.103  21.109  -0.970  1.00  0.00    -0.643 OA
ENDBRANCH   2  21
BRANCH   4  24
HETATM   24  C9  UNL     1     -14.534  22.414   1.078  1.00  0.00     0.230 C 
HETATM   25  O3  UNL     1     -15.541  22.361   1.861  1.00  0.00    -0.643 OA
HETATM   26  O4  UNL     1     -13.707  21.336   1.091  1.00  0.00    -0.643 OA
ENDBRANCH   4  24
BRANCH   5  27
HETATM   27  S2  UNL     1     -13.260  24.630   2.541  1.00  0.00    -0.028 SA
BRANCH  27  28
HETATM   28  S3  UNL     1     -12.981  26.574   3.323  1.00  0.00    -0.009 SA
BRANCH  28  29
HETATM   29  C11 UNL     1     -11.354  27.154   2.859  1.00  0.00     0.218 A 
HETATM   30  N4  UNL     1     -10.315  27.774   3.462  1.00  0.00    -0.259 N 
HETATM   31  N5  UNL     1      -9.612  27.763   2.327  1.00  0.00    -0.212 N 
ATOM     32  H4  UNL     1     -10.138  28.113   4.407  1.00  0.00     0.191 HD
HETATM   33  N6  UNL     1     -10.627  27.158   1.740  1.00  0.00    -0.122 N 
ATOM     34  H5  UNL     1      -8.688  28.083   2.038  1.00  0.00     0.211 HD
BRANCH  33  35
HETATM   35  O5  UNL     1     -10.821  26.712   0.445  1.00  0.00    -0.265 OA
ATOM     36  H5  UNL     1     -10.255  26.401  -0.251  1.00  0.00     0.247 HD
ENDBRANCH  33  35
ENDBRANCH  28  29
ENDBRANCH  27  28
ENDBRANCH   5  27
TORSDOF 9
ENDMDL
