MODEL 1
REMARK VINA RESULT: -7.337717541      0.000      0.000
REMARK  12 active torsions:
REMARK  status: ('A' for Active; 'I' for Inactive)
REMARK    1  A    between atoms: C2_2  and  O1_3 
REMARK    2  A    between atoms: O1_3  and  C3_4 
REMARK    3  A    between atoms: C3_4  and  C4_6 
REMARK    4  A    between atoms: N2_9  and  C5_10 
REMARK    5  A    between atoms: C9_23  and  N7_24 
REMARK    6  A    between atoms: C11_31  and  C12_32 
REMARK    7  A    between atoms: C12_32  and  S1_33 
REMARK    8  A    between atoms: S1_33  and  C13_34 
REMARK    9  A    between atoms: C15_36  and  N10_37 
REMARK   10  A    between atoms: N10_37  and  C16_39 
REMARK   11  A    between atoms: C16_39  and  C17_40 
REMARK   12  A    between atoms: C17_40  and  N11_41 
ROOT
HETATM    1  C4  UNL     1     -15.227  21.757  -1.185  1.00  0.00     0.132 A 
HETATM    2  N1  UNL     1     -14.364  21.818  -2.217  1.00  0.00    -0.273 N 
ATOM      3  H1  UNL     1     -13.566  21.193  -2.336  1.00  0.00     0.188 HD
HETATM    4  N2  UNL     1     -14.680  22.789  -3.058  1.00  0.00    -0.087 N 
HETATM    5  C11 UNL     1     -15.787  23.419  -2.601  1.00  0.00     0.070 A 
HETATM    6  C18 UNL     1     -16.131  22.757  -1.410  1.00  0.00    -0.002 A 
HETATM    7  C19 UNL     1     -17.311  23.132  -0.616  1.00  0.00     0.053 C 
ENDROOT
BRANCH   4   8
HETATM    8  C5  UNL     1     -13.953  23.013  -4.266  1.00  0.00     0.720 C 
HETATM    9  N3  UNL     1     -13.990  22.089  -5.251  1.00  0.00    -0.129 N 
HETATM   10  N4  UNL     1     -14.099  22.386  -6.557  1.00  0.00    -0.269 N 
ATOM     11  H3  UNL     1     -13.931  21.106  -4.987  1.00  0.00     0.205 HD
HETATM   12  C6  UNL     1     -14.034  23.557  -7.220  1.00  0.00     0.155 A 
ATOM     13  H4  UNL     1     -14.261  21.577  -7.156  1.00  0.00     0.189 HD
HETATM   14  C7  UNL     1     -13.731  24.820  -6.722  1.00  0.00     0.100 A 
HETATM   15  N9  UNL     1     -14.262  23.693  -8.540  1.00  0.00    -0.278 N 
HETATM   16  C8  UNL     1     -13.447  25.113  -5.414  1.00  0.00     0.132 C 
HETATM   17  C9  UNL     1     -13.782  25.702  -7.762  1.00  0.00     0.131 A 
HETATM   18  N5  UNL     1     -13.401  26.354  -5.105  1.00  0.00    -0.384 N 
HETATM   19  N6  UNL     1     -13.252  24.184  -4.414  1.00  0.00    -0.173 N 
ATOM     20  H52 UNL     1     -13.545  27.041  -5.845  1.00  0.00     0.157 HD
ATOM     21  H51 UNL     1     -13.189  26.572  -4.131  1.00  0.00     0.157 HD
ATOM     22  H6  UNL     1     -12.527  24.385  -3.725  1.00  0.00     0.186 HD
HETATM   23  N8  UNL     1     -14.118  24.961  -8.881  1.00  0.00    -0.281 N 
ATOM     24  H8  UNL     1     -14.236  25.335  -9.823  1.00  0.00     0.189 HD
HETATM   25  C10 UNL     1     -14.607  22.582  -9.417  1.00  0.00     0.179 C 
BRANCH  17  26
HETATM   26  N7  UNL     1     -13.554  26.950  -7.778  1.00  0.00    -0.384 N 
ATOM     27  H72 UNL     1     -12.625  27.362  -7.690  1.00  0.00     0.157 HD
ATOM     28  H71 UNL     1     -14.206  27.731  -7.855  1.00  0.00     0.157 HD
ENDBRANCH  17  26
ENDBRANCH   4   8
BRANCH   5  29
HETATM   29  C12 UNL     1     -16.461  24.524  -3.296  1.00  0.00     0.141 C 
BRANCH  29  30
HETATM   30  S1  UNL     1     -16.117  26.161  -2.721  1.00  0.00    -0.105 SA
BRANCH  30  31
HETATM   31  C13 UNL     1     -14.957  26.276  -1.413  1.00  0.00     0.088 A 
HETATM   32  C14 UNL     1     -15.337  26.166  -0.065  1.00  0.00     0.087 A 
HETATM   33  C15 UNL     1     -14.168  26.268   0.648  1.00  0.00     0.118 A 
HETATM   34  N12 UNL     1     -13.160  26.428  -0.222  1.00  0.00    -0.285 N 
HETATM   35  N13 UNL     1     -13.632  26.434  -1.454  1.00  0.00    -0.293 N 
ATOM     36  H12 UNL     1     -12.178  26.530   0.031  1.00  0.00     0.188 HD
ATOM     37  H13 UNL     1     -13.075  26.541  -2.301  1.00  0.00     0.187 HD
BRANCH  33  38
HETATM   38  N10 UNL     1     -14.037  26.226   1.906  1.00  0.00    -0.374 N 
ATOM     39  H10 UNL     1     -14.594  25.543   2.420  1.00  0.00     0.161 HD
BRANCH  38  40
HETATM   40  C16 UNL     1     -13.151  27.083   2.667  1.00  0.00     0.148 C 
BRANCH  40  41
HETATM   41  C17 UNL     1     -12.739  26.274   3.878  1.00  0.00     0.249 C 
BRANCH  41  42
HETATM   42  N11 UNL     1     -13.542  26.603   5.020  1.00  0.00    -0.078 N 
ATOM     43 3H11 UNL     1     -13.030  27.184   5.683  1.00  0.00     0.274 HD
ATOM     44 2H11 UNL     1     -14.286  27.259   4.779  1.00  0.00     0.274 HD
ATOM     45 1H11 UNL     1     -13.913  25.763   5.465  1.00  0.00     0.274 HD
ENDBRANCH  41  42
ENDBRANCH  40  41
ENDBRANCH  38  40
ENDBRANCH  33  38
ENDBRANCH  30  31
ENDBRANCH  29  30
ENDBRANCH   5  29
BRANCH   1  46
HETATM   46  C3  UNL     1     -15.195  20.833  -0.068  1.00  0.00     0.312 C 
HETATM   47  O2  UNL     1     -15.779  19.736  -0.013  1.00  0.00    -0.258 OA
BRANCH  46  48
HETATM   48  O1  UNL     1     -14.449  21.150   1.094  1.00  0.00    -0.317 OA
BRANCH  48  49
HETATM   49  C2  UNL     1     -14.434  22.404   1.699  1.00  0.00     0.175 C 
HETATM   50  C1  UNL     1     -13.173  22.754   2.426  1.00  0.00     0.034 C 
ENDBRANCH  48  49
ENDBRANCH  46  48
ENDBRANCH   1  46
TORSDOF 12
ENDMDL
MODEL 2
REMARK VINA RESULT: -7.153791381      3.348      7.705
REMARK  12 active torsions:
REMARK  status: ('A' for Active; 'I' for Inactive)
REMARK    1  A    between atoms: C2_2  and  O1_3 
REMARK    2  A    between atoms: O1_3  and  C3_4 
REMARK    3  A    between atoms: C3_4  and  C4_6 
REMARK    4  A    between atoms: N2_9  and  C5_10 
REMARK    5  A    between atoms: C9_23  and  N7_24 
REMARK    6  A    between atoms: C11_31  and  C12_32 
REMARK    7  A    between atoms: C12_32  and  S1_33 
REMARK    8  A    between atoms: S1_33  and  C13_34 
REMARK    9  A    between atoms: C15_36  and  N10_37 
REMARK   10  A    between atoms: N10_37  and  C16_39 
REMARK   11  A    between atoms: C16_39  and  C17_40 
REMARK   12  A    between atoms: C17_40  and  N11_41 
ROOT
HETATM    1  C4  UNL     1     -16.837  26.393  -4.127  1.00  0.00     0.132 A 
HETATM    2  N1  UNL     1     -16.979  26.077  -2.826  1.00  0.00    -0.273 N 
ATOM      3  H1  UNL     1     -17.877  25.902  -2.372  1.00  0.00     0.188 HD
HETATM    4  N2  UNL     1     -15.811  26.023  -2.208  1.00  0.00    -0.087 N 
HETATM    5  C11 UNL     1     -14.833  26.309  -3.099  1.00  0.00     0.070 A 
HETATM    6  C18 UNL     1     -15.492  26.542  -4.318  1.00  0.00    -0.002 A 
HETATM    7  C19 UNL     1     -14.764  26.860  -5.556  1.00  0.00     0.053 C 
ENDROOT
BRANCH   4   8
HETATM    8  C5  UNL     1     -15.694  25.643  -0.837  1.00  0.00     0.720 C 
HETATM    9  N3  UNL     1     -15.952  24.368  -0.471  1.00  0.00    -0.129 N 
HETATM   10  N4  UNL     1     -15.217  23.676   0.415  1.00  0.00    -0.269 N 
ATOM     11  H3  UNL     1     -16.755  23.902  -0.894  1.00  0.00     0.205 HD
HETATM   12  C6  UNL     1     -14.224  24.052   1.245  1.00  0.00     0.155 A 
ATOM     13  H4  UNL     1     -15.454  22.686   0.471  1.00  0.00     0.189 HD
HETATM   14  C7  UNL     1     -13.731  25.330   1.486  1.00  0.00     0.100 A 
HETATM   15  N9  UNL     1     -13.518  23.202   2.013  1.00  0.00    -0.278 N 
HETATM   16  C8  UNL     1     -14.176  26.480   0.889  1.00  0.00     0.132 C 
HETATM   17  C9  UNL     1     -12.728  25.225   2.404  1.00  0.00     0.131 A 
HETATM   18  N5  UNL     1     -13.467  27.530   1.074  1.00  0.00    -0.384 N 
HETATM   19  N6  UNL     1     -15.289  26.580   0.081  1.00  0.00    -0.173 N 
ATOM     20  H52 UNL     1     -12.644  27.456   1.672  1.00  0.00     0.157 HD
ATOM     21  H51 UNL     1     -13.799  28.386   0.630  1.00  0.00     0.157 HD
ATOM     22  H6  UNL     1     -15.860  27.421   0.174  1.00  0.00     0.186 HD
HETATM   23  N8  UNL     1     -12.623  23.879   2.710  1.00  0.00    -0.281 N 
ATOM     24  H8  UNL     1     -11.958  23.473   3.369  1.00  0.00     0.189 HD
HETATM   25  C10 UNL     1     -13.745  21.762   2.041  1.00  0.00     0.179 C 
BRANCH  17  26
HETATM   26  N7  UNL     1     -12.015  26.131   2.934  1.00  0.00    -0.384 N 
ATOM     27  H72 UNL     1     -11.194  26.544   2.490  1.00  0.00     0.157 HD
ATOM     28  H71 UNL     1     -12.100  26.576   3.848  1.00  0.00     0.157 HD
ENDBRANCH  17  26
ENDBRANCH   4   8
BRANCH   5  29
HETATM   29  C12 UNL     1     -13.397  26.301  -2.788  1.00  0.00     0.141 C 
BRANCH  29  30
HETATM   30  S1  UNL     1     -12.471  24.890  -3.319  1.00  0.00    -0.105 SA
BRANCH  30  31
HETATM   31  C13 UNL     1     -13.420  23.511  -3.835  1.00  0.00     0.088 A 
HETATM   32  C14 UNL     1     -14.181  22.747  -2.934  1.00  0.00     0.087 A 
HETATM   33  C15 UNL     1     -14.803  21.796  -3.704  1.00  0.00     0.118 A 
HETATM   34  N12 UNL     1     -14.433  21.984  -4.980  1.00  0.00    -0.285 N 
HETATM   35  N13 UNL     1     -13.606  23.009  -5.058  1.00  0.00    -0.293 N 
ATOM     36  H12 UNL     1     -14.745  21.420  -5.770  1.00  0.00     0.188 HD
ATOM     37  H13 UNL     1     -13.178  23.361  -5.913  1.00  0.00     0.187 HD
BRANCH  33  38
HETATM   38  N10 UNL     1     -15.587  20.886  -3.305  1.00  0.00    -0.374 N 
ATOM     39  H10 UNL     1     -16.385  20.654  -3.896  1.00  0.00     0.161 HD
BRANCH  38  40
HETATM   40  C16 UNL     1     -15.429  20.153  -2.067  1.00  0.00     0.148 C 
BRANCH  40  41
HETATM   41  C17 UNL     1     -16.572  20.597  -1.179  1.00  0.00     0.249 C 
BRANCH  41  42
HETATM   42  N11 UNL     1     -17.726  20.947  -1.956  1.00  0.00    -0.078 N 
ATOM     43 3H11 UNL     1     -17.488  21.091  -2.938  1.00  0.00     0.274 HD
ATOM     44 2H11 UNL     1     -18.361  20.155  -2.063  1.00  0.00     0.274 HD
ATOM     45 1H11 UNL     1     -18.203  21.759  -1.563  1.00  0.00     0.274 HD
ENDBRANCH  41  42
ENDBRANCH  40  41
ENDBRANCH  38  40
ENDBRANCH  33  38
ENDBRANCH  30  31
ENDBRANCH  29  30
ENDBRANCH   5  29
BRANCH   1  46
HETATM   46  C3  UNL     1     -17.890  26.554  -5.111  1.00  0.00     0.312 C 
HETATM   47  O2  UNL     1     -17.744  26.509  -6.346  1.00  0.00    -0.258 OA
BRANCH  46  48
HETATM   48  O1  UNL     1     -19.223  26.784  -4.693  1.00  0.00    -0.317 OA
BRANCH  48  49
HETATM   49  C2  UNL     1     -19.853  28.025  -4.727  1.00  0.00     0.175 C 
HETATM   50  C1  UNL     1     -21.350  27.989  -4.704  1.00  0.00     0.034 C 
ENDBRANCH  48  49
ENDBRANCH  46  48
ENDBRANCH   1  46
TORSDOF 12
ENDMDL
MODEL 3
REMARK VINA RESULT: -7.040200320      1.739      2.602
REMARK  12 active torsions:
REMARK  status: ('A' for Active; 'I' for Inactive)
REMARK    1  A    between atoms: C2_2  and  O1_3 
REMARK    2  A    between atoms: O1_3  and  C3_4 
REMARK    3  A    between atoms: C3_4  and  C4_6 
REMARK    4  A    between atoms: N2_9  and  C5_10 
REMARK    5  A    between atoms: C9_23  and  N7_24 
REMARK    6  A    between atoms: C11_31  and  C12_32 
REMARK    7  A    between atoms: C12_32  and  S1_33 
REMARK    8  A    between atoms: S1_33  and  C13_34 
REMARK    9  A    between atoms: C15_36  and  N10_37 
REMARK   10  A    between atoms: N10_37  and  C16_39 
REMARK   11  A    between atoms: C16_39  and  C17_40 
REMARK   12  A    between atoms: C17_40  and  N11_41 
ROOT
HETATM    1  C4  UNL     1     -15.122  22.192  -1.090  1.00  0.00     0.132 A 
HETATM    2  N1  UNL     1     -15.027  22.129  -2.431  1.00  0.00    -0.273 N 
ATOM      3  H1  UNL     1     -14.753  21.293  -2.949  1.00  0.00     0.188 HD
HETATM    4  N2  UNL     1     -15.332  23.286  -2.995  1.00  0.00    -0.087 N 
HETATM    5  C11 UNL     1     -15.645  24.175  -2.025  1.00  0.00     0.070 A 
HETATM    6  C18 UNL     1     -15.510  23.473  -0.814  1.00  0.00    -0.002 A 
HETATM    7  C19 UNL     1     -15.794  24.093   0.488  1.00  0.00     0.053 C 
ENDROOT
BRANCH   4   8
HETATM    8  C5  UNL     1     -15.369  23.453  -4.412  1.00  0.00     0.720 C 
HETATM    9  N3  UNL     1     -14.367  24.112  -5.036  1.00  0.00    -0.129 N 
HETATM   10  N4  UNL     1     -13.821  23.723  -6.200  1.00  0.00    -0.269 N 
ATOM     11  H3  UNL     1     -14.003  24.957  -4.595  1.00  0.00     0.205 HD
HETATM   12  C6  UNL     1     -14.179  22.773  -7.086  1.00  0.00     0.155 A 
ATOM     13  H4  UNL     1     -12.982  24.240  -6.460  1.00  0.00     0.189 HD
HETATM   14  C7  UNL     1     -15.312  21.966  -7.082  1.00  0.00     0.100 A 
HETATM   15  N9  UNL     1     -13.458  22.442  -8.174  1.00  0.00    -0.278 N 
HETATM   16  C8  UNL     1     -16.299  21.983  -6.132  1.00  0.00     0.132 C 
HETATM   17  C9  UNL     1     -15.251  21.157  -8.179  1.00  0.00     0.131 A 
HETATM   18  N5  UNL     1     -17.151  21.030  -6.178  1.00  0.00    -0.384 N 
HETATM   19  N6  UNL     1     -16.414  22.912  -5.120  1.00  0.00    -0.173 N 
ATOM     20  H52 UNL     1     -17.066  20.343  -6.928  1.00  0.00     0.157 HD
ATOM     21  H51 UNL     1     -17.886  21.043  -5.471  1.00  0.00     0.157 HD
ATOM     22  H6  UNL     1     -17.354  23.222  -4.875  1.00  0.00     0.186 HD
HETATM   23  N8  UNL     1     -14.078  21.483  -8.837  1.00  0.00    -0.281 N 
ATOM     24  H8  UNL     1     -13.744  21.049  -9.698  1.00  0.00     0.189 HD
HETATM   25  C10 UNL     1     -12.194  23.077  -8.526  1.00  0.00     0.179 C 
BRANCH  17  26
HETATM   26  N7  UNL     1     -16.076  20.283  -8.589  1.00  0.00    -0.384 N 
ATOM     27  H72 UNL     1     -16.850  20.482  -9.223  1.00  0.00     0.157 HD
ATOM     28  H71 UNL     1     -16.137  19.290  -8.367  1.00  0.00     0.157 HD
ENDBRANCH  17  26
ENDBRANCH   4   8
BRANCH   5  29
HETATM   29  C12 UNL     1     -16.080  25.556  -2.271  1.00  0.00     0.141 C 
BRANCH  29  30
HETATM   30  S1  UNL     1     -14.836  26.813  -2.207  1.00  0.00    -0.105 SA
BRANCH  30  31
HETATM   31  C13 UNL     1     -14.413  27.378  -0.603  1.00  0.00     0.088 A 
HETATM   32  C14 UNL     1     -13.304  26.878   0.098  1.00  0.00     0.087 A 
HETATM   33  C15 UNL     1     -13.277  27.579   1.278  1.00  0.00     0.118 A 
HETATM   34  N12 UNL     1     -14.306  28.440   1.275  1.00  0.00    -0.285 N 
HETATM   35  N13 UNL     1     -14.985  28.320   0.151  1.00  0.00    -0.293 N 
ATOM     36  H12 UNL     1     -14.529  29.090   2.029  1.00  0.00     0.188 HD
ATOM     37  H13 UNL     1     -15.814  28.858  -0.101  1.00  0.00     0.187 HD
BRANCH  33  38
HETATM   38  N10 UNL     1     -12.443  27.452   2.221  1.00  0.00    -0.374 N 
ATOM     39  H10 UNL     1     -11.745  28.186   2.340  1.00  0.00     0.161 HD
BRANCH  38  40
HETATM   40  C16 UNL     1     -12.413  26.335   3.143  1.00  0.00     0.148 C 
BRANCH  40  41
HETATM   41  C17 UNL     1     -13.196  26.786   4.357  1.00  0.00     0.249 C 
BRANCH  41  42
HETATM   42  N11 UNL     1     -13.579  25.669   5.171  1.00  0.00    -0.078 N 
ATOM     43 3H11 UNL     1     -12.774  25.095   5.423  1.00  0.00     0.274 HD
ATOM     44 2H11 UNL     1     -13.859  25.965   6.107  1.00  0.00     0.274 HD
ATOM     45 1H11 UNL     1     -14.307  25.116   4.720  1.00  0.00     0.274 HD
ENDBRANCH  41  42
ENDBRANCH  40  41
ENDBRANCH  38  40
ENDBRANCH  33  38
ENDBRANCH  30  31
ENDBRANCH  29  30
ENDBRANCH   5  29
BRANCH   1  46
HETATM   46  C3  UNL     1     -14.854  21.129  -0.140  1.00  0.00     0.312 C 
HETATM   47  O2  UNL     1     -15.515  20.082  -0.016  1.00  0.00    -0.258 OA
BRANCH  46  48
HETATM   48  O1  UNL     1     -13.759  21.232   0.751  1.00  0.00    -0.317 OA
BRANCH  48  49
HETATM   49  C2  UNL     1     -13.864  21.630   2.082  1.00  0.00     0.175 C 
HETATM   50  C1  UNL     1     -13.110  22.872   2.445  1.00  0.00     0.034 C 
ENDBRANCH  48  49
ENDBRANCH  46  48
ENDBRANCH   1  46
TORSDOF 12
ENDMDL
MODEL 4
REMARK VINA RESULT: -6.883687033      3.214      6.566
REMARK  12 active torsions:
REMARK  status: ('A' for Active; 'I' for Inactive)
REMARK    1  A    between atoms: C2_2  and  O1_3 
REMARK    2  A    between atoms: O1_3  and  C3_4 
REMARK    3  A    between atoms: C3_4  and  C4_6 
REMARK    4  A    between atoms: N2_9  and  C5_10 
REMARK    5  A    between atoms: C9_23  and  N7_24 
REMARK    6  A    between atoms: C11_31  and  C12_32 
REMARK    7  A    between atoms: C12_32  and  S1_33 
REMARK    8  A    between atoms: S1_33  and  C13_34 
REMARK    9  A    between atoms: C15_36  and  N10_37 
REMARK   10  A    between atoms: N10_37  and  C16_39 
REMARK   11  A    between atoms: C16_39  and  C17_40 
REMARK   12  A    between atoms: C17_40  and  N11_41 
ROOT
HETATM    1  C4  UNL     1     -14.483  22.957  -7.597  1.00  0.00     0.132 A 
HETATM    2  N1  UNL     1     -13.974  22.399  -6.483  1.00  0.00    -0.273 N 
ATOM      3  H1  UNL     1     -13.248  21.682  -6.480  1.00  0.00     0.188 HD
HETATM    4  N2  UNL     1     -14.534  22.895  -5.391  1.00  0.00    -0.087 N 
HETATM    5  C11 UNL     1     -15.453  23.819  -5.754  1.00  0.00     0.070 A 
HETATM    6  C18 UNL     1     -15.416  23.855  -7.159  1.00  0.00    -0.002 A 
HETATM    7  C19 UNL     1     -16.261  24.767  -7.943  1.00  0.00     0.053 C 
ENDROOT
BRANCH   4   8
HETATM    8  C5  UNL     1     -14.116  22.509  -4.082  1.00  0.00     0.720 C 
HETATM    9  N3  UNL     1     -13.487  23.405  -3.289  1.00  0.00    -0.129 N 
HETATM   10  N4  UNL     1     -13.730  23.546  -1.975  1.00  0.00    -0.269 N 
ATOM     11  H3  UNL     1     -12.785  24.010  -3.713  1.00  0.00     0.205 HD
HETATM   12  C6  UNL     1     -14.457  22.809  -1.112  1.00  0.00     0.155 A 
ATOM     13  H4  UNL     1     -13.283  24.359  -1.554  1.00  0.00     0.189 HD
HETATM   14  C7  UNL     1     -15.105  21.599  -1.337  1.00  0.00     0.100 A 
HETATM   15  N9  UNL     1     -14.677  23.147   0.172  1.00  0.00    -0.278 N 
HETATM   16  C8  UNL     1     -15.134  20.920  -2.526  1.00  0.00     0.132 C 
HETATM   17  C9  UNL     1     -15.710  21.227  -0.171  1.00  0.00     0.131 A 
HETATM   18  N5  UNL     1     -15.951  19.938  -2.602  1.00  0.00    -0.384 N 
HETATM   19  N6  UNL     1     -14.391  21.238  -3.643  1.00  0.00    -0.173 N 
ATOM     20  H52 UNL     1     -16.500  19.703  -1.776  1.00  0.00     0.157 HD
ATOM     21  H51 UNL     1     -15.972  19.432  -3.488  1.00  0.00     0.157 HD
ATOM     22  H6  UNL     1     -14.014  20.463  -4.190  1.00  0.00     0.186 HD
HETATM   23  N8  UNL     1     -15.421  22.220   0.749  1.00  0.00    -0.281 N 
ATOM     24  H8  UNL     1     -15.734  22.233   1.720  1.00  0.00     0.189 HD
HETATM   25  C10 UNL     1     -14.152  24.359   0.789  1.00  0.00     0.179 C 
BRANCH  17  26
HETATM   26  N7  UNL     1     -16.389  20.188   0.095  1.00  0.00    -0.384 N 
ATOM     27  H72 UNL     1     -17.227  20.188   0.676  1.00  0.00     0.157 HD
ATOM     28  H71 UNL     1     -16.231  19.218  -0.180  1.00  0.00     0.157 HD
ENDBRANCH  17  26
ENDBRANCH   4   8
BRANCH   5  29
HETATM   29  C12 UNL     1     -16.247  24.617  -4.810  1.00  0.00     0.141 C 
BRANCH  29  30
HETATM   30  S1  UNL     1     -15.577  26.180  -4.322  1.00  0.00    -0.105 SA
BRANCH  30  31
HETATM   31  C13 UNL     1     -15.720  26.566  -2.619  1.00  0.00     0.088 A 
HETATM   32  C14 UNL     1     -14.890  27.512  -1.994  1.00  0.00     0.087 A 
HETATM   33  C15 UNL     1     -15.323  27.567  -0.693  1.00  0.00     0.118 A 
HETATM   34  N12 UNL     1     -16.344  26.708  -0.555  1.00  0.00    -0.285 N 
HETATM   35  N13 UNL     1     -16.581  26.110  -1.706  1.00  0.00    -0.293 N 
ATOM     36  H12 UNL     1     -16.860  26.543   0.309  1.00  0.00     0.188 HD
ATOM     37  H13 UNL     1     -17.305  25.411  -1.873  1.00  0.00     0.187 HD
BRANCH  33  38
HETATM   38  N10 UNL     1     -14.855  28.289   0.236  1.00  0.00    -0.374 N 
ATOM     39  H10 UNL     1     -15.509  28.863   0.767  1.00  0.00     0.161 HD
BRANCH  38  40
HETATM   40  C16 UNL     1     -13.454  28.355   0.596  1.00  0.00     0.148 C 
BRANCH  40  41
HETATM   41  C17 UNL     1     -13.358  27.749   1.979  1.00  0.00     0.249 C 
BRANCH  41  42
HETATM   42  N11 UNL     1     -12.083  27.123   2.185  1.00  0.00    -0.078 N 
ATOM     43 3H11 UNL     1     -11.925  26.367   1.517  1.00  0.00     0.274 HD
ATOM     44 2H11 UNL     1     -11.315  27.737   1.911  1.00  0.00     0.274 HD
ATOM     45 1H11 UNL     1     -11.981  26.801   3.147  1.00  0.00     0.274 HD
ENDBRANCH  41  42
ENDBRANCH  40  41
ENDBRANCH  38  40
ENDBRANCH  33  38
ENDBRANCH  30  31
ENDBRANCH  29  30
ENDBRANCH   5  29
BRANCH   1  46
HETATM   46  C3  UNL     1     -14.125  22.658  -8.970  1.00  0.00     0.312 C 
HETATM   47  O2  UNL     1     -13.443  23.382  -9.718  1.00  0.00    -0.258 OA
BRANCH  46  48
HETATM   48  O1  UNL     1     -14.560  21.452  -9.571  1.00  0.00    -0.317 OA
BRANCH  48  49
HETATM   49  C2  UNL     1     -15.892  21.052  -9.655  1.00  0.00     0.175 C 
HETATM   50  C1  UNL     1     -16.266  19.874  -8.810  1.00  0.00     0.034 C 
ENDBRANCH  48  49
ENDBRANCH  46  48
ENDBRANCH   1  46
TORSDOF 12
ENDMDL
MODEL 5
REMARK VINA RESULT: -6.821367518      3.596      8.075
REMARK  12 active torsions:
REMARK  status: ('A' for Active; 'I' for Inactive)
REMARK    1  A    between atoms: C2_2  and  O1_3 
REMARK    2  A    between atoms: O1_3  and  C3_4 
REMARK    3  A    between atoms: C3_4  and  C4_6 
REMARK    4  A    between atoms: N2_9  and  C5_10 
REMARK    5  A    between atoms: C9_23  and  N7_24 
REMARK    6  A    between atoms: C11_31  and  C12_32 
REMARK    7  A    between atoms: C12_32  and  S1_33 
REMARK    8  A    between atoms: S1_33  and  C13_34 
REMARK    9  A    between atoms: C15_36  and  N10_37 
REMARK   10  A    between atoms: N10_37  and  C16_39 
REMARK   11  A    between atoms: C16_39  and  C17_40 
REMARK   12  A    between atoms: C17_40  and  N11_41 
ROOT
HETATM    1  C4  UNL     1     -15.154  29.246  -1.300  1.00  0.00     0.132 A 
HETATM    2  N1  UNL     1     -15.843  28.287  -0.652  1.00  0.00    -0.273 N 
ATOM      3  H1  UNL     1     -16.780  28.413  -0.267  1.00  0.00     0.188 HD
HETATM    4  N2  UNL     1     -15.153  27.160  -0.577  1.00  0.00    -0.087 N 
HETATM    5  C11 UNL     1     -13.958  27.339  -1.185  1.00  0.00     0.070 A 
HETATM    6  C18 UNL     1     -13.965  28.668  -1.644  1.00  0.00    -0.002 A 
HETATM    7  C19 UNL     1     -12.838  29.246  -2.392  1.00  0.00     0.053 C 
ENDROOT
BRANCH   4   8
HETATM    8  C5  UNL     1     -15.696  25.976   0.005  1.00  0.00     0.720 C 
HETATM    9  N3  UNL     1     -16.810  25.420  -0.521  1.00  0.00    -0.129 N 
HETATM   10  N4  UNL     1     -16.985  24.099  -0.686  1.00  0.00    -0.269 N 
ATOM     11  H3  UNL     1     -17.565  26.042  -0.810  1.00  0.00     0.205 HD
HETATM   12  C6  UNL     1     -16.267  23.039  -0.266  1.00  0.00     0.155 A 
ATOM     13  H4  UNL     1     -17.812  23.852  -1.229  1.00  0.00     0.189 HD
HETATM   14  C7  UNL     1     -15.153  23.021   0.567  1.00  0.00     0.100 A 
HETATM   15  N9  UNL     1     -16.533  21.763  -0.603  1.00  0.00    -0.278 N 
HETATM   16  C8  UNL     1     -14.554  24.121   1.119  1.00  0.00     0.132 C 
HETATM   17  C9  UNL     1     -14.766  21.721   0.717  1.00  0.00     0.131 A 
HETATM   18  N5  UNL     1     -13.421  23.932   1.683  1.00  0.00    -0.384 N 
HETATM   19  N6  UNL     1     -15.054  25.406   1.076  1.00  0.00    -0.173 N 
ATOM     20  H52 UNL     1     -13.052  22.982   1.715  1.00  0.00     0.157 HD
ATOM     21  H51 UNL     1     -12.975  24.752   2.094  1.00  0.00     0.157 HD
ATOM     22  H6  UNL     1     -14.935  25.981   1.911  1.00  0.00     0.186 HD
HETATM   23  N8  UNL     1     -15.651  20.964  -0.030  1.00  0.00    -0.281 N 
ATOM     24  H8  UNL     1     -15.627  19.948  -0.123  1.00  0.00     0.189 HD
HETATM   25  C10 UNL     1     -17.639  21.372  -1.469  1.00  0.00     0.179 C 
BRANCH  17  26
HETATM   26  N7  UNL     1     -13.817  21.231   1.405  1.00  0.00    -0.384 N 
ATOM     27  H72 UNL     1     -12.938  21.715   1.590  1.00  0.00     0.157 HD
ATOM     28  H71 UNL     1     -13.742  20.319   1.855  1.00  0.00     0.157 HD
ENDBRANCH  17  26
ENDBRANCH   4   8
BRANCH   5  29
HETATM   29  C12 UNL     1     -12.939  26.292  -1.340  1.00  0.00     0.141 C 
BRANCH  29  30
HETATM   30  S1  UNL     1     -12.632  25.711  -2.983  1.00  0.00    -0.105 SA
BRANCH  30  31
HETATM   31  C13 UNL     1     -13.378  24.180  -3.396  1.00  0.00     0.088 A 
HETATM   32  C14 UNL     1     -13.530  23.757  -4.727  1.00  0.00     0.087 A 
HETATM   33  C15 UNL     1     -14.110  22.516  -4.646  1.00  0.00     0.118 A 
HETATM   34  N12 UNL     1     -14.290  22.222  -3.350  1.00  0.00    -0.285 N 
HETATM   35  N13 UNL     1     -13.853  23.217  -2.603  1.00  0.00    -0.293 N 
ATOM     36  H12 UNL     1     -14.702  21.359  -2.996  1.00  0.00     0.188 HD
ATOM     37  H13 UNL     1     -13.874  23.246  -1.584  1.00  0.00     0.187 HD
BRANCH  33  38
HETATM   38  N10 UNL     1     -14.433  21.762  -5.610  1.00  0.00    -0.374 N 
ATOM     39  H10 UNL     1     -13.997  20.841  -5.661  1.00  0.00     0.161 HD
BRANCH  38  40
HETATM   40  C16 UNL     1     -15.381  22.117  -6.647  1.00  0.00     0.148 C 
BRANCH  40  41
HETATM   41  C17 UNL     1     -14.884  21.439  -7.905  1.00  0.00     0.249 C 
BRANCH  41  42
HETATM   42  N11 UNL     1     -13.525  21.801  -8.189  1.00  0.00    -0.078 N 
ATOM     43 3H11 UNL     1     -13.412  22.099  -9.158  1.00  0.00     0.274 HD
ATOM     44 2H11 UNL     1     -13.265  22.672  -7.726  1.00  0.00     0.274 HD
ATOM     45 1H11 UNL     1     -12.884  21.044  -7.951  1.00  0.00     0.274 HD
ENDBRANCH  41  42
ENDBRANCH  40  41
ENDBRANCH  38  40
ENDBRANCH  33  38
ENDBRANCH  30  31
ENDBRANCH  29  30
ENDBRANCH   5  29
BRANCH   1  46
HETATM   46  C3  UNL     1     -15.581  30.607  -1.563  1.00  0.00     0.312 C 
HETATM   47  O2  UNL     1     -15.612  31.156  -2.679  1.00  0.00    -0.258 OA
BRANCH  46  48
HETATM   48  O1  UNL     1     -16.013  31.434  -0.498  1.00  0.00    -0.317 OA
BRANCH  48  49
HETATM   49  C2  UNL     1     -15.428  31.457   0.766  1.00  0.00     0.175 C 
HETATM   50  C1  UNL     1     -16.349  31.160   1.909  1.00  0.00     0.034 C 
ENDBRANCH  48  49
ENDBRANCH  46  48
ENDBRANCH   1  46
TORSDOF 12
ENDMDL
