MODEL 1
REMARK VINA RESULT: -7.431734949      0.000      0.000
REMARK  12 active torsions:
REMARK  status: ('A' for Active; 'I' for Inactive)
REMARK    1  A    between atoms: C2_2  and  C6_12 
REMARK    2  A    between atoms: N1_3  and  N2_5 
REMARK       I    between atoms: N2_5  and  C3_6 
REMARK    3  A    between atoms: C3_6  and  C4_8 
REMARK    4  A    between atoms: C4_8  and  O2_9 
REMARK    5  A    between atoms: O2_9  and  C5_10 
REMARK    6  A    between atoms: C7_13  and  C8_14 
REMARK       I    between atoms: C8_14  and  N3_16 
REMARK    7  A    between atoms: N3_16  and  S1_18 
REMARK    8  A    between atoms: S1_18  and  C9_21 
REMARK    9  A    between atoms: C12_24  and  N4_25 
REMARK   10  A    between atoms: C16_31  and  O9_32 
REMARK   11  A    between atoms: C17_34  and  O10_35 
REMARK   12  A    between atoms: C18_37  and  O11_38 
ROOT
HETATM    1  C6  UNL     1     -14.060  23.762  -4.758  1.00  0.00     0.040 A 
HETATM    2  C7  UNL     1     -14.667  22.586  -4.433  1.00  0.00     0.050 A 
HETATM    3  C15 UNL     1     -15.012  21.706  -5.468  1.00  0.00     0.057 A 
HETATM    4  C16 UNL     1     -14.773  21.974  -6.787  1.00  0.00     0.102 A 
HETATM    5  C17 UNL     1     -14.172  23.143  -7.133  1.00  0.00     0.133 A 
HETATM    6  C18 UNL     1     -13.799  24.071  -6.134  1.00  0.00     0.115 A 
ENDROOT
BRANCH   2   7
HETATM    7  C8  UNL     1     -15.068  22.216  -3.086  1.00  0.00     0.266 C 
HETATM    8  O4  UNL     1     -14.272  21.428  -2.438  1.00  0.00    -0.267 OA
HETATM    9  N3  UNL     1     -16.236  22.651  -2.431  1.00  0.00    -0.246 N 
ATOM     10  H3  UNL     1     -16.888  23.275  -2.907  1.00  0.00     0.182 HD
BRANCH   9  11
HETATM   11  S1  UNL     1     -16.560  22.123  -0.817  1.00  0.00     0.265 S 
HETATM   12  O5  UNL     1     -16.597  20.604  -0.890  1.00  0.00    -0.200 OA
HETATM   13  O6  UNL     1     -17.900  22.542  -0.321  1.00  0.00    -0.200 OA
BRANCH  11  14
HETATM   14  C9  UNL     1     -15.335  22.594   0.318  1.00  0.00     0.080 A 
HETATM   15  C10 UNL     1     -14.990  23.939   0.495  1.00  0.00     0.028 A 
HETATM   16  C11 UNL     1     -14.006  24.286   1.417  1.00  0.00     0.037 A 
HETATM   17  C12 UNL     1     -13.361  23.305   2.167  1.00  0.00     0.102 A 
HETATM   18  C13 UNL     1     -13.697  21.999   1.995  1.00  0.00     0.037 A 
HETATM   19  C14 UNL     1     -14.678  21.676   1.071  1.00  0.00     0.028 A 
BRANCH  17  20
HETATM   20  N4  UNL     1     -12.374  23.671   3.101  1.00  0.00    -0.116 N 
HETATM   21  O7  UNL     1     -11.265  23.106   3.089  1.00  0.00    -0.532 OA
HETATM   22  O8  UNL     1     -12.641  24.644   4.030  1.00  0.00    -0.532 OA
ENDBRANCH  17  20
ENDBRANCH  11  14
ENDBRANCH   9  11
ENDBRANCH   2   7
BRANCH   1  23
HETATM   23  C2  UNL     1     -13.510  24.703  -3.814  1.00  0.00     0.049 C 
HETATM   24  C1  UNL     1     -14.279  25.590  -2.939  1.00  0.00     0.072 C 
HETATM   25  N1  UNL     1     -12.205  24.743  -3.606  1.00  0.00    -0.236 N 
ATOM     26  H1  UNL     1     -11.628  24.140  -4.192  1.00  0.00     0.201 HD
BRANCH  25  27
HETATM   27  N2  UNL     1     -11.590  25.466  -2.737  1.00  0.00    -0.285 NA
HETATM   28  C3  UNL     1     -10.920  26.240  -1.803  1.00  0.00     0.336 C 
HETATM   29  O1  UNL     1      -9.691  26.152  -1.513  1.00  0.00    -0.253 OA
BRANCH  28  30
HETATM   30  C4  UNL     1     -11.650  27.295  -1.016  1.00  0.00     0.299 C 
BRANCH  30  31
HETATM   31  O2  UNL     1     -12.091  26.753   0.187  1.00  0.00    -0.318 OA
BRANCH  31  32
HETATM   32  C5  UNL     1     -11.479  26.997   1.384  1.00  0.00     0.398 C 
HETATM   33  O3  UNL     1     -10.534  26.234   1.757  1.00  0.00    -0.276 OA
ENDBRANCH  31  32
ENDBRANCH  30  31
ENDBRANCH  28  30
ENDBRANCH  25  27
ENDBRANCH   1  23
BRANCH   6  34
HETATM   34  O11 UNL     1     -13.224  25.174  -6.591  1.00  0.00    -0.357 OA
ATOM     35  H11 UNL     1     -12.360  25.494  -6.357  1.00  0.00     0.217 HD
ENDBRANCH   6  34
BRANCH   4  36
HETATM   36  O9  UNL     1     -15.127  21.078  -7.817  1.00  0.00    -0.358 OA
ATOM     37  H9  UNL     1     -14.505  20.780  -8.470  1.00  0.00     0.217 HD
ENDBRANCH   4  36
BRANCH   5  38
HETATM   38  O10 UNL     1     -13.909  23.457  -8.479  1.00  0.00    -0.356 OA
ATOM     39  H10 UNL     1     -13.348  22.906  -9.012  1.00  0.00     0.218 HD
ENDBRANCH   5  38
TORSDOF 12
ENDMDL
MODEL 2
REMARK VINA RESULT: -7.426183955      2.832      6.100
REMARK  12 active torsions:
REMARK  status: ('A' for Active; 'I' for Inactive)
REMARK    1  A    between atoms: C2_2  and  C6_12 
REMARK    2  A    between atoms: N1_3  and  N2_5 
REMARK       I    between atoms: N2_5  and  C3_6 
REMARK    3  A    between atoms: C3_6  and  C4_8 
REMARK    4  A    between atoms: C4_8  and  O2_9 
REMARK    5  A    between atoms: O2_9  and  C5_10 
REMARK    6  A    between atoms: C7_13  and  C8_14 
REMARK       I    between atoms: C8_14  and  N3_16 
REMARK    7  A    between atoms: N3_16  and  S1_18 
REMARK    8  A    between atoms: S1_18  and  C9_21 
REMARK    9  A    between atoms: C12_24  and  N4_25 
REMARK   10  A    between atoms: C16_31  and  O9_32 
REMARK   11  A    between atoms: C17_34  and  O10_35 
REMARK   12  A    between atoms: C18_37  and  O11_38 
ROOT
HETATM    1  C6  UNL     1     -14.438  23.167  -0.234  1.00  0.00     0.040 A 
HETATM    2  C7  UNL     1     -14.363  23.330  -1.584  1.00  0.00     0.050 A 
HETATM    3  C15 UNL     1     -14.785  22.277  -2.407  1.00  0.00     0.057 A 
HETATM    4  C16 UNL     1     -15.263  21.093  -1.920  1.00  0.00     0.102 A 
HETATM    5  C17 UNL     1     -15.341  20.907  -0.575  1.00  0.00     0.133 A 
HETATM    6  C18 UNL     1     -14.932  21.933   0.307  1.00  0.00     0.115 A 
ENDROOT
BRANCH   2   7
HETATM    7  C8  UNL     1     -13.788  24.494  -2.237  1.00  0.00     0.266 C 
HETATM    8  O4  UNL     1     -12.509  24.655  -2.120  1.00  0.00    -0.267 OA
HETATM    9  N3  UNL     1     -14.502  25.446  -2.991  1.00  0.00    -0.246 N 
ATOM     10  H3  UNL     1     -15.511  25.354  -3.109  1.00  0.00     0.182 HD
BRANCH   9  11
HETATM   11  S1  UNL     1     -13.661  26.772  -3.714  1.00  0.00     0.265 S 
HETATM   12  O5  UNL     1     -14.660  27.412  -4.666  1.00  0.00    -0.200 OA
HETATM   13  O6  UNL     1     -12.508  26.346  -4.555  1.00  0.00    -0.200 OA
BRANCH  11  14
HETATM   14  C9  UNL     1     -13.146  27.966  -2.566  1.00  0.00     0.080 A 
HETATM   15  C10 UNL     1     -11.883  28.565  -2.659  1.00  0.00     0.028 A 
HETATM   16  C11 UNL     1     -11.501  29.524  -1.724  1.00  0.00     0.037 A 
HETATM   17  C12 UNL     1     -12.364  29.894  -0.696  1.00  0.00     0.102 A 
HETATM   18  C13 UNL     1     -13.590  29.313  -0.606  1.00  0.00     0.037 A 
HETATM   19  C14 UNL     1     -13.950  28.361  -1.546  1.00  0.00     0.028 A 
BRANCH  17  20
HETATM   20  N4  UNL     1     -11.967  30.871   0.236  1.00  0.00    -0.116 N 
HETATM   21  O7  UNL     1     -10.773  31.217   0.305  1.00  0.00    -0.532 OA
HETATM   22  O8  UNL     1     -12.896  31.433   1.074  1.00  0.00    -0.532 OA
ENDBRANCH  17  20
ENDBRANCH  11  14
ENDBRANCH   9  11
ENDBRANCH   2   7
BRANCH   1  23
HETATM   23  C2  UNL     1     -14.189  24.196   0.745  1.00  0.00     0.049 C 
HETATM   24  C1  UNL     1     -14.767  25.541   0.742  1.00  0.00     0.072 C 
HETATM   25  N1  UNL     1     -13.460  23.928   1.815  1.00  0.00    -0.236 N 
ATOM     26  H1  UNL     1     -13.038  23.000   1.861  1.00  0.00     0.201 HD
BRANCH  25  27
HETATM   27  N2  UNL     1     -13.231  24.718   2.803  1.00  0.00    -0.285 NA
HETATM   28  C3  UNL     1     -12.990  25.565   3.873  1.00  0.00     0.336 C 
HETATM   29  O1  UNL     1     -13.479  25.449   5.034  1.00  0.00    -0.253 OA
BRANCH  28  30
HETATM   30  C4  UNL     1     -12.084  26.758   3.718  1.00  0.00     0.299 C 
BRANCH  30  31
HETATM   31  O2  UNL     1     -11.178  26.521   2.691  1.00  0.00    -0.318 OA
BRANCH  31  32
HETATM   32  C5  UNL     1     -11.162  27.240   1.529  1.00  0.00     0.398 C 
HETATM   33  O3  UNL     1     -11.403  26.642   0.434  1.00  0.00    -0.276 OA
ENDBRANCH  31  32
ENDBRANCH  30  31
ENDBRANCH  28  30
ENDBRANCH  25  27
ENDBRANCH   1  23
BRANCH   6  34
HETATM   34  O11 UNL     1     -15.053  21.637   1.593  1.00  0.00    -0.357 OA
ATOM     35  H11 UNL     1     -15.827  21.771   2.128  1.00  0.00     0.217 HD
ENDBRANCH   6  34
BRANCH   4  36
HETATM   36  O9  UNL     1     -15.681  20.043  -2.762  1.00  0.00    -0.358 OA
ATOM     37  H9  UNL     1     -15.657  19.132  -2.491  1.00  0.00     0.217 HD
ENDBRANCH   4  36
BRANCH   5  38
HETATM   38  O10 UNL     1     -15.826  19.703  -0.033  1.00  0.00    -0.356 OA
ATOM     39  H10 UNL     1     -15.592  19.431   0.846  1.00  0.00     0.218 HD
ENDBRANCH   5  38
TORSDOF 12
ENDMDL
MODEL 3
REMARK VINA RESULT: -7.366602333      2.985      7.472
REMARK  12 active torsions:
REMARK  status: ('A' for Active; 'I' for Inactive)
REMARK    1  A    between atoms: C2_2  and  C6_12 
REMARK    2  A    between atoms: N1_3  and  N2_5 
REMARK       I    between atoms: N2_5  and  C3_6 
REMARK    3  A    between atoms: C3_6  and  C4_8 
REMARK    4  A    between atoms: C4_8  and  O2_9 
REMARK    5  A    between atoms: O2_9  and  C5_10 
REMARK    6  A    between atoms: C7_13  and  C8_14 
REMARK       I    between atoms: C8_14  and  N3_16 
REMARK    7  A    between atoms: N3_16  and  S1_18 
REMARK    8  A    between atoms: S1_18  and  C9_21 
REMARK    9  A    between atoms: C12_24  and  N4_25 
REMARK   10  A    between atoms: C16_31  and  O9_32 
REMARK   11  A    between atoms: C17_34  and  O10_35 
REMARK   12  A    between atoms: C18_37  and  O11_38 
ROOT
HETATM    1  C6  UNL     1     -13.344  26.153   1.245  1.00  0.00     0.040 A 
HETATM    2  C7  UNL     1     -13.716  24.920   1.691  1.00  0.00     0.050 A 
HETATM    3  C15 UNL     1     -13.332  24.535   2.982  1.00  0.00     0.057 A 
HETATM    4  C16 UNL     1     -12.598  25.334   3.813  1.00  0.00     0.102 A 
HETATM    5  C17 UNL     1     -12.212  26.566   3.386  1.00  0.00     0.133 A 
HETATM    6  C18 UNL     1     -12.571  27.012   2.093  1.00  0.00     0.115 A 
ENDROOT
BRANCH   2   7
HETATM    7  C8  UNL     1     -14.412  23.933   0.883  1.00  0.00     0.266 C 
HETATM    8  O4  UNL     1     -13.676  23.089   0.233  1.00  0.00    -0.267 OA
HETATM    9  N3  UNL     1     -15.810  23.813   0.761  1.00  0.00    -0.246 N 
ATOM     10  H3  UNL     1     -16.425  24.457   1.258  1.00  0.00     0.182 HD
BRANCH   9  11
HETATM   11  S1  UNL     1     -16.480  22.571  -0.238  1.00  0.00     0.265 S 
HETATM   12  O5  UNL     1     -17.969  22.875  -0.315  1.00  0.00    -0.200 OA
HETATM   13  O6  UNL     1     -16.369  21.213   0.363  1.00  0.00    -0.200 OA
BRANCH  11  14
HETATM   14  C9  UNL     1     -15.832  22.560  -1.847  1.00  0.00     0.080 A 
HETATM   15  C10 UNL     1     -15.278  21.398  -2.398  1.00  0.00     0.028 A 
HETATM   16  C11 UNL     1     -14.771  21.420  -3.695  1.00  0.00     0.037 A 
HETATM   17  C12 UNL     1     -14.808  22.590  -4.450  1.00  0.00     0.102 A 
HETATM   18  C13 UNL     1     -15.346  23.718  -3.915  1.00  0.00     0.037 A 
HETATM   19  C14 UNL     1     -15.845  23.674  -2.623  1.00  0.00     0.028 A 
BRANCH  17  20
HETATM   20  N4  UNL     1     -14.299  22.595  -5.762  1.00  0.00    -0.116 N 
HETATM   21  O7  UNL     1     -14.855  21.920  -6.648  1.00  0.00    -0.532 OA
HETATM   22  O8  UNL     1     -13.184  23.335  -6.059  1.00  0.00    -0.532 OA
ENDBRANCH  17  20
ENDBRANCH  11  14
ENDBRANCH   9  11
ENDBRANCH   2   7
BRANCH   1  23
HETATM   23  C2  UNL     1     -13.780  26.758   0.011  1.00  0.00     0.049 C 
HETATM   24  C1  UNL     1     -13.240  26.476  -1.320  1.00  0.00     0.072 C 
HETATM   25  N1  UNL     1     -14.821  27.572   0.006  1.00  0.00    -0.236 N 
ATOM     26  H1  UNL     1     -15.233  27.796   0.913  1.00  0.00     0.201 HD
BRANCH  25  27
HETATM   27  N2  UNL     1     -15.368  28.110  -1.027  1.00  0.00    -0.285 NA
HETATM   28  C3  UNL     1     -15.955  28.697  -2.136  1.00  0.00     0.336 C 
HETATM   29  O1  UNL     1     -16.000  29.938  -2.380  1.00  0.00    -0.253 OA
BRANCH  28  30
HETATM   30  C4  UNL     1     -16.628  27.853  -3.185  1.00  0.00     0.299 C 
BRANCH  30  31
HETATM   31  O2  UNL     1     -17.879  28.386  -3.477  1.00  0.00    -0.318 OA
BRANCH  31  32
HETATM   32  C5  UNL     1     -18.777  27.773  -4.303  1.00  0.00     0.398 C 
HETATM   33  O3  UNL     1     -18.682  26.520  -4.493  1.00  0.00    -0.276 OA
ENDBRANCH  31  32
ENDBRANCH  30  31
ENDBRANCH  28  30
ENDBRANCH  25  27
ENDBRANCH   1  23
BRANCH   6  34
HETATM   34  O11 UNL     1     -12.138  28.227   1.789  1.00  0.00    -0.357 OA
ATOM     35  H11 UNL     1     -12.671  29.009   1.714  1.00  0.00     0.217 HD
ENDBRANCH   6  34
BRANCH   4  36
HETATM   36  O9  UNL     1     -12.218  24.930   5.109  1.00  0.00    -0.358 OA
ATOM     37  H9  UNL     1     -12.286  25.505   5.863  1.00  0.00     0.217 HD
ENDBRANCH   4  36
BRANCH   5  38
HETATM   38  O10 UNL     1     -11.455  27.418   4.210  1.00  0.00    -0.356 OA
ATOM     39  H10 UNL     1     -10.742  27.937   3.857  1.00  0.00     0.218 HD
ENDBRANCH   5  38
TORSDOF 12
ENDMDL
MODEL 4
REMARK VINA RESULT: -7.355876974      3.537      7.702
REMARK  12 active torsions:
REMARK  status: ('A' for Active; 'I' for Inactive)
REMARK    1  A    between atoms: C2_2  and  C6_12 
REMARK    2  A    between atoms: N1_3  and  N2_5 
REMARK       I    between atoms: N2_5  and  C3_6 
REMARK    3  A    between atoms: C3_6  and  C4_8 
REMARK    4  A    between atoms: C4_8  and  O2_9 
REMARK    5  A    between atoms: O2_9  and  C5_10 
REMARK    6  A    between atoms: C7_13  and  C8_14 
REMARK       I    between atoms: C8_14  and  N3_16 
REMARK    7  A    between atoms: N3_16  and  S1_18 
REMARK    8  A    between atoms: S1_18  and  C9_21 
REMARK    9  A    between atoms: C12_24  and  N4_25 
REMARK   10  A    between atoms: C16_31  and  O9_32 
REMARK   11  A    between atoms: C17_34  and  O10_35 
REMARK   12  A    between atoms: C18_37  and  O11_38 
ROOT
HETATM    1  C6  UNL     1     -14.583  24.071  -0.794  1.00  0.00     0.040 A 
HETATM    2  C7  UNL     1     -14.919  23.143  -1.733  1.00  0.00     0.050 A 
HETATM    3  C15 UNL     1     -15.104  21.816  -1.322  1.00  0.00     0.057 A 
HETATM    4  C16 UNL     1     -14.959  21.408  -0.025  1.00  0.00     0.102 A 
HETATM    5  C17 UNL     1     -14.620  22.318   0.927  1.00  0.00     0.133 A 
HETATM    6  C18 UNL     1     -14.420  23.673   0.574  1.00  0.00     0.115 A 
ENDROOT
BRANCH   2   7
HETATM    7  C8  UNL     1     -15.011  23.416  -3.157  1.00  0.00     0.266 C 
HETATM    8  O4  UNL     1     -16.124  23.924  -3.582  1.00  0.00    -0.267 OA
HETATM    9  N3  UNL     1     -13.993  23.184  -4.103  1.00  0.00    -0.246 N 
ATOM     10  H3  UNL     1     -13.101  22.786  -3.808  1.00  0.00     0.182 HD
BRANCH   9  11
HETATM   11  S1  UNL     1     -14.263  23.576  -5.765  1.00  0.00     0.265 S 
HETATM   12  O5  UNL     1     -12.879  23.627  -6.396  1.00  0.00    -0.200 OA
HETATM   13  O6  UNL     1     -14.853  24.928  -5.960  1.00  0.00    -0.200 OA
BRANCH  11  14
HETATM   14  C9  UNL     1     -15.212  22.390  -6.604  1.00  0.00     0.080 A 
HETATM   15  C10 UNL     1     -16.492  22.039  -6.159  1.00  0.00     0.028 A 
HETATM   16  C11 UNL     1     -17.231  21.087  -6.857  1.00  0.00     0.037 A 
HETATM   17  C12 UNL     1     -16.707  20.480  -7.995  1.00  0.00     0.102 A 
HETATM   18  C13 UNL     1     -15.465  20.821  -8.428  1.00  0.00     0.037 A 
HETATM   19  C14 UNL     1     -14.747  21.770  -7.718  1.00  0.00     0.028 A 
BRANCH  17  20
HETATM   20  N4  UNL     1     -17.470  19.525  -8.696  1.00  0.00    -0.116 N 
HETATM   21  O7  UNL     1     -16.907  18.558  -9.241  1.00  0.00    -0.532 OA
HETATM   22  O8  UNL     1     -18.830  19.669  -8.783  1.00  0.00    -0.532 OA
ENDBRANCH  17  20
ENDBRANCH  11  14
ENDBRANCH   9  11
ENDBRANCH   2   7
BRANCH   1  23
HETATM   23  C2  UNL     1     -14.503  25.493  -1.020  1.00  0.00     0.049 C 
HETATM   24  C1  UNL     1     -13.375  26.204  -1.625  1.00  0.00     0.072 C 
HETATM   25  N1  UNL     1     -15.549  26.261  -0.772  1.00  0.00    -0.236 N 
ATOM     26  H1  UNL     1     -16.361  25.809  -0.351  1.00  0.00     0.201 HD
BRANCH  25  27
HETATM   27  N2  UNL     1     -15.647  27.522  -1.007  1.00  0.00    -0.285 NA
HETATM   28  C3  UNL     1     -15.754  28.879  -1.269  1.00  0.00     0.336 C 
HETATM   29  O1  UNL     1     -16.109  29.394  -2.369  1.00  0.00    -0.253 OA
BRANCH  28  30
HETATM   30  C4  UNL     1     -15.428  29.894  -0.206  1.00  0.00     0.299 C 
BRANCH  30  31
HETATM   31  O2  UNL     1     -16.576  30.608   0.120  1.00  0.00    -0.318 OA
BRANCH  31  32
HETATM   32  C5  UNL     1     -16.677  31.387   1.238  1.00  0.00     0.398 C 
HETATM   33  O3  UNL     1     -16.088  31.017   2.301  1.00  0.00    -0.276 OA
ENDBRANCH  31  32
ENDBRANCH  30  31
ENDBRANCH  28  30
ENDBRANCH  25  27
ENDBRANCH   1  23
BRANCH   6  34
HETATM   34  O11 UNL     1     -14.092  24.464   1.585  1.00  0.00    -0.357 OA
ATOM     35  H11 UNL     1     -13.805  24.183   2.446  1.00  0.00     0.217 HD
ENDBRANCH   6  34
BRANCH   4  36
HETATM   36  O9  UNL     1     -15.148  20.069   0.372  1.00  0.00    -0.358 OA
ATOM     37  H9  UNL     1     -14.421  19.489   0.568  1.00  0.00     0.217 HD
ENDBRANCH   4  36
BRANCH   5  38
HETATM   38  O10 UNL     1     -14.460  21.939   2.272  1.00  0.00    -0.356 OA
ATOM     39  H10 UNL     1     -14.694  22.528   2.980  1.00  0.00     0.218 HD
ENDBRANCH   5  38
TORSDOF 12
ENDMDL
MODEL 5
REMARK VINA RESULT: -7.279598984      2.076      5.108
REMARK  12 active torsions:
REMARK  status: ('A' for Active; 'I' for Inactive)
REMARK    1  A    between atoms: C2_2  and  C6_12 
REMARK    2  A    between atoms: N1_3  and  N2_5 
REMARK       I    between atoms: N2_5  and  C3_6 
REMARK    3  A    between atoms: C3_6  and  C4_8 
REMARK    4  A    between atoms: C4_8  and  O2_9 
REMARK    5  A    between atoms: O2_9  and  C5_10 
REMARK    6  A    between atoms: C7_13  and  C8_14 
REMARK       I    between atoms: C8_14  and  N3_16 
REMARK    7  A    between atoms: N3_16  and  S1_18 
REMARK    8  A    between atoms: S1_18  and  C9_21 
REMARK    9  A    between atoms: C12_24  and  N4_25 
REMARK   10  A    between atoms: C16_31  and  O9_32 
REMARK   11  A    between atoms: C17_34  and  O10_35 
REMARK   12  A    between atoms: C18_37  and  O11_38 
ROOT
HETATM    1  C6  UNL     1     -14.188  23.610  -4.462  1.00  0.00     0.040 A 
HETATM    2  C7  UNL     1     -13.455  24.746  -4.632  1.00  0.00     0.050 A 
HETATM    3  C15 UNL     1     -13.033  25.079  -5.926  1.00  0.00     0.057 A 
HETATM    4  C16 UNL     1     -13.317  24.316  -7.024  1.00  0.00     0.102 A 
HETATM    5  C17 UNL     1     -14.043  23.176  -6.876  1.00  0.00     0.133 A 
HETATM    6  C18 UNL     1     -14.498  22.787  -5.595  1.00  0.00     0.115 A 
ENDROOT
BRANCH   2   7
HETATM    7  C8  UNL     1     -13.000  25.597  -3.546  1.00  0.00     0.266 C 
HETATM    8  O4  UNL     1     -11.809  25.374  -3.091  1.00  0.00    -0.267 OA
HETATM    9  N3  UNL     1     -13.739  26.644  -2.961  1.00  0.00    -0.246 N 
ATOM     10  H3  UNL     1     -14.681  26.854  -3.292  1.00  0.00     0.182 HD
BRANCH   9  11
HETATM   11  S1  UNL     1     -13.043  27.572  -1.679  1.00  0.00     0.265 S 
HETATM   12  O5  UNL     1     -13.964  28.770  -1.502  1.00  0.00    -0.200 OA
HETATM   13  O6  UNL     1     -11.705  28.130  -2.018  1.00  0.00    -0.200 OA
BRANCH  11  14
HETATM   14  C9  UNL     1     -12.961  26.710  -0.175  1.00  0.00     0.080 A 
HETATM   15  C10 UNL     1     -11.983  27.012   0.781  1.00  0.00     0.028 A 
HETATM   16  C11 UNL     1     -11.946  26.306   1.981  1.00  0.00     0.037 A 
HETATM   17  C12 UNL     1     -12.874  25.300   2.239  1.00  0.00     0.102 A 
HETATM   18  C13 UNL     1     -13.823  25.007   1.310  1.00  0.00     0.037 A 
HETATM   19  C14 UNL     1     -13.841  25.721   0.124  1.00  0.00     0.028 A 
BRANCH  17  20
HETATM   20  N4  UNL     1     -12.829  24.600   3.459  1.00  0.00    -0.116 N 
HETATM   21  O7  UNL     1     -13.673  24.836   4.343  1.00  0.00    -0.532 OA
HETATM   22  O8  UNL     1     -11.849  23.666   3.676  1.00  0.00    -0.532 OA
ENDBRANCH  17  20
ENDBRANCH  11  14
ENDBRANCH   9  11
ENDBRANCH   2   7
BRANCH   1  23
HETATM   23  C2  UNL     1     -14.822  23.205  -3.232  1.00  0.00     0.049 C 
HETATM   24  C1  UNL     1     -14.135  22.743  -2.024  1.00  0.00     0.072 C 
HETATM   25  N1  UNL     1     -16.129  23.334  -3.089  1.00  0.00    -0.236 N 
ATOM     26  H1  UNL     1     -16.650  23.656  -3.905  1.00  0.00     0.201 HD
BRANCH  25  27
HETATM   27  N2  UNL     1     -16.810  23.096  -2.024  1.00  0.00    -0.285 NA
HETATM   28  C3  UNL     1     -17.552  22.844  -0.880  1.00  0.00     0.336 C 
HETATM   29  O1  UNL     1     -18.779  23.106  -0.721  1.00  0.00    -0.253 OA
BRANCH  28  30
HETATM   30  C4  UNL     1     -16.910  22.211   0.326  1.00  0.00     0.299 C 
BRANCH  30  31
HETATM   31  O2  UNL     1     -16.858  20.832   0.154  1.00  0.00    -0.318 OA
BRANCH  31  32
HETATM   32  C5  UNL     1     -15.752  20.179  -0.308  1.00  0.00     0.398 C 
HETATM   33  O3  UNL     1     -15.737  19.769  -1.511  1.00  0.00    -0.276 OA
ENDBRANCH  31  32
ENDBRANCH  30  31
ENDBRANCH  28  30
ENDBRANCH  25  27
ENDBRANCH   1  23
BRANCH   6  34
HETATM   34  O11 UNL     1     -15.193  21.659  -5.574  1.00  0.00    -0.357 OA
ATOM     35  H11 UNL     1     -14.845  20.785  -5.703  1.00  0.00     0.217 HD
ENDBRANCH   6  34
BRANCH   4  36
HETATM   36  O9  UNL     1     -12.884  24.665  -8.320  1.00  0.00    -0.358 OA
ATOM     37  H9  UNL     1     -13.068  24.127  -9.080  1.00  0.00     0.217 HD
ENDBRANCH   4  36
BRANCH   5  38
HETATM   38  O10 UNL     1     -14.355  22.362  -7.980  1.00  0.00    -0.356 OA
ATOM     39  H10 UNL     1     -15.134  22.518  -8.501  1.00  0.00     0.218 HD
ENDBRANCH   5  38
TORSDOF 12
ENDMDL
