MODEL 1
REMARK VINA RESULT: -5.710308233      0.000      0.000
REMARK  8 active torsions:
REMARK  status: ('A' for Active; 'I' for Inactive)
REMARK    1  A    between atoms: C2_2  and  C3_3 
REMARK    2  A    between atoms: C3_3  and  C4_4 
REMARK    3  A    between atoms: C4_4  and  O1_5 
REMARK    4  A    between atoms: C5_8  and  C6_9 
REMARK    5  A    between atoms: C6_9  and  O3_10 
REMARK    6  A    between atoms: C6_9  and  C7_12 
REMARK    7  A    between atoms: C9_15  and  C10_16 
REMARK    8  A    between atoms: C10_16  and  O5_17 
ROOT
HETATM    1  C4  UNL     1      47.088  14.932   3.163  1.00  0.00     0.193 C 
HETATM    2  O2  UNL     1      47.779  15.841   2.342  1.00  0.00    -0.320 OA
HETATM    3  C5  UNL     1      48.806  16.359   3.086  1.00  0.00     0.292 C 
HETATM    4  O4  UNL     1      48.915  15.635   4.261  1.00  0.00    -0.346 OA
HETATM    5  C9  UNL     1      48.205  14.454   4.052  1.00  0.00     0.210 C 
ENDROOT
BRANCH   1   6
HETATM    6  C3  UNL     1      46.533  13.843   2.277  1.00  0.00     0.071 C 
BRANCH   6   7
HETATM    7  C2  UNL     1      46.582  14.392   0.846  1.00  0.00     0.001 C 
HETATM    8  C1  UNL     1      45.323  14.015   0.108  1.00  0.00     0.005 C 
ENDBRANCH   6   7
ENDBRANCH   1   6
BRANCH   1   9
HETATM    9  O1  UNL     1      46.108  15.557   3.910  1.00  0.00    -0.363 OA
ATOM     10  H1  UNL     1      46.084  16.496   3.767  1.00  0.00     0.213 HD
ENDBRANCH   1   9
BRANCH   5  11
HETATM   11  C10 UNL     1      47.718  13.962   5.391  1.00  0.00     0.201 C 
BRANCH  11  12
HETATM   12  O5  UNL     1      48.178  14.866   6.351  1.00  0.00    -0.398 OA
ATOM     13  H5  UNL     1      48.002  14.481   7.202  1.00  0.00     0.209 HD
ENDBRANCH  11  12
ENDBRANCH   5  11
BRANCH   3  14
HETATM   14  C6  UNL     1      50.123  16.261   2.360  1.00  0.00     0.173 C 
BRANCH  14  15
HETATM   15  O3  UNL     1      49.854  16.122   1.005  1.00  0.00    -0.391 OA
ATOM     16  H3  UNL     1      50.458  16.679   0.528  1.00  0.00     0.210 HD
ENDBRANCH  14  15
BRANCH  14  17
HETATM   17  C7  UNL     1      50.982  17.487   2.559  1.00  0.00     0.032 C 
HETATM   18  C8  UNL     1      52.385  17.161   2.128  1.00  0.00     0.007 C 
ENDBRANCH  14  17
ENDBRANCH   3  14
TORSDOF 8
ENDMDL
MODEL 2
REMARK VINA RESULT: -5.569811812      5.896      7.872
REMARK  8 active torsions:
REMARK  status: ('A' for Active; 'I' for Inactive)
REMARK    1  A    between atoms: C2_2  and  C3_3 
REMARK    2  A    between atoms: C3_3  and  C4_4 
REMARK    3  A    between atoms: C4_4  and  O1_5 
REMARK    4  A    between atoms: C5_8  and  C6_9 
REMARK    5  A    between atoms: C6_9  and  O3_10 
REMARK    6  A    between atoms: C6_9  and  C7_12 
REMARK    7  A    between atoms: C9_15  and  C10_16 
REMARK    8  A    between atoms: C10_16  and  O5_17 
ROOT
HETATM    1  C4  UNL     1      40.604  18.178   1.053  1.00  0.00     0.193 C 
HETATM    2  O2  UNL     1      41.864  18.429   1.624  1.00  0.00    -0.320 OA
HETATM    3  C5  UNL     1      42.617  17.297   1.459  1.00  0.00     0.292 C 
HETATM    4  O4  UNL     1      41.947  16.437   0.604  1.00  0.00    -0.346 OA
HETATM    5  C9  UNL     1      40.979  17.208  -0.035  1.00  0.00     0.210 C 
ENDROOT
BRANCH   1   6
HETATM    6  C3  UNL     1      40.072  19.486   0.519  1.00  0.00     0.071 C 
BRANCH   6   7
HETATM    7  C2  UNL     1      41.224  20.124  -0.268  1.00  0.00     0.001 C 
HETATM    8  C1  UNL     1      40.789  20.390  -1.687  1.00  0.00     0.005 C 
ENDBRANCH   6   7
ENDBRANCH   1   6
BRANCH   1   9
HETATM    9  O1  UNL     1      39.741  17.584   1.954  1.00  0.00    -0.363 OA
ATOM     10  H1  UNL     1      40.048  16.734   2.246  1.00  0.00     0.213 HD
ENDBRANCH   1   9
BRANCH   5  11
HETATM   11  C10 UNL     1      39.844  16.297  -0.426  1.00  0.00     0.201 C 
BRANCH  11  12
HETATM   12  O5  UNL     1      40.346  15.398  -1.369  1.00  0.00    -0.398 OA
ATOM     13  H5  UNL     1      40.675  15.913  -2.096  1.00  0.00     0.209 HD
ENDBRANCH  11  12
ENDBRANCH   5  11
BRANCH   3  14
HETATM   14  C6  UNL     1      43.958  17.607   0.845  1.00  0.00     0.173 C 
BRANCH  14  15
HETATM   15  O3  UNL     1      44.212  18.959   1.031  1.00  0.00    -0.391 OA
ATOM     16  H3  UNL     1      44.954  19.194   0.487  1.00  0.00     0.210 HD
ENDBRANCH  14  15
BRANCH  14  17
HETATM   17  C7  UNL     1      45.077  16.812   1.477  1.00  0.00     0.032 C 
HETATM   18  C8  UNL     1      45.218  15.513   0.733  1.00  0.00     0.007 C 
ENDBRANCH  14  17
ENDBRANCH   3  14
TORSDOF 8
ENDMDL
MODEL 3
REMARK VINA RESULT: -5.436573461      1.872      3.002
REMARK  8 active torsions:
REMARK  status: ('A' for Active; 'I' for Inactive)
REMARK    1  A    between atoms: C2_2  and  C3_3 
REMARK    2  A    between atoms: C3_3  and  C4_4 
REMARK    3  A    between atoms: C4_4  and  O1_5 
REMARK    4  A    between atoms: C5_8  and  C6_9 
REMARK    5  A    between atoms: C6_9  and  O3_10 
REMARK    6  A    between atoms: C6_9  and  C7_12 
REMARK    7  A    between atoms: C9_15  and  C10_16 
REMARK    8  A    between atoms: C10_16  and  O5_17 
ROOT
HETATM    1  C4  UNL     1      48.237  14.752   2.379  1.00  0.00     0.193 C 
HETATM    2  O2  UNL     1      49.548  15.222   2.572  1.00  0.00    -0.320 OA
HETATM    3  C5  UNL     1      49.489  16.590   2.600  1.00  0.00     0.292 C 
HETATM    4  O4  UNL     1      48.161  16.978   2.661  1.00  0.00    -0.346 OA
HETATM    5  C9  UNL     1      47.448  15.846   3.050  1.00  0.00     0.210 C 
ENDROOT
BRANCH   1   6
HETATM    6  C3  UNL     1      48.116  13.423   3.083  1.00  0.00     0.071 C 
BRANCH   6   7
HETATM    7  C2  UNL     1      49.122  12.487   2.400  1.00  0.00     0.001 C 
HETATM    8  C1  UNL     1      48.633  11.063   2.479  1.00  0.00     0.005 C 
ENDBRANCH   6   7
ENDBRANCH   1   6
BRANCH   1   9
HETATM    9  O1  UNL     1      47.911  14.673   1.039  1.00  0.00    -0.363 OA
ATOM     10  H1  UNL     1      47.764  15.527   0.649  1.00  0.00     0.213 HD
ENDBRANCH   1   9
BRANCH   5  11
HETATM   11  C10 UNL     1      46.046  15.973   2.510  1.00  0.00     0.201 C 
BRANCH  11  12
HETATM   12  O5  UNL     1      46.082  16.940   1.503  1.00  0.00    -0.398 OA
ATOM     13  H5  UNL     1      45.339  16.776   0.934  1.00  0.00     0.209 HD
ENDBRANCH  11  12
ENDBRANCH   5  11
BRANCH   3  14
HETATM   14  C6  UNL     1      50.191  17.152   3.810  1.00  0.00     0.173 C 
BRANCH  14  15
HETATM   15  O3  UNL     1      50.053  16.239   4.846  1.00  0.00    -0.391 OA
ATOM     16  H3  UNL     1      50.172  16.707   5.665  1.00  0.00     0.210 HD
ENDBRANCH  14  15
BRANCH  14  17
HETATM   17  C7  UNL     1      51.662  17.388   3.563  1.00  0.00     0.032 C 
HETATM   18  C8  UNL     1      51.867  17.629   2.093  1.00  0.00     0.007 C 
ENDBRANCH  14  17
ENDBRANCH   3  14
TORSDOF 8
ENDMDL
MODEL 4
REMARK VINA RESULT: -5.429903449      2.113      2.876
REMARK  8 active torsions:
REMARK  status: ('A' for Active; 'I' for Inactive)
REMARK    1  A    between atoms: C2_2  and  C3_3 
REMARK    2  A    between atoms: C3_3  and  C4_4 
REMARK    3  A    between atoms: C4_4  and  O1_5 
REMARK    4  A    between atoms: C5_8  and  C6_9 
REMARK    5  A    between atoms: C6_9  and  O3_10 
REMARK    6  A    between atoms: C6_9  and  C7_12 
REMARK    7  A    between atoms: C9_15  and  C10_16 
REMARK    8  A    between atoms: C10_16  and  O5_17 
ROOT
HETATM    1  C4  UNL     1      47.546  14.336   1.599  1.00  0.00     0.193 C 
HETATM    2  O2  UNL     1      48.926  14.395   1.339  1.00  0.00    -0.320 OA
HETATM    3  C5  UNL     1      49.312  15.701   1.487  1.00  0.00     0.292 C 
HETATM    4  O4  UNL     1      48.267  16.413   2.052  1.00  0.00    -0.346 OA
HETATM    5  C9  UNL     1      47.400  15.463   2.588  1.00  0.00     0.210 C 
ENDROOT
BRANCH   1   6
HETATM    6  C3  UNL     1      47.248  12.984   2.199  1.00  0.00     0.071 C 
BRANCH   6   7
HETATM    7  C2  UNL     1      48.595  12.422   2.672  1.00  0.00     0.001 C 
HETATM    8  C1  UNL     1      48.677  10.951   2.354  1.00  0.00     0.005 C 
ENDBRANCH   6   7
ENDBRANCH   1   6
BRANCH   1   9
HETATM    9  O1  UNL     1      46.798  14.588   0.465  1.00  0.00    -0.363 OA
ATOM     10  H1  UNL     1      46.824  15.503   0.208  1.00  0.00     0.213 HD
ENDBRANCH   1   9
BRANCH   5  11
HETATM   11  C10 UNL     1      46.014  16.055   2.602  1.00  0.00     0.201 C 
BRANCH  11  12
HETATM   12  O5  UNL     1      45.970  17.019   1.593  1.00  0.00    -0.398 OA
ATOM     13  H5  UNL     1      45.459  16.653   0.881  1.00  0.00     0.209 HD
ENDBRANCH  11  12
ENDBRANCH   5  11
BRANCH   3  14
HETATM   14  C6  UNL     1      50.505  15.829   2.399  1.00  0.00     0.173 C 
BRANCH  14  15
HETATM   15  O3  UNL     1      51.582  15.207   1.783  1.00  0.00    -0.391 OA
ATOM     16  H3  UNL     1      51.269  14.401   1.391  1.00  0.00     0.210 HD
ENDBRANCH  14  15
BRANCH  14  17
HETATM   17  C7  UNL     1      50.868  17.270   2.672  1.00  0.00     0.032 C 
HETATM   18  C8  UNL     1      52.303  17.483   2.276  1.00  0.00     0.007 C 
ENDBRANCH  14  17
ENDBRANCH   3  14
TORSDOF 8
ENDMDL
MODEL 5
REMARK VINA RESULT: -5.377739410      2.352      3.536
REMARK  8 active torsions:
REMARK  status: ('A' for Active; 'I' for Inactive)
REMARK    1  A    between atoms: C2_2  and  C3_3 
REMARK    2  A    between atoms: C3_3  and  C4_4 
REMARK    3  A    between atoms: C4_4  and  O1_5 
REMARK    4  A    between atoms: C5_8  and  C6_9 
REMARK    5  A    between atoms: C6_9  and  O3_10 
REMARK    6  A    between atoms: C6_9  and  C7_12 
REMARK    7  A    between atoms: C9_15  and  C10_16 
REMARK    8  A    between atoms: C10_16  and  O5_17 
ROOT
HETATM    1  C4  UNL     1      45.135  15.255   2.602  1.00  0.00     0.193 C 
HETATM    2  O2  UNL     1      46.147  15.993   3.240  1.00  0.00    -0.320 OA
HETATM    3  C5  UNL     1      47.329  15.338   3.019  1.00  0.00     0.292 C 
HETATM    4  O4  UNL     1      47.119  14.345   2.077  1.00  0.00    -0.346 OA
HETATM    5  C9  UNL     1      45.909  14.652   1.459  1.00  0.00     0.210 C 
ENDROOT
BRANCH   1   6
HETATM    6  C3  UNL     1      44.074  16.226   2.147  1.00  0.00     0.071 C 
BRANCH   6   7
HETATM    7  C2  UNL     1      44.697  17.032   1.001  1.00  0.00     0.001 C 
HETATM    8  C1  UNL     1      43.864  18.257   0.723  1.00  0.00     0.005 C 
ENDBRANCH   6   7
ENDBRANCH   1   6
BRANCH   1   9
HETATM    9  O1  UNL     1      44.630  14.263   3.420  1.00  0.00    -0.363 OA
ATOM     10  H1  UNL     1      44.975  14.310   4.305  1.00  0.00     0.213 HD
ENDBRANCH   1   9
BRANCH   5  11
HETATM   11  C10 UNL     1      45.305  13.365   0.956  1.00  0.00     0.201 C 
BRANCH  11  12
HETATM   12  O5  UNL     1      44.737  13.639  -0.289  1.00  0.00    -0.398 OA
ATOM     13  H5  UNL     1      45.420  14.020  -0.828  1.00  0.00     0.209 HD
ENDBRANCH  11  12
ENDBRANCH   5  11
BRANCH   3  14
HETATM   14  C6  UNL     1      48.389  16.266   2.484  1.00  0.00     0.173 C 
BRANCH  14  15
HETATM   15  O3  UNL     1      48.346  17.438   3.228  1.00  0.00    -0.391 OA
ATOM     16  H3  UNL     1      47.844  18.077   2.736  1.00  0.00     0.210 HD
ENDBRANCH  14  15
BRANCH  14  17
HETATM   17  C7  UNL     1      49.776  15.677   2.589  1.00  0.00     0.032 C 
HETATM   18  C8  UNL     1      50.307  15.457   1.200  1.00  0.00     0.007 C 
ENDBRANCH  14  17
ENDBRANCH   3  14
TORSDOF 8
ENDMDL
