MODEL 1
REMARK VINA RESULT: -5.557890974      0.000      0.000
REMARK  8 active torsions:
REMARK  status: ('A' for Active; 'I' for Inactive)
REMARK    1  A    between atoms: C2_2  and  C3_3 
REMARK    2  A    between atoms: C3_3  and  C4_4 
REMARK    3  A    between atoms: C4_4  and  C5_5 
REMARK    4  A    between atoms: C5_5  and  C6_6 
REMARK    5  A    between atoms: C7_8  and  C8_9 
REMARK    6  A    between atoms: C8_9  and  O2_11 
REMARK    7  A    between atoms: C10_13  and  O3_14 
REMARK    8  A    between atoms: C11_16  and  O4_17 
ROOT
HETATM    1  C6  UNL     1      46.924  15.848   2.620  1.00  0.00     0.153 C 
HETATM    2  O1  UNL     1      47.949  16.765   2.787  1.00  0.00    -0.373 OA
HETATM    3  C7  UNL     1      48.994  15.927   3.174  1.00  0.00     0.181 C 
HETATM    4  C10 UNL     1      49.047  14.970   2.036  1.00  0.00     0.180 C 
HETATM    5  C11 UNL     1      47.565  14.642   1.917  1.00  0.00     0.178 C 
ENDROOT
BRANCH   1   6
HETATM    6  C5  UNL     1      45.716  16.330   1.918  1.00  0.00     0.035 C 
BRANCH   6   7
HETATM    7  C4  UNL     1      44.429  15.789   2.456  1.00  0.00     0.002 C 
BRANCH   7   8
HETATM    8  C3  UNL     1      43.178  16.389   1.908  1.00  0.00    -0.000 C 
BRANCH   8   9
HETATM    9  C2  UNL     1      43.636  17.552   1.001  1.00  0.00    -0.005 C 
HETATM   10  C1  UNL     1      42.452  18.470   0.809  1.00  0.00     0.005 C 
ENDBRANCH   8   9
ENDBRANCH   7   8
ENDBRANCH   6   7
ENDBRANCH   1   6
BRANCH   5  11
HETATM   11  O4  UNL     1      47.161  14.581   0.588  1.00  0.00    -0.390 OA
ATOM     12  H4  UNL     1      47.700  15.148   0.048  1.00  0.00     0.210 HD
ENDBRANCH   5  11
BRANCH   3  13
HETATM   13  C8  UNL     1      50.233  16.614   3.549  1.00  0.00     0.145 C 
HETATM   14  C9  UNL     1      50.280  18.085   3.390  1.00  0.00     0.042 C 
BRANCH  13  15
HETATM   15  O2  UNL     1      51.288  16.060   2.811  1.00  0.00    -0.393 OA
ATOM     16  H2  UNL     1      51.670  16.744   2.273  1.00  0.00     0.210 HD
ENDBRANCH  13  15
ENDBRANCH   3  13
BRANCH   4  17
HETATM   17  O3  UNL     1      49.402  15.569   0.828  1.00  0.00    -0.390 OA
ATOM     18  H3  UNL     1      49.841  14.976   0.230  1.00  0.00     0.210 HD
ENDBRANCH   4  17
TORSDOF 8
ENDMDL
MODEL 2
REMARK VINA RESULT: -5.527711175      3.683      7.254
REMARK  8 active torsions:
REMARK  status: ('A' for Active; 'I' for Inactive)
REMARK    1  A    between atoms: C2_2  and  C3_3 
REMARK    2  A    between atoms: C3_3  and  C4_4 
REMARK    3  A    between atoms: C4_4  and  C5_5 
REMARK    4  A    between atoms: C5_5  and  C6_6 
REMARK    5  A    between atoms: C7_8  and  C8_9 
REMARK    6  A    between atoms: C8_9  and  O2_11 
REMARK    7  A    between atoms: C10_13  and  O3_14 
REMARK    8  A    between atoms: C11_16  and  O4_17 
ROOT
HETATM    1  C6  UNL     1      42.939  16.980   1.629  1.00  0.00     0.153 C 
HETATM    2  O1  UNL     1      41.574  16.962   1.392  1.00  0.00    -0.373 OA
HETATM    3  C7  UNL     1      41.311  18.323   1.252  1.00  0.00     0.181 C 
HETATM    4  C10 UNL     1      42.240  18.696   0.152  1.00  0.00     0.180 C 
HETATM    5  C11 UNL     1      43.508  18.024   0.657  1.00  0.00     0.178 C 
ENDROOT
BRANCH   1   6
HETATM    6  C5  UNL     1      43.642  15.683   1.535  1.00  0.00     0.035 C 
BRANCH   6   7
HETATM    7  C4  UNL     1      44.658  15.450   2.607  1.00  0.00     0.002 C 
BRANCH   7   8
HETATM    8  C3  UNL     1      46.071  15.787   2.266  1.00  0.00    -0.000 C 
BRANCH   8   9
HETATM    9  C2  UNL     1      46.529  14.699   1.269  1.00  0.00    -0.005 C 
HETATM   10  C1  UNL     1      47.947  14.324   1.629  1.00  0.00     0.005 C 
ENDBRANCH   8   9
ENDBRANCH   7   8
ENDBRANCH   6   7
ENDBRANCH   1   6
BRANCH   5  11
HETATM   11  O4  UNL     1      44.203  17.403  -0.375  1.00  0.00    -0.390 OA
ATOM     12  H4  UNL     1      45.128  17.616  -0.331  1.00  0.00     0.210 HD
ENDBRANCH   5  11
BRANCH   3  13
HETATM   13  C8  UNL     1      39.895  18.670   1.100  1.00  0.00     0.145 C 
HETATM   14  C9  UNL     1      38.936  17.563   0.879  1.00  0.00     0.042 C 
BRANCH  13  15
HETATM   15  O2  UNL     1      39.771  19.574   0.038  1.00  0.00    -0.393 OA
ATOM     16  H2  UNL     1      38.882  19.910   0.030  1.00  0.00     0.210 HD
ENDBRANCH  13  15
ENDBRANCH   3  13
BRANCH   4  17
HETATM   17  O3  UNL     1      41.936  18.074  -1.060  1.00  0.00    -0.390 OA
ATOM     18  H3  UNL     1      41.097  18.340  -1.418  1.00  0.00     0.210 HD
ENDBRANCH   4  17
TORSDOF 8
ENDMDL
MODEL 3
REMARK VINA RESULT: -5.481677185      5.437      7.407
REMARK  8 active torsions:
REMARK  status: ('A' for Active; 'I' for Inactive)
REMARK    1  A    between atoms: C2_2  and  C3_3 
REMARK    2  A    between atoms: C3_3  and  C4_4 
REMARK    3  A    between atoms: C4_4  and  C5_5 
REMARK    4  A    between atoms: C5_5  and  C6_6 
REMARK    5  A    between atoms: C7_8  and  C8_9 
REMARK    6  A    between atoms: C8_9  and  O2_11 
REMARK    7  A    between atoms: C10_13  and  O3_14 
REMARK    8  A    between atoms: C11_16  and  O4_17 
ROOT
HETATM    1  C6  UNL     1      41.038  16.540   0.664  1.00  0.00     0.153 C 
HETATM    2  O1  UNL     1      40.880  17.594  -0.221  1.00  0.00    -0.373 OA
HETATM    3  C7  UNL     1      41.459  18.635   0.502  1.00  0.00     0.181 C 
HETATM    4  C10 UNL     1      42.821  18.097   0.763  1.00  0.00     0.180 C 
HETATM    5  C11 UNL     1      42.450  16.701   1.245  1.00  0.00     0.178 C 
ENDROOT
BRANCH   1   6
HETATM    6  C5  UNL     1      40.806  15.184   0.122  1.00  0.00     0.035 C 
BRANCH   6   7
HETATM    7  C4  UNL     1      39.784  15.120  -0.970  1.00  0.00     0.002 C 
BRANCH   7   8
HETATM    8  C3  UNL     1      39.930  14.002  -1.948  1.00  0.00    -0.000 C 
BRANCH   8   9
HETATM    9  C2  UNL     1      40.427  12.792  -1.127  1.00  0.00    -0.005 C 
HETATM   10  C1  UNL     1      39.345  11.739  -1.171  1.00  0.00     0.005 C 
ENDBRANCH   8   9
ENDBRANCH   7   8
ENDBRANCH   6   7
ENDBRANCH   1   6
BRANCH   5  11
HETATM   11  O4  UNL     1      43.306  15.737   0.725  1.00  0.00    -0.390 OA
ATOM     12  H4  UNL     1      43.485  15.065   1.373  1.00  0.00     0.210 HD
ENDBRANCH   5  11
BRANCH   3  13
HETATM   13  C8  UNL     1      41.354  19.958  -0.121  1.00  0.00     0.145 C 
HETATM   14  C9  UNL     1      40.784  20.031  -1.486  1.00  0.00     0.042 C 
BRANCH  13  15
HETATM   15  O2  UNL     1      42.628  20.538  -0.148  1.00  0.00    -0.393 OA
ATOM     16  H2  UNL     1      42.759  20.938  -1.000  1.00  0.00     0.210 HD
ENDBRANCH  13  15
ENDBRANCH   3  13
BRANCH   4  17
HETATM   17  O3  UNL     1      43.572  17.911  -0.398  1.00  0.00    -0.390 OA
ATOM     18  H3  UNL     1      44.277  18.540  -0.494  1.00  0.00     0.210 HD
ENDBRANCH   4  17
TORSDOF 8
ENDMDL
MODEL 4
REMARK VINA RESULT: -5.453161316      4.579      7.174
REMARK  8 active torsions:
REMARK  status: ('A' for Active; 'I' for Inactive)
REMARK    1  A    between atoms: C2_2  and  C3_3 
REMARK    2  A    between atoms: C3_3  and  C4_4 
REMARK    3  A    between atoms: C4_4  and  C5_5 
REMARK    4  A    between atoms: C5_5  and  C6_6 
REMARK    5  A    between atoms: C7_8  and  C8_9 
REMARK    6  A    between atoms: C8_9  and  O2_11 
REMARK    7  A    between atoms: C10_13  and  O3_14 
REMARK    8  A    between atoms: C11_16  and  O4_17 
ROOT
HETATM    1  C6  UNL     1      40.588  17.015  -0.195  1.00  0.00     0.153 C 
HETATM    2  O1  UNL     1      41.739  16.795   0.543  1.00  0.00    -0.373 OA
HETATM    3  C7  UNL     1      42.563  17.810   0.059  1.00  0.00     0.181 C 
HETATM    4  C10 UNL     1      41.740  19.019   0.331  1.00  0.00     0.180 C 
HETATM    5  C11 UNL     1      40.403  18.540  -0.219  1.00  0.00     0.178 C 
ENDROOT
BRANCH   1   6
HETATM    6  C5  UNL     1      39.371  16.310   0.257  1.00  0.00     0.035 C 
BRANCH   6   7
HETATM    7  C4  UNL     1      38.905  15.225  -0.662  1.00  0.00     0.002 C 
BRANCH   7   8
HETATM    8  C3  UNL     1      39.948  14.589  -1.518  1.00  0.00    -0.000 C 
BRANCH   8   9
HETATM    9  C2  UNL     1      40.199  13.195  -0.900  1.00  0.00    -0.005 C 
HETATM   10  C1  UNL     1      41.455  13.290  -0.066  1.00  0.00     0.005 C 
ENDBRANCH   8   9
ENDBRANCH   7   8
ENDBRANCH   6   7
ENDBRANCH   1   6
BRANCH   5  11
HETATM   11  O4  UNL     1      39.348  18.917   0.603  1.00  0.00    -0.390 OA
ATOM     12  H4  UNL     1      38.595  18.356   0.459  1.00  0.00     0.210 HD
ENDBRANCH   5  11
BRANCH   3  13
HETATM   13  C8  UNL     1      43.938  17.790   0.566  1.00  0.00     0.145 C 
HETATM   14  C9  UNL     1      44.279  16.774   1.588  1.00  0.00     0.042 C 
BRANCH  13  15
HETATM   15  O2  UNL     1      44.236  19.054   1.090  1.00  0.00    -0.393 OA
ATOM     16  H2  UNL     1      44.957  18.964   1.703  1.00  0.00     0.210 HD
ENDBRANCH  13  15
ENDBRANCH   3  13
BRANCH   4  17
HETATM   17  O3  UNL     1      41.531  19.248   1.691  1.00  0.00    -0.390 OA
ATOM     18  H3  UNL     1      42.128  18.764   2.249  1.00  0.00     0.210 HD
ENDBRANCH   4  17
TORSDOF 8
ENDMDL
MODEL 5
REMARK VINA RESULT: -5.435073960      1.174      1.319
REMARK  8 active torsions:
REMARK  status: ('A' for Active; 'I' for Inactive)
REMARK    1  A    between atoms: C2_2  and  C3_3 
REMARK    2  A    between atoms: C3_3  and  C4_4 
REMARK    3  A    between atoms: C4_4  and  C5_5 
REMARK    4  A    between atoms: C5_5  and  C6_6 
REMARK    5  A    between atoms: C7_8  and  C8_9 
REMARK    6  A    between atoms: C8_9  and  O2_11 
REMARK    7  A    between atoms: C10_13  and  O3_14 
REMARK    8  A    between atoms: C11_16  and  O4_17 
ROOT
HETATM    1  C6  UNL     1      47.624  15.692   3.152  1.00  0.00     0.153 C 
HETATM    2  O1  UNL     1      48.221  16.862   2.712  1.00  0.00    -0.373 OA
HETATM    3  C7  UNL     1      49.564  16.584   2.960  1.00  0.00     0.181 C 
HETATM    4  C10 UNL     1      49.758  15.328   2.186  1.00  0.00     0.180 C 
HETATM    5  C11 UNL     1      48.529  14.558   2.649  1.00  0.00     0.178 C 
ENDROOT
BRANCH   1   6
HETATM    6  C5  UNL     1      46.210  15.491   2.772  1.00  0.00     0.035 C 
BRANCH   6   7
HETATM    7  C4  UNL     1      45.683  16.493   1.793  1.00  0.00     0.002 C 
BRANCH   7   8
HETATM    8  C3  UNL     1      44.204  16.516   1.601  1.00  0.00    -0.000 C 
BRANCH   8   9
HETATM    9  C2  UNL     1      43.934  17.651   0.588  1.00  0.00    -0.005 C 
HETATM   10  C1  UNL     1      42.595  18.259   0.937  1.00  0.00     0.005 C 
ENDBRANCH   8   9
ENDBRANCH   7   8
ENDBRANCH   6   7
ENDBRANCH   1   6
BRANCH   5  11
HETATM   11  O4  UNL     1      47.925  13.880   1.597  1.00  0.00    -0.390 OA
ATOM     12  H4  UNL     1      48.133  12.953   1.633  1.00  0.00     0.210 HD
ENDBRANCH   5  11
BRANCH   3  13
HETATM   13  C8  UNL     1      50.486  17.694   2.706  1.00  0.00     0.145 C 
HETATM   14  C9  UNL     1      51.939  17.411   2.773  1.00  0.00     0.042 C 
BRANCH  13  15
HETATM   15  O2  UNL     1      50.200  18.725   3.610  1.00  0.00    -0.393 OA
ATOM     16  H2  UNL     1      50.920  19.344   3.599  1.00  0.00     0.210 HD
ENDBRANCH  13  15
ENDBRANCH   3  13
BRANCH   4  17
HETATM   17  O3  UNL     1      49.603  15.500   0.811  1.00  0.00    -0.390 OA
ATOM     18  H3  UNL     1      50.372  15.251   0.312  1.00  0.00     0.210 HD
ENDBRANCH   4  17
TORSDOF 8
ENDMDL
