MODEL 1
REMARK VINA RESULT: -5.809720224      0.000      0.000
REMARK  8 active torsions:
REMARK  status: ('A' for Active; 'I' for Inactive)
REMARK    1  A    between atoms: C2_2  and  C3_3 
REMARK    2  A    between atoms: C3_3  and  C4_4 
REMARK    3  A    between atoms: C4_4  and  S1_5 
REMARK    4  A    between atoms: S1_5  and  C5_6 
REMARK    5  A    between atoms: C5_6  and  C6_7 
REMARK    6  A    between atoms: C7_8  and  O1_9 
REMARK    7  A    between atoms: C8_11  and  O2_12 
REMARK    8  A    between atoms: N1_15  and  O3_16 
ROOT
HETATM    1  C6  UNL     1      50.050  15.661   2.876  1.00  0.00     0.126 C 
HETATM    2  C7  UNL     1      50.888  16.290   1.809  1.00  0.00     0.168 C 
HETATM    3  C8  UNL     1      51.353  17.582   2.499  1.00  0.00     0.163 C 
HETATM    4  C9  UNL     1      50.089  17.918   3.265  1.00  0.00     0.155 C 
HETATM    5  N1  UNL     1      49.759  16.664   3.871  1.00  0.00    -0.189 NA
ENDROOT
BRANCH   1   6
HETATM    6  C5  UNL     1      48.752  15.128   2.289  1.00  0.00     0.098 C 
BRANCH   6   7
HETATM    7  S1  UNL     1      47.557  14.683   3.548  1.00  0.00    -0.167 SA
BRANCH   7   8
HETATM    8  C4  UNL     1      45.883  15.206   3.129  1.00  0.00     0.074 C 
BRANCH   8   9
HETATM    9  C3  UNL     1      45.974  16.152   1.951  1.00  0.00     0.010 C 
BRANCH   9  10
HETATM   10  C2  UNL     1      45.084  15.640   0.843  1.00  0.00    -0.004 C 
HETATM   11  C1  UNL     1      45.724  14.428   0.214  1.00  0.00     0.005 C 
ENDBRANCH   9  10
ENDBRANCH   8   9
ENDBRANCH   7   8
ENDBRANCH   6   7
ENDBRANCH   1   6
BRANCH   2  12
HETATM   12  O1  UNL     1      51.934  15.527   1.367  1.00  0.00    -0.391 OA
ATOM     13  H1  UNL     1      51.694  14.808   0.794  1.00  0.00     0.210 HD
ENDBRANCH   2  12
BRANCH   5  14
HETATM   14  O3  UNL     1      50.476  16.473   5.012  1.00  0.00    -0.313 OA
ATOM     15  H3  UNL     1      50.735  17.295   5.411  1.00  0.00     0.237 HD
ENDBRANCH   5  14
BRANCH   3  16
HETATM   16  O2  UNL     1      52.431  17.340   3.326  1.00  0.00    -0.392 OA
ATOM     17  H2  UNL     1      52.844  16.513   3.110  1.00  0.00     0.210 HD
ENDBRANCH   3  16
TORSDOF 8
ENDMDL
MODEL 2
REMARK VINA RESULT: -5.796611353      0.794      1.053
REMARK  8 active torsions:
REMARK  status: ('A' for Active; 'I' for Inactive)
REMARK    1  A    between atoms: C2_2  and  C3_3 
REMARK    2  A    between atoms: C3_3  and  C4_4 
REMARK    3  A    between atoms: C4_4  and  S1_5 
REMARK    4  A    between atoms: S1_5  and  C5_6 
REMARK    5  A    between atoms: C5_6  and  C6_7 
REMARK    6  A    between atoms: C7_8  and  O1_9 
REMARK    7  A    between atoms: C8_11  and  O2_12 
REMARK    8  A    between atoms: N1_15  and  O3_16 
ROOT
HETATM    1  C6  UNL     1      49.877  15.721   2.852  1.00  0.00     0.126 C 
HETATM    2  C7  UNL     1      50.771  16.262   1.781  1.00  0.00     0.168 C 
HETATM    3  C8  UNL     1      51.383  17.488   2.476  1.00  0.00     0.163 C 
HETATM    4  C9  UNL     1      50.172  17.956   3.257  1.00  0.00     0.155 C 
HETATM    5  N1  UNL     1      49.709  16.742   3.857  1.00  0.00    -0.189 NA
ENDROOT
BRANCH   1   6
HETATM    6  C5  UNL     1      48.522  15.342   2.273  1.00  0.00     0.098 C 
BRANCH   6   7
HETATM    7  S1  UNL     1      47.369  14.786   3.527  1.00  0.00    -0.167 SA
BRANCH   7   8
HETATM    8  C4  UNL     1      45.660  15.200   3.128  1.00  0.00     0.074 C 
BRANCH   8   9
HETATM    9  C3  UNL     1      45.680  16.206   1.997  1.00  0.00     0.010 C 
BRANCH   9  10
HETATM   10  C2  UNL     1      44.258  16.523   1.598  1.00  0.00    -0.004 C 
HETATM   11  C1  UNL     1      44.260  17.696   0.650  1.00  0.00     0.005 C 
ENDBRANCH   9  10
ENDBRANCH   8   9
ENDBRANCH   7   8
ENDBRANCH   6   7
ENDBRANCH   1   6
BRANCH   2  12
HETATM   12  O1  UNL     1      51.722  15.390   1.324  1.00  0.00    -0.391 OA
ATOM     13  H1  UNL     1      52.547  15.789   1.075  1.00  0.00     0.210 HD
ENDBRANCH   2  12
BRANCH   5  14
HETATM   14  O3  UNL     1      50.410  16.463   4.989  1.00  0.00    -0.313 OA
ATOM     15  H3  UNL     1      51.189  17.001   5.067  1.00  0.00     0.237 HD
ENDBRANCH   5  14
BRANCH   3  16
HETATM   16  O2  UNL     1      52.435  17.120   3.291  1.00  0.00    -0.392 OA
ATOM     17  H2  UNL     1      52.865  17.884   3.655  1.00  0.00     0.210 HD
ENDBRANCH   3  16
TORSDOF 8
ENDMDL
MODEL 3
REMARK VINA RESULT: -5.733672876      0.963      1.186
REMARK  8 active torsions:
REMARK  status: ('A' for Active; 'I' for Inactive)
REMARK    1  A    between atoms: C2_2  and  C3_3 
REMARK    2  A    between atoms: C3_3  and  C4_4 
REMARK    3  A    between atoms: C4_4  and  S1_5 
REMARK    4  A    between atoms: S1_5  and  C5_6 
REMARK    5  A    between atoms: C5_6  and  C6_7 
REMARK    6  A    between atoms: C7_8  and  O1_9 
REMARK    7  A    between atoms: C8_11  and  O2_12 
REMARK    8  A    between atoms: N1_15  and  O3_16 
ROOT
HETATM    1  C6  UNL     1      49.876  15.564   2.984  1.00  0.00     0.126 C 
HETATM    2  C7  UNL     1      50.700  16.037   1.829  1.00  0.00     0.168 C 
HETATM    3  C8  UNL     1      51.300  17.337   2.386  1.00  0.00     0.163 C 
HETATM    4  C9  UNL     1      50.111  17.833   3.183  1.00  0.00     0.155 C 
HETATM    5  N1  UNL     1      49.719  16.662   3.905  1.00  0.00    -0.189 NA
ENDROOT
BRANCH   1   6
HETATM    6  C5  UNL     1      48.510  15.094   2.507  1.00  0.00     0.098 C 
BRANCH   6   7
HETATM    7  S1  UNL     1      47.561  14.302   3.805  1.00  0.00    -0.167 SA
BRANCH   7   8
HETATM    8  C4  UNL     1      46.023  13.583   3.199  1.00  0.00     0.074 C 
BRANCH   8   9
HETATM    9  C3  UNL     1      46.318  12.909   1.875  1.00  0.00     0.010 C 
BRANCH   9  10
HETATM   10  C2  UNL     1      45.256  13.304   0.877  1.00  0.00    -0.004 C 
HETATM   11  C1  UNL     1      45.781  14.425   0.016  1.00  0.00     0.005 C 
ENDBRANCH   9  10
ENDBRANCH   8   9
ENDBRANCH   7   8
ENDBRANCH   6   7
ENDBRANCH   1   6
BRANCH   2  12
HETATM   12  O1  UNL     1      51.658  15.159   1.401  1.00  0.00    -0.391 OA
ATOM     13  H1  UNL     1      52.464  15.559   1.097  1.00  0.00     0.210 HD
ENDBRANCH   2  12
BRANCH   5  14
HETATM   14  O3  UNL     1      50.481  16.503   5.022  1.00  0.00    -0.313 OA
ATOM     15  H3  UNL     1      50.702  17.336   5.423  1.00  0.00     0.237 HD
ENDBRANCH   5  14
BRANCH   3  16
HETATM   16  O2  UNL     1      52.400  17.074   3.176  1.00  0.00    -0.392 OA
ATOM     17  H2  UNL     1      53.149  17.586   2.897  1.00  0.00     0.210 HD
ENDBRANCH   3  16
TORSDOF 8
ENDMDL
MODEL 4
REMARK VINA RESULT: -5.711736156      0.950      1.247
REMARK  8 active torsions:
REMARK  status: ('A' for Active; 'I' for Inactive)
REMARK    1  A    between atoms: C2_2  and  C3_3 
REMARK    2  A    between atoms: C3_3  and  C4_4 
REMARK    3  A    between atoms: C4_4  and  S1_5 
REMARK    4  A    between atoms: S1_5  and  C5_6 
REMARK    5  A    between atoms: C5_6  and  C6_7 
REMARK    6  A    between atoms: C7_8  and  O1_9 
REMARK    7  A    between atoms: C8_11  and  O2_12 
REMARK    8  A    between atoms: N1_15  and  O3_16 
ROOT
HETATM    1  C6  UNL     1      49.747  15.749   2.920  1.00  0.00     0.126 C 
HETATM    2  C7  UNL     1      50.588  16.228   1.778  1.00  0.00     0.168 C 
HETATM    3  C8  UNL     1      51.312  17.429   2.407  1.00  0.00     0.163 C 
HETATM    4  C9  UNL     1      50.187  17.970   3.266  1.00  0.00     0.155 C 
HETATM    5  N1  UNL     1      49.707  16.790   3.917  1.00  0.00    -0.189 NA
ENDROOT
BRANCH   1   6
HETATM    6  C5  UNL     1      48.337  15.435   2.447  1.00  0.00     0.098 C 
BRANCH   6   7
HETATM    7  S1  UNL     1      48.089  13.688   2.131  1.00  0.00    -0.167 SA
BRANCH   7   8
HETATM    8  C4  UNL     1      46.397  13.307   1.636  1.00  0.00     0.074 C 
BRANCH   8   9
HETATM    9  C3  UNL     1      45.995  14.298   0.564  1.00  0.00     0.010 C 
BRANCH   9  10
HETATM   10  C2  UNL     1      44.743  15.017   1.008  1.00  0.00    -0.004 C 
HETATM   11  C1  UNL     1      45.021  16.497   1.079  1.00  0.00     0.005 C 
ENDBRANCH   9  10
ENDBRANCH   8   9
ENDBRANCH   7   8
ENDBRANCH   6   7
ENDBRANCH   1   6
BRANCH   2  12
HETATM   12  O1  UNL     1      51.456  15.302   1.267  1.00  0.00    -0.391 OA
ATOM     13  H1  UNL     1      51.589  14.533   1.809  1.00  0.00     0.210 HD
ENDBRANCH   2  12
BRANCH   5  14
HETATM   14  O3  UNL     1      50.474  16.488   5.000  1.00  0.00    -0.313 OA
ATOM     15  H3  UNL     1      50.139  15.735   5.474  1.00  0.00     0.237 HD
ENDBRANCH   5  14
BRANCH   3  16
HETATM   16  O2  UNL     1      52.400  17.016   3.149  1.00  0.00    -0.392 OA
ATOM     17  H2  UNL     1      52.945  17.755   3.392  1.00  0.00     0.210 HD
ENDBRANCH   3  16
TORSDOF 8
ENDMDL
MODEL 5
REMARK VINA RESULT: -5.666842922      1.877      2.640
REMARK  8 active torsions:
REMARK  status: ('A' for Active; 'I' for Inactive)
REMARK    1  A    between atoms: C2_2  and  C3_3 
REMARK    2  A    between atoms: C3_3  and  C4_4 
REMARK    3  A    between atoms: C4_4  and  S1_5 
REMARK    4  A    between atoms: S1_5  and  C5_6 
REMARK    5  A    between atoms: C5_6  and  C6_7 
REMARK    6  A    between atoms: C7_8  and  O1_9 
REMARK    7  A    between atoms: C8_11  and  O2_12 
REMARK    8  A    between atoms: N1_15  and  O3_16 
ROOT
HETATM    1  C6  UNL     1      49.856  15.574   2.972  1.00  0.00     0.126 C 
HETATM    2  C7  UNL     1      50.697  16.048   1.829  1.00  0.00     0.168 C 
HETATM    3  C8  UNL     1      51.309  17.335   2.404  1.00  0.00     0.163 C 
HETATM    4  C9  UNL     1      50.118  17.838   3.195  1.00  0.00     0.155 C 
HETATM    5  N1  UNL     1      49.704  16.665   3.903  1.00  0.00    -0.189 NA
ENDROOT
BRANCH   1   6
HETATM    6  C5  UNL     1      48.489  15.127   2.477  1.00  0.00     0.098 C 
BRANCH   6   7
HETATM    7  S1  UNL     1      47.476  14.435   3.784  1.00  0.00    -0.167 SA
BRANCH   7   8
HETATM    8  C4  UNL     1      47.598  12.639   3.878  1.00  0.00     0.074 C 
BRANCH   8   9
HETATM    9  C3  UNL     1      47.787  12.114   2.470  1.00  0.00     0.010 C 
BRANCH   9  10
HETATM   10  C2  UNL     1      48.962  11.165   2.455  1.00  0.00    -0.004 C 
HETATM   11  C1  UNL     1      50.176  11.891   1.932  1.00  0.00     0.005 C 
ENDBRANCH   9  10
ENDBRANCH   8   9
ENDBRANCH   7   8
ENDBRANCH   6   7
ENDBRANCH   1   6
BRANCH   2  12
HETATM   12  O1  UNL     1      51.647  15.161   1.401  1.00  0.00    -0.391 OA
ATOM     13  H1  UNL     1      51.900  15.250   0.489  1.00  0.00     0.210 HD
ENDBRANCH   2  12
BRANCH   5  14
HETATM   14  O3  UNL     1      50.454  16.485   5.024  1.00  0.00    -0.313 OA
ATOM     15  H3  UNL     1      50.833  17.300   5.333  1.00  0.00     0.237 HD
ENDBRANCH   5  14
BRANCH   3  16
HETATM   16  O2  UNL     1      52.398  17.049   3.202  1.00  0.00    -0.392 OA
ATOM     17  H2  UNL     1      52.167  17.098   4.122  1.00  0.00     0.210 HD
ENDBRANCH   3  16
TORSDOF 8
ENDMDL
