MODEL 1
REMARK VINA RESULT: -5.446439571      0.000      0.000
REMARK  7 active torsions:
REMARK  status: ('A' for Active; 'I' for Inactive)
REMARK    1  A    between atoms: C2_2  and  C3_3 
REMARK    2  A    between atoms: C3_3  and  C4_4 
REMARK    3  A    between atoms: C3_3  and  C9_18 
REMARK    4  A    between atoms: C4_4  and  C5_5 
REMARK    5  A    between atoms: C5_5  and  C6_6 
REMARK    6  A    between atoms: N3_14  and  O1_16 
REMARK    7  A    between atoms: C9_18  and  N4_21 
ROOT
HETATM    1  C4  UNL     1      47.070  14.973   2.927  1.00  0.00     0.020 C 
HETATM    2  N3  UNL     1      46.336  14.970   4.017  1.00  0.00    -0.275 N 
ATOM      3  H3  UNL     1      45.320  15.048   3.989  1.00  0.00     0.193 HD
ENDROOT
BRANCH   1   4
HETATM    4  C3  UNL     1      48.532  14.863   2.970  1.00  0.00     0.068 C 
BRANCH   4   5
HETATM    5  C2  UNL     1      49.152  13.817   2.125  1.00  0.00     0.008 C 
HETATM    6  C1  UNL     1      48.964  12.403   2.449  1.00  0.00     0.006 C 
ENDBRANCH   4   5
BRANCH   4   7
HETATM    7  C9  UNL     1      49.223  16.209   2.890  1.00  0.00     0.125 C 
HETATM    8  C10 UNL     1      50.185  16.282   4.088  1.00  0.00     0.046 C 
HETATM    9  C11 UNL     1      50.096  16.231   1.672  1.00  0.00     0.046 C 
BRANCH   7  10
HETATM   10  N4  UNL     1      48.359  17.336   3.016  1.00  0.00    -0.070 N 
ATOM     11  H43 UNL     1      47.685  17.350   2.250  1.00  0.00     0.275 HD
ATOM     12  H42 UNL     1      47.728  17.209   3.806  1.00  0.00     0.275 HD
ATOM     13  H41 UNL     1      48.834  18.236   3.085  1.00  0.00     0.275 HD
ENDBRANCH   7  10
ENDBRANCH   4   7
ENDBRANCH   1   4
BRANCH   1  14
HETATM   14  C5  UNL     1      46.289  15.098   1.662  1.00  0.00     0.117 C 
BRANCH  14  15
HETATM   15  C6  UNL     1      45.175  16.110   1.787  1.00  0.00     0.391 C 
HETATM   16  N1  UNL     1      45.385  17.393   1.196  1.00  0.00    -0.022 N 
HETATM   17  C7  UNL     1      44.083  17.317   0.559  1.00  0.00     0.468 C 
ATOM     18  H12 UNL     1      45.619  18.193   1.785  1.00  0.00     0.281 HD
ATOM     19  H11 UNL     1      46.218  17.564   0.632  1.00  0.00     0.281 HD
HETATM   20  N2  UNL     1      44.108  15.886   0.831  1.00  0.00    -0.022 N 
ATOM     21  H22 UNL     1      44.230  15.218   0.069  1.00  0.00     0.281 HD
ATOM     22  H21 UNL     1      43.257  15.398   1.112  1.00  0.00     0.281 HD
ENDBRANCH  14  15
ENDBRANCH   1  14
BRANCH   2  23
HETATM   23  O1  UNL     1      47.029  14.856   5.194  1.00  0.00    -0.285 OA
HETATM   24  C8  UNL     1      46.603  14.127   6.302  1.00  0.00     0.237 C 
ENDBRANCH   2  23
TORSDOF 7
ENDMDL
MODEL 2
REMARK VINA RESULT: -5.251142673      1.889      4.621
REMARK  7 active torsions:
REMARK  status: ('A' for Active; 'I' for Inactive)
REMARK    1  A    between atoms: C2_2  and  C3_3 
REMARK    2  A    between atoms: C3_3  and  C4_4 
REMARK    3  A    between atoms: C3_3  and  C9_18 
REMARK    4  A    between atoms: C4_4  and  C5_5 
REMARK    5  A    between atoms: C5_5  and  C6_6 
REMARK    6  A    between atoms: N3_14  and  O1_16 
REMARK    7  A    between atoms: C9_18  and  N4_21 
ROOT
HETATM    1  C4  UNL     1      47.114  15.554   2.174  1.00  0.00     0.020 C 
HETATM    2  N3  UNL     1      46.615  16.758   1.997  1.00  0.00    -0.275 N 
ATOM      3  H3  UNL     1      47.204  17.570   1.816  1.00  0.00     0.193 HD
ENDROOT
BRANCH   1   4
HETATM    4  C3  UNL     1      46.265  14.388   2.435  1.00  0.00     0.068 C 
BRANCH   4   5
HETATM    5  C2  UNL     1      46.123  13.401   1.341  1.00  0.00     0.008 C 
HETATM    6  C1  UNL     1      45.272  13.698   0.188  1.00  0.00     0.006 C 
ENDBRANCH   4   5
BRANCH   4   7
HETATM    7  C9  UNL     1      46.524  13.768   3.794  1.00  0.00     0.125 C 
HETATM    8  C10 UNL     1      45.211  13.095   4.228  1.00  0.00     0.046 C 
HETATM    9  C11 UNL     1      47.513  12.653   3.634  1.00  0.00     0.046 C 
BRANCH   7  10
HETATM   10  N4  UNL     1      46.846  14.697   4.825  1.00  0.00    -0.070 N 
ATOM     11  H43 UNL     1      47.616  14.343   5.392  1.00  0.00     0.275 HD
ATOM     12  H42 UNL     1      47.285  15.527   4.428  1.00  0.00     0.275 HD
ATOM     13  H41 UNL     1      46.062  14.964   5.422  1.00  0.00     0.275 HD
ENDBRANCH   7  10
ENDBRANCH   4   7
ENDBRANCH   1   4
BRANCH   1  14
HETATM   14  C5  UNL     1      48.602  15.488   2.085  1.00  0.00     0.117 C 
BRANCH  14  15
HETATM   15  C6  UNL     1      49.255  16.721   2.662  1.00  0.00     0.391 C 
HETATM   16  N1  UNL     1      49.768  16.630   3.993  1.00  0.00    -0.022 N 
HETATM   17  C7  UNL     1      51.019  17.223   3.555  1.00  0.00     0.468 C 
ATOM     18  H12 UNL     1      49.251  17.045   4.767  1.00  0.00     0.281 HD
ATOM     19  H11 UNL     1      49.772  15.731   4.476  1.00  0.00     0.281 HD
HETATM   20  N2  UNL     1      50.613  16.906   2.191  1.00  0.00    -0.022 N 
ATOM     21  H22 UNL     1      51.084  16.165   1.671  1.00  0.00     0.281 HD
ATOM     22  H21 UNL     1      50.811  17.556   1.429  1.00  0.00     0.281 HD
ENDBRANCH  14  15
ENDBRANCH   1  14
BRANCH   2  23
HETATM   23  O1  UNL     1      45.249  16.846   2.072  1.00  0.00    -0.285 OA
HETATM   24  C8  UNL     1      44.419  17.249   1.030  1.00  0.00     0.237 C 
ENDBRANCH   2  23
TORSDOF 7
ENDMDL
MODEL 3
REMARK VINA RESULT: -5.222980238      3.989      7.698
REMARK  7 active torsions:
REMARK  status: ('A' for Active; 'I' for Inactive)
REMARK    1  A    between atoms: C2_2  and  C3_3 
REMARK    2  A    between atoms: C3_3  and  C4_4 
REMARK    3  A    between atoms: C3_3  and  C9_18 
REMARK    4  A    between atoms: C4_4  and  C5_5 
REMARK    5  A    between atoms: C5_5  and  C6_6 
REMARK    6  A    between atoms: N3_14  and  O1_16 
REMARK    7  A    between atoms: C9_18  and  N4_21 
ROOT
HETATM    1  C4  UNL     1      41.501  16.508   0.881  1.00  0.00     0.020 C 
HETATM    2  N3  UNL     1      41.439  15.379   0.212  1.00  0.00    -0.275 N 
ATOM      3  H3  UNL     1      42.050  14.589   0.419  1.00  0.00     0.193 HD
ENDROOT
BRANCH   1   4
HETATM    4  C3  UNL     1      40.623  17.644   0.580  1.00  0.00     0.068 C 
BRANCH   4   5
HETATM    5  C2  UNL     1      39.930  18.279   1.723  1.00  0.00     0.008 C 
HETATM    6  C1  UNL     1      38.871  17.561   2.432  1.00  0.00     0.006 C 
ENDBRANCH   4   5
BRANCH   4   7
HETATM    7  C9  UNL     1      41.252  18.630  -0.385  1.00  0.00     0.125 C 
HETATM    8  C10 UNL     1      40.195  19.714  -0.655  1.00  0.00     0.046 C 
HETATM    9  C11 UNL     1      42.379  19.331   0.309  1.00  0.00     0.046 C 
BRANCH   7  10
HETATM   10  N4  UNL     1      41.589  18.089  -1.660  1.00  0.00    -0.070 N 
ATOM     11  H43 UNL     1      41.137  18.625  -2.401  1.00  0.00     0.275 HD
ATOM     12  H42 UNL     1      42.568  18.279  -1.875  1.00  0.00     0.275 HD
ATOM     13  H41 UNL     1      41.391  17.095  -1.771  1.00  0.00     0.275 HD
ENDBRANCH   7  10
ENDBRANCH   4   7
ENDBRANCH   1   4
BRANCH   1  14
HETATM   14  C5  UNL     1      42.533  16.527   1.958  1.00  0.00     0.117 C 
BRANCH  14  15
HETATM   15  C6  UNL     1      43.885  16.086   1.450  1.00  0.00     0.391 C 
HETATM   16  N1  UNL     1      44.891  17.091   1.305  1.00  0.00    -0.022 N 
HETATM   17  C7  UNL     1      45.839  16.247   2.010  1.00  0.00     0.468 C 
ATOM     18  H12 UNL     1      45.121  17.451   0.379  1.00  0.00     0.281 HD
ATOM     19  H11 UNL     1      44.713  18.040   1.632  1.00  0.00     0.281 HD
HETATM   20  N2  UNL     1      44.697  15.474   2.483  1.00  0.00    -0.022 N 
ATOM     21  H22 UNL     1      44.411  15.522   3.461  1.00  0.00     0.281 HD
ATOM     22  H21 UNL     1      44.757  14.458   2.558  1.00  0.00     0.281 HD
ENDBRANCH  14  15
ENDBRANCH   1  14
BRANCH   2  23
HETATM   23  O1  UNL     1      40.498  15.334  -0.784  1.00  0.00    -0.285 OA
HETATM   24  C8  UNL     1      40.024  14.169  -1.380  1.00  0.00     0.237 C 
ENDBRANCH   2  23
TORSDOF 7
ENDMDL
MODEL 4
REMARK VINA RESULT: -5.222714044      1.715      4.707
REMARK  7 active torsions:
REMARK  status: ('A' for Active; 'I' for Inactive)
REMARK    1  A    between atoms: C2_2  and  C3_3 
REMARK    2  A    between atoms: C3_3  and  C4_4 
REMARK    3  A    between atoms: C3_3  and  C9_18 
REMARK    4  A    between atoms: C4_4  and  C5_5 
REMARK    5  A    between atoms: C5_5  and  C6_6 
REMARK    6  A    between atoms: N3_14  and  O1_16 
REMARK    7  A    between atoms: C9_18  and  N4_21 
ROOT
HETATM    1  C4  UNL     1      46.809  15.802   2.648  1.00  0.00     0.020 C 
HETATM    2  N3  UNL     1      46.846  15.535   3.934  1.00  0.00    -0.275 N 
ATOM      3  H3  UNL     1      47.698  15.632   4.486  1.00  0.00     0.193 HD
ENDROOT
BRANCH   1   4
HETATM    4  C3  UNL     1      45.583  15.661   1.856  1.00  0.00     0.068 C 
BRANCH   4   5
HETATM    5  C2  UNL     1      45.057  16.883   1.207  1.00  0.00     0.008 C 
HETATM    6  C1  UNL     1      43.634  17.207   1.292  1.00  0.00     0.006 C 
ENDBRANCH   4   5
BRANCH   4   7
HETATM    7  C9  UNL     1      45.608  14.445   0.951  1.00  0.00     0.125 C 
HETATM    8  C10 UNL     1      46.687  13.503   1.511  1.00  0.00     0.046 C 
HETATM    9  C11 UNL     1      44.313  13.706   1.101  1.00  0.00     0.046 C 
BRANCH   7  10
HETATM   10  N4  UNL     1      45.983  14.709  -0.398  1.00  0.00    -0.070 N 
ATOM     11  H43 UNL     1      45.155  14.759  -0.992  1.00  0.00     0.275 HD
ATOM     12  H42 UNL     1      46.323  15.666  -0.489  1.00  0.00     0.275 HD
ATOM     13  H41 UNL     1      46.661  14.055  -0.791  1.00  0.00     0.275 HD
ENDBRANCH   7  10
ENDBRANCH   4   7
ENDBRANCH   1   4
BRANCH   1  14
HETATM   14  C5  UNL     1      48.111  16.257   2.078  1.00  0.00     0.117 C 
BRANCH  14  15
HETATM   15  C6  UNL     1      49.187  16.342   3.134  1.00  0.00     0.391 C 
HETATM   16  N1  UNL     1      50.541  16.189   2.705  1.00  0.00    -0.022 N 
HETATM   17  C7  UNL     1      50.916  17.375   3.453  1.00  0.00     0.468 C 
ATOM     18  H12 UNL     1      51.030  15.309   2.867  1.00  0.00     0.281 HD
ATOM     19  H11 UNL     1      50.756  16.126   1.710  1.00  0.00     0.281 HD
HETATM   20  N2  UNL     1      49.498  17.709   3.504  1.00  0.00    -0.022 N 
ATOM     21  H22 UNL     1      49.131  18.488   2.958  1.00  0.00     0.281 HD
ATOM     22  H21 UNL     1      49.095  18.120   4.347  1.00  0.00     0.281 HD
ENDBRANCH  14  15
ENDBRANCH   1  14
BRANCH   2  23
HETATM   23  O1  UNL     1      45.662  15.116   4.483  1.00  0.00    -0.285 OA
HETATM   24  C8  UNL     1      45.548  14.355   5.644  1.00  0.00     0.237 C 
ENDBRANCH   2  23
TORSDOF 7
ENDMDL
MODEL 5
REMARK VINA RESULT: -5.173408776      1.771      3.264
REMARK  7 active torsions:
REMARK  status: ('A' for Active; 'I' for Inactive)
REMARK    1  A    between atoms: C2_2  and  C3_3 
REMARK    2  A    between atoms: C3_3  and  C4_4 
REMARK    3  A    between atoms: C3_3  and  C9_18 
REMARK    4  A    between atoms: C4_4  and  C5_5 
REMARK    5  A    between atoms: C5_5  and  C6_6 
REMARK    6  A    between atoms: N3_14  and  O1_16 
REMARK    7  A    between atoms: C9_18  and  N4_21 
ROOT
HETATM    1  C4  UNL     1      46.499  15.806   2.183  1.00  0.00     0.020 C 
HETATM    2  N3  UNL     1      47.324  16.828   2.218  1.00  0.00    -0.275 N 
ATOM      3  H3  UNL     1      47.253  17.608   1.565  1.00  0.00     0.193 HD
ENDROOT
BRANCH   1   4
HETATM    4  C3  UNL     1      46.604  14.685   3.123  1.00  0.00     0.068 C 
BRANCH   4   5
HETATM    5  C2  UNL     1      45.364  14.273   3.819  1.00  0.00     0.008 C 
HETATM    6  C1  UNL     1      45.249  14.424   5.269  1.00  0.00     0.006 C 
ENDBRANCH   4   5
BRANCH   4   7
HETATM    7  C9  UNL     1      47.411  13.529   2.566  1.00  0.00     0.125 C 
HETATM    8  C10 UNL     1      47.990  12.775   3.775  1.00  0.00     0.046 C 
HETATM    9  C11 UNL     1      46.477  12.564   1.901  1.00  0.00     0.046 C 
BRANCH   7  10
HETATM   10  N4  UNL     1      48.531  13.908   1.771  1.00  0.00    -0.070 N 
ATOM     11  H43 UNL     1      48.228  14.481   0.984  1.00  0.00     0.275 HD
ATOM     12  H42 UNL     1      49.106  14.585   2.272  1.00  0.00     0.275 HD
ATOM     13  H41 UNL     1      49.106  13.132   1.442  1.00  0.00     0.275 HD
ENDBRANCH   7  10
ENDBRANCH   4   7
ENDBRANCH   1   4
BRANCH   1  14
HETATM   14  C5  UNL     1      45.461  15.893   1.115  1.00  0.00     0.117 C 
BRANCH  14  15
HETATM   15  C6  UNL     1      44.392  16.905   1.450  1.00  0.00     0.391 C 
HETATM   16  N1  UNL     1      44.451  18.168   0.785  1.00  0.00    -0.022 N 
HETATM   17  C7  UNL     1      43.041  18.065   0.457  1.00  0.00     0.468 C 
ATOM     18  H12 UNL     1      44.801  18.988   1.280  1.00  0.00     0.281 HD
ATOM     19  H11 UNL     1      45.136  18.321   0.045  1.00  0.00     0.281 HD
HETATM   20  N2  UNL     1      43.142  16.644   0.764  1.00  0.00    -0.022 N 
ATOM     21  H22 UNL     1      43.098  15.950   0.017  1.00  0.00     0.281 HD
ATOM     22  H21 UNL     1      42.380  16.164   1.243  1.00  0.00     0.281 HD
ENDBRANCH  14  15
ENDBRANCH   1  14
BRANCH   2  23
HETATM   23  O1  UNL     1      48.288  16.775   3.192  1.00  0.00    -0.285 OA
HETATM   24  C8  UNL     1      49.551  17.351   3.094  1.00  0.00     0.237 C 
ENDBRANCH   2  23
TORSDOF 7
ENDMDL
