MODEL 1
REMARK VINA RESULT: -7.450127881      0.000      0.000
REMARK  10 active torsions:
REMARK  status: ('A' for Active; 'I' for Inactive)
REMARK    1  A    between atoms: C17_19  and  O3_20 
REMARK    2  A    between atoms: C19_23  and  O4_24 
REMARK    3  A    between atoms: C19_23  and  C20_26 
REMARK    4  A    between atoms: C21_30  and  O5_31 
REMARK    5  A    between atoms: O5_31  and  C22_32 
REMARK    6  A    between atoms: C22_32  and  C23_34 
REMARK    7  A    between atoms: C23_34  and  C24_35 
REMARK    8  A    between atoms: C24_35  and  C25_36 
REMARK    9  A    between atoms: C25_36  and  C26_37 
REMARK   10  A    between atoms: C26_37  and  O7_38 
ROOT
HETATM    1  C1  UNL     1      10.926   0.853  10.380  1.00  0.00     0.046 C 
HETATM    2  C2  UNL     1      11.150   1.048   9.097  1.00  0.00     0.038 C 
HETATM    3  C3  UNL     1       9.928   0.845   8.288  1.00  0.00     0.073 C 
HETATM    4  C4  UNL     1       9.767   1.971   7.257  1.00  0.00     0.117 C 
HETATM    5  C5  UNL     1      10.542   1.660   6.026  1.00  0.00     0.259 C 
HETATM    6  O1  UNL     1       9.894   1.881   4.946  1.00  0.00    -0.265 OA
HETATM    7  O2  UNL     1      11.806   1.188   5.775  1.00  0.00    -0.313 OA
HETATM    8  C6  UNL     1      12.975   0.838   6.535  1.00  0.00     0.161 C 
HETATM    9  C7  UNL     1      14.130   0.998   5.558  1.00  0.00     0.036 C 
HETATM   10  C8  UNL     1      14.471   2.483   5.532  1.00  0.00     0.012 C 
HETATM   11  C9  UNL     1      15.118   2.981   6.750  1.00  0.00    -0.031 C 
HETATM   12  C10 UNL     1      14.618   4.425   6.962  1.00  0.00     0.016 C 
HETATM   13  C11 UNL     1      14.532   2.164   7.913  1.00  0.00     0.026 C 
HETATM   14  C12 UNL     1      14.789   2.829   9.222  1.00  0.00     0.009 C 
HETATM   15  C13 UNL     1      16.065   3.603   9.285  1.00  0.00     0.013 C 
HETATM   16  C14 UNL     1      17.069   2.966   8.313  1.00  0.00    -0.007 C 
HETATM   17  C15 UNL     1      17.416   1.670   8.944  1.00  0.00     0.018 C 
HETATM   18  C16 UNL     1      16.583   2.972   6.895  1.00  0.00     0.034 C 
HETATM   19  C17 UNL     1      17.396   1.979   6.134  1.00  0.00     0.127 C 
HETATM   20  C18 UNL     1      18.859   2.292   6.301  1.00  0.00     0.082 C 
HETATM   21  C19 UNL     1      19.219   3.467   7.125  1.00  0.00     0.185 C 
HETATM   22  C21 UNL     1      18.369   3.788   8.303  1.00  0.00     0.184 C 
HETATM   23  C28 UNL     1      13.060   1.927   7.618  1.00  0.00     0.163 C 
HETATM   24  O8  UNL     1      12.453   1.395   8.796  1.00  0.00    -0.348 OA
ENDROOT
BRANCH  22  25
HETATM   25  O5  UNL     1      19.016   3.786   9.540  1.00  0.00    -0.312 OA
BRANCH  25  26
HETATM   26  C22 UNL     1      19.122   4.921  10.359  1.00  0.00     0.259 C 
HETATM   27  O6  UNL     1      19.516   5.977   9.808  1.00  0.00    -0.265 OA
BRANCH  26  28
HETATM   28  C23 UNL     1      18.806   4.939  11.791  1.00  0.00     0.111 C 
BRANCH  28  29
HETATM   29  C24 UNL     1      19.224   3.606  12.410  1.00  0.00     0.012 C 
BRANCH  29  30
HETATM   30  C25 UNL     1      18.017   2.736  12.667  1.00  0.00     0.027 C 
BRANCH  30  31
HETATM   31  C26 UNL     1      18.392   1.269  12.482  1.00  0.00     0.167 C 
BRANCH  31  32
HETATM   32  O7  UNL     1      17.698   0.482  13.424  1.00  0.00    -0.396 OA
HETATM   33  C27 UNL     1      18.084   0.845  14.712  1.00  0.00     0.201 C 
ENDBRANCH  31  32
ENDBRANCH  30  31
ENDBRANCH  29  30
ENDBRANCH  28  29
ENDBRANCH  26  28
ENDBRANCH  25  26
ENDBRANCH  22  25
BRANCH  21  34
HETATM   34  O4  UNL     1      19.372   4.595   6.277  1.00  0.00    -0.378 OA
ATOM     35  H4  UNL     1      19.746   5.309   6.778  1.00  0.00     0.211 HD
ENDBRANCH  21  34
BRANCH  21  36
HETATM   36  C20 UNL     1      20.659   3.213   7.609  1.00  0.00     0.420 C 
HETATM   37  F1  UNL     1      20.735   2.188   8.494  1.00  0.00    -0.168 F 
HETATM   38  F2  UNL     1      21.308   4.357   7.946  1.00  0.00    -0.168 F 
HETATM   39  F3  UNL     1      21.305   2.745   6.447  1.00  0.00    -0.168 F 
ENDBRANCH  21  36
BRANCH  19  40
HETATM   40  O3  UNL     1      17.157   1.976   4.756  1.00  0.00    -0.395 OA
ATOM     41  H3  UNL     1      17.847   2.375   4.239  1.00  0.00     0.210 HD
ENDBRANCH  19  40
TORSDOF 10
ENDMDL
MODEL 2
REMARK VINA RESULT: -7.042560211      1.231      1.499
REMARK  10 active torsions:
REMARK  status: ('A' for Active; 'I' for Inactive)
REMARK    1  A    between atoms: C17_19  and  O3_20 
REMARK    2  A    between atoms: C19_23  and  O4_24 
REMARK    3  A    between atoms: C19_23  and  C20_26 
REMARK    4  A    between atoms: C21_30  and  O5_31 
REMARK    5  A    between atoms: O5_31  and  C22_32 
REMARK    6  A    between atoms: C22_32  and  C23_34 
REMARK    7  A    between atoms: C23_34  and  C24_35 
REMARK    8  A    between atoms: C24_35  and  C25_36 
REMARK    9  A    between atoms: C25_36  and  C26_37 
REMARK   10  A    between atoms: C26_37  and  O7_38 
ROOT
HETATM    1  C1  UNL     1      10.877   0.981  10.402  1.00  0.00     0.046 C 
HETATM    2  C2  UNL     1      11.139   1.130   9.120  1.00  0.00     0.038 C 
HETATM    3  C3  UNL     1       9.944   0.883   8.283  1.00  0.00     0.073 C 
HETATM    4  C4  UNL     1       9.803   1.969   7.206  1.00  0.00     0.117 C 
HETATM    5  C5  UNL     1      10.619   1.620   6.011  1.00  0.00     0.259 C 
HETATM    6  O1  UNL     1      10.002   1.793   4.905  1.00  0.00    -0.265 OA
HETATM    7  O2  UNL     1      11.895   1.151   5.816  1.00  0.00    -0.313 OA
HETATM    8  C6  UNL     1      13.043   0.842   6.624  1.00  0.00     0.161 C 
HETATM    9  C7  UNL     1      14.226   0.977   5.677  1.00  0.00     0.036 C 
HETATM   10  C8  UNL     1      14.554   2.464   5.605  1.00  0.00     0.012 C 
HETATM   11  C9  UNL     1      15.159   3.013   6.822  1.00  0.00    -0.031 C 
HETATM   12  C10 UNL     1      14.639   4.459   6.964  1.00  0.00     0.016 C 
HETATM   13  C11 UNL     1      14.545   2.236   7.998  1.00  0.00     0.026 C 
HETATM   14  C12 UNL     1      14.756   2.951   9.287  1.00  0.00     0.009 C 
HETATM   15  C13 UNL     1      16.022   3.740   9.359  1.00  0.00     0.013 C 
HETATM   16  C14 UNL     1      17.061   3.078   8.443  1.00  0.00    -0.007 C 
HETATM   17  C15 UNL     1      17.400   1.810   9.132  1.00  0.00     0.018 C 
HETATM   18  C16 UNL     1      16.619   3.025   7.012  1.00  0.00     0.034 C 
HETATM   19  C17 UNL     1      17.463   2.013   6.313  1.00  0.00     0.127 C 
HETATM   20  C18 UNL     1      18.918   2.347   6.513  1.00  0.00     0.082 C 
HETATM   21  C19 UNL     1      19.241   3.556   7.302  1.00  0.00     0.185 C 
HETATM   22  C21 UNL     1      18.353   3.912   8.440  1.00  0.00     0.184 C 
HETATM   23  C28 UNL     1      13.085   1.972   7.667  1.00  0.00     0.163 C 
HETATM   24  O8  UNL     1      12.447   1.478   8.845  1.00  0.00    -0.348 OA
ENDROOT
BRANCH  22  25
HETATM   25  O5  UNL     1      18.962   3.963   9.696  1.00  0.00    -0.312 OA
BRANCH  25  26
HETATM   26  C22 UNL     1      19.228   5.161  10.378  1.00  0.00     0.259 C 
HETATM   27  O6  UNL     1      19.504   6.161   9.671  1.00  0.00    -0.265 OA
BRANCH  26  28
HETATM   28  C23 UNL     1      19.205   5.303  11.838  1.00  0.00     0.111 C 
BRANCH  28  29
HETATM   29  C24 UNL     1      19.214   3.914  12.474  1.00  0.00     0.012 C 
BRANCH  29  30
HETATM   30  C25 UNL     1      19.473   4.010  13.959  1.00  0.00     0.027 C 
BRANCH  30  31
HETATM   31  C26 UNL     1      20.190   5.320  14.272  1.00  0.00     0.167 C 
BRANCH  31  32
HETATM   32  O7  UNL     1      19.556   5.956  15.359  1.00  0.00    -0.396 OA
HETATM   33  C27 UNL     1      19.109   4.999  16.265  1.00  0.00     0.201 C 
ENDBRANCH  31  32
ENDBRANCH  30  31
ENDBRANCH  29  30
ENDBRANCH  28  29
ENDBRANCH  26  28
ENDBRANCH  25  26
ENDBRANCH  22  25
BRANCH  21  34
HETATM   34  O4  UNL     1      19.410   4.652   6.417  1.00  0.00    -0.378 OA
ATOM     35  H4  UNL     1      19.511   5.447   6.926  1.00  0.00     0.211 HD
ENDBRANCH  21  34
BRANCH  21  36
HETATM   36  C20 UNL     1      20.668   3.335   7.839  1.00  0.00     0.420 C 
HETATM   37  F1  UNL     1      20.705   2.452   8.868  1.00  0.00    -0.168 F 
HETATM   38  F2  UNL     1      21.350   4.497   8.009  1.00  0.00    -0.168 F 
HETATM   39  F3  UNL     1      21.311   2.679   6.768  1.00  0.00    -0.168 F 
ENDBRANCH  21  36
BRANCH  19  40
HETATM   40  O3  UNL     1      17.266   1.956   4.930  1.00  0.00    -0.395 OA
ATOM     41  H3  UNL     1      17.931   2.406   4.422  1.00  0.00     0.210 HD
ENDBRANCH  19  40
TORSDOF 10
ENDMDL
MODEL 3
REMARK VINA RESULT: -6.947383893      1.236      1.369
REMARK  10 active torsions:
REMARK  status: ('A' for Active; 'I' for Inactive)
REMARK    1  A    between atoms: C17_19  and  O3_20 
REMARK    2  A    between atoms: C19_23  and  O4_24 
REMARK    3  A    between atoms: C19_23  and  C20_26 
REMARK    4  A    between atoms: C21_30  and  O5_31 
REMARK    5  A    between atoms: O5_31  and  C22_32 
REMARK    6  A    between atoms: C22_32  and  C23_34 
REMARK    7  A    between atoms: C23_34  and  C24_35 
REMARK    8  A    between atoms: C24_35  and  C25_36 
REMARK    9  A    between atoms: C25_36  and  C26_37 
REMARK   10  A    between atoms: C26_37  and  O7_38 
ROOT
HETATM    1  C1  UNL     1      11.276   0.419  11.095  1.00  0.00     0.046 C 
HETATM    2  C2  UNL     1      11.469   0.812   9.854  1.00  0.00     0.038 C 
HETATM    3  C3  UNL     1      10.257   0.632   9.024  1.00  0.00     0.073 C 
HETATM    4  C4  UNL     1       9.997   1.878   8.167  1.00  0.00     0.117 C 
HETATM    5  C5  UNL     1      10.778   1.809   6.903  1.00  0.00     0.259 C 
HETATM    6  O1  UNL     1      10.102   2.130   5.867  1.00  0.00    -0.265 OA
HETATM    7  O2  UNL     1      12.073   1.477   6.586  1.00  0.00    -0.313 OA
HETATM    8  C6  UNL     1      13.274   1.114   7.286  1.00  0.00     0.161 C 
HETATM    9  C7  UNL     1      14.402   1.503   6.341  1.00  0.00     0.036 C 
HETATM   10  C8  UNL     1      14.626   2.998   6.530  1.00  0.00     0.012 C 
HETATM   11  C9  UNL     1      15.248   3.365   7.805  1.00  0.00    -0.031 C 
HETATM   12  C10 UNL     1      14.641   4.720   8.223  1.00  0.00     0.016 C 
HETATM   13  C11 UNL     1      14.741   2.347   8.840  1.00  0.00     0.026 C 
HETATM   14  C12 UNL     1      14.961   2.835  10.230  1.00  0.00     0.009 C 
HETATM   15  C13 UNL     1      16.174   3.690  10.402  1.00  0.00     0.013 C 
HETATM   16  C14 UNL     1      17.213   3.279   9.349  1.00  0.00    -0.007 C 
HETATM   17  C15 UNL     1      17.666   1.937   9.786  1.00  0.00     0.018 C 
HETATM   18  C16 UNL     1      16.711   3.450   7.947  1.00  0.00     0.034 C 
HETATM   19  C17 UNL     1      17.588   2.643   7.050  1.00  0.00     0.127 C 
HETATM   20  C18 UNL     1      19.025   3.042   7.259  1.00  0.00     0.082 C 
HETATM   21  C19 UNL     1      19.303   4.111   8.243  1.00  0.00     0.185 C 
HETATM   22  C21 UNL     1      18.445   4.193   9.455  1.00  0.00     0.184 C 
HETATM   23  C28 UNL     1      13.288   2.040   8.514  1.00  0.00     0.163 C 
HETATM   24  O8  UNL     1      12.738   1.299   9.604  1.00  0.00    -0.348 OA
ENDROOT
BRANCH  22  25
HETATM   25  O5  UNL     1      19.105   4.065  10.679  1.00  0.00    -0.312 OA
BRANCH  25  26
HETATM   26  C22 UNL     1      19.287   5.129  11.575  1.00  0.00     0.259 C 
HETATM   27  O6  UNL     1      19.465   6.265  11.070  1.00  0.00    -0.265 OA
BRANCH  26  28
HETATM   28  C23 UNL     1      19.284   4.990  13.035  1.00  0.00     0.111 C 
BRANCH  28  29
HETATM   29  C24 UNL     1      18.999   3.534  13.397  1.00  0.00     0.012 C 
BRANCH  29  30
HETATM   30  C25 UNL     1      19.262   3.287  14.863  1.00  0.00     0.027 C 
BRANCH  30  31
HETATM   31  C26 UNL     1      18.627   1.966  15.284  1.00  0.00     0.167 C 
BRANCH  31  32
HETATM   32  O7  UNL     1      17.222   2.087  15.255  1.00  0.00    -0.396 OA
HETATM   33  C27 UNL     1      16.788   2.764  16.391  1.00  0.00     0.201 C 
ENDBRANCH  31  32
ENDBRANCH  30  31
ENDBRANCH  29  30
ENDBRANCH  28  29
ENDBRANCH  26  28
ENDBRANCH  25  26
ENDBRANCH  22  25
BRANCH  21  34
HETATM   34  O4  UNL     1      19.358   5.357   7.566  1.00  0.00    -0.378 OA
ATOM     35  H4  UNL     1      20.250   5.682   7.590  1.00  0.00     0.211 HD
ENDBRANCH  21  34
BRANCH  21  36
HETATM   36  C20 UNL     1      20.764   3.904   8.685  1.00  0.00     0.420 C 
HETATM   37  F1  UNL     1      20.897   2.892   9.578  1.00  0.00    -0.168 F 
HETATM   38  F2  UNL     1      21.390   5.069   8.989  1.00  0.00    -0.168 F 
HETATM   39  F3  UNL     1      21.387   3.441   7.507  1.00  0.00    -0.168 F 
ENDBRANCH  21  36
BRANCH  19  40
HETATM   40  O3  UNL     1      17.334   2.819   5.686  1.00  0.00    -0.395 OA
ATOM     41  H3  UNL     1      17.313   2.012   5.186  1.00  0.00     0.210 HD
ENDBRANCH  19  40
TORSDOF 10
ENDMDL
MODEL 4
REMARK VINA RESULT: -6.911498812      2.894      8.835
REMARK  10 active torsions:
REMARK  status: ('A' for Active; 'I' for Inactive)
REMARK    1  A    between atoms: C17_19  and  O3_20 
REMARK    2  A    between atoms: C19_23  and  O4_24 
REMARK    3  A    between atoms: C19_23  and  C20_26 
REMARK    4  A    between atoms: C21_30  and  O5_31 
REMARK    5  A    between atoms: O5_31  and  C22_32 
REMARK    6  A    between atoms: C22_32  and  C23_34 
REMARK    7  A    between atoms: C23_34  and  C24_35 
REMARK    8  A    between atoms: C24_35  and  C25_36 
REMARK    9  A    between atoms: C25_36  and  C26_37 
REMARK   10  A    between atoms: C26_37  and  O7_38 
ROOT
HETATM    1  C1  UNL     1      16.690   0.728  17.703  1.00  0.00     0.046 C 
HETATM    2  C2  UNL     1      17.682   1.592  17.687  1.00  0.00     0.038 C 
HETATM    3  C3  UNL     1      18.252   1.803  19.036  1.00  0.00     0.073 C 
HETATM    4  C4  UNL     1      19.786   1.782  18.986  1.00  0.00     0.117 C 
HETATM    5  C5  UNL     1      20.311   3.130  18.639  1.00  0.00     0.259 C 
HETATM    6  O1  UNL     1      21.295   3.497  19.367  1.00  0.00    -0.265 OA
HETATM    7  O2  UNL     1      19.982   4.083  17.706  1.00  0.00    -0.313 OA
HETATM    8  C6  UNL     1      19.058   4.219  16.614  1.00  0.00     0.161 C 
HETATM    9  C7  UNL     1      19.695   5.255  15.699  1.00  0.00     0.036 C 
HETATM   10  C8  UNL     1      20.729   4.514  14.861  1.00  0.00     0.012 C 
HETATM   11  C9  UNL     1      20.163   3.618  13.848  1.00  0.00    -0.031 C 
HETATM   12  C10 UNL     1      21.114   2.408  13.743  1.00  0.00     0.016 C 
HETATM   13  C11 UNL     1      18.856   3.068  14.441  1.00  0.00     0.026 C 
HETATM   14  C12 UNL     1      18.397   1.857  13.706  1.00  0.00     0.009 C 
HETATM   15  C13 UNL     1      18.741   1.846  12.253  1.00  0.00     0.013 C 
HETATM   16  C14 UNL     1      18.825   3.298  11.761  1.00  0.00    -0.007 C 
HETATM   17  C15 UNL     1      17.420   3.772  11.783  1.00  0.00     0.018 C 
HETATM   18  C16 UNL     1      19.867   4.094  12.486  1.00  0.00     0.034 C 
HETATM   19  C17 UNL     1      19.576   5.539  12.255  1.00  0.00     0.127 C 
HETATM   20  C18 UNL     1      19.495   5.806  10.776  1.00  0.00     0.082 C 
HETATM   21  C19 UNL     1      19.721   4.665   9.860  1.00  0.00     0.185 C 
HETATM   22  C21 UNL     1      19.251   3.319  10.283  1.00  0.00     0.184 C 
HETATM   23  C28 UNL     1      19.080   2.842  15.928  1.00  0.00     0.163 C 
HETATM   24  O8  UNL     1      17.969   2.104  16.435  1.00  0.00    -0.348 OA
ENDROOT
BRANCH  22  25
HETATM   25  O5  UNL     1      18.314   2.710   9.445  1.00  0.00    -0.312 OA
BRANCH  25  26
HETATM   26  C22 UNL     1      18.631   1.665   8.563  1.00  0.00     0.259 C 
HETATM   27  O6  UNL     1      19.818   1.612   8.158  1.00  0.00    -0.265 OA
BRANCH  26  28
HETATM   28  C23 UNL     1      17.672   0.659   8.095  1.00  0.00     0.111 C 
BRANCH  28  29
HETATM   29  C24 UNL     1      16.742   1.297   7.064  1.00  0.00     0.012 C 
BRANCH  29  30
HETATM   30  C25 UNL     1      15.451   1.737   7.711  1.00  0.00     0.027 C 
BRANCH  30  31
HETATM   31  C26 UNL     1      14.453   2.155   6.635  1.00  0.00     0.167 C 
BRANCH  31  32
HETATM   32  O7  UNL     1      13.140   1.929   7.096  1.00  0.00    -0.396 OA
HETATM   33  C27 UNL     1      12.457   1.126   6.187  1.00  0.00     0.201 C 
ENDBRANCH  31  32
ENDBRANCH  30  31
ENDBRANCH  29  30
ENDBRANCH  28  29
ENDBRANCH  26  28
ENDBRANCH  25  26
ENDBRANCH  22  25
BRANCH  21  34
HETATM   34  O4  UNL     1      21.090   4.639   9.487  1.00  0.00    -0.378 OA
ATOM     35  H4  UNL     1      21.472   5.491   9.657  1.00  0.00     0.211 HD
ENDBRANCH  21  34
BRANCH  21  36
HETATM   36  C20 UNL     1      19.020   5.042   8.541  1.00  0.00     0.420 C 
HETATM   37  F1  UNL     1      17.688   4.788   8.571  1.00  0.00    -0.168 F 
HETATM   38  F2  UNL     1      19.697   4.611   7.447  1.00  0.00    -0.168 F 
HETATM   39  F3  UNL     1      19.127   6.448   8.518  1.00  0.00    -0.168 F 
ENDBRANCH  21  36
BRANCH  19  40
HETATM   40  O3  UNL     1      20.553   6.408  12.751  1.00  0.00    -0.395 OA
ATOM     41  H3  UNL     1      20.755   7.137  12.176  1.00  0.00     0.210 HD
ENDBRANCH  19  40
TORSDOF 10
ENDMDL
MODEL 5
REMARK VINA RESULT: -6.739336768      3.818      8.726
REMARK  10 active torsions:
REMARK  status: ('A' for Active; 'I' for Inactive)
REMARK    1  A    between atoms: C17_19  and  O3_20 
REMARK    2  A    between atoms: C19_23  and  O4_24 
REMARK    3  A    between atoms: C19_23  and  C20_26 
REMARK    4  A    between atoms: C21_30  and  O5_31 
REMARK    5  A    between atoms: O5_31  and  C22_32 
REMARK    6  A    between atoms: C22_32  and  C23_34 
REMARK    7  A    between atoms: C23_34  and  C24_35 
REMARK    8  A    between atoms: C24_35  and  C25_36 
REMARK    9  A    between atoms: C25_36  and  C26_37 
REMARK   10  A    between atoms: C26_37  and  O7_38 
ROOT
HETATM    1  C1  UNL     1      20.942   2.773   7.359  1.00  0.00     0.046 C 
HETATM    2  C2  UNL     1      20.075   3.284   8.207  1.00  0.00     0.038 C 
HETATM    3  C3  UNL     1      20.742   4.075   9.266  1.00  0.00     0.073 C 
HETATM    4  C4  UNL     1      20.009   5.406   9.490  1.00  0.00     0.117 C 
HETATM    5  C5  UNL     1      18.883   5.221  10.444  1.00  0.00     0.259 C 
HETATM    6  O1  UNL     1      18.815   6.135  11.335  1.00  0.00    -0.265 OA
HETATM    7  O2  UNL     1      17.886   4.288  10.592  1.00  0.00    -0.313 OA
HETATM    8  C6  UNL     1      17.418   3.121   9.896  1.00  0.00     0.161 C 
HETATM    9  C7  UNL     1      15.953   3.001  10.290  1.00  0.00     0.036 C 
HETATM   10  C8  UNL     1      15.184   3.964   9.394  1.00  0.00     0.012 C 
HETATM   11  C9  UNL     1      15.088   3.547   7.993  1.00  0.00    -0.031 C 
HETATM   12  C10 UNL     1      15.130   4.833   7.141  1.00  0.00     0.016 C 
HETATM   13  C11 UNL     1      16.392   2.797   7.676  1.00  0.00     0.026 C 
HETATM   14  C12 UNL     1      16.603   2.679   6.206  1.00  0.00     0.009 C 
HETATM   15  C13 UNL     1      15.347   2.574   5.405  1.00  0.00     0.013 C 
HETATM   16  C14 UNL     1      14.265   1.923   6.279  1.00  0.00    -0.007 C 
HETATM   17  C15 UNL     1      14.708   0.515   6.420  1.00  0.00     0.018 C 
HETATM   18  C16 UNL     1      13.970   2.714   7.518  1.00  0.00     0.034 C 
HETATM   19  C17 UNL     1      13.262   1.813   8.473  1.00  0.00     0.127 C 
HETATM   20  C18 UNL     1      12.052   1.219   7.801  1.00  0.00     0.082 C 
HETATM   21  C19 UNL     1      11.780   1.618   6.402  1.00  0.00     0.185 C 
HETATM   22  C21 UNL     1      12.938   1.870   5.504  1.00  0.00     0.184 C 
HETATM   23  C28 UNL     1      17.522   3.502   8.409  1.00  0.00     0.163 C 
HETATM   24  O8  UNL     1      18.758   2.975   7.927  1.00  0.00    -0.348 OA
ENDROOT
BRANCH  22  25
HETATM   25  O5  UNL     1      13.012   1.064   4.365  1.00  0.00    -0.312 OA
BRANCH  25  26
HETATM   26  C22 UNL     1      13.183   1.572   3.068  1.00  0.00     0.259 C 
HETATM   27  O6  UNL     1      12.149   1.972   2.481  1.00  0.00    -0.265 OA
BRANCH  26  28
HETATM   28  C23 UNL     1      14.474   1.656   2.377  1.00  0.00     0.111 C 
BRANCH  28  29
HETATM   29  C24 UNL     1      15.099   0.263   2.317  1.00  0.00     0.012 C 
BRANCH  29  30
HETATM   30  C25 UNL     1      16.149   0.196   1.234  1.00  0.00     0.027 C 
BRANCH  30  31
HETATM   31  C26 UNL     1      15.819  -0.938   0.268  1.00  0.00     0.167 C 
BRANCH  31  32
HETATM   32  O7  UNL     1      15.450  -2.087   0.998  1.00  0.00    -0.396 OA
HETATM   33  C27 UNL     1      16.511  -2.987   1.021  1.00  0.00     0.201 C 
ENDBRANCH  31  32
ENDBRANCH  30  31
ENDBRANCH  29  30
ENDBRANCH  28  29
ENDBRANCH  26  28
ENDBRANCH  25  26
ENDBRANCH  22  25
BRANCH  21  34
HETATM   34  O4  UNL     1      10.880   2.715   6.403  1.00  0.00    -0.378 OA
ATOM     35  H4  UNL     1      10.061   2.442   6.009  1.00  0.00     0.211 HD
ENDBRANCH  21  34
BRANCH  21  36
HETATM   36  C20 UNL     1      10.926   0.484   5.803  1.00  0.00     0.420 C 
HETATM   37  F1  UNL     1      11.549  -0.720   5.860  1.00  0.00    -0.168 F 
HETATM   38  F2  UNL     1      10.366   0.823   4.614  1.00  0.00    -0.168 F 
HETATM   39  F3  UNL     1       9.850   0.386   6.709  1.00  0.00    -0.168 F 
ENDBRANCH  21  36
BRANCH  19  40
HETATM   40  O3  UNL     1      12.789   2.453   9.623  1.00  0.00    -0.395 OA
ATOM     41  H3  UNL     1      13.076   2.056  10.436  1.00  0.00     0.210 HD
ENDBRANCH  19  40
TORSDOF 10
ENDMDL
