MODEL 1
REMARK VINA RESULT: -9.321388852      0.000      0.000
REMARK  9 active torsions:
REMARK  status: ('A' for Active; 'I' for Inactive)
REMARK    1  A    between atoms: O1_2  and  C2_3 
REMARK    2  A    between atoms: C2_3  and  C3_4 
REMARK    3  A    between atoms: C3_4  and  C4_5 
REMARK    4  A    between atoms: C3_4  and  N2_18 
REMARK       I    between atoms: N1_8  and  C7_9 
REMARK    5  A    between atoms: C7_9  and  O3_11 
REMARK    6  A    between atoms: O3_11  and  C8_12 
REMARK    7  A    between atoms: C15_24  and  C16_25 
REMARK    8  A    between atoms: N5_28  and  C19_29 
REMARK    9  A    between atoms: C24_39  and  C25_40 
ROOT
HETATM    1  N2  UNL     1      19.179   2.869  13.807  1.00  0.00    -0.272 N 
HETATM    2  N3  UNL     1      19.830   3.909  14.307  1.00  0.00    -0.292 N 
ATOM      3  H3  UNL     1      20.302   3.920  15.211  1.00  0.00     0.188 HD
HETATM    4  C14 UNL     1      19.781   4.942  13.455  1.00  0.00     0.199 A 
HETATM    5  N4  UNL     1      19.082   4.539  12.397  1.00  0.00    -0.340 N 
ATOM      6  H4  UNL     1      18.867   5.099  11.572  1.00  0.00     0.168 HD
HETATM    7  C15 UNL     1      18.702   3.244  12.611  1.00  0.00     0.104 A 
ENDROOT
BRANCH   7   8
HETATM    8  C16 UNL     1      17.906   2.494  11.616  1.00  0.00     0.058 C 
HETATM    9  C17 UNL     1      18.877   1.867  10.618  1.00  0.00     0.032 C 
HETATM   10  C18 UNL     1      18.047   1.318   9.443  1.00  0.00     0.123 C 
HETATM   11  N5  UNL     1      17.725   2.510   8.638  1.00  0.00    -0.380 N 
HETATM   12  C26 UNL     1      17.554   3.716   9.460  1.00  0.00     0.123 C 
HETATM   13  C27 UNL     1      16.995   3.413  10.812  1.00  0.00     0.032 C 
BRANCH  11  14
HETATM   14  C19 UNL     1      17.640   2.512   7.241  1.00  0.00     0.056 A 
HETATM   15  C20 UNL     1      16.403   2.166   6.663  1.00  0.00    -0.019 A 
HETATM   16  C21 UNL     1      15.261   1.815   7.517  1.00  0.00     0.052 C 
HETATM   17  C22 UNL     1      16.230   2.148   5.284  1.00  0.00     0.098 A 
HETATM   18  N6  UNL     1      17.257   2.464   4.504  1.00  0.00    -0.351 N 
HETATM   19  C23 UNL     1      18.431   2.793   5.040  1.00  0.00     0.116 A 
ATOM     20  H6  UNL     1      17.146   2.455   3.490  1.00  0.00     0.166 HD
HETATM   21  N7  UNL     1      19.393   3.092   4.229  1.00  0.00    -0.385 N 
HETATM   22  C24 UNL     1      18.663   2.828   6.422  1.00  0.00     0.118 A 
ATOM     23  H72 UNL     1      19.224   3.067   3.223  1.00  0.00     0.157 HD
ATOM     24  H71 UNL     1      20.293   3.344   4.639  1.00  0.00     0.157 HD
BRANCH  22  25
HETATM   25  C25 UNL     1      19.989   3.230   6.906  1.00  0.00     0.423 C 
HETATM   26  F1  UNL     1      20.648   2.288   7.659  1.00  0.00    -0.166 F 
HETATM   27  F2  UNL     1      19.983   4.491   7.505  1.00  0.00    -0.166 F 
HETATM   28  F3  UNL     1      20.834   3.411   5.780  1.00  0.00    -0.166 F 
ENDBRANCH  22  25
ENDBRANCH  11  14
ENDBRANCH   7   8
BRANCH   1  29
HETATM   29  C3  UNL     1      18.994   1.572  14.396  1.00  0.00     0.137 C 
BRANCH  29  30
HETATM   30  C2  UNL     1      20.309   0.894  14.711  1.00  0.00     0.194 C 
BRANCH  30  31
HETATM   31  O1  UNL     1      20.204  -0.496  14.601  1.00  0.00    -0.394 OA
HETATM   32  C1  UNL     1      21.326  -1.038  15.221  1.00  0.00     0.201 C 
ENDBRANCH  30  31
ENDBRANCH  29  30
BRANCH  29  33
HETATM   33  C4  UNL     1      18.204   1.688  15.651  1.00  0.00     0.016 C 
HETATM   34  C5  UNL     1      17.421   0.490  16.052  1.00  0.00     0.027 C 
HETATM   35  C6  UNL     1      17.300   0.533  17.582  1.00  0.00     0.128 C 
HETATM   36  N1  UNL     1      16.937   1.913  17.906  1.00  0.00    -0.328 N 
HETATM   37  C7  UNL     1      17.123   2.325  19.254  1.00  0.00     0.363 C 
HETATM   38  C12 UNL     1      16.418   2.815  16.912  1.00  0.00     0.128 C 
HETATM   39  O2  UNL     1      16.829   3.511  19.603  1.00  0.00    -0.238 OA
HETATM   40  C13 UNL     1      17.273   2.878  15.665  1.00  0.00     0.027 C 
BRANCH  37  41
HETATM   41  O3  UNL     1      17.617   1.495  20.234  1.00  0.00    -0.294 OA
BRANCH  41  42
HETATM   42  C8  UNL     1      16.831   0.870  21.221  1.00  0.00     0.061 C 
HETATM   43  C9  UNL     1      16.929   1.532  22.567  1.00  0.00     0.046 C 
HETATM   44  C10 UNL     1      15.366   0.817  20.842  1.00  0.00     0.046 C 
HETATM   45  C11 UNL     1      17.313  -0.558  21.361  1.00  0.00     0.046 C 
ENDBRANCH  41  42
ENDBRANCH  37  41
ENDBRANCH  29  33
ENDBRANCH   1  29
TORSDOF 9
ENDMDL
MODEL 2
REMARK VINA RESULT: -9.268497701      1.642      2.261
REMARK  9 active torsions:
REMARK  status: ('A' for Active; 'I' for Inactive)
REMARK    1  A    between atoms: O1_2  and  C2_3 
REMARK    2  A    between atoms: C2_3  and  C3_4 
REMARK    3  A    between atoms: C3_4  and  C4_5 
REMARK    4  A    between atoms: C3_4  and  N2_18 
REMARK       I    between atoms: N1_8  and  C7_9 
REMARK    5  A    between atoms: C7_9  and  O3_11 
REMARK    6  A    between atoms: O3_11  and  C8_12 
REMARK    7  A    between atoms: C15_24  and  C16_25 
REMARK    8  A    between atoms: N5_28  and  C19_29 
REMARK    9  A    between atoms: C24_39  and  C25_40 
ROOT
HETATM    1  N2  UNL     1      19.207   2.885  13.852  1.00  0.00    -0.272 N 
HETATM    2  N3  UNL     1      19.876   3.911  14.355  1.00  0.00    -0.292 N 
ATOM      3  H3  UNL     1      20.351   3.910  15.258  1.00  0.00     0.188 HD
HETATM    4  C14 UNL     1      19.840   4.950  13.510  1.00  0.00     0.199 A 
HETATM    5  N4  UNL     1      19.131   4.564  12.452  1.00  0.00    -0.340 N 
ATOM      6  H4  UNL     1      18.922   5.132  11.631  1.00  0.00     0.168 HD
HETATM    7  C15 UNL     1      18.733   3.274  12.659  1.00  0.00     0.104 A 
ENDROOT
BRANCH   7   8
HETATM    8  C16 UNL     1      17.922   2.542  11.662  1.00  0.00     0.058 C 
HETATM    9  C17 UNL     1      18.880   1.904  10.660  1.00  0.00     0.032 C 
HETATM   10  C18 UNL     1      18.038   1.374   9.484  1.00  0.00     0.123 C 
HETATM   11  N5  UNL     1      17.734   2.575   8.685  1.00  0.00    -0.380 N 
HETATM   12  C26 UNL     1      17.585   3.779   9.514  1.00  0.00     0.123 C 
HETATM   13  C27 UNL     1      17.025   3.479  10.865  1.00  0.00     0.032 C 
BRANCH  11  14
HETATM   14  C19 UNL     1      17.646   2.585   7.288  1.00  0.00     0.056 A 
HETATM   15  C20 UNL     1      18.817   2.884   6.564  1.00  0.00    -0.019 A 
HETATM   16  C21 UNL     1      20.069   3.176   7.273  1.00  0.00     0.052 C 
HETATM   17  C22 UNL     1      18.820   2.911   5.174  1.00  0.00     0.098 A 
HETATM   18  N6  UNL     1      17.691   2.648   4.525  1.00  0.00    -0.351 N 
HETATM   19  C23 UNL     1      16.579   2.363   5.200  1.00  0.00     0.116 A 
ATOM     20  H6  UNL     1      17.677   2.663   3.506  1.00  0.00     0.166 HD
HETATM   21  N7  UNL     1      15.511   2.115   4.512  1.00  0.00    -0.385 N 
HETATM   22  C24 UNL     1      16.517   2.322   6.600  1.00  0.00     0.118 A 
ATOM     23  H72 UNL     1      15.557   2.145   3.493  1.00  0.00     0.157 HD
ATOM     24  H71 UNL     1      14.659   1.898   5.029  1.00  0.00     0.157 HD
BRANCH  22  25
HETATM   25  C25 UNL     1      15.244   1.973   7.242  1.00  0.00     0.423 C 
HETATM   26  F1  UNL     1      15.265   1.961   8.616  1.00  0.00    -0.166 F 
HETATM   27  F2  UNL     1      14.668   0.821   6.701  1.00  0.00    -0.166 F 
HETATM   28  F3  UNL     1      14.299   2.985   6.929  1.00  0.00    -0.166 F 
ENDBRANCH  22  25
ENDBRANCH  11  14
ENDBRANCH   7   8
BRANCH   1  29
HETATM   29  C3  UNL     1      19.005   1.587  14.433  1.00  0.00     0.137 C 
BRANCH  29  30
HETATM   30  C2  UNL     1      20.310   0.898  14.763  1.00  0.00     0.194 C 
BRANCH  30  31
HETATM   31  O1  UNL     1      20.213  -0.487  14.592  1.00  0.00    -0.394 OA
HETATM   32  C1  UNL     1      21.346  -1.049  15.172  1.00  0.00     0.201 C 
ENDBRANCH  30  31
ENDBRANCH  29  30
BRANCH  29  33
HETATM   33  C4  UNL     1      18.199   1.704  15.679  1.00  0.00     0.016 C 
HETATM   34  C5  UNL     1      17.426   0.501  16.081  1.00  0.00     0.027 C 
HETATM   35  C6  UNL     1      17.286   0.557  17.610  1.00  0.00     0.128 C 
HETATM   36  N1  UNL     1      16.903   1.934  17.916  1.00  0.00    -0.328 N 
HETATM   37  C7  UNL     1      17.068   2.362  19.262  1.00  0.00     0.363 C 
HETATM   38  C12 UNL     1      16.384   2.821  16.907  1.00  0.00     0.128 C 
HETATM   39  O2  UNL     1      16.754   3.547  19.596  1.00  0.00    -0.238 OA
HETATM   40  C13 UNL     1      17.252   2.883  15.670  1.00  0.00     0.027 C 
BRANCH  37  41
HETATM   41  O3  UNL     1      17.561   1.547  20.256  1.00  0.00    -0.294 OA
BRANCH  41  42
HETATM   42  C8  UNL     1      16.768   0.903  21.226  1.00  0.00     0.061 C 
HETATM   43  C9  UNL     1      16.836   1.557  22.577  1.00  0.00     0.046 C 
HETATM   44  C10 UNL     1      15.311   0.831  20.823  1.00  0.00     0.046 C 
HETATM   45  C11 UNL     1      17.270  -0.518  21.364  1.00  0.00     0.046 C 
ENDBRANCH  41  42
ENDBRANCH  37  41
ENDBRANCH  29  33
ENDBRANCH   1  29
TORSDOF 9
ENDMDL
MODEL 3
REMARK VINA RESULT: -8.408789400      0.831      1.379
REMARK  9 active torsions:
REMARK  status: ('A' for Active; 'I' for Inactive)
REMARK    1  A    between atoms: O1_2  and  C2_3 
REMARK    2  A    between atoms: C2_3  and  C3_4 
REMARK    3  A    between atoms: C3_4  and  C4_5 
REMARK    4  A    between atoms: C3_4  and  N2_18 
REMARK       I    between atoms: N1_8  and  C7_9 
REMARK    5  A    between atoms: C7_9  and  O3_11 
REMARK    6  A    between atoms: O3_11  and  C8_12 
REMARK    7  A    between atoms: C15_24  and  C16_25 
REMARK    8  A    between atoms: N5_28  and  C19_29 
REMARK    9  A    between atoms: C24_39  and  C25_40 
ROOT
HETATM    1  N2  UNL     1      18.964   3.082  13.491  1.00  0.00    -0.272 N 
HETATM    2  N3  UNL     1      19.585   4.155  13.959  1.00  0.00    -0.292 N 
ATOM      3  H3  UNL     1      20.062   4.205  14.859  1.00  0.00     0.188 HD
HETATM    4  C14 UNL     1      19.497   5.164  13.082  1.00  0.00     0.199 A 
HETATM    5  N4  UNL     1      18.804   4.711  12.039  1.00  0.00    -0.340 N 
ATOM      6  H4  UNL     1      18.566   5.243  11.201  1.00  0.00     0.168 HD
HETATM    7  C15 UNL     1      18.468   3.411  12.288  1.00  0.00     0.104 A 
ENDROOT
BRANCH   7   8
HETATM    8  C16 UNL     1      17.691   2.610  11.318  1.00  0.00     0.058 C 
HETATM    9  C17 UNL     1      18.675   1.990  10.330  1.00  0.00     0.032 C 
HETATM   10  C18 UNL     1      17.857   1.384   9.175  1.00  0.00     0.123 C 
HETATM   11  N5  UNL     1      17.491   2.544   8.342  1.00  0.00    -0.380 N 
HETATM   12  C26 UNL     1      17.285   3.764   9.135  1.00  0.00     0.123 C 
HETATM   13  C27 UNL     1      16.746   3.478  10.498  1.00  0.00     0.032 C 
BRANCH  11  14
HETATM   14  C19 UNL     1      17.397   2.508   6.946  1.00  0.00     0.056 A 
HETATM   15  C20 UNL     1      16.160   2.134   6.386  1.00  0.00    -0.019 A 
HETATM   16  C21 UNL     1      15.027   1.796   7.257  1.00  0.00     0.052 C 
HETATM   17  C22 UNL     1      15.978   2.077   5.009  1.00  0.00     0.098 A 
HETATM   18  N6  UNL     1      16.997   2.382   4.214  1.00  0.00    -0.351 N 
HETATM   19  C23 UNL     1      18.171   2.737   4.733  1.00  0.00     0.116 A 
ATOM     20  H6  UNL     1      16.879   2.345   3.202  1.00  0.00     0.166 HD
HETATM   21  N7  UNL     1      19.125   3.023   3.908  1.00  0.00    -0.385 N 
HETATM   22  C24 UNL     1      18.412   2.812   6.112  1.00  0.00     0.118 A 
ATOM     23  H72 UNL     1      18.950   2.969   2.905  1.00  0.00     0.157 HD
ATOM     24  H71 UNL     1      20.025   3.295   4.306  1.00  0.00     0.157 HD
BRANCH  22  25
HETATM   25  C25 UNL     1      19.737   3.239   6.577  1.00  0.00     0.423 C 
HETATM   26  F1  UNL     1      20.623   3.580   5.584  1.00  0.00    -0.166 F 
HETATM   27  F2  UNL     1      20.287   2.362   7.513  1.00  0.00    -0.166 F 
HETATM   28  F3  UNL     1      19.579   4.442   7.314  1.00  0.00    -0.166 F 
ENDBRANCH  22  25
ENDBRANCH  11  14
ENDBRANCH   7   8
BRANCH   1  29
HETATM   29  C3  UNL     1      18.826   1.796  14.113  1.00  0.00     0.137 C 
BRANCH  29  30
HETATM   30  C2  UNL     1      20.065   0.944  13.950  1.00  0.00     0.194 C 
BRANCH  30  31
HETATM   31  O1  UNL     1      19.933  -0.280  14.613  1.00  0.00    -0.394 OA
HETATM   32  C1  UNL     1      21.204  -0.650  15.040  1.00  0.00     0.201 C 
ENDBRANCH  30  31
ENDBRANCH  29  30
BRANCH  29  33
HETATM   33  C4  UNL     1      18.545   1.958  15.566  1.00  0.00     0.016 C 
HETATM   34  C5  UNL     1      17.286   2.662  15.921  1.00  0.00     0.027 C 
HETATM   35  C6  UNL     1      16.848   2.119  17.290  1.00  0.00     0.128 C 
HETATM   36  N1  UNL     1      18.058   2.110  18.110  1.00  0.00    -0.328 N 
HETATM   37  C7  UNL     1      18.026   1.316  19.290  1.00  0.00     0.363 C 
HETATM   38  C12 UNL     1      19.229   2.864  17.747  1.00  0.00     0.128 C 
HETATM   39  O2  UNL     1      19.044   1.262  20.049  1.00  0.00    -0.238 OA
HETATM   40  C13 UNL     1      19.676   2.615  16.323  1.00  0.00     0.027 C 
BRANCH  37  41
HETATM   41  O3  UNL     1      16.928   0.580  19.673  1.00  0.00    -0.294 OA
BRANCH  41  42
HETATM   42  C8  UNL     1      16.410   0.541  20.982  1.00  0.00     0.061 C 
HETATM   43  C9  UNL     1      16.668  -0.762  21.685  1.00  0.00     0.046 C 
HETATM   44  C10 UNL     1      16.963   1.648  21.853  1.00  0.00     0.046 C 
HETATM   45  C11 UNL     1      14.912   0.741  20.893  1.00  0.00     0.046 C 
ENDBRANCH  41  42
ENDBRANCH  37  41
ENDBRANCH  29  33
ENDBRANCH   1  29
TORSDOF 9
ENDMDL
MODEL 4
REMARK VINA RESULT: -8.382939521      1.832      2.492
REMARK  9 active torsions:
REMARK  status: ('A' for Active; 'I' for Inactive)
REMARK    1  A    between atoms: O1_2  and  C2_3 
REMARK    2  A    between atoms: C2_3  and  C3_4 
REMARK    3  A    between atoms: C3_4  and  C4_5 
REMARK    4  A    between atoms: C3_4  and  N2_18 
REMARK       I    between atoms: N1_8  and  C7_9 
REMARK    5  A    between atoms: C7_9  and  O3_11 
REMARK    6  A    between atoms: O3_11  and  C8_12 
REMARK    7  A    between atoms: C15_24  and  C16_25 
REMARK    8  A    between atoms: N5_28  and  C19_29 
REMARK    9  A    between atoms: C24_39  and  C25_40 
ROOT
HETATM    1  N2  UNL     1      19.035   3.078  13.619  1.00  0.00    -0.272 N 
HETATM    2  N3  UNL     1      19.647   4.143  14.114  1.00  0.00    -0.292 N 
ATOM      3  H3  UNL     1      20.113   4.178  15.020  1.00  0.00     0.188 HD
HETATM    4  C14 UNL     1      19.567   5.168  13.253  1.00  0.00     0.199 A 
HETATM    5  N4  UNL     1      18.888   4.732  12.195  1.00  0.00    -0.340 N 
ATOM      6  H4  UNL     1      18.658   5.277  11.364  1.00  0.00     0.168 HD
HETATM    7  C15 UNL     1      18.552   3.426  12.417  1.00  0.00     0.104 A 
ENDROOT
BRANCH   7   8
HETATM    8  C16 UNL     1      17.788   2.641  11.424  1.00  0.00     0.058 C 
HETATM    9  C17 UNL     1      18.786   2.044  10.434  1.00  0.00     0.032 C 
HETATM   10  C18 UNL     1      17.981   1.457   9.259  1.00  0.00     0.123 C 
HETATM   11  N5  UNL     1      17.618   2.632   8.445  1.00  0.00    -0.380 N 
HETATM   12  C26 UNL     1      17.399   3.835   9.260  1.00  0.00     0.123 C 
HETATM   13  C27 UNL     1      16.847   3.520  10.611  1.00  0.00     0.032 C 
BRANCH  11  14
HETATM   14  C19 UNL     1      17.539   2.622   7.048  1.00  0.00     0.056 A 
HETATM   15  C20 UNL     1      18.728   2.841   6.327  1.00  0.00    -0.019 A 
HETATM   16  C21 UNL     1      19.991   3.074   7.038  1.00  0.00     0.052 C 
HETATM   17  C22 UNL     1      18.741   2.843   4.937  1.00  0.00     0.098 A 
HETATM   18  N6  UNL     1      17.603   2.632   4.285  1.00  0.00    -0.351 N 
HETATM   19  C23 UNL     1      16.473   2.423   4.957  1.00  0.00     0.116 A 
ATOM     20  H6  UNL     1      17.595   2.630   3.265  1.00  0.00     0.166 HD
HETATM   21  N7  UNL     1      15.397   2.224   4.267  1.00  0.00    -0.385 N 
HETATM   22  C24 UNL     1      16.401   2.411   6.357  1.00  0.00     0.118 A 
ATOM     23  H72 UNL     1      15.450   2.232   3.248  1.00  0.00     0.157 HD
ATOM     24  H71 UNL     1      14.531   2.064   4.782  1.00  0.00     0.157 HD
BRANCH  22  25
HETATM   25  C25 UNL     1      15.106   2.145   6.996  1.00  0.00     0.423 C 
HETATM   26  F1  UNL     1      15.175   1.540   8.229  1.00  0.00    -0.166 F 
HETATM   27  F2  UNL     1      14.201   1.518   6.138  1.00  0.00    -0.166 F 
HETATM   28  F3  UNL     1      14.484   3.392   7.269  1.00  0.00    -0.166 F 
ENDBRANCH  22  25
ENDBRANCH  11  14
ENDBRANCH   7   8
BRANCH   1  29
HETATM   29  C3  UNL     1      18.892   1.780  14.218  1.00  0.00     0.137 C 
BRANCH  29  30
HETATM   30  C2  UNL     1      20.135   0.935  14.055  1.00  0.00     0.194 C 
BRANCH  30  31
HETATM   31  O1  UNL     1      19.953  -0.347  14.583  1.00  0.00    -0.394 OA
HETATM   32  C1  UNL     1      21.175  -0.745  15.116  1.00  0.00     0.201 C 
ENDBRANCH  30  31
ENDBRANCH  29  30
BRANCH  29  33
HETATM   33  C4  UNL     1      18.593   1.916  15.669  1.00  0.00     0.016 C 
HETATM   34  C5  UNL     1      17.325   2.605  16.021  1.00  0.00     0.027 C 
HETATM   35  C6  UNL     1      16.874   2.037  17.375  1.00  0.00     0.128 C 
HETATM   36  N1  UNL     1      18.074   2.022  18.210  1.00  0.00    -0.328 N 
HETATM   37  C7  UNL     1      18.035   1.209  19.376  1.00  0.00     0.363 C 
HETATM   38  C12 UNL     1      19.244   2.791  17.873  1.00  0.00     0.128 C 
HETATM   39  O2  UNL     1      19.044   1.150  20.146  1.00  0.00    -0.238 OA
HETATM   40  C13 UNL     1      19.709   2.569  16.451  1.00  0.00     0.027 C 
BRANCH  37  41
HETATM   41  O3  UNL     1      16.938   0.458  19.733  1.00  0.00    -0.294 OA
BRANCH  41  42
HETATM   42  C8  UNL     1      16.321   0.499  20.999  1.00  0.00     0.061 C 
HETATM   43  C9  UNL     1      16.892   1.555  21.903  1.00  0.00     0.046 C 
HETATM   44  C10 UNL     1      14.829   0.732  20.906  1.00  0.00     0.046 C 
HETATM   45  C11 UNL     1      16.528  -0.848  21.658  1.00  0.00     0.046 C 
ENDBRANCH  41  42
ENDBRANCH  37  41
ENDBRANCH  29  33
ENDBRANCH   1  29
TORSDOF 9
ENDMDL
MODEL 5
REMARK VINA RESULT: -8.113214254      3.739      5.855
REMARK  9 active torsions:
REMARK  status: ('A' for Active; 'I' for Inactive)
REMARK    1  A    between atoms: O1_2  and  C2_3 
REMARK    2  A    between atoms: C2_3  and  C3_4 
REMARK    3  A    between atoms: C3_4  and  C4_5 
REMARK    4  A    between atoms: C3_4  and  N2_18 
REMARK       I    between atoms: N1_8  and  C7_9 
REMARK    5  A    between atoms: C7_9  and  O3_11 
REMARK    6  A    between atoms: O3_11  and  C8_12 
REMARK    7  A    between atoms: C15_24  and  C16_25 
REMARK    8  A    between atoms: N5_28  and  C19_29 
REMARK    9  A    between atoms: C24_39  and  C25_40 
ROOT
HETATM    1  N2  UNL     1      17.562   4.045   9.705  1.00  0.00    -0.272 N 
HETATM    2  N3  UNL     1      18.696   4.702   9.513  1.00  0.00    -0.292 N 
ATOM      3  H3  UNL     1      19.222   5.182  10.244  1.00  0.00     0.188 HD
HETATM    4  C14 UNL     1      19.056   4.644   8.223  1.00  0.00     0.199 A 
HETATM    5  N4  UNL     1      18.123   3.934   7.593  1.00  0.00    -0.340 N 
ATOM      6  H4  UNL     1      18.110   3.711   6.598  1.00  0.00     0.168 HD
HETATM    7  C15 UNL     1      17.186   3.556   8.513  1.00  0.00     0.104 A 
ENDROOT
BRANCH   7   8
HETATM    8  C16 UNL     1      16.008   2.748   8.135  1.00  0.00     0.058 C 
HETATM    9  C17 UNL     1      16.473   1.676   7.153  1.00  0.00     0.032 C 
HETATM   10  C18 UNL     1      15.218   1.012   6.558  1.00  0.00     0.123 C 
HETATM   11  N5  UNL     1      14.744   1.973   5.546  1.00  0.00    -0.380 N 
HETATM   12  C26 UNL     1      15.012   3.368   5.925  1.00  0.00     0.123 C 
HETATM   13  C27 UNL     1      14.963   3.579   7.402  1.00  0.00     0.032 C 
BRANCH  11  14
HETATM   14  C19 UNL     1      14.151   1.605   4.333  1.00  0.00     0.056 A 
HETATM   15  C20 UNL     1      14.992   1.472   3.211  1.00  0.00    -0.019 A 
HETATM   16  C21 UNL     1      16.433   1.722   3.334  1.00  0.00     0.052 C 
HETATM   17  C22 UNL     1      14.487   1.105   1.969  1.00  0.00     0.098 A 
HETATM   18  N6  UNL     1      13.184   0.876   1.848  1.00  0.00    -0.351 N 
HETATM   19  C23 UNL     1      12.381   0.999   2.903  1.00  0.00     0.116 A 
ATOM     20  H6  UNL     1      12.798   0.606   0.944  1.00  0.00     0.166 HD
HETATM   21  N7  UNL     1      11.121   0.762   2.723  1.00  0.00    -0.385 N 
HETATM   22  C24 UNL     1      12.833   1.366   4.177  1.00  0.00     0.118 A 
ATOM     23  H72 UNL     1      10.792   0.495   1.795  1.00  0.00     0.157 HD
ATOM     24  H71 UNL     1      10.505   0.856   3.531  1.00  0.00     0.157 HD
BRANCH  22  25
HETATM   25  C25 UNL     1      11.864   1.445   5.277  1.00  0.00     0.423 C 
HETATM   26  F1  UNL     1      12.178   2.343   6.270  1.00  0.00    -0.166 F 
HETATM   27  F2  UNL     1      11.513   0.189   5.776  1.00  0.00    -0.166 F 
HETATM   28  F3  UNL     1      10.641   1.939   4.752  1.00  0.00    -0.166 F 
ENDBRANCH  22  25
ENDBRANCH  11  14
ENDBRANCH   7   8
BRANCH   1  29
HETATM   29  C3  UNL     1      16.839   3.864  10.933  1.00  0.00     0.137 C 
BRANCH  29  30
HETATM   30  C2  UNL     1      15.593   3.028  10.745  1.00  0.00     0.194 C 
BRANCH  30  31
HETATM   31  O1  UNL     1      14.436   3.780  10.971  1.00  0.00    -0.394 OA
HETATM   32  C1  UNL     1      13.352   2.945  10.718  1.00  0.00     0.201 C 
ENDBRANCH  30  31
ENDBRANCH  29  30
BRANCH  29  33
HETATM   33  C4  UNL     1      17.708   3.205  11.945  1.00  0.00     0.016 C 
HETATM   34  C5  UNL     1      18.934   3.944  12.345  1.00  0.00     0.027 C 
HETATM   35  C6  UNL     1      19.260   3.513  13.783  1.00  0.00     0.128 C 
HETATM   36  N1  UNL     1      19.123   2.058  13.795  1.00  0.00    -0.328 N 
HETATM   37  C7  UNL     1      19.001   1.435  15.067  1.00  0.00     0.363 C 
HETATM   38  C12 UNL     1      19.109   1.286  12.580  1.00  0.00     0.128 C 
HETATM   39  O2  UNL     1      18.878   0.174  15.150  1.00  0.00    -0.238 OA
HETATM   40  C13 UNL     1      18.115   1.801  11.562  1.00  0.00     0.027 C 
BRANCH  37  41
HETATM   41  O3  UNL     1      19.009   2.137  16.252  1.00  0.00    -0.294 OA
BRANCH  41  42
HETATM   42  C8  UNL     1      17.884   2.318  17.080  1.00  0.00     0.061 C 
HETATM   43  C9  UNL     1      16.624   2.612  16.313  1.00  0.00     0.046 C 
HETATM   44  C10 UNL     1      17.615   1.115  17.958  1.00  0.00     0.046 C 
HETATM   45  C11 UNL     1      18.165   3.491  17.993  1.00  0.00     0.046 C 
ENDBRANCH  41  42
ENDBRANCH  37  41
ENDBRANCH  29  33
ENDBRANCH   1  29
TORSDOF 9
ENDMDL
