MODEL 1
REMARK VINA RESULT: -7.805090718      0.000      0.000
REMARK  10 active torsions:
REMARK  status: ('A' for Active; 'I' for Inactive)
REMARK    1  A    between atoms: C2_2  and  C3_3 
REMARK    2  A    between atoms: C3_3  and  O2_5 
REMARK    3  A    between atoms: O2_5  and  C4_6 
REMARK    4  A    between atoms: C18_24  and  C19_25 
REMARK    5  A    between atoms: C19_25  and  O7_26 
REMARK    6  A    between atoms: C19_25  and  C20_28 
REMARK    7  A    between atoms: C19_25  and  C21_31 
REMARK    8  A    between atoms: C20_28  and  O8_29 
REMARK    9  A    between atoms: C21_31  and  C22_32 
REMARK   10  A    between atoms: C27_37  and  C28_38 
ROOT
HETATM    1  C4  UNL     1      19.974   3.320  13.171  1.00  0.00     0.234 C 
HETATM    2  C5  UNL     1      20.576   2.647  14.442  1.00  0.00     0.166 C 
HETATM    3  O3  UNL     1      21.364   1.779  14.251  1.00  0.00    -0.294 OA
HETATM    4  C6  UNL     1      20.266   2.976  15.828  1.00  0.00     0.101 C 
HETATM    5  C7  UNL     1      21.391   2.430  16.693  1.00  0.00     0.016 C 
HETATM    6  C8  UNL     1      21.062   2.600  18.134  1.00  0.00     0.005 C 
HETATM    7  C9  UNL     1      19.843   1.758  18.410  1.00  0.00    -0.011 C 
HETATM    8  C10 UNL     1      20.273   0.497  19.184  1.00  0.00     0.010 C 
HETATM    9  C11 UNL     1      19.084   1.356  17.170  1.00  0.00     0.033 C 
HETATM   10  C12 UNL     1      17.901   0.587  17.576  1.00  0.00     0.014 C 
HETATM   11  C13 UNL     1      16.568   0.982  17.065  1.00  0.00     0.071 C 
HETATM   12  C14 UNL     1      16.455   2.463  16.997  1.00  0.00     0.196 C 
HETATM   13  C15 UNL     1      15.080   2.932  17.497  1.00  0.00     0.082 C 
HETATM   14  O4  UNL     1      17.386   3.114  17.813  1.00  0.00    -0.200 OA
HETATM   15  O5  UNL     1      18.393   3.567  17.144  1.00  0.00    -0.220 OA
HETATM   16  C16 UNL     1      18.892   2.552  16.273  1.00  0.00     0.160 C 
HETATM   17  C17 UNL     1      17.865   2.357  15.231  1.00  0.00     0.303 C 
HETATM   18  O6  UNL     1      17.902   2.909  14.003  1.00  0.00    -0.346 OA
HETATM   19  C18 UNL     1      18.704   2.499  12.996  1.00  0.00     0.202 C 
HETATM   20  O9  UNL     1      16.595   2.878  15.716  1.00  0.00    -0.320 OA
ENDROOT
BRANCH  19  21
HETATM   21  C19 UNL     1      18.253   2.256  11.655  1.00  0.00     0.126 C 
BRANCH  21  22
HETATM   22  O7  UNL     1      17.249   1.170  11.620  1.00  0.00    -0.381 OA
ATOM     23  H7  UNL     1      17.139   0.834  10.738  1.00  0.00     0.211 HD
ENDBRANCH  21  22
BRANCH  21  24
HETATM   24  C20 UNL     1      17.416   3.358  11.001  1.00  0.00     0.209 C 
BRANCH  24  25
HETATM   25  O8  UNL     1      17.723   4.634  11.458  1.00  0.00    -0.397 OA
ATOM     26  H8  UNL     1      18.656   4.791  11.548  1.00  0.00     0.209 HD
ENDBRANCH  24  25
ENDBRANCH  21  24
BRANCH  21  27
HETATM   27  C21 UNL     1      19.154   1.769  10.566  1.00  0.00     0.027 C 
BRANCH  27  28
HETATM   28  C22 UNL     1      19.323   2.485   9.323  1.00  0.00    -0.022 A 
HETATM   29  C23 UNL     1      20.198   3.566   9.263  1.00  0.00     0.012 A 
HETATM   30  C24 UNL     1      20.560   4.232   8.111  1.00  0.00     0.001 A 
HETATM   31  C25 UNL     1      19.999   3.779   6.947  1.00  0.00     0.001 A 
HETATM   32  C26 UNL     1      19.127   2.720   6.965  1.00  0.00     0.017 A 
HETATM   33  C27 UNL     1      18.761   2.049   8.132  1.00  0.00     0.058 A 
BRANCH  33  34
HETATM   34  C28 UNL     1      17.636   1.084   8.050  1.00  0.00     0.418 C 
HETATM   35  F1  UNL     1      17.280   0.979   6.698  1.00  0.00    -0.166 F 
HETATM   36  F2  UNL     1      17.724  -0.117   8.569  1.00  0.00    -0.166 F 
HETATM   37  F3  UNL     1      16.465   1.766   8.565  1.00  0.00    -0.166 F 
ENDBRANCH  33  34
ENDBRANCH  27  28
ENDBRANCH  21  27
ENDBRANCH  19  21
BRANCH   1  38
HETATM   38  O2  UNL     1      19.856   4.631  13.378  1.00  0.00    -0.305 OA
BRANCH  38  39
HETATM   39  C3  UNL     1      20.554   5.723  13.051  1.00  0.00     0.259 C 
HETATM   40  O1  UNL     1      20.487   6.073  11.864  1.00  0.00    -0.265 OA
BRANCH  39  41
HETATM   41  C2  UNL     1      21.391   6.530  13.986  1.00  0.00     0.106 C 
HETATM   42  C1  UNL     1      20.885   6.424  15.404  1.00  0.00     0.015 C 
ENDBRANCH  39  41
ENDBRANCH  38  39
ENDBRANCH   1  38
TORSDOF 10
ENDMDL
MODEL 2
REMARK VINA RESULT: -7.483740548      1.514      1.935
REMARK  10 active torsions:
REMARK  status: ('A' for Active; 'I' for Inactive)
REMARK    1  A    between atoms: C2_2  and  C3_3 
REMARK    2  A    between atoms: C3_3  and  O2_5 
REMARK    3  A    between atoms: O2_5  and  C4_6 
REMARK    4  A    between atoms: C18_24  and  C19_25 
REMARK    5  A    between atoms: C19_25  and  O7_26 
REMARK    6  A    between atoms: C19_25  and  C20_28 
REMARK    7  A    between atoms: C19_25  and  C21_31 
REMARK    8  A    between atoms: C20_28  and  O8_29 
REMARK    9  A    between atoms: C21_31  and  C22_32 
REMARK   10  A    between atoms: C27_37  and  C28_38 
ROOT
HETATM    1  C4  UNL     1      19.926   3.431  13.296  1.00  0.00     0.234 C 
HETATM    2  C5  UNL     1      20.561   2.768  14.556  1.00  0.00     0.166 C 
HETATM    3  O3  UNL     1      21.391   1.944  14.351  1.00  0.00    -0.294 OA
HETATM    4  C6  UNL     1      20.238   3.060  15.947  1.00  0.00     0.101 C 
HETATM    5  C7  UNL     1      21.389   2.556  16.803  1.00  0.00     0.016 C 
HETATM    6  C8  UNL     1      21.055   2.686  18.247  1.00  0.00     0.005 C 
HETATM    7  C9  UNL     1      19.879   1.782  18.510  1.00  0.00    -0.011 C 
HETATM    8  C10 UNL     1      20.372   0.531  19.264  1.00  0.00     0.010 C 
HETATM    9  C11 UNL     1      19.139   1.362  17.265  1.00  0.00     0.033 C 
HETATM   10  C12 UNL     1      17.996   0.530  17.659  1.00  0.00     0.014 C 
HETATM   11  C13 UNL     1      16.644   0.867  17.155  1.00  0.00     0.071 C 
HETATM   12  C14 UNL     1      16.459   2.341  17.111  1.00  0.00     0.196 C 
HETATM   13  C15 UNL     1      15.063   2.734  17.619  1.00  0.00     0.082 C 
HETATM   14  O4  UNL     1      17.357   3.024  17.937  1.00  0.00    -0.200 OA
HETATM   15  O5  UNL     1      18.340   3.537  17.274  1.00  0.00    -0.220 OA
HETATM   16  C16 UNL     1      18.887   2.562  16.387  1.00  0.00     0.160 C 
HETATM   17  C17 UNL     1      17.870   2.333  15.342  1.00  0.00     0.303 C 
HETATM   18  O6  UNL     1      17.877   2.906  14.123  1.00  0.00    -0.346 OA
HETATM   19  C18 UNL     1      18.697   2.552  13.109  1.00  0.00     0.202 C 
HETATM   20  O9  UNL     1      16.576   2.783  15.837  1.00  0.00    -0.320 OA
ENDROOT
BRANCH  19  21
HETATM   21  C19 UNL     1      18.256   2.308  11.765  1.00  0.00     0.126 C 
BRANCH  21  22
HETATM   22  O7  UNL     1      17.415   1.094  11.693  1.00  0.00    -0.381 OA
ATOM     23  H7  UNL     1      17.240   0.851  10.791  1.00  0.00     0.211 HD
ENDBRANCH  21  22
BRANCH  21  24
HETATM   24  C20 UNL     1      17.259   3.310  11.177  1.00  0.00     0.209 C 
BRANCH  24  25
HETATM   25  O8  UNL     1      17.615   4.636  11.386  1.00  0.00    -0.397 OA
ATOM     26  H8  UNL     1      18.314   4.936  10.816  1.00  0.00     0.209 HD
ENDBRANCH  24  25
ENDBRANCH  21  24
BRANCH  21  27
HETATM   27  C21 UNL     1      19.194   2.003  10.641  1.00  0.00     0.027 C 
BRANCH  27  28
HETATM   28  C22 UNL     1      18.822   2.171   9.256  1.00  0.00    -0.022 A 
HETATM   29  C23 UNL     1      17.991   1.236   8.645  1.00  0.00     0.012 A 
HETATM   30  C24 UNL     1      17.446   1.361   7.385  1.00  0.00     0.001 A 
HETATM   31  C25 UNL     1      17.763   2.502   6.697  1.00  0.00     0.001 A 
HETATM   32  C26 UNL     1      18.584   3.445   7.261  1.00  0.00     0.017 A 
HETATM   33  C27 UNL     1      19.137   3.315   8.536  1.00  0.00     0.058 A 
BRANCH  33  34
HETATM   34  C28 UNL     1      20.191   4.281   8.933  1.00  0.00     0.418 C 
HETATM   35  F1  UNL     1      19.650   5.566   8.784  1.00  0.00    -0.166 F 
HETATM   36  F2  UNL     1      20.796   4.198  10.094  1.00  0.00    -0.166 F 
HETATM   37  F3  UNL     1      21.168   4.296   7.862  1.00  0.00    -0.166 F 
ENDBRANCH  33  34
ENDBRANCH  27  28
ENDBRANCH  21  27
ENDBRANCH  19  21
BRANCH   1  38
HETATM   38  O2  UNL     1      19.743   4.731  13.525  1.00  0.00    -0.305 OA
BRANCH  38  39
HETATM   39  C3  UNL     1      20.513   5.824  13.526  1.00  0.00     0.259 C 
HETATM   40  O1  UNL     1      20.705   6.354  12.423  1.00  0.00    -0.265 OA
BRANCH  39  41
HETATM   41  C2  UNL     1      21.146   6.438  14.730  1.00  0.00     0.106 C 
HETATM   42  C1  UNL     1      20.120   6.738  15.796  1.00  0.00     0.015 C 
ENDBRANCH  39  41
ENDBRANCH  38  39
ENDBRANCH   1  38
TORSDOF 10
ENDMDL
MODEL 3
REMARK VINA RESULT: -7.444235687      1.437      2.277
REMARK  10 active torsions:
REMARK  status: ('A' for Active; 'I' for Inactive)
REMARK    1  A    between atoms: C2_2  and  C3_3 
REMARK    2  A    between atoms: C3_3  and  O2_5 
REMARK    3  A    between atoms: O2_5  and  C4_6 
REMARK    4  A    between atoms: C18_24  and  C19_25 
REMARK    5  A    between atoms: C19_25  and  O7_26 
REMARK    6  A    between atoms: C19_25  and  C20_28 
REMARK    7  A    between atoms: C19_25  and  C21_31 
REMARK    8  A    between atoms: C20_28  and  O8_29 
REMARK    9  A    between atoms: C21_31  and  C22_32 
REMARK   10  A    between atoms: C27_37  and  C28_38 
ROOT
HETATM    1  C4  UNL     1      20.084   3.632  13.798  1.00  0.00     0.234 C 
HETATM    2  C5  UNL     1      20.532   2.983  15.143  1.00  0.00     0.166 C 
HETATM    3  O3  UNL     1      21.391   2.166  15.069  1.00  0.00    -0.294 OA
HETATM    4  C6  UNL     1      20.003   3.279  16.469  1.00  0.00     0.101 C 
HETATM    5  C7  UNL     1      21.021   2.793  17.490  1.00  0.00     0.016 C 
HETATM    6  C8  UNL     1      20.474   2.929  18.867  1.00  0.00     0.005 C 
HETATM    7  C9  UNL     1      19.282   2.013  18.960  1.00  0.00    -0.011 C 
HETATM    8  C10 UNL     1      19.669   0.773  19.788  1.00  0.00     0.010 C 
HETATM    9  C11 UNL     1      18.738   1.578  17.622  1.00  0.00     0.033 C 
HETATM   10  C12 UNL     1      17.557   0.737  17.849  1.00  0.00     0.014 C 
HETATM   11  C13 UNL     1      16.291   1.056  17.148  1.00  0.00     0.071 C 
HETATM   12  C14 UNL     1      16.101   2.528  17.066  1.00  0.00     0.196 C 
HETATM   13  C15 UNL     1      14.642   2.909  17.359  1.00  0.00     0.082 C 
HETATM   14  O4  UNL     1      16.861   3.225  18.010  1.00  0.00    -0.200 OA
HETATM   15  O5  UNL     1      17.926   3.744  17.497  1.00  0.00    -0.220 OA
HETATM   16  C16 UNL     1      18.607   2.770  16.708  1.00  0.00     0.160 C 
HETATM   17  C17 UNL     1      17.758   2.524  15.526  1.00  0.00     0.303 C 
HETATM   18  O6  UNL     1      17.941   3.089  14.317  1.00  0.00    -0.346 OA
HETATM   19  C18 UNL     1      18.905   2.738  13.438  1.00  0.00     0.202 C 
HETATM   20  O9  UNL     1      16.401   2.964  15.820  1.00  0.00    -0.320 OA
ENDROOT
BRANCH  19  21
HETATM   21  C19 UNL     1      18.671   2.481  12.045  1.00  0.00     0.126 C 
BRANCH  21  22
HETATM   22  O7  UNL     1      19.944   2.303  11.315  1.00  0.00    -0.381 OA
ATOM     23  H7  UNL     1      20.469   3.095  11.343  1.00  0.00     0.211 HD
ENDBRANCH  21  22
BRANCH  21  24
HETATM   24  C20 UNL     1      18.019   1.141  11.695  1.00  0.00     0.209 C 
BRANCH  24  25
HETATM   25  O8  UNL     1      17.756   0.344  12.802  1.00  0.00    -0.397 OA
ATOM     26  H8  UNL     1      18.103  -0.537  12.727  1.00  0.00     0.209 HD
ENDBRANCH  24  25
ENDBRANCH  21  24
BRANCH  21  27
HETATM   27  C21 UNL     1      18.019   3.469  11.131  1.00  0.00     0.027 C 
BRANCH  27  28
HETATM   28  C22 UNL     1      16.874   3.134  10.319  1.00  0.00    -0.022 A 
HETATM   29  C23 UNL     1      15.597   3.178  10.873  1.00  0.00     0.012 A 
HETATM   30  C24 UNL     1      14.421   3.029  10.171  1.00  0.00     0.001 A 
HETATM   31  C25 UNL     1      14.541   2.819   8.823  1.00  0.00     0.001 A 
HETATM   32  C26 UNL     1      15.781   2.762   8.239  1.00  0.00     0.017 A 
HETATM   33  C27 UNL     1      16.971   2.911   8.953  1.00  0.00     0.058 A 
BRANCH  33  34
HETATM   34  C28 UNL     1      18.240   2.593   8.253  1.00  0.00     0.418 C 
HETATM   35  F1  UNL     1      19.027   3.753   8.278  1.00  0.00    -0.166 F 
HETATM   36  F2  UNL     1      18.976   1.564   8.598  1.00  0.00    -0.166 F 
HETATM   37  F3  UNL     1      17.931   2.532   6.837  1.00  0.00    -0.166 F 
ENDBRANCH  33  34
ENDBRANCH  27  28
ENDBRANCH  21  27
ENDBRANCH  19  21
BRANCH   1  38
HETATM   38  O2  UNL     1      19.857   4.931  13.988  1.00  0.00    -0.305 OA
BRANCH  38  39
HETATM   39  C3  UNL     1      20.602   6.040  14.026  1.00  0.00     0.259 C 
HETATM   40  O1  UNL     1      20.990   6.471  12.932  1.00  0.00    -0.265 OA
BRANCH  39  41
HETATM   41  C2  UNL     1      20.992   6.781  15.261  1.00  0.00     0.106 C 
HETATM   42  C1  UNL     1      19.826   6.916  16.211  1.00  0.00     0.015 C 
ENDBRANCH  39  41
ENDBRANCH  38  39
ENDBRANCH   1  38
TORSDOF 10
ENDMDL
MODEL 4
REMARK VINA RESULT: -7.174698245      1.746      2.435
REMARK  10 active torsions:
REMARK  status: ('A' for Active; 'I' for Inactive)
REMARK    1  A    between atoms: C2_2  and  C3_3 
REMARK    2  A    between atoms: C3_3  and  O2_5 
REMARK    3  A    between atoms: O2_5  and  C4_6 
REMARK    4  A    between atoms: C18_24  and  C19_25 
REMARK    5  A    between atoms: C19_25  and  O7_26 
REMARK    6  A    between atoms: C19_25  and  C20_28 
REMARK    7  A    between atoms: C19_25  and  C21_31 
REMARK    8  A    between atoms: C20_28  and  O8_29 
REMARK    9  A    between atoms: C21_31  and  C22_32 
REMARK   10  A    between atoms: C27_37  and  C28_38 
ROOT
HETATM    1  C4  UNL     1      19.980   3.329  13.397  1.00  0.00     0.234 C 
HETATM    2  C5  UNL     1      20.541   2.808  14.756  1.00  0.00     0.166 C 
HETATM    3  O3  UNL     1      21.387   1.978  14.689  1.00  0.00    -0.294 OA
HETATM    4  C6  UNL     1      20.130   3.239  16.086  1.00  0.00     0.101 C 
HETATM    5  C7  UNL     1      21.230   2.842  17.058  1.00  0.00     0.016 C 
HETATM    6  C8  UNL     1      20.806   3.118  18.458  1.00  0.00     0.005 C 
HETATM    7  C9  UNL     1      19.622   2.230  18.742  1.00  0.00    -0.011 C 
HETATM    8  C10 UNL     1      20.075   1.072  19.651  1.00  0.00     0.010 C 
HETATM    9  C11 UNL     1      18.963   1.674  17.505  1.00  0.00     0.033 C 
HETATM   10  C12 UNL     1      17.803   0.873  17.914  1.00  0.00     0.014 C 
HETATM   11  C13 UNL     1      16.483   1.138  17.296  1.00  0.00     0.071 C 
HETATM   12  C14 UNL     1      16.291   2.597  17.087  1.00  0.00     0.196 C 
HETATM   13  C15 UNL     1      14.864   3.022  17.465  1.00  0.00     0.082 C 
HETATM   14  O4  UNL     1      17.133   3.374  17.890  1.00  0.00    -0.200 OA
HETATM   15  O5  UNL     1      18.151   3.827  17.238  1.00  0.00    -0.220 OA
HETATM   16  C16 UNL     1      18.758   2.772  16.493  1.00  0.00     0.160 C 
HETATM   17  C17 UNL     1      17.809   2.423  15.418  1.00  0.00     0.303 C 
HETATM   18  O6  UNL     1      17.888   2.866  14.148  1.00  0.00    -0.346 OA
HETATM   19  C18 UNL     1      18.772   2.419  13.229  1.00  0.00     0.202 C 
HETATM   20  O9  UNL     1      16.484   2.905  15.783  1.00  0.00    -0.320 OA
ENDROOT
BRANCH  19  21
HETATM   21  C19 UNL     1      18.416   2.030  11.893  1.00  0.00     0.126 C 
BRANCH  21  22
HETATM   22  O7  UNL     1      19.617   1.900  11.039  1.00  0.00    -0.381 OA
ATOM     23  H7  UNL     1      19.545   1.151  10.459  1.00  0.00     0.211 HD
ENDBRANCH  21  22
BRANCH  21  24
HETATM   24  C20 UNL     1      17.857   0.616  11.715  1.00  0.00     0.209 C 
BRANCH  24  25
HETATM   25  O8  UNL     1      17.612  -0.039  12.915  1.00  0.00    -0.397 OA
ATOM     26  H8  UNL     1      16.706  -0.304  13.025  1.00  0.00     0.209 HD
ENDBRANCH  24  25
ENDBRANCH  21  24
BRANCH  21  27
HETATM   27  C21 UNL     1      17.584   2.882  10.989  1.00  0.00     0.027 C 
BRANCH  27  28
HETATM   28  C22 UNL     1      17.206   2.461   9.660  1.00  0.00    -0.022 A 
HETATM   29  C23 UNL     1      18.143   1.838   8.840  1.00  0.00     0.012 A 
HETATM   30  C24 UNL     1      17.870   1.259   7.619  1.00  0.00     0.001 A 
HETATM   31  C25 UNL     1      16.569   1.316   7.198  1.00  0.00     0.001 A 
HETATM   32  C26 UNL     1      15.616   1.927   7.974  1.00  0.00     0.017 A 
HETATM   33  C27 UNL     1      15.896   2.514   9.208  1.00  0.00     0.058 A 
BRANCH  33  34
HETATM   34  C28 UNL     1      14.836   3.345   9.833  1.00  0.00     0.418 C 
HETATM   35  F1  UNL     1      13.605   2.860   9.372  1.00  0.00    -0.166 F 
HETATM   36  F2  UNL     1      14.775   3.517  11.132  1.00  0.00    -0.166 F 
HETATM   37  F3  UNL     1      14.865   4.630   9.162  1.00  0.00    -0.166 F 
ENDBRANCH  33  34
ENDBRANCH  27  28
ENDBRANCH  21  27
ENDBRANCH  19  21
BRANCH   1  38
HETATM   38  O2  UNL     1      19.776   4.643  13.477  1.00  0.00    -0.305 OA
BRANCH  38  39
HETATM   39  C3  UNL     1      20.037   5.704  12.708  1.00  0.00     0.259 C 
HETATM   40  O1  UNL     1      20.855   6.516  13.163  1.00  0.00    -0.265 OA
BRANCH  39  41
HETATM   41  C2  UNL     1      19.430   5.980  11.373  1.00  0.00     0.106 C 
HETATM   42  C1  UNL     1      20.237   5.350  10.263  1.00  0.00     0.015 C 
ENDBRANCH  39  41
ENDBRANCH  38  39
ENDBRANCH   1  38
TORSDOF 10
ENDMDL
MODEL 5
REMARK VINA RESULT: -6.804269205      9.977     15.260
REMARK  10 active torsions:
REMARK  status: ('A' for Active; 'I' for Inactive)
REMARK    1  A    between atoms: C2_2  and  C3_3 
REMARK    2  A    between atoms: C3_3  and  O2_5 
REMARK    3  A    between atoms: O2_5  and  C4_6 
REMARK    4  A    between atoms: C18_24  and  C19_25 
REMARK    5  A    between atoms: C19_25  and  O7_26 
REMARK    6  A    between atoms: C19_25  and  C20_28 
REMARK    7  A    between atoms: C19_25  and  C21_31 
REMARK    8  A    between atoms: C20_28  and  O8_29 
REMARK    9  A    between atoms: C21_31  and  C22_32 
REMARK   10  A    between atoms: C27_37  and  C28_38 
ROOT
HETATM    1  C4  UNL     1      15.842  -0.599   1.656  1.00  0.00     0.234 C 
HETATM    2  C5  UNL     1      17.014  -0.169   0.722  1.00  0.00     0.166 C 
HETATM    3  O3  UNL     1      17.763   0.641   1.162  1.00  0.00    -0.294 OA
HETATM    4  C6  UNL     1      17.275  -0.660  -0.625  1.00  0.00     0.101 C 
HETATM    5  C7  UNL     1      18.725  -0.346  -0.957  1.00  0.00     0.016 C 
HETATM    6  C8  UNL     1      19.016  -0.686  -2.376  1.00  0.00     0.005 C 
HETATM    7  C9  UNL     1      18.162   0.216  -3.228  1.00  0.00    -0.011 C 
HETATM    8  C10 UNL     1      19.054   1.311  -3.844  1.00  0.00     0.010 C 
HETATM    9  C11 UNL     1      17.016   0.857  -2.485  1.00  0.00     0.033 C 
HETATM   10  C12 UNL     1      16.239   1.665  -3.432  1.00  0.00     0.014 C 
HETATM   11  C13 UNL     1      14.773   1.469  -3.522  1.00  0.00     0.071 C 
HETATM   12  C14 UNL     1      14.432   0.029  -3.381  1.00  0.00     0.196 C 
HETATM   13  C15 UNL     1      13.345  -0.378  -4.388  1.00  0.00     0.082 C 
HETATM   14  O4  UNL     1      15.516  -0.812  -3.649  1.00  0.00    -0.200 OA
HETATM   15  O5  UNL     1      16.070  -1.256  -2.570  1.00  0.00    -0.220 OA
HETATM   16  C16 UNL     1      16.294  -0.179  -1.661  1.00  0.00     0.160 C 
HETATM   17  C17 UNL     1      14.963   0.253  -1.193  1.00  0.00     0.303 C 
HETATM   18  O6  UNL     1      14.398  -0.122  -0.030  1.00  0.00    -0.346 OA
HETATM   19  C18 UNL     1      14.749   0.350   1.187  1.00  0.00     0.202 C 
HETATM   20  O9  UNL     1      13.956  -0.213  -2.137  1.00  0.00    -0.320 OA
ENDROOT
BRANCH  19  21
HETATM   21  C19 UNL     1      13.813   0.820   2.169  1.00  0.00     0.126 C 
BRANCH  21  22
HETATM   22  O7  UNL     1      14.025   2.254   2.463  1.00  0.00    -0.381 OA
ATOM     23  H7  UNL     1      13.403   2.567   3.110  1.00  0.00     0.211 HD
ENDBRANCH  21  22
BRANCH  21  24
HETATM   24  C20 UNL     1      12.345   0.892   1.740  1.00  0.00     0.209 C 
BRANCH  24  25
HETATM   25  O8  UNL     1      11.656   1.965   2.291  1.00  0.00    -0.397 OA
ATOM     26  H8  UNL     1      10.790   2.089   1.923  1.00  0.00     0.209 HD
ENDBRANCH  24  25
ENDBRANCH  21  24
BRANCH  21  27
HETATM   27  C21 UNL     1      13.772   0.304   3.571  1.00  0.00     0.027 C 
BRANCH  27  28
HETATM   28  C22 UNL     1      14.075   1.135   4.712  1.00  0.00    -0.022 A 
HETATM   29  C23 UNL     1      15.314   1.764   4.800  1.00  0.00     0.012 A 
HETATM   30  C24 UNL     1      15.667   2.695   5.753  1.00  0.00     0.001 A 
HETATM   31  C25 UNL     1      14.708   3.009   6.678  1.00  0.00     0.001 A 
HETATM   32  C26 UNL     1      13.476   2.408   6.630  1.00  0.00     0.017 A 
HETATM   33  C27 UNL     1      13.122   1.464   5.666  1.00  0.00     0.058 A 
BRANCH  33  34
HETATM   34  C28 UNL     1      11.854   0.717   5.863  1.00  0.00     0.418 C 
HETATM   35  F1  UNL     1      11.390   1.024   7.149  1.00  0.00    -0.166 F 
HETATM   36  F2  UNL     1      10.862   0.811   5.010  1.00  0.00    -0.166 F 
HETATM   37  F3  UNL     1      12.217  -0.674   6.054  1.00  0.00    -0.166 F 
ENDBRANCH  33  34
ENDBRANCH  27  28
ENDBRANCH  21  27
ENDBRANCH  19  21
BRANCH   1  38
HETATM   38  O2  UNL     1      15.636  -1.910   1.533  1.00  0.00    -0.305 OA
BRANCH  38  39
HETATM   39  C3  UNL     1      16.122  -2.891   0.767  1.00  0.00     0.259 C 
HETATM   40  O1  UNL     1      15.380  -3.287  -0.143  1.00  0.00    -0.265 OA
BRANCH  39  41
HETATM   41  C2  UNL     1      17.461  -3.532   0.922  1.00  0.00     0.106 C 
HETATM   42  C1  UNL     1      17.968  -4.067  -0.395  1.00  0.00     0.015 C 
ENDBRANCH  39  41
ENDBRANCH  38  39
ENDBRANCH   1  38
TORSDOF 10
ENDMDL
