MODEL 1
REMARK VINA RESULT: -8.139189345      0.000      0.000
REMARK  4 active torsions:
REMARK  status: ('A' for Active; 'I' for Inactive)
REMARK    1  A    between atoms: C2_2  and  C3_3 
REMARK    2  A    between atoms: C6_6  and  N1_7 
REMARK       I    between atoms: N1_7  and  C7_9 
REMARK    3  A    between atoms: C7_9  and  O2_11 
REMARK    4  A    between atoms: O2_11  and  N2_12 
ROOT
HETATM    1  N2  UNL     1      22.087  10.489 -11.623  1.00  0.00    -0.258 N 
ATOM      2  H2  UNL     1      21.762  10.937 -10.766  1.00  0.00     0.194 HD
HETATM    3  C8  UNL     1      22.409  11.323 -12.515  1.00  0.00     0.063 C 
HETATM    4  C9  UNL     1      22.294  12.790 -12.251  1.00  0.00     0.058 C 
HETATM    5 CL1  UNL     1      20.950  13.283 -11.252  1.00  0.00    -0.082 Cl
HETATM    6  C10 UNL     1      23.183  13.637 -12.752  1.00  0.00     0.031 C 
HETATM    7  C11 UNL     1      24.239  12.959 -13.556  1.00  0.00     0.160 C 
HETATM    8  O3  UNL     1      24.917  13.804 -14.419  1.00  0.00    -0.363 OA
HETATM    9  C12 UNL     1      25.451  12.951 -15.405  1.00  0.00     0.115 C 
HETATM   10  C13 UNL     1      25.586  13.708 -16.686  1.00  0.00     0.054 C 
HETATM   11  C14 UNL     1      26.758  12.353 -14.972  1.00  0.00     0.054 C 
HETATM   12  C15 UNL     1      24.397  11.902 -15.608  1.00  0.00     0.168 C 
HETATM   13  O4  UNL     1      24.481  11.141 -16.560  1.00  0.00    -0.294 OA
HETATM   14  C16 UNL     1      23.467  12.081 -14.522  1.00  0.00     0.105 C 
HETATM   15  C17 UNL     1      22.908  10.866 -13.841  1.00  0.00     0.012 C 
HETATM   16  C18 UNL     1      23.812   9.693 -13.800  1.00  0.00     0.022 C 
HETATM   17  C19 UNL     1      21.668  10.465 -14.655  1.00  0.00     0.022 C 
ENDROOT
BRANCH   1  18
HETATM   18  O2  UNL     1      22.073   9.170 -11.544  1.00  0.00    -0.181 OA
BRANCH  18  19
HETATM   19  C7  UNL     1      21.368   8.569 -10.458  1.00  0.00     0.387 C 
HETATM   20  N1  UNL     1      21.087   9.270  -9.306  1.00  0.00    -0.295 N 
ATOM     21  H1  UNL     1      21.398  10.241  -9.258  1.00  0.00     0.172 HD
HETATM   22  O1  UNL     1      21.022   7.375 -10.605  1.00  0.00    -0.236 OA
BRANCH  20  23
HETATM   23  C6  UNL     1      20.397   8.747  -8.178  1.00  0.00     0.078 A 
HETATM   24  C5  UNL     1      19.127   8.930  -7.710  1.00  0.00     0.038 A 
HETATM   25  C4  UNL     1      18.760   8.293  -6.591  1.00  0.00     0.017 A 
HETATM   26  C3  UNL     1      19.687   7.493  -5.984  1.00  0.00    -0.016 A 
HETATM   27  S1  UNL     1      21.047   7.651  -6.989  1.00  0.00    -0.077 SA
BRANCH  26  28
HETATM   28  C2  UNL     1      19.501   6.683  -4.722  1.00  0.00     0.041 C 
HETATM   29  C1  UNL     1      19.994   5.288  -4.971  1.00  0.00     0.010 C 
ENDBRANCH  26  28
ENDBRANCH  20  23
ENDBRANCH  18  19
ENDBRANCH   1  18
TORSDOF 4
ENDMDL
MODEL 2
REMARK VINA RESULT: -7.807951589      2.362      2.872
REMARK  4 active torsions:
REMARK  status: ('A' for Active; 'I' for Inactive)
REMARK    1  A    between atoms: C2_2  and  C3_3 
REMARK    2  A    between atoms: C6_6  and  N1_7 
REMARK       I    between atoms: N1_7  and  C7_9 
REMARK    3  A    between atoms: C7_9  and  O2_11 
REMARK    4  A    between atoms: O2_11  and  N2_12 
ROOT
HETATM    1  N2  UNL     1      18.821  12.142 -10.703  1.00  0.00    -0.258 N 
ATOM      2  H2  UNL     1      18.604  12.561  -9.799  1.00  0.00     0.194 HD
HETATM    3  C8  UNL     1      19.575  12.869 -11.407  1.00  0.00     0.063 C 
HETATM    4  C9  UNL     1      20.049  14.189 -10.888  1.00  0.00     0.058 C 
HETATM    5 CL1  UNL     1      18.915  15.070  -9.895  1.00  0.00    -0.082 Cl
HETATM    6  C10 UNL     1      21.267  14.628 -11.174  1.00  0.00     0.031 C 
HETATM    7  C11 UNL     1      22.039  13.679 -12.026  1.00  0.00     0.160 C 
HETATM    8  O3  UNL     1      23.113  14.258 -12.680  1.00  0.00    -0.363 OA
HETATM    9  C12 UNL     1      23.366  13.405 -13.773  1.00  0.00     0.115 C 
HETATM   10  C13 UNL     1      23.970  14.199 -14.885  1.00  0.00     0.054 C 
HETATM   11  C14 UNL     1      24.236  12.246 -13.381  1.00  0.00     0.054 C 
HETATM   12  C15 UNL     1      22.007  12.956 -14.223  1.00  0.00     0.168 C 
HETATM   13  O4  UNL     1      21.889  12.375 -15.291  1.00  0.00    -0.294 OA
HETATM   14  C16 UNL     1      21.104  13.367 -13.178  1.00  0.00     0.105 C 
HETATM   15  C17 UNL     1      20.005  12.431 -12.764  1.00  0.00     0.012 C 
HETATM   16  C18 UNL     1      20.324  10.990 -12.885  1.00  0.00     0.022 C 
HETATM   17  C19 UNL     1      18.828  12.725 -13.707  1.00  0.00     0.022 C 
ENDROOT
BRANCH   1  18
HETATM   18  O2  UNL     1      18.248  10.962 -10.866  1.00  0.00    -0.181 OA
BRANCH  18  19
HETATM   19  C7  UNL     1      18.650   9.895 -10.008  1.00  0.00     0.387 C 
HETATM   20  N1  UNL     1      19.871   9.905  -9.370  1.00  0.00    -0.295 N 
ATOM     21  H1  UNL     1      20.479  10.709  -9.529  1.00  0.00     0.172 HD
HETATM   22  O1  UNL     1      17.840   8.951  -9.867  1.00  0.00    -0.236 OA
BRANCH  20  23
HETATM   23  C6  UNL     1      20.351   8.882  -8.505  1.00  0.00     0.078 A 
HETATM   24  C5  UNL     1      21.334   7.945  -8.648  1.00  0.00     0.038 A 
HETATM   25  C4  UNL     1      21.554   7.092  -7.639  1.00  0.00     0.017 A 
HETATM   26  C3  UNL     1      20.774   7.215  -6.523  1.00  0.00    -0.016 A 
HETATM   27  S1  UNL     1      19.755   8.517  -6.909  1.00  0.00    -0.077 SA
BRANCH  26  28
HETATM   28  C2  UNL     1      20.840   6.371  -5.271  1.00  0.00     0.041 C 
HETATM   29  C1  UNL     1      19.449   5.947  -4.906  1.00  0.00     0.010 C 
ENDBRANCH  26  28
ENDBRANCH  20  23
ENDBRANCH  18  19
ENDBRANCH   1  18
TORSDOF 4
ENDMDL
MODEL 3
REMARK VINA RESULT: -7.796918633      1.890      2.308
REMARK  4 active torsions:
REMARK  status: ('A' for Active; 'I' for Inactive)
REMARK    1  A    between atoms: C2_2  and  C3_3 
REMARK    2  A    between atoms: C6_6  and  N1_7 
REMARK       I    between atoms: N1_7  and  C7_9 
REMARK    3  A    between atoms: C7_9  and  O2_11 
REMARK    4  A    between atoms: O2_11  and  N2_12 
ROOT
HETATM    1  N2  UNL     1      19.827  12.248 -10.990  1.00  0.00    -0.258 N 
ATOM      2  H2  UNL     1      19.850  12.855 -10.171  1.00  0.00     0.194 HD
HETATM    3  C8  UNL     1      20.705  12.551 -11.845  1.00  0.00     0.063 C 
HETATM    4  C9  UNL     1      21.637  13.693 -11.595  1.00  0.00     0.058 C 
HETATM    5 CL1  UNL     1      20.961  15.056 -10.740  1.00  0.00    -0.082 Cl
HETATM    6  C10 UNL     1      22.897  13.637 -12.003  1.00  0.00     0.031 C 
HETATM    7  C11 UNL     1      23.225  12.358 -12.695  1.00  0.00     0.160 C 
HETATM    8  O3  UNL     1      24.361  12.421 -13.484  1.00  0.00    -0.363 OA
HETATM    9  C12 UNL     1      24.210  11.370 -14.410  1.00  0.00     0.115 C 
HETATM   10  C13 UNL     1      24.930  11.720 -15.671  1.00  0.00     0.054 C 
HETATM   11  C14 UNL     1      24.682  10.061 -13.845  1.00  0.00     0.054 C 
HETATM   12  C15 UNL     1      22.742  11.346 -14.718  1.00  0.00     0.168 C 
HETATM   13  O4  UNL     1      22.334  10.678 -15.656  1.00  0.00    -0.294 OA
HETATM   14  C16 UNL     1      22.131  12.204 -13.733  1.00  0.00     0.105 C 
HETATM   15  C17 UNL     1      20.832  11.780 -13.112  1.00  0.00     0.012 C 
HETATM   16  C18 UNL     1      20.644  10.317 -12.978  1.00  0.00     0.022 C 
HETATM   17  C19 UNL     1      19.731  12.304 -14.049  1.00  0.00     0.022 C 
ENDROOT
BRANCH   1  18
HETATM   18  O2  UNL     1      18.883  11.326 -10.912  1.00  0.00    -0.181 OA
BRANCH  18  19
HETATM   19  C7  UNL     1      19.072  10.247  -9.996  1.00  0.00     0.387 C 
HETATM   20  N1  UNL     1      20.292  10.016  -9.398  1.00  0.00    -0.295 N 
ATOM     21  H1  UNL     1      21.057  10.649  -9.629  1.00  0.00     0.172 HD
HETATM   22  O1  UNL     1      18.077   9.522  -9.769  1.00  0.00    -0.236 OA
BRANCH  20  23
HETATM   23  C6  UNL     1      20.567   8.962  -8.482  1.00  0.00     0.078 A 
HETATM   24  C5  UNL     1      21.336   7.838  -8.578  1.00  0.00     0.038 A 
HETATM   25  C4  UNL     1      21.393   7.011  -7.526  1.00  0.00     0.017 A 
HETATM   26  C3  UNL     1      20.673   7.349  -6.415  1.00  0.00    -0.016 A 
HETATM   27  S1  UNL     1      19.934   8.810  -6.866  1.00  0.00    -0.077 SA
BRANCH  26  28
HETATM   28  C2  UNL     1      20.586   6.576  -5.120  1.00  0.00     0.041 C 
HETATM   29  C1  UNL     1      19.145   6.262  -4.845  1.00  0.00     0.010 C 
ENDBRANCH  26  28
ENDBRANCH  20  23
ENDBRANCH  18  19
ENDBRANCH   1  18
TORSDOF 4
ENDMDL
MODEL 4
REMARK VINA RESULT: -7.611154508      2.295      2.988
REMARK  4 active torsions:
REMARK  status: ('A' for Active; 'I' for Inactive)
REMARK    1  A    between atoms: C2_2  and  C3_3 
REMARK    2  A    between atoms: C6_6  and  N1_7 
REMARK       I    between atoms: N1_7  and  C7_9 
REMARK    3  A    between atoms: C7_9  and  O2_11 
REMARK    4  A    between atoms: O2_11  and  N2_12 
ROOT
HETATM    1  N2  UNL     1      20.767  11.756 -10.755  1.00  0.00    -0.258 N 
ATOM      2  H2  UNL     1      20.116  11.819  -9.972  1.00  0.00     0.194 HD
HETATM    3  C8  UNL     1      20.770  12.798 -11.467  1.00  0.00     0.063 C 
HETATM    4  C9  UNL     1      19.882  13.950 -11.122  1.00  0.00     0.058 C 
HETATM    5 CL1  UNL     1      18.324  13.538 -10.453  1.00  0.00    -0.082 Cl
HETATM    6  C10 UNL     1      20.288  15.197 -11.316  1.00  0.00     0.031 C 
HETATM    7  C11 UNL     1      21.664  15.275 -11.885  1.00  0.00     0.160 C 
HETATM    8  O3  UNL     1      21.956  16.490 -12.481  1.00  0.00    -0.363 OA
HETATM    9  C12 UNL     1      23.013  16.206 -13.369  1.00  0.00     0.115 C 
HETATM   10  C13 UNL     1      22.966  17.168 -14.511  1.00  0.00     0.054 C 
HETATM   11  C14 UNL     1      24.344  16.231 -12.675  1.00  0.00     0.054 C 
HETATM   12  C15 UNL     1      22.693  14.844 -13.912  1.00  0.00     0.168 C 
HETATM   13  O4  UNL     1      23.316  14.416 -14.871  1.00  0.00    -0.294 OA
HETATM   14  C16 UNL     1      21.627  14.343 -13.080  1.00  0.00     0.105 C 
HETATM   15  C17 UNL     1      21.655  12.901 -12.661  1.00  0.00     0.012 C 
HETATM   16  C18 UNL     1      23.006  12.319 -12.491  1.00  0.00     0.022 C 
HETATM   17  C19 UNL     1      20.955  12.125 -13.787  1.00  0.00     0.022 C 
ENDROOT
BRANCH   1  18
HETATM   18  O2  UNL     1      21.412  10.603 -10.789  1.00  0.00    -0.181 OA
BRANCH  18  19
HETATM   19  C7  UNL     1      20.982   9.566  -9.907  1.00  0.00     0.387 C 
HETATM   20  N1  UNL     1      21.225   9.625  -8.552  1.00  0.00    -0.295 N 
ATOM     21  H1  UNL     1      21.722  10.443  -8.198  1.00  0.00     0.172 HD
HETATM   22  O1  UNL     1      20.376   8.601 -10.427  1.00  0.00    -0.236 OA
BRANCH  20  23
HETATM   23  C6  UNL     1      20.838   8.635  -7.607  1.00  0.00     0.078 A 
HETATM   24  C5  UNL     1      21.491   7.553  -7.090  1.00  0.00     0.038 A 
HETATM   25  C4  UNL     1      20.848   6.783  -6.203  1.00  0.00     0.017 A 
HETATM   26  C3  UNL     1      19.570   7.132  -5.869  1.00  0.00    -0.016 A 
HETATM   27  S1  UNL     1      19.298   8.525  -6.801  1.00  0.00    -0.077 SA
BRANCH  26  28
HETATM   28  C2  UNL     1      18.657   6.419  -4.899  1.00  0.00     0.041 C 
HETATM   29  C1  UNL     1      17.235   6.697  -5.286  1.00  0.00     0.010 C 
ENDBRANCH  26  28
ENDBRANCH  20  23
ENDBRANCH  18  19
ENDBRANCH   1  18
TORSDOF 4
ENDMDL
MODEL 5
REMARK VINA RESULT: -7.315462439      5.227      6.385
REMARK  4 active torsions:
REMARK  status: ('A' for Active; 'I' for Inactive)
REMARK    1  A    between atoms: C2_2  and  C3_3 
REMARK    2  A    between atoms: C6_6  and  N1_7 
REMARK       I    between atoms: N1_7  and  C7_9 
REMARK    3  A    between atoms: C7_9  and  O2_11 
REMARK    4  A    between atoms: O2_11  and  N2_12 
ROOT
HETATM    1  N2  UNL     1      18.023  10.482 -10.146  1.00  0.00    -0.258 N 
ATOM      2  H2  UNL     1      17.853   9.691  -9.525  1.00  0.00     0.194 HD
HETATM    3  C8  UNL     1      19.233  10.576 -10.493  1.00  0.00     0.063 C 
HETATM    4  C9  UNL     1      20.238   9.586  -9.997  1.00  0.00     0.058 C 
HETATM    5 CL1  UNL     1      19.996   9.004  -8.370  1.00  0.00    -0.082 Cl
HETATM    6  C10 UNL     1      21.235   9.189 -10.776  1.00  0.00     0.031 C 
HETATM    7  C11 UNL     1      21.205   9.826 -12.124  1.00  0.00     0.160 C 
HETATM    8  O3  UNL     1      22.414   9.773 -12.796  1.00  0.00    -0.363 OA
HETATM    9  C12 UNL     1      22.344  10.821 -13.737  1.00  0.00     0.115 C 
HETATM   10  C13 UNL     1      23.724  11.315 -14.024  1.00  0.00     0.054 C 
HETATM   11  C14 UNL     1      21.634  10.395 -14.989  1.00  0.00     0.054 C 
HETATM   12  C15 UNL     1      21.608  11.918 -13.025  1.00  0.00     0.168 C 
HETATM   13  O4  UNL     1      21.581  13.038 -13.511  1.00  0.00    -0.294 OA
HETATM   14  C16 UNL     1      21.074  11.308 -11.833  1.00  0.00     0.105 C 
HETATM   15  C17 UNL     1      19.682  11.668 -11.399  1.00  0.00     0.012 C 
HETATM   16  C18 UNL     1      18.744  11.997 -12.497  1.00  0.00     0.022 C 
HETATM   17  C19 UNL     1      19.829  12.923 -10.525  1.00  0.00     0.022 C 
ENDROOT
BRANCH   1  18
HETATM   18  O2  UNL     1      16.925  11.172 -10.401  1.00  0.00    -0.181 OA
BRANCH  18  19
HETATM   19  C7  UNL     1      15.821  10.485 -10.991  1.00  0.00     0.387 C 
HETATM   20  N1  UNL     1      15.332   9.313 -10.455  1.00  0.00    -0.295 N 
ATOM     21  H1  UNL     1      15.786   8.955  -9.614  1.00  0.00     0.172 HD
HETATM   22  O1  UNL     1      15.324  10.998 -12.019  1.00  0.00    -0.236 OA
BRANCH  20  23
HETATM   23  C6  UNL     1      14.244   8.564 -10.982  1.00  0.00     0.078 A 
HETATM   24  C5  UNL     1      14.126   7.765 -12.083  1.00  0.00     0.038 A 
HETATM   25  C4  UNL     1      12.944   7.186 -12.328  1.00  0.00     0.017 A 
HETATM   26  C3  UNL     1      11.923   7.435 -11.454  1.00  0.00    -0.016 A 
HETATM   27  S1  UNL     1      12.638   8.468 -10.313  1.00  0.00    -0.077 SA
BRANCH  26  28
HETATM   28  C2  UNL     1      10.513   6.896 -11.528  1.00  0.00     0.041 C 
HETATM   29  C1  UNL     1      10.448   5.870 -12.621  1.00  0.00     0.010 C 
ENDBRANCH  26  28
ENDBRANCH  20  23
ENDBRANCH  18  19
ENDBRANCH   1  18
TORSDOF 4
ENDMDL
