MODEL 1
REMARK VINA RESULT: -8.079770681      0.000      0.000
REMARK  4 active torsions:
REMARK  status: ('A' for Active; 'I' for Inactive)
REMARK    1  A    between atoms: C5_6  and  N2_7 
REMARK    2  A    between atoms: N2_7  and  C6_9 
REMARK    3  A    between atoms: C6_9  and  C7_11 
REMARK       I    between atoms: N3_13  and  C9_15 
REMARK    4  A    between atoms: C9_15  and  C10_17 
ROOT
HETATM    1  C1  UNL     1      20.217  15.727 -10.095  1.00  0.00     0.229 C 
HETATM    2  N1  UNL     1      20.647  14.800 -10.621  1.00  0.00    -0.427 NA
HETATM    3  C2  UNL     1      21.161  13.679 -11.243  1.00  0.00     0.136 A 
HETATM    4  C3  UNL     1      20.480  12.485 -11.215  1.00  0.00     0.008 A 
HETATM    5  C4  UNL     1      19.157  12.371 -10.503  1.00  0.00     0.054 C 
HETATM    6  C5  UNL     1      21.017  11.383 -11.845  1.00  0.00     0.050 A 
HETATM    7  C13 UNL     1      22.234  11.494 -12.498  1.00  0.00    -0.011 A 
HETATM    8  C14 UNL     1      22.779  10.261 -13.173  1.00  0.00     0.052 C 
HETATM    9  C15 UNL     1      22.912  12.675 -12.529  1.00  0.00     0.066 A 
HETATM   10 CL1  UNL     1      24.444  12.817 -13.351  1.00  0.00    -0.082 Cl
HETATM   11  C16 UNL     1      22.381  13.780 -11.902  1.00  0.00     0.108 A 
HETATM   12  C17 UNL     1      23.078  15.038 -11.920  1.00  0.00     0.104 C 
HETATM   13  N5  UNL     1      23.639  16.038 -11.916  1.00  0.00    -0.191 NA
ENDROOT
BRANCH   6  14
HETATM   14  N2  UNL     1      20.319  10.150 -11.819  1.00  0.00    -0.345 N 
ATOM     15  H2  UNL     1      19.648   9.953 -12.562  1.00  0.00     0.167 HD
BRANCH  14  16
HETATM   16  C6  UNL     1      20.514   9.180 -10.804  1.00  0.00     0.123 C 
HETATM   17  S1  UNL     1      21.734   8.076 -10.968  1.00  0.00    -0.058 SA
BRANCH  16  18
HETATM   18  C7  UNL     1      19.660   9.143  -9.625  1.00  0.00     0.046 C 
HETATM   19  C8  UNL     1      18.193   9.198  -9.759  1.00  0.00     0.071 C 
HETATM   20  N3  UNL     1      20.180   9.061  -8.466  1.00  0.00    -0.322 N 
HETATM   21  C9  UNL     1      19.435   9.018  -7.261  1.00  0.00     0.279 C 
ATOM     22  H3  UNL     1      21.198   9.023  -8.402  1.00  0.00     0.169 HD
HETATM   23  O1  UNL     1      18.667   9.930  -6.893  1.00  0.00    -0.265 OA
BRANCH  21  24
HETATM   24  C10 UNL     1      19.576   7.841  -6.400  1.00  0.00     0.142 A 
HETATM   25  N4  UNL     1      18.635   7.287  -5.654  1.00  0.00    -0.355 N 
HETATM   26  C11 UNL     1      18.908   6.244  -4.941  1.00  0.00     0.096 A 
ATOM     27  H4  UNL     1      17.695   7.683  -5.641  1.00  0.00     0.166 HD
HETATM   28  C12 UNL     1      20.184   5.748  -4.990  1.00  0.00     0.069 A 
HETATM   29  S2  UNL     1      20.924   6.842  -6.085  1.00  0.00    -0.077 SA
ENDBRANCH  21  24
ENDBRANCH  16  18
ENDBRANCH  14  16
ENDBRANCH   6  14
TORSDOF 4
ENDMDL
MODEL 2
REMARK VINA RESULT: -7.885003528      2.323      3.224
REMARK  4 active torsions:
REMARK  status: ('A' for Active; 'I' for Inactive)
REMARK    1  A    between atoms: C5_6  and  N2_7 
REMARK    2  A    between atoms: N2_7  and  C6_9 
REMARK    3  A    between atoms: C6_9  and  C7_11 
REMARK       I    between atoms: N3_13  and  C9_15 
REMARK    4  A    between atoms: C9_15  and  C10_17 
ROOT
HETATM    1  C1  UNL     1      24.379  13.126 -13.924  1.00  0.00     0.229 C 
HETATM    2  N1  UNL     1      23.410  13.187 -13.308  1.00  0.00    -0.427 NA
HETATM    3  C2  UNL     1      22.239  13.256 -12.579  1.00  0.00     0.136 A 
HETATM    4  C3  UNL     1      21.334  12.222 -12.602  1.00  0.00     0.008 A 
HETATM    5  C4  UNL     1      21.598  10.988 -13.426  1.00  0.00     0.054 C 
HETATM    6  C5  UNL     1      20.175  12.318 -11.864  1.00  0.00     0.050 A 
HETATM    7  C13 UNL     1      19.938  13.455 -11.108  1.00  0.00    -0.011 A 
HETATM    8  C14 UNL     1      18.655  13.513 -10.317  1.00  0.00     0.052 C 
HETATM    9  C15 UNL     1      20.831  14.482 -11.082  1.00  0.00     0.066 A 
HETATM   10 CL1  UNL     1      20.535  15.915 -10.131  1.00  0.00    -0.082 Cl
HETATM   11  C16 UNL     1      21.992  14.393 -11.817  1.00  0.00     0.108 A 
HETATM   12  C17 UNL     1      22.951  15.465 -11.806  1.00  0.00     0.104 C 
HETATM   13  N5  UNL     1      23.710  16.324 -11.814  1.00  0.00    -0.191 NA
ENDROOT
BRANCH   6  14
HETATM   14  N2  UNL     1      19.239  11.254 -11.885  1.00  0.00    -0.345 N 
ATOM     15  H2  UNL     1      18.691  11.102 -12.732  1.00  0.00     0.167 HD
BRANCH  14  16
HETATM   16  C6  UNL     1      19.032  10.393 -10.779  1.00  0.00     0.123 C 
HETATM   17  S1  UNL     1      17.489  10.097 -10.264  1.00  0.00    -0.058 SA
BRANCH  16  18
HETATM   18  C7  UNL     1      20.155   9.767 -10.093  1.00  0.00     0.046 C 
HETATM   19  C8  UNL     1      21.424  10.493  -9.915  1.00  0.00     0.071 C 
HETATM   20  N3  UNL     1      20.042   8.583  -9.639  1.00  0.00    -0.322 N 
HETATM   21  C9  UNL     1      21.074   7.890  -8.959  1.00  0.00     0.279 C 
ATOM     22  H3  UNL     1      19.152   8.103  -9.775  1.00  0.00     0.169 HD
HETATM   23  O1  UNL     1      22.183   7.630  -9.470  1.00  0.00    -0.265 OA
BRANCH  21  24
HETATM   24  C10 UNL     1      20.826   7.454  -7.583  1.00  0.00     0.142 A 
HETATM   25  N4  UNL     1      21.456   6.492  -6.930  1.00  0.00    -0.355 N 
HETATM   26  C11 UNL     1      21.127   6.216  -5.710  1.00  0.00     0.096 A 
ATOM     27  H4  UNL     1      22.202   5.967  -7.388  1.00  0.00     0.166 HD
HETATM   28  C12 UNL     1      20.121   6.948  -5.136  1.00  0.00     0.069 A 
HETATM   29  S2  UNL     1      19.705   8.008  -6.420  1.00  0.00    -0.077 SA
ENDBRANCH  21  24
ENDBRANCH  16  18
ENDBRANCH  14  16
ENDBRANCH   6  14
TORSDOF 4
ENDMDL
MODEL 3
REMARK VINA RESULT: -7.853253624      1.798      1.949
REMARK  4 active torsions:
REMARK  status: ('A' for Active; 'I' for Inactive)
REMARK    1  A    between atoms: C5_6  and  N2_7 
REMARK    2  A    between atoms: N2_7  and  C6_9 
REMARK    3  A    between atoms: C6_9  and  C7_11 
REMARK       I    between atoms: N3_13  and  C9_15 
REMARK    4  A    between atoms: C9_15  and  C10_17 
ROOT
HETATM    1  C1  UNL     1      20.587  16.468 -10.105  1.00  0.00     0.229 C 
HETATM    2  N1  UNL     1      20.798  15.472 -10.640  1.00  0.00    -0.427 NA
HETATM    3  C2  UNL     1      21.047  14.271 -11.274  1.00  0.00     0.136 A 
HETATM    4  C3  UNL     1      20.115  13.261 -11.256  1.00  0.00     0.008 A 
HETATM    5  C4  UNL     1      18.800  13.441 -10.544  1.00  0.00     0.054 C 
HETATM    6  C5  UNL     1      20.390  12.073 -11.897  1.00  0.00     0.050 A 
HETATM    7  C13 UNL     1      21.602  11.913 -12.551  1.00  0.00    -0.011 A 
HETATM    8  C14 UNL     1      21.857  10.595 -13.237  1.00  0.00     0.052 C 
HETATM    9  C15 UNL     1      22.529  12.911 -12.571  1.00  0.00     0.066 A 
HETATM   10 CL1  UNL     1      24.055  12.713 -13.393  1.00  0.00    -0.082 Cl
HETATM   11  C16 UNL     1      22.260  14.101 -11.933  1.00  0.00     0.108 A 
HETATM   12  C17 UNL     1      23.222  15.170 -11.939  1.00  0.00     0.104 C 
HETATM   13  N5  UNL     1      23.993  16.018 -11.926  1.00  0.00    -0.191 NA
ENDROOT
BRANCH   6  14
HETATM   14  N2  UNL     1      19.433  11.028 -11.882  1.00  0.00    -0.345 N 
ATOM     15  H2  UNL     1      18.913  10.829 -12.737  1.00  0.00     0.167 HD
BRANCH  14  16
HETATM   16  C6  UNL     1      19.167  10.249 -10.729  1.00  0.00     0.123 C 
HETATM   17  S1  UNL     1      17.601  10.036 -10.243  1.00  0.00    -0.058 SA
BRANCH  16  18
HETATM   18  C7  UNL     1      20.248   9.635  -9.970  1.00  0.00     0.046 C 
HETATM   19  C8  UNL     1      21.502  10.368  -9.725  1.00  0.00     0.071 C 
HETATM   20  N3  UNL     1      20.112   8.455  -9.511  1.00  0.00    -0.322 N 
HETATM   21  C9  UNL     1      21.104   7.774  -8.763  1.00  0.00     0.279 C 
ATOM     22  H3  UNL     1      19.233   7.970  -9.695  1.00  0.00     0.169 HD
HETATM   23  O1  UNL     1      22.242   7.513  -9.203  1.00  0.00    -0.265 OA
BRANCH  21  24
HETATM   24  C10 UNL     1      20.776   7.352  -7.399  1.00  0.00     0.142 A 
HETATM   25  N4  UNL     1      21.420   6.457  -6.669  1.00  0.00    -0.355 N 
HETATM   26  C11 UNL     1      21.012   6.185  -5.473  1.00  0.00     0.096 A 
ATOM     27  H4  UNL     1      22.238   5.980  -7.050  1.00  0.00     0.166 HD
HETATM   28  C12 UNL     1      19.909   6.849  -5.004  1.00  0.00     0.069 A 
HETATM   29  S2  UNL     1      19.524   7.844  -6.348  1.00  0.00    -0.077 SA
ENDBRANCH  21  24
ENDBRANCH  16  18
ENDBRANCH  14  16
ENDBRANCH   6  14
TORSDOF 4
ENDMDL
MODEL 4
REMARK VINA RESULT: -7.602750892      4.047      5.398
REMARK  4 active torsions:
REMARK  status: ('A' for Active; 'I' for Inactive)
REMARK    1  A    between atoms: C5_6  and  N2_7 
REMARK    2  A    between atoms: N2_7  and  C6_9 
REMARK    3  A    between atoms: C6_9  and  C7_11 
REMARK       I    between atoms: N3_13  and  C9_15 
REMARK    4  A    between atoms: C9_15  and  C10_17 
ROOT
HETATM    1  C1  UNL     1      23.989  12.240 -12.819  1.00  0.00     0.229 C 
HETATM    2  N1  UNL     1      23.091  12.738 -12.302  1.00  0.00    -0.427 NA
HETATM    3  C2  UNL     1      22.004  13.328 -11.687  1.00  0.00     0.136 A 
HETATM    4  C3  UNL     1      20.930  12.574 -11.281  1.00  0.00     0.008 A 
HETATM    5  C4  UNL     1      20.912  11.083 -11.499  1.00  0.00     0.054 C 
HETATM    6  C5  UNL     1      19.860  13.190 -10.670  1.00  0.00     0.050 A 
HETATM    7  C13 UNL     1      19.882  14.562 -10.472  1.00  0.00    -0.011 A 
HETATM    8  C14 UNL     1      18.688  15.190  -9.799  1.00  0.00     0.052 C 
HETATM    9  C15 UNL     1      20.944  15.314 -10.872  1.00  0.00     0.066 A 
HETATM   10 CL1  UNL     1      20.975  17.041 -10.624  1.00  0.00    -0.082 Cl
HETATM   11  C16 UNL     1      22.018  14.704 -11.483  1.00  0.00     0.108 A 
HETATM   12  C17 UNL     1      23.151  15.477 -11.915  1.00  0.00     0.104 C 
HETATM   13  N5  UNL     1      24.049  16.091 -12.277  1.00  0.00    -0.191 NA
ENDROOT
BRANCH   6  14
HETATM   14  N2  UNL     1      18.749  12.416 -10.250  1.00  0.00    -0.345 N 
ATOM     15  H2  UNL     1      18.643  12.213  -9.256  1.00  0.00     0.167 HD
BRANCH  14  16
HETATM   16  C6  UNL     1      17.780  11.913 -11.153  1.00  0.00     0.123 C 
HETATM   17  S1  UNL     1      17.487  12.730 -12.559  1.00  0.00    -0.058 SA
BRANCH  16  18
HETATM   18  C7  UNL     1      17.043  10.691 -10.861  1.00  0.00     0.046 C 
HETATM   19  C8  UNL     1      17.614   9.665  -9.971  1.00  0.00     0.071 C 
HETATM   20  N3  UNL     1      15.894  10.504 -11.375  1.00  0.00    -0.322 N 
HETATM   21  C9  UNL     1      15.100   9.352 -11.152  1.00  0.00     0.279 C 
ATOM     22  H3  UNL     1      15.521  11.231 -11.987  1.00  0.00     0.169 HD
HETATM   23  O1  UNL     1      15.463   8.196 -11.451  1.00  0.00    -0.265 OA
BRANCH  21  24
HETATM   24  C10 UNL     1      13.781   9.526 -10.539  1.00  0.00     0.142 A 
HETATM   25  N4  UNL     1      13.370   9.025  -9.386  1.00  0.00    -0.355 N 
HETATM   26  C11 UNL     1      12.170   9.265  -8.968  1.00  0.00     0.096 A 
ATOM     27  H4  UNL     1      14.000   8.450  -8.825  1.00  0.00     0.166 HD
HETATM   28  C12 UNL     1      11.360  10.042  -9.755  1.00  0.00     0.069 A 
HETATM   29  S2  UNL     1      12.405  10.384 -11.073  1.00  0.00    -0.077 SA
ENDBRANCH  21  24
ENDBRANCH  16  18
ENDBRANCH  14  16
ENDBRANCH   6  14
TORSDOF 4
ENDMDL
MODEL 5
REMARK VINA RESULT: -7.551396826      4.237      6.205
REMARK  4 active torsions:
REMARK  status: ('A' for Active; 'I' for Inactive)
REMARK    1  A    between atoms: C5_6  and  N2_7 
REMARK    2  A    between atoms: N2_7  and  C6_9 
REMARK    3  A    between atoms: C6_9  and  C7_11 
REMARK       I    between atoms: N3_13  and  C9_15 
REMARK    4  A    between atoms: C9_15  and  C10_17 
ROOT
HETATM    1  C1  UNL     1      13.456  12.335 -13.490  1.00  0.00     0.229 C 
HETATM    2  N1  UNL     1      14.168  11.758 -12.795  1.00  0.00    -0.427 NA
HETATM    3  C2  UNL     1      15.031  11.067 -11.969  1.00  0.00     0.136 A 
HETATM    4  C3  UNL     1      16.313  11.516 -11.758  1.00  0.00     0.008 A 
HETATM    5  C4  UNL     1      16.807  12.773 -12.425  1.00  0.00     0.054 C 
HETATM    6  C5  UNL     1      17.153  10.806 -10.927  1.00  0.00     0.050 A 
HETATM    7  C13 UNL     1      16.693   9.650 -10.316  1.00  0.00    -0.011 A 
HETATM    8  C14 UNL     1      17.649   8.909  -9.417  1.00  0.00     0.052 C 
HETATM    9  C15 UNL     1      15.424   9.202 -10.522  1.00  0.00     0.066 A 
HETATM   10 CL1  UNL     1      14.843   7.747  -9.754  1.00  0.00    -0.082 Cl
HETATM   11  C16 UNL     1      14.579   9.906 -11.350  1.00  0.00     0.108 A 
HETATM   12  C17 UNL     1      13.235   9.453 -11.584  1.00  0.00     0.104 C 
HETATM   13  N5  UNL     1      12.168   9.085 -11.787  1.00  0.00    -0.191 NA
ENDROOT
BRANCH   6  14
HETATM   14  N2  UNL     1      18.475  11.265 -10.707  1.00  0.00    -0.345 N 
ATOM     15  H2  UNL     1      18.628  12.003 -10.019  1.00  0.00     0.167 HD
BRANCH  14  16
HETATM   16  C6  UNL     1      19.594  10.742 -11.401  1.00  0.00     0.123 C 
HETATM   17  S1  UNL     1      19.698  10.953 -13.038  1.00  0.00    -0.058 SA
BRANCH  16  18
HETATM   18  C7  UNL     1      20.648  10.024 -10.697  1.00  0.00     0.046 C 
HETATM   19  C8  UNL     1      21.994  10.609 -10.564  1.00  0.00     0.071 C 
HETATM   20  N3  UNL     1      20.409   8.882 -10.189  1.00  0.00    -0.322 N 
HETATM   21  C9  UNL     1      21.366   8.108  -9.487  1.00  0.00     0.279 C 
ATOM     22  H3  UNL     1      19.469   8.500 -10.295  1.00  0.00     0.169 HD
HETATM   23  O1  UNL     1      22.431   7.701  -9.995  1.00  0.00    -0.265 OA
BRANCH  21  24
HETATM   24  C10 UNL     1      21.090   7.765  -8.090  1.00  0.00     0.142 A 
HETATM   25  N4  UNL     1      21.495   6.684  -7.444  1.00  0.00    -0.355 N 
HETATM   26  C11 UNL     1      21.172   6.515  -6.203  1.00  0.00     0.096 A 
ATOM     27  H4  UNL     1      22.063   5.985  -7.923  1.00  0.00     0.166 HD
HETATM   28  C12 UNL     1      20.409   7.481  -5.601  1.00  0.00     0.069 A 
HETATM   29  S2  UNL     1      20.203   8.594  -6.890  1.00  0.00    -0.077 SA
ENDBRANCH  21  24
ENDBRANCH  16  18
ENDBRANCH  14  16
ENDBRANCH   6  14
TORSDOF 4
ENDMDL
