MODEL 1
REMARK VINA RESULT: -7.537594389      0.000      0.000
REMARK  3 active torsions:
REMARK  status: ('A' for Active; 'I' for Inactive)
REMARK    1  A    between atoms: C8_11  and  S1_12 
REMARK    2  A    between atoms: S1_12  and  C9_13 
REMARK    3  A    between atoms: C11_15  and  C12_16 
ROOT
HETATM    1  C1  UNL     1      10.608   8.244 -16.296  1.00  0.00     0.049 C 
HETATM    2  C2  UNL     1      11.721   7.288 -16.040  1.00  0.00    -0.042 A 
HETATM    3  C3  UNL     1      12.737   7.116 -16.951  1.00  0.00     0.034 A 
HETATM    4  C4  UNL     1      13.758   6.219 -16.700  1.00  0.00     0.060 A 
HETATM    5 CL1  UNL     1      15.050   6.006 -17.866  1.00  0.00    -0.082 Cl
HETATM    6  C5  UNL     1      13.735   5.502 -15.514  1.00  0.00     0.090 A 
HETATM    7  N1  UNL     1      14.788   4.597 -15.285  1.00  0.00    -0.099 NA
HETATM    8  C6  UNL     1      12.688   5.697 -14.604  1.00  0.00     0.087 A 
HETATM    9  C7  UNL     1      12.735   4.955 -13.400  1.00  0.00     0.103 C 
HETATM   10  N2  UNL     1      12.768   4.367 -12.406  1.00  0.00    -0.191 NA
HETATM   11  C8  UNL     1      11.662   6.582 -14.832  1.00  0.00     0.029 A 
ENDROOT
BRANCH  11  12
HETATM   12  S1  UNL     1      10.340   6.878 -13.686  1.00  0.00    -0.120 SA
BRANCH  12  13
HETATM   13  C9  UNL     1      10.645   8.117 -12.458  1.00  0.00     0.081 C 
HETATM   14  C10 UNL     1      10.348   9.521 -12.780  1.00  0.00     0.025 C 
HETATM   15  C11 UNL     1       8.963  10.006 -12.440  1.00  0.00     0.019 C 
HETATM   16  C15 UNL     1       8.270   9.192 -11.408  1.00  0.00     0.122 C 
HETATM   17  C16 UNL     1       6.778   9.467 -11.526  1.00  0.00     0.040 C 
HETATM   18  O1  UNL     1       8.547   7.830 -11.475  1.00  0.00    -0.380 OA
HETATM   19  C17 UNL     1       9.902   7.686 -11.180  1.00  0.00     0.132 C 
HETATM   20  C18 UNL     1      10.172   6.225 -10.908  1.00  0.00     0.040 C 
BRANCH  15  21
HETATM   21  C12 UNL     1       8.988  11.455 -11.945  1.00  0.00    -0.016 C 
HETATM   22  C13 UNL     1       9.313  12.420 -13.060  1.00  0.00     0.010 C 
HETATM   23  C14 UNL     1       9.934  11.646 -10.799  1.00  0.00     0.010 C 
ENDBRANCH  15  21
ENDBRANCH  12  13
ENDBRANCH  11  12
TORSDOF 3
ENDMDL
MODEL 2
REMARK VINA RESULT: -7.510554168      1.678      2.425
REMARK  3 active torsions:
REMARK  status: ('A' for Active; 'I' for Inactive)
REMARK    1  A    between atoms: C8_11  and  S1_12 
REMARK    2  A    between atoms: S1_12  and  C9_13 
REMARK    3  A    between atoms: C11_15  and  C12_16 
ROOT
HETATM    1  C1  UNL     1      12.609   4.735 -12.672  1.00  0.00     0.049 C 
HETATM    2  C2  UNL     1      12.708   5.383 -14.009  1.00  0.00    -0.042 A 
HETATM    3  C3  UNL     1      13.747   5.101 -14.863  1.00  0.00     0.034 A 
HETATM    4  C4  UNL     1      13.827   5.717 -16.098  1.00  0.00     0.060 A 
HETATM    5 CL1  UNL     1      15.155   5.351 -17.183  1.00  0.00    -0.082 Cl
HETATM    6  C5  UNL     1      12.839   6.622 -16.452  1.00  0.00     0.090 A 
HETATM    7  N1  UNL     1      12.945   7.234 -17.716  1.00  0.00    -0.099 NA
HETATM    8  C6  UNL     1      11.791   6.892 -15.563  1.00  0.00     0.087 A 
HETATM    9  C7  UNL     1      10.799   7.804 -15.994  1.00  0.00     0.103 C 
HETATM   10  N2  UNL     1       9.974   8.536 -16.337  1.00  0.00    -0.191 NA
HETATM   11  C8  UNL     1      11.692   6.292 -14.331  1.00  0.00     0.029 A 
ENDROOT
BRANCH  11  12
HETATM   12  S1  UNL     1      10.361   6.585 -13.194  1.00  0.00    -0.120 SA
BRANCH  12  13
HETATM   13  C9  UNL     1      10.511   8.032 -12.185  1.00  0.00     0.081 C 
HETATM   14  C10 UNL     1      10.371   9.353 -12.817  1.00  0.00     0.025 C 
HETATM   15  C11 UNL     1       8.981   9.932 -12.851  1.00  0.00     0.019 C 
HETATM   16  C15 UNL     1       8.057   9.357 -11.840  1.00  0.00     0.122 C 
HETATM   17  C16 UNL     1       6.634   9.644 -12.296  1.00  0.00     0.040 C 
HETATM   18  O1  UNL     1       8.253   8.002 -11.593  1.00  0.00    -0.380 OA
HETATM   19  C17 UNL     1       9.518   7.882 -11.018  1.00  0.00     0.132 C 
HETATM   20  C18 UNL     1       9.637   6.496 -10.429  1.00  0.00     0.040 C 
BRANCH  15  21
HETATM   21  C12 UNL     1       9.007  11.450 -12.642  1.00  0.00    -0.016 C 
HETATM   22  C13 UNL     1       9.882  12.139 -13.661  1.00  0.00     0.010 C 
HETATM   23  C14 UNL     1       9.430  11.824 -11.255  1.00  0.00     0.010 C 
ENDBRANCH  15  21
ENDBRANCH  12  13
ENDBRANCH  11  12
TORSDOF 3
ENDMDL
MODEL 3
REMARK VINA RESULT: -7.306542101      2.336      4.003
REMARK  3 active torsions:
REMARK  status: ('A' for Active; 'I' for Inactive)
REMARK    1  A    between atoms: C8_11  and  S1_12 
REMARK    2  A    between atoms: S1_12  and  C9_13 
REMARK    3  A    between atoms: C11_15  and  C12_16 
ROOT
HETATM    1  C1  UNL     1      10.501   8.309 -15.477  1.00  0.00     0.049 C 
HETATM    2  C2  UNL     1      11.615   7.344 -15.688  1.00  0.00    -0.042 A 
HETATM    3  C3  UNL     1      12.140   7.123 -16.939  1.00  0.00     0.034 A 
HETATM    4  C4  UNL     1      13.169   6.217 -17.118  1.00  0.00     0.060 A 
HETATM    5 CL1  UNL     1      13.834   5.942 -18.716  1.00  0.00    -0.082 Cl
HETATM    6  C5  UNL     1      13.657   5.541 -16.010  1.00  0.00     0.090 A 
HETATM    7  N1  UNL     1      14.706   4.627 -16.222  1.00  0.00    -0.099 NA
HETATM    8  C6  UNL     1      13.104   5.785 -14.747  1.00  0.00     0.087 A 
HETATM    9  C7  UNL     1      13.663   5.084 -13.653  1.00  0.00     0.103 C 
HETATM   10  N2  UNL     1      14.120   4.530 -12.747  1.00  0.00    -0.191 NA
HETATM   11  C8  UNL     1      12.081   6.680 -14.546  1.00  0.00     0.029 A 
ENDROOT
BRANCH  11  12
HETATM   12  S1  UNL     1      11.380   7.038 -12.955  1.00  0.00    -0.120 SA
BRANCH  12  13
HETATM   13  C9  UNL     1      10.481   5.716 -12.192  1.00  0.00     0.081 C 
HETATM   14  C10 UNL     1      11.133   4.940 -11.126  1.00  0.00     0.025 C 
HETATM   15  C11 UNL     1      10.932   5.439  -9.719  1.00  0.00     0.019 C 
HETATM   16  C15 UNL     1       9.741   6.311  -9.548  1.00  0.00     0.122 C 
HETATM   17  C16 UNL     1       9.935   7.113  -8.269  1.00  0.00     0.040 C 
HETATM   18  O1  UNL     1       9.477   7.136 -10.636  1.00  0.00    -0.380 OA
HETATM   19  C17 UNL     1       9.144   6.298 -11.698  1.00  0.00     0.132 C 
HETATM   20  C18 UNL     1       8.527   7.142 -12.789  1.00  0.00     0.040 C 
BRANCH  15  21
HETATM   21  C12 UNL     1      10.798   4.275  -8.732  1.00  0.00    -0.016 C 
HETATM   22  C13 UNL     1      11.758   4.412  -7.574  1.00  0.00     0.010 C 
HETATM   23  C14 UNL     1      10.971   2.945  -9.397  1.00  0.00     0.010 C 
ENDBRANCH  15  21
ENDBRANCH  12  13
ENDBRANCH  11  12
TORSDOF 3
ENDMDL
MODEL 4
REMARK VINA RESULT: -7.272032130      3.673      7.071
REMARK  3 active torsions:
REMARK  status: ('A' for Active; 'I' for Inactive)
REMARK    1  A    between atoms: C8_11  and  S1_12 
REMARK    2  A    between atoms: S1_12  and  C9_13 
REMARK    3  A    between atoms: C11_15  and  C12_16 
ROOT
HETATM    1  C1  UNL     1       9.685   6.897 -10.343  1.00  0.00     0.049 C 
HETATM    2  C2  UNL     1       9.124   7.781 -11.401  1.00  0.00    -0.042 A 
HETATM    3  C3  UNL     1       7.917   8.417 -11.234  1.00  0.00     0.034 A 
HETATM    4  C4  UNL     1       7.407   9.228 -12.230  1.00  0.00     0.060 A 
HETATM    5 CL1  UNL     1       5.867  10.036 -12.008  1.00  0.00    -0.082 Cl
HETATM    6  C5  UNL     1       8.140   9.385 -13.397  1.00  0.00     0.090 A 
HETATM    7  N1  UNL     1       7.597  10.218 -14.393  1.00  0.00    -0.099 NA
HETATM    8  C6  UNL     1       9.367   8.726 -13.542  1.00  0.00     0.087 A 
HETATM    9  C7  UNL     1      10.079   8.948 -14.743  1.00  0.00     0.103 C 
HETATM   10  N2  UNL     1      10.679   9.131 -15.714  1.00  0.00    -0.191 NA
HETATM   11  C8  UNL     1       9.892   7.914 -12.565  1.00  0.00     0.029 A 
ENDROOT
BRANCH  11  12
HETATM   12  S1  UNL     1      11.459   7.091 -12.702  1.00  0.00    -0.120 SA
BRANCH  12  13
HETATM   13  C9  UNL     1      11.526   5.745 -13.850  1.00  0.00     0.081 C 
HETATM   14  C10 UNL     1      12.255   5.928 -15.115  1.00  0.00     0.025 C 
HETATM   15  C11 UNL     1      13.713   5.550 -15.105  1.00  0.00     0.019 C 
HETATM   16  C15 UNL     1      14.090   4.608 -14.020  1.00  0.00     0.122 C 
HETATM   17  C16 UNL     1      15.596   4.707 -13.822  1.00  0.00     0.040 C 
HETATM   18  O1  UNL     1      13.402   4.807 -12.827  1.00  0.00    -0.380 OA
HETATM   19  C17 UNL     1      12.063   4.520 -13.088  1.00  0.00     0.132 C 
HETATM   20  C18 UNL     1      11.343   4.391 -11.766  1.00  0.00     0.040 C 
BRANCH  15  21
HETATM   21  C12 UNL     1      14.130   4.914 -16.434  1.00  0.00    -0.016 C 
HETATM   22  C13 UNL     1      14.946   5.866 -17.277  1.00  0.00     0.010 C 
HETATM   23  C14 UNL     1      12.956   4.406 -17.213  1.00  0.00     0.010 C 
ENDBRANCH  15  21
ENDBRANCH  12  13
ENDBRANCH  11  12
TORSDOF 3
ENDMDL
MODEL 5
REMARK VINA RESULT: -7.237955813      2.502      3.697
REMARK  3 active torsions:
REMARK  status: ('A' for Active; 'I' for Inactive)
REMARK    1  A    between atoms: C8_11  and  S1_12 
REMARK    2  A    between atoms: S1_12  and  C9_13 
REMARK    3  A    between atoms: C11_15  and  C12_16 
ROOT
HETATM    1  C1  UNL     1      10.355   6.549 -11.736  1.00  0.00     0.049 C 
HETATM    2  C2  UNL     1      11.213   6.242 -12.913  1.00  0.00    -0.042 A 
HETATM    3  C3  UNL     1      12.185   5.271 -12.854  1.00  0.00     0.034 A 
HETATM    4  C4  UNL     1      12.977   5.005 -13.955  1.00  0.00     0.060 A 
HETATM    5 CL1  UNL     1      14.214   3.765 -13.872  1.00  0.00    -0.082 Cl
HETATM    6  C5  UNL     1      12.768   5.734 -15.115  1.00  0.00     0.090 A 
HETATM    7  N1  UNL     1      13.588   5.440 -16.220  1.00  0.00    -0.099 NA
HETATM    8  C6  UNL     1      11.770   6.717 -15.149  1.00  0.00     0.087 A 
HETATM    9  C7  UNL     1      11.588   7.408 -16.369  1.00  0.00     0.103 C 
HETATM   10  N2  UNL     1      11.417   7.971 -17.364  1.00  0.00    -0.191 NA
HETATM   11  C8  UNL     1      10.972   7.000 -14.066  1.00  0.00     0.029 A 
ENDROOT
BRANCH  11  12
HETATM   12  S1  UNL     1       9.678   8.214 -14.084  1.00  0.00    -0.120 SA
BRANCH  12  13
HETATM   13  C9  UNL     1      10.177   9.869 -14.468  1.00  0.00     0.081 C 
HETATM   14  C10 UNL     1       9.533  10.559 -15.597  1.00  0.00     0.025 C 
HETATM   15  C11 UNL     1       8.303  11.365 -15.272  1.00  0.00     0.019 C 
HETATM   16  C15 UNL     1       8.193  11.758 -13.843  1.00  0.00     0.122 C 
HETATM   17  C16 UNL     1       6.736  12.105 -13.569  1.00  0.00     0.040 C 
HETATM   18  O1  UNL     1       8.670  10.804 -12.950  1.00  0.00    -0.380 OA
HETATM   19  C17 UNL     1      10.041  10.698 -13.178  1.00  0.00     0.132 C 
HETATM   20  C18 UNL     1      10.653   9.940 -12.024  1.00  0.00     0.040 C 
BRANCH  15  21
HETATM   21  C12 UNL     1       8.242  12.646 -16.110  1.00  0.00    -0.016 C 
HETATM   22  C13 UNL     1       7.950  12.350 -17.561  1.00  0.00     0.010 C 
HETATM   23  C14 UNL     1       9.490  13.465 -15.985  1.00  0.00     0.010 C 
ENDBRANCH  15  21
ENDBRANCH  12  13
ENDBRANCH  11  12
TORSDOF 3
ENDMDL
