MODEL 1
REMARK VINA RESULT: -7.495550159      0.000      0.000
REMARK  5 active torsions:
REMARK  status: ('A' for Active; 'I' for Inactive)
REMARK    1  A    between atoms: C2_2  and  C4_4 
REMARK    2  A    between atoms: C6_6  and  S1_7 
REMARK    3  A    between atoms: S1_7  and  C7_8 
REMARK    4  A    between atoms: C13_15  and  O1_16 
REMARK    5  A    between atoms: C17_22  and  O3_23 
ROOT
HETATM    1  C7  UNL     1      10.179   9.106 -12.906  1.00  0.00     0.103 C 
HETATM    2  C8  UNL     1      10.139  10.179 -11.883  1.00  0.00     0.022 C 
HETATM    3 CL1  UNL     1      10.352   9.795 -10.213  1.00  0.00    -0.088 Cl
HETATM    4  C9  UNL     1       9.939  11.417 -12.281  1.00  0.00    -0.005 C 
HETATM    5  C10 UNL     1       9.751  11.793 -13.711  1.00  0.00     0.040 C 
HETATM    6  C11 UNL     1       9.570  10.655 -14.643  1.00  0.00    -0.010 C 
HETATM    7  C12 UNL     1      10.800  10.338 -15.453  1.00  0.00     0.018 C 
HETATM    8  C13 UNL     1       8.412  10.819 -15.600  1.00  0.00     0.127 C 
HETATM    9  C14 UNL     1       8.182   9.381 -16.037  1.00  0.00     0.033 C 
HETATM   10  C15 UNL     1       8.773   8.497 -14.937  1.00  0.00     0.009 C 
HETATM   11  C16 UNL     1       9.082   9.451 -13.851  1.00  0.00     0.016 C 
ENDROOT
BRANCH   1  12
HETATM   12  S1  UNL     1      10.200   7.504 -12.189  1.00  0.00    -0.094 SA
BRANCH  12  13
HETATM   13  C6  UNL     1      11.358   6.350 -12.835  1.00  0.00     0.116 A 
HETATM   14  C5  UNL     1      11.615   6.198 -14.185  1.00  0.00     0.057 A 
HETATM   15  C4  UNL     1      12.561   5.219 -14.342  1.00  0.00     0.007 A 
HETATM   16  C17 UNL     1      12.854   4.798 -13.063  1.00  0.00     0.191 A 
HETATM   17  O2  UNL     1      12.130   5.485 -12.224  1.00  0.00    -0.281 OA
BRANCH  15  18
HETATM   18  C2  UNL     1      13.126   4.719 -15.629  1.00  0.00     0.015 C 
HETATM   19  C1  UNL     1      14.427   5.477 -15.918  1.00  0.00     0.015 C 
HETATM   20  C3  UNL     1      12.126   4.936 -16.760  1.00  0.00     0.015 C 
ENDBRANCH  15  18
BRANCH  16  21
HETATM   21  O3  UNL     1      13.792   3.791 -12.800  1.00  0.00    -0.340 OA
ATOM     22  H3  UNL     1      14.197   3.681 -11.948  1.00  0.00     0.220 HD
ENDBRANCH  16  21
ENDBRANCH  12  13
ENDBRANCH   1  12
BRANCH   8  23
HETATM   23  O1  UNL     1       8.773  11.657 -16.634  1.00  0.00    -0.395 OA
ATOM     24  H1  UNL     1       8.073  11.702 -17.274  1.00  0.00     0.210 HD
ENDBRANCH   8  23
TORSDOF 5
ENDMDL
MODEL 2
REMARK VINA RESULT: -7.371142269      1.005      1.190
REMARK  5 active torsions:
REMARK  status: ('A' for Active; 'I' for Inactive)
REMARK    1  A    between atoms: C2_2  and  C4_4 
REMARK    2  A    between atoms: C6_6  and  S1_7 
REMARK    3  A    between atoms: S1_7  and  C7_8 
REMARK    4  A    between atoms: C13_15  and  O1_16 
REMARK    5  A    between atoms: C17_22  and  O3_23 
ROOT
HETATM    1  C7  UNL     1      10.034   8.929 -13.170  1.00  0.00     0.103 C 
HETATM    2  C8  UNL     1      10.358  10.192 -12.462  1.00  0.00     0.022 C 
HETATM    3 CL1  UNL     1      10.719  10.171 -10.773  1.00  0.00    -0.088 Cl
HETATM    4  C9  UNL     1      10.362  11.313 -13.149  1.00  0.00    -0.005 C 
HETATM    5  C10 UNL     1      10.055  11.377 -14.607  1.00  0.00     0.040 C 
HETATM    6  C11 UNL     1       9.518  10.126 -15.193  1.00  0.00    -0.010 C 
HETATM    7  C12 UNL     1      10.531   9.351 -15.993  1.00  0.00     0.018 C 
HETATM    8  C13 UNL     1       8.296  10.326 -16.059  1.00  0.00     0.127 C 
HETATM    9  C14 UNL     1       7.718   8.921 -16.087  1.00  0.00     0.033 C 
HETATM   10  C15 UNL     1       8.264   8.206 -14.848  1.00  0.00     0.009 C 
HETATM   11  C16 UNL     1       8.910   9.289 -14.077  1.00  0.00     0.016 C 
ENDROOT
BRANCH   1  12
HETATM   12  S1  UNL     1       9.827   7.581 -12.067  1.00  0.00    -0.094 SA
BRANCH  12  13
HETATM   13  C6  UNL     1      11.002   6.276 -12.164  1.00  0.00     0.116 A 
HETATM   14  C5  UNL     1      11.731   5.986 -13.302  1.00  0.00     0.057 A 
HETATM   15  C4  UNL     1      12.546   4.916 -13.037  1.00  0.00     0.007 A 
HETATM   16  C17 UNL     1      12.282   4.582 -11.727  1.00  0.00     0.191 A 
HETATM   17  O2  UNL     1      11.380   5.401 -11.264  1.00  0.00    -0.281 OA
BRANCH  15  18
HETATM   18  C2  UNL     1      13.494   4.259 -13.983  1.00  0.00     0.015 C 
HETATM   19  C1  UNL     1      14.925   4.602 -13.557  1.00  0.00     0.015 C 
HETATM   20  C3  UNL     1      13.236   4.744 -15.406  1.00  0.00     0.015 C 
ENDBRANCH  15  18
BRANCH  16  21
HETATM   21  O3  UNL     1      12.928   3.521 -11.078  1.00  0.00    -0.340 OA
ATOM     22  H3  UNL     1      12.703   2.613 -11.242  1.00  0.00     0.220 HD
ENDBRANCH  16  21
ENDBRANCH  12  13
ENDBRANCH   1  12
BRANCH   8  23
HETATM   23  O1  UNL     1       8.673  10.791 -17.302  1.00  0.00    -0.395 OA
ATOM     24  H1  UNL     1       8.133  11.533 -17.547  1.00  0.00     0.210 HD
ENDBRANCH   8  23
TORSDOF 5
ENDMDL
MODEL 3
REMARK VINA RESULT: -7.324590695      2.943      3.998
REMARK  5 active torsions:
REMARK  status: ('A' for Active; 'I' for Inactive)
REMARK    1  A    between atoms: C2_2  and  C4_4 
REMARK    2  A    between atoms: C6_6  and  S1_7 
REMARK    3  A    between atoms: S1_7  and  C7_8 
REMARK    4  A    between atoms: C13_15  and  O1_16 
REMARK    5  A    between atoms: C17_22  and  O3_23 
ROOT
HETATM    1  C7  UNL     1       9.414   8.634 -14.956  1.00  0.00     0.103 C 
HETATM    2  C8  UNL     1       8.351   9.475 -15.558  1.00  0.00     0.022 C 
HETATM    3 CL1  UNL     1       8.484   9.999 -17.199  1.00  0.00    -0.088 Cl
HETATM    4  C9  UNL     1       7.316   9.805 -14.816  1.00  0.00    -0.005 C 
HETATM    5  C10 UNL     1       7.161   9.375 -13.397  1.00  0.00     0.040 C 
HETATM    6  C11 UNL     1       8.359   8.741 -12.797  1.00  0.00    -0.010 C 
HETATM    7  C12 UNL     1       8.260   7.242 -12.693  1.00  0.00     0.018 C 
HETATM    8  C13 UNL     1       8.722   9.278 -11.432  1.00  0.00     0.127 C 
HETATM    9  C14 UNL     1      10.173   8.840 -11.316  1.00  0.00     0.033 C 
HETATM   10  C15 UNL     1      10.675   8.630 -12.747  1.00  0.00     0.009 C 
HETATM   11  C16 UNL     1       9.586   9.179 -13.582  1.00  0.00     0.016 C 
ENDROOT
BRANCH   1  12
HETATM   12  S1  UNL     1      10.824   8.501 -15.992  1.00  0.00    -0.094 SA
BRANCH  12  13
HETATM   13  C6  UNL     1      11.690   6.971 -15.978  1.00  0.00     0.116 A 
HETATM   14  C5  UNL     1      12.178   6.379 -14.828  1.00  0.00     0.057 A 
HETATM   15  C4  UNL     1      12.798   5.205 -15.170  1.00  0.00     0.007 A 
HETATM   16  C17 UNL     1      12.667   5.119 -16.539  1.00  0.00     0.191 A 
HETATM   17  O2  UNL     1      12.016   6.167 -16.960  1.00  0.00    -0.281 OA
BRANCH  15  18
HETATM   18  C2  UNL     1      13.477   4.250 -14.248  1.00  0.00     0.015 C 
HETATM   19  C1  UNL     1      12.818   4.353 -12.867  1.00  0.00     0.015 C 
HETATM   20  C3  UNL     1      14.962   4.582 -14.149  1.00  0.00     0.015 C 
ENDBRANCH  15  18
BRANCH  16  21
HETATM   21  O3  UNL     1      13.179   4.043 -17.276  1.00  0.00    -0.340 OA
ATOM     22  H3  UNL     1      12.919   3.871 -18.173  1.00  0.00     0.220 HD
ENDBRANCH  16  21
ENDBRANCH  12  13
ENDBRANCH   1  12
BRANCH   8  23
HETATM   23  O1  UNL     1       7.901   8.721 -10.474  1.00  0.00    -0.395 OA
ATOM     24  H1  UNL     1       7.929   7.774 -10.535  1.00  0.00     0.210 HD
ENDBRANCH   8  23
TORSDOF 5
ENDMDL
MODEL 4
REMARK VINA RESULT: -7.298646243      2.872      6.146
REMARK  5 active torsions:
REMARK  status: ('A' for Active; 'I' for Inactive)
REMARK    1  A    between atoms: C2_2  and  C4_4 
REMARK    2  A    between atoms: C6_6  and  S1_7 
REMARK    3  A    between atoms: S1_7  and  C7_8 
REMARK    4  A    between atoms: C13_15  and  O1_16 
REMARK    5  A    between atoms: C17_22  and  O3_23 
ROOT
HETATM    1  C7  UNL     1      12.658   5.042 -14.332  1.00  0.00     0.103 C 
HETATM    2  C8  UNL     1      14.008   4.644 -13.863  1.00  0.00     0.022 C 
HETATM    3 CL1  UNL     1      14.260   4.215 -12.209  1.00  0.00    -0.088 Cl
HETATM    4  C9  UNL     1      14.995   4.628 -14.732  1.00  0.00    -0.005 C 
HETATM    5  C10 UNL     1      14.822   4.991 -16.168  1.00  0.00     0.040 C 
HETATM    6  C11 UNL     1      13.513   5.597 -16.511  1.00  0.00    -0.010 C 
HETATM    7  C12 UNL     1      12.571   4.645 -17.200  1.00  0.00     0.018 C 
HETATM    8  C13 UNL     1      13.615   6.845 -17.357  1.00  0.00     0.127 C 
HETATM    9  C14 UNL     1      12.251   7.474 -17.123  1.00  0.00     0.033 C 
HETATM   10  C15 UNL     1      11.735   6.904 -15.799  1.00  0.00     0.009 C 
HETATM   11  C16 UNL     1      12.905   6.188 -15.248  1.00  0.00     0.016 C 
ENDROOT
BRANCH   1  12
HETATM   12  S1  UNL     1      11.527   5.252 -13.006  1.00  0.00    -0.094 SA
BRANCH  12  13
HETATM   13  C6  UNL     1      10.860   6.860 -12.766  1.00  0.00     0.116 A 
HETATM   14  C5  UNL     1       9.532   7.179 -12.984  1.00  0.00     0.057 A 
HETATM   15  C4  UNL     1       9.351   8.508 -12.705  1.00  0.00     0.007 A 
HETATM   16  C17 UNL     1      10.593   8.965 -12.321  1.00  0.00     0.191 A 
HETATM   17  O2  UNL     1      11.435   7.971 -12.373  1.00  0.00    -0.281 OA
BRANCH  15  18
HETATM   18  C2  UNL     1       8.079   9.280 -12.816  1.00  0.00     0.015 C 
HETATM   19  C1  UNL     1       7.353   9.221 -11.467  1.00  0.00     0.015 C 
HETATM   20  C3  UNL     1       7.202   8.689 -13.914  1.00  0.00     0.015 C 
ENDBRANCH  15  18
BRANCH  16  21
HETATM   21  O3  UNL     1      10.822  10.298 -11.952  1.00  0.00    -0.340 OA
ATOM     22  H3  UNL     1      10.427  11.028 -12.412  1.00  0.00     0.220 HD
ENDBRANCH  16  21
ENDBRANCH  12  13
ENDBRANCH   1  12
BRANCH   8  23
HETATM   23  O1  UNL     1      13.844   6.503 -18.673  1.00  0.00    -0.395 OA
ATOM     24  H1  UNL     1      14.636   5.983 -18.739  1.00  0.00     0.210 HD
ENDBRANCH   8  23
TORSDOF 5
ENDMDL
MODEL 5
REMARK VINA RESULT: -7.205986186      2.256      6.231
REMARK  5 active torsions:
REMARK  status: ('A' for Active; 'I' for Inactive)
REMARK    1  A    between atoms: C2_2  and  C4_4 
REMARK    2  A    between atoms: C6_6  and  S1_7 
REMARK    3  A    between atoms: S1_7  and  C7_8 
REMARK    4  A    between atoms: C13_15  and  O1_16 
REMARK    5  A    between atoms: C17_22  and  O3_23 
ROOT
HETATM    1  C7  UNL     1      11.544   5.673 -13.934  1.00  0.00     0.103 C 
HETATM    2  C8  UNL     1      12.423   4.934 -12.996  1.00  0.00     0.022 C 
HETATM    3 CL1  UNL     1      12.053   4.893 -11.310  1.00  0.00    -0.088 Cl
HETATM    4  C9  UNL     1      13.480   4.318 -13.480  1.00  0.00    -0.005 C 
HETATM    5  C10 UNL     1      13.837   4.328 -14.928  1.00  0.00     0.040 C 
HETATM    6  C11 UNL     1      13.054   5.269 -15.763  1.00  0.00    -0.010 C 
HETATM    7  C12 UNL     1      11.988   4.599 -16.588  1.00  0.00     0.018 C 
HETATM    8  C13 UNL     1      13.895   6.117 -16.690  1.00  0.00     0.127 C 
HETATM    9  C14 UNL     1      12.935   7.252 -17.007  1.00  0.00     0.033 C 
HETATM   10  C15 UNL     1      11.918   7.288 -15.864  1.00  0.00     0.009 C 
HETATM   11  C16 UNL     1      12.482   6.356 -14.865  1.00  0.00     0.016 C 
ENDROOT
BRANCH   1  12
HETATM   12  S1  UNL     1      10.337   6.634 -13.099  1.00  0.00    -0.094 SA
BRANCH  12  13
HETATM   13  C6  UNL     1      10.192   8.324 -13.564  1.00  0.00     0.116 A 
HETATM   14  C5  UNL     1       9.237   8.796 -14.445  1.00  0.00     0.057 A 
HETATM   15  C4  UNL     1       9.406  10.149 -14.587  1.00  0.00     0.007 A 
HETATM   16  C17 UNL     1      10.474  10.463 -13.776  1.00  0.00     0.191 A 
HETATM   17  O2  UNL     1      10.895   9.369 -13.203  1.00  0.00    -0.281 OA
BRANCH  15  18
HETATM   18  C2  UNL     1       8.605  11.063 -15.451  1.00  0.00     0.015 C 
HETATM   19  C1  UNL     1       7.269  11.347 -14.755  1.00  0.00     0.015 C 
HETATM   20  C3  UNL     1       8.364  10.421 -16.813  1.00  0.00     0.015 C 
ENDBRANCH  15  18
BRANCH  16  21
HETATM   21  O3  UNL     1      10.961  11.770 -13.647  1.00  0.00    -0.340 OA
ATOM     22  H3  UNL     1      10.961  12.386 -14.370  1.00  0.00     0.220 HD
ENDBRANCH  16  21
ENDBRANCH  12  13
ENDBRANCH   1  12
BRANCH   8  23
HETATM   23  O1  UNL     1      14.262   5.380 -17.796  1.00  0.00    -0.395 OA
ATOM     24  H1  UNL     1      14.897   5.864 -18.311  1.00  0.00     0.210 HD
ENDBRANCH   8  23
TORSDOF 5
ENDMDL
