MODEL 1
REMARK VINA RESULT: -8.185229700      0.000      0.000
REMARK  5 active torsions:
REMARK  status: ('A' for Active; 'I' for Inactive)
REMARK    1  A    between atoms: C1_4  and  O1_5 
REMARK    2  A    between atoms: C1_4  and  C9_15 
REMARK    3  A    between atoms: O1_5  and  N2_6 
REMARK    4  A    between atoms: C9_15  and  C10_16 
REMARK    5  A    between atoms: C20_27  and  N3_28 
ROOT
HETATM    1  C9  UNL     1       9.495   9.207 -14.773  1.00  0.00     0.085 C 
HETATM    2  C16 UNL     1      10.291  10.463 -14.605  1.00  0.00     0.025 C 
HETATM    3  C17 UNL     1       9.829  11.504 -15.611  1.00  0.00     0.002 C 
HETATM    4  C18 UNL     1       8.461  11.911 -15.151  1.00  0.00     0.002 C 
HETATM    5  C19 UNL     1       7.497  10.774 -15.048  1.00  0.00     0.034 C 
HETATM    6  C20 UNL     1       8.059   9.406 -15.123  1.00  0.00     0.204 C 
ENDROOT
BRANCH   1   7
HETATM    7  C1  UNL     1      10.108   8.522 -15.977  1.00  0.00     0.156 C 
HETATM    8  N1  UNL     1       9.543   8.427 -17.100  1.00  0.00    -0.381 N 
ATOM      9  H12 UNL     1       9.954   7.966 -17.911  1.00  0.00     0.158 HD
ATOM     10  H11 UNL     1       8.615   8.823 -17.252  1.00  0.00     0.158 HD
BRANCH   7  11
HETATM   11  O1  UNL     1      11.380   7.979 -15.768  1.00  0.00    -0.224 OA
BRANCH  11  12
HETATM   12  N2  UNL     1      12.281   7.805 -16.768  1.00  0.00    -0.268 N 
HETATM   13  C2  UNL     1      12.576   6.627 -17.186  1.00  0.00     0.010 C 
HETATM   14  C3  UNL     1      13.566   6.483 -18.281  1.00  0.00     0.054 C 
HETATM   15  C8  UNL     1      11.874   5.512 -16.509  1.00  0.00     0.054 C 
HETATM   16  C4  UNL     1      14.662   5.495 -17.938  1.00  0.00     0.006 C 
HETATM   17  C5  UNL     1      15.155   5.668 -16.525  1.00  0.00     0.000 C 
HETATM   18  C6  UNL     1      14.159   5.291 -15.490  1.00  0.00     0.000 C 
HETATM   19  C7  UNL     1      12.962   4.564 -15.996  1.00  0.00     0.006 C 
ATOM     20  H2  UNL     1      12.728   8.618 -17.193  1.00  0.00     0.194 HD
ENDBRANCH  11  12
ENDBRANCH   7  11
ENDBRANCH   1   7
BRANCH   1  21
HETATM   21  C10 UNL     1       9.762   8.325 -13.612  1.00  0.00    -0.001 A 
HETATM   22  C11 UNL     1      10.274   7.046 -13.697  1.00  0.00     0.011 A 
HETATM   23  C12 UNL     1      10.516   6.257 -12.595  1.00  0.00     0.001 A 
HETATM   24  C13 UNL     1      10.250   6.722 -11.325  1.00  0.00     0.003 A 
HETATM   25  C14 UNL     1       9.742   7.985 -11.209  1.00  0.00     0.043 A 
HETATM   26  C15 UNL     1       9.512   8.748 -12.323  1.00  0.00     0.123 A 
HETATM   27  F1  UNL     1       9.021   9.980 -12.112  1.00  0.00    -0.206 F 
ENDBRANCH   1  21
BRANCH   6  28
HETATM   28  N3  UNL     1       7.145   8.514 -14.417  1.00  0.00    -0.074 N 
ATOM     29  H33 UNL     1       7.657   7.742 -13.990  1.00  0.00     0.274 HD
ATOM     30  H32 UNL     1       6.780   8.965 -13.578  1.00  0.00     0.274 HD
ATOM     31  H31 UNL     1       6.381   8.160 -14.993  1.00  0.00     0.274 HD
ENDBRANCH   6  28
TORSDOF 5
ENDMDL
MODEL 2
REMARK VINA RESULT: -7.996921953      2.692      6.085
REMARK  5 active torsions:
REMARK  status: ('A' for Active; 'I' for Inactive)
REMARK    1  A    between atoms: C1_4  and  O1_5 
REMARK    2  A    between atoms: C1_4  and  C9_15 
REMARK    3  A    between atoms: O1_5  and  N2_6 
REMARK    4  A    between atoms: C9_15  and  C10_16 
REMARK    5  A    between atoms: C20_27  and  N3_28 
ROOT
HETATM    1  C9  UNL     1       9.546   9.515 -14.144  1.00  0.00     0.085 C 
HETATM    2  C16 UNL     1       9.798   9.326 -12.681  1.00  0.00     0.025 C 
HETATM    3  C17 UNL     1       8.722  10.033 -11.875  1.00  0.00     0.002 C 
HETATM    4  C18 UNL     1       7.473   9.235 -12.106  1.00  0.00     0.002 C 
HETATM    5  C19 UNL     1       7.096   9.110 -13.546  1.00  0.00     0.034 C 
HETATM    6  C20 UNL     1       8.110   9.516 -14.546  1.00  0.00     0.204 C 
ENDROOT
BRANCH   1   7
HETATM    7  C1  UNL     1      10.045  10.914 -14.441  1.00  0.00     0.156 C 
HETATM    8  N1  UNL     1      11.073  11.424 -13.920  1.00  0.00    -0.381 N 
ATOM      9  H12 UNL     1      11.408  12.366 -14.120  1.00  0.00     0.158 HD
ATOM     10  H11 UNL     1      11.636  10.897 -13.253  1.00  0.00     0.158 HD
BRANCH   7  11
HETATM   11  O1  UNL     1       9.272  11.637 -15.357  1.00  0.00    -0.224 OA
BRANCH  11  12
HETATM   12  N2  UNL     1       9.802  12.557 -16.203  1.00  0.00    -0.268 N 
HETATM   13  C2  UNL     1       9.103  13.559 -16.600  1.00  0.00     0.010 C 
HETATM   14  C3  UNL     1       9.721  14.540 -17.525  1.00  0.00     0.054 C 
HETATM   15  C8  UNL     1       7.719  13.625 -16.075  1.00  0.00     0.054 C 
HETATM   16  C4  UNL     1       8.862  14.798 -18.746  1.00  0.00     0.006 C 
HETATM   17  C5  UNL     1       8.285  13.525 -19.309  1.00  0.00     0.000 C 
HETATM   18  C6  UNL     1       7.272  12.884 -18.433  1.00  0.00     0.000 C 
HETATM   19  C7  UNL     1       6.798  13.720 -17.294  1.00  0.00     0.006 C 
ATOM     20  H2  UNL     1      10.763  12.452 -16.527  1.00  0.00     0.194 HD
ENDBRANCH  11  12
ENDBRANCH   7  11
ENDBRANCH   1   7
BRANCH   1  21
HETATM   21  C10 UNL     1      10.428   8.590 -14.895  1.00  0.00    -0.001 A 
HETATM   22  C11 UNL     1      11.041   8.889 -16.094  1.00  0.00     0.011 A 
HETATM   23  C12 UNL     1      11.861   8.007 -16.761  1.00  0.00     0.001 A 
HETATM   24  C13 UNL     1      12.111   6.753 -16.246  1.00  0.00     0.003 A 
HETATM   25  C14 UNL     1      11.518   6.428 -15.059  1.00  0.00     0.043 A 
HETATM   26  C15 UNL     1      10.707   7.326 -14.417  1.00  0.00     0.123 A 
HETATM   27  F1  UNL     1      10.174   6.924 -13.253  1.00  0.00    -0.206 F 
ENDBRANCH   1  21
BRANCH   6  28
HETATM   28  N3  UNL     1       7.835   8.782 -15.777  1.00  0.00    -0.074 N 
ATOM     29  H33 UNL     1       7.094   9.238 -16.308  1.00  0.00     0.274 HD
ATOM     30  H32 UNL     1       8.608   8.885 -16.435  1.00  0.00     0.274 HD
ATOM     31  H31 UNL     1       7.618   7.796 -15.634  1.00  0.00     0.274 HD
ENDBRANCH   6  28
TORSDOF 5
ENDMDL
MODEL 3
REMARK VINA RESULT: -7.903743205      2.359      4.685
REMARK  5 active torsions:
REMARK  status: ('A' for Active; 'I' for Inactive)
REMARK    1  A    between atoms: C1_4  and  O1_5 
REMARK    2  A    between atoms: C1_4  and  C9_15 
REMARK    3  A    between atoms: O1_5  and  N2_6 
REMARK    4  A    between atoms: C9_15  and  C10_16 
REMARK    5  A    between atoms: C20_27  and  N3_28 
ROOT
HETATM    1  C9  UNL     1       8.349  10.568 -15.618  1.00  0.00     0.085 C 
HETATM    2  C16 UNL     1       7.188  10.678 -14.681  1.00  0.00     0.025 C 
HETATM    3  C17 UNL     1       7.569  10.124 -13.318  1.00  0.00     0.002 C 
HETATM    4  C18 UNL     1       8.548  11.111 -12.755  1.00  0.00     0.002 C 
HETATM    5  C19 UNL     1       9.747  11.331 -13.620  1.00  0.00     0.034 C 
HETATM    6  C20 UNL     1       9.688  10.799 -15.001  1.00  0.00     0.204 C 
ENDROOT
BRANCH   1   7
HETATM    7  C1  UNL     1       8.356   9.117 -16.052  1.00  0.00     0.156 C 
HETATM    8  N1  UNL     1       7.317   8.448 -16.299  1.00  0.00    -0.381 N 
ATOM      9  H12 UNL     1       7.321   7.471 -16.591  1.00  0.00     0.158 HD
ATOM     10  H11 UNL     1       6.392   8.870 -16.215  1.00  0.00     0.158 HD
BRANCH   7  11
HETATM   11  O1  UNL     1       9.625   8.538 -16.168  1.00  0.00    -0.224 OA
BRANCH  11  12
HETATM   12  N2  UNL     1      10.129   7.677 -15.248  1.00  0.00    -0.268 N 
HETATM   13  C2  UNL     1      11.380   7.388 -15.239  1.00  0.00     0.010 C 
HETATM   14  C3  UNL     1      11.888   6.443 -14.215  1.00  0.00     0.054 C 
HETATM   15  C8  UNL     1      12.199   8.050 -16.281  1.00  0.00     0.054 C 
HETATM   16  C4  UNL     1      12.708   5.323 -14.824  1.00  0.00     0.006 C 
HETATM   17  C5  UNL     1      12.071   4.774 -16.075  1.00  0.00     0.000 C 
HETATM   18  C6  UNL     1      12.073   5.722 -17.217  1.00  0.00     0.000 C 
HETATM   19  C7  UNL     1      12.923   6.932 -17.037  1.00  0.00     0.006 C 
ATOM     20  H2  UNL     1       9.508   7.256 -14.556  1.00  0.00     0.194 HD
ENDBRANCH  11  12
ENDBRANCH   7  11
ENDBRANCH   1   7
BRANCH   1  21
HETATM   21  C10 UNL     1       8.049  11.364 -16.831  1.00  0.00    -0.001 A 
HETATM   22  C11 UNL     1       8.032  10.863 -18.117  1.00  0.00     0.011 A 
HETATM   23  C12 UNL     1       7.742  11.632 -19.221  1.00  0.00     0.001 A 
HETATM   24  C13 UNL     1       7.448  12.972 -19.087  1.00  0.00     0.003 A 
HETATM   25  C14 UNL     1       7.457  13.498 -17.826  1.00  0.00     0.043 A 
HETATM   26  C15 UNL     1       7.750  12.709 -16.745  1.00  0.00     0.123 A 
HETATM   27  F1  UNL     1       7.727  13.308 -15.544  1.00  0.00    -0.206 F 
ENDBRANCH   1  21
BRANCH   6  28
HETATM   28  N3  UNL     1      10.591  11.600 -15.822  1.00  0.00    -0.074 N 
ATOM     29  H33 UNL     1      11.299  12.049 -15.240  1.00  0.00     0.274 HD
ATOM     30  H32 UNL     1      11.189  10.997 -16.388  1.00  0.00     0.274 HD
ATOM     31  H31 UNL     1      10.121  12.289 -16.408  1.00  0.00     0.274 HD
ENDBRANCH   6  28
TORSDOF 5
ENDMDL
MODEL 4
REMARK VINA RESULT: -7.817180752      1.659      3.718
REMARK  5 active torsions:
REMARK  status: ('A' for Active; 'I' for Inactive)
REMARK    1  A    between atoms: C1_4  and  O1_5 
REMARK    2  A    between atoms: C1_4  and  C9_15 
REMARK    3  A    between atoms: O1_5  and  N2_6 
REMARK    4  A    between atoms: C9_15  and  C10_16 
REMARK    5  A    between atoms: C20_27  and  N3_28 
ROOT
HETATM    1  C9  UNL     1       9.322   9.641 -13.983  1.00  0.00     0.085 C 
HETATM    2  C16 UNL     1       7.962   9.034 -13.845  1.00  0.00     0.025 C 
HETATM    3  C17 UNL     1       8.084   7.590 -13.386  1.00  0.00     0.002 C 
HETATM    4  C18 UNL     1       8.560   7.671 -11.966  1.00  0.00     0.002 C 
HETATM    5  C19 UNL     1       9.845   8.416 -11.803  1.00  0.00     0.034 C 
HETATM    6  C20 UNL     1      10.320   9.202 -12.965  1.00  0.00     0.204 C 
ENDROOT
BRANCH   1   7
HETATM    7  C1  UNL     1       9.845   9.116 -15.305  1.00  0.00     0.156 C 
HETATM    8  N1  UNL     1       9.221   9.204 -16.396  1.00  0.00    -0.381 N 
ATOM      9  H12 UNL     1       9.572   8.851 -17.286  1.00  0.00     0.158 HD
ATOM     10  H11 UNL     1       8.305   9.650 -16.439  1.00  0.00     0.158 HD
BRANCH   7  11
HETATM   11  O1  UNL     1      11.102   8.505 -15.245  1.00  0.00    -0.224 OA
BRANCH  11  12
HETATM   12  N2  UNL     1      11.531   7.610 -16.171  1.00  0.00    -0.268 N 
HETATM   13  C2  UNL     1      11.694   6.375 -15.861  1.00  0.00     0.010 C 
HETATM   14  C3  UNL     1      12.166   5.432 -16.904  1.00  0.00     0.054 C 
HETATM   15  C8  UNL     1      11.385   6.019 -14.456  1.00  0.00     0.054 C 
HETATM   16  C4  UNL     1      13.358   4.617 -16.446  1.00  0.00     0.006 C 
HETATM   17  C5  UNL     1      14.369   5.460 -15.712  1.00  0.00     0.000 C 
HETATM   18  C6  UNL     1      13.896   5.956 -14.395  1.00  0.00     0.000 C 
HETATM   19  C7  UNL     1      12.637   5.336 -13.897  1.00  0.00     0.006 C 
ATOM     20  H2  UNL     1      11.725   7.921 -17.123  1.00  0.00     0.194 HD
ENDBRANCH  11  12
ENDBRANCH   7  11
ENDBRANCH   1   7
BRANCH   1  21
HETATM   21  C10 UNL     1       9.167  11.105 -14.149  1.00  0.00    -0.001 A 
HETATM   22  C11 UNL     1       9.685  11.837 -15.197  1.00  0.00     0.011 A 
HETATM   23  C12 UNL     1       9.515  13.198 -15.322  1.00  0.00     0.001 A 
HETATM   24  C13 UNL     1       8.802  13.907 -14.380  1.00  0.00     0.003 A 
HETATM   25  C14 UNL     1       8.276  13.209 -13.329  1.00  0.00     0.043 A 
HETATM   26  C15 UNL     1       8.461  11.856 -13.230  1.00  0.00     0.123 A 
HETATM   27  F1  UNL     1       7.902  11.252 -12.169  1.00  0.00    -0.206 F 
ENDBRANCH   1  21
BRANCH   6  28
HETATM   28  N3  UNL     1      11.163  10.279 -12.455  1.00  0.00    -0.074 N 
ATOM     29  H33 UNL     1      11.832  10.576 -13.165  1.00  0.00     0.274 HD
ATOM     30  H32 UNL     1      10.624  11.139 -12.354  1.00  0.00     0.274 HD
ATOM     31  H31 UNL     1      11.643  10.055 -11.583  1.00  0.00     0.274 HD
ENDBRANCH   6  28
TORSDOF 5
ENDMDL
MODEL 5
REMARK VINA RESULT: -7.544148208      2.453      6.174
REMARK  5 active torsions:
REMARK  status: ('A' for Active; 'I' for Inactive)
REMARK    1  A    between atoms: C1_4  and  O1_5 
REMARK    2  A    between atoms: C1_4  and  C9_15 
REMARK    3  A    between atoms: O1_5  and  N2_6 
REMARK    4  A    between atoms: C9_15  and  C10_16 
REMARK    5  A    between atoms: C20_27  and  N3_28 
ROOT
HETATM    1  C9  UNL     1       9.768   9.670 -13.883  1.00  0.00     0.085 C 
HETATM    2  C16 UNL     1      10.486  10.353 -12.763  1.00  0.00     0.025 C 
HETATM    3  C17 UNL     1       9.632  11.484 -12.215  1.00  0.00     0.002 C 
HETATM    4  C18 UNL     1       8.490  10.808 -11.517  1.00  0.00     0.002 C 
HETATM    5  C19 UNL     1       7.702   9.894 -12.399  1.00  0.00     0.034 C 
HETATM    6  C20 UNL     1       8.291   9.552 -13.714  1.00  0.00     0.204 C 
ENDROOT
BRANCH   1   7
HETATM    7  C1  UNL     1       9.961  10.583 -15.077  1.00  0.00     0.156 C 
HETATM    8  N1  UNL     1      11.085  10.892 -15.556  1.00  0.00    -0.381 N 
ATOM      9  H12 UNL     1      11.215  11.508 -16.359  1.00  0.00     0.158 HD
ATOM     10  H11 UNL     1      11.945  10.527 -15.147  1.00  0.00     0.158 HD
BRANCH   7  11
HETATM   11  O1  UNL     1       8.781  11.084 -15.637  1.00  0.00    -0.224 OA
BRANCH  11  12
HETATM   12  N2  UNL     1       8.771  11.996 -16.642  1.00  0.00    -0.268 N 
HETATM   13  C2  UNL     1       8.648  13.248 -16.387  1.00  0.00     0.010 C 
HETATM   14  C3  UNL     1       8.642  14.211 -17.516  1.00  0.00     0.054 C 
HETATM   15  C8  UNL     1       8.522  13.603 -14.954  1.00  0.00     0.054 C 
HETATM   16  C4  UNL     1       7.459  15.155 -17.460  1.00  0.00     0.006 C 
HETATM   17  C5  UNL     1       6.181  14.439 -17.103  1.00  0.00     0.000 C 
HETATM   18  C6  UNL     1       6.148  13.927 -15.709  1.00  0.00     0.000 C 
HETATM   19  C7  UNL     1       7.237  14.426 -14.823  1.00  0.00     0.006 C 
ATOM     20  H2  UNL     1       8.863  11.684 -17.609  1.00  0.00     0.194 HD
ENDBRANCH  11  12
ENDBRANCH   7  11
ENDBRANCH   1   7
BRANCH   1  21
HETATM   21  C10 UNL     1      10.485   8.412 -14.202  1.00  0.00    -0.001 A 
HETATM   22  C11 UNL     1      10.892   8.037 -15.466  1.00  0.00     0.011 A 
HETATM   23  C12 UNL     1      11.563   6.863 -15.724  1.00  0.00     0.001 A 
HETATM   24  C13 UNL     1      11.865   5.987 -14.703  1.00  0.00     0.003 A 
HETATM   25  C14 UNL     1      11.475   6.331 -13.439  1.00  0.00     0.043 A 
HETATM   26  C15 UNL     1      10.809   7.506 -13.212  1.00  0.00     0.123 A 
HETATM   27  F1  UNL     1      10.472   7.766 -11.939  1.00  0.00    -0.206 F 
ENDBRANCH   1  21
BRANCH   6  28
HETATM   28  N3  UNL     1       7.745   8.261 -14.120  1.00  0.00    -0.074 N 
ATOM     29  H33 UNL     1       7.966   8.072 -15.098  1.00  0.00     0.274 HD
ATOM     30  H32 UNL     1       8.258   7.500 -13.676  1.00  0.00     0.274 HD
ATOM     31  H31 UNL     1       6.744   8.162 -13.955  1.00  0.00     0.274 HD
ENDBRANCH   6  28
TORSDOF 5
ENDMDL
