MODEL 1
REMARK VINA RESULT: -7.983299449      0.000      0.000
REMARK  3 active torsions:
REMARK  status: ('A' for Active; 'I' for Inactive)
REMARK    1  A    between atoms: C5_5  and  N1_6 
REMARK    2  A    between atoms: N1_6  and  C6_8 
REMARK    3  A    between atoms: C15_21  and  N3_22 
ROOT
HETATM    1  C6  UNL     1      10.345   9.181 -14.312  1.00  0.00     0.125 C 
HETATM    2  C7  UNL     1      10.181  10.127 -15.461  1.00  0.00     0.058 C 
HETATM    3  C8  UNL     1       8.881  10.744 -15.722  1.00  0.00     0.021 C 
HETATM    4  C9  UNL     1       8.357  10.355 -17.119  1.00  0.00     0.037 C 
HETATM    5  C10 UNL     1       8.981  12.278 -15.786  1.00  0.00     0.037 C 
HETATM    6  N2  UNL     1       7.825  10.442 -14.839  1.00  0.00    -0.402 N 
ATOM      7  H2  UNL     1       6.860  10.439 -15.169  1.00  0.00     0.154 HD
HETATM    8  C11 UNL     1       8.119  10.147 -13.509  1.00  0.00     0.056 C 
HETATM    9  C12 UNL     1       6.858   9.440 -12.966  1.00  0.00     0.041 C 
HETATM   10  C13 UNL     1       8.155  11.462 -12.727  1.00  0.00     0.041 C 
HETATM   11  C14 UNL     1       9.313   9.304 -13.235  1.00  0.00     0.157 C 
HETATM   12 CL1  UNL     1       9.998   9.921 -11.700  1.00  0.00    -0.097 Cl
HETATM   13 CL2  UNL     1       8.735   7.664 -12.834  1.00  0.00    -0.097 Cl
ENDROOT
BRANCH   1  14
HETATM   14  N1  UNL     1      10.454   7.827 -14.858  1.00  0.00    -0.380 N 
ATOM     15  H1  UNL     1       9.644   7.502 -15.386  1.00  0.00     0.160 HD
BRANCH  14  16
HETATM   16  C5  UNL     1      11.494   6.933 -14.760  1.00  0.00     0.061 A 
HETATM   17  C4  UNL     1      11.774   6.306 -13.566  1.00  0.00     0.032 A 
HETATM   18  C3  UNL     1      12.854   5.448 -13.424  1.00  0.00     0.009 A 
HETATM   19  C2  UNL     1      13.683   5.200 -14.486  1.00  0.00    -0.059 A 
HETATM   20  C1  UNL     1      14.866   4.273 -14.360  1.00  0.00     0.048 C 
HETATM   21  C16 UNL     1      13.426   5.807 -15.669  1.00  0.00     0.045 A 
HETATM   22  C15 UNL     1      12.334   6.677 -15.821  1.00  0.00     0.129 A 
BRANCH  22  23
HETATM   23  N3  UNL     1      12.198   7.223 -17.109  1.00  0.00    -0.113 N 
HETATM   24  O1  UNL     1      11.235   7.843 -17.575  1.00  0.00    -0.532 OA
HETATM   25  O2  UNL     1      13.254   7.040 -17.999  1.00  0.00    -0.532 OA
ENDBRANCH  22  23
ENDBRANCH  14  16
ENDBRANCH   1  14
TORSDOF 3
ENDMDL
MODEL 2
REMARK VINA RESULT: -7.791689672      1.853      2.288
REMARK  3 active torsions:
REMARK  status: ('A' for Active; 'I' for Inactive)
REMARK    1  A    between atoms: C5_5  and  N1_6 
REMARK    2  A    between atoms: N1_6  and  C6_8 
REMARK    3  A    between atoms: C15_21  and  N3_22 
ROOT
HETATM    1  C6  UNL     1      10.335   9.131 -14.338  1.00  0.00     0.125 C 
HETATM    2  C7  UNL     1      10.176  10.145 -15.428  1.00  0.00     0.058 C 
HETATM    3  C8  UNL     1       8.875  10.767 -15.667  1.00  0.00     0.021 C 
HETATM    4  C9  UNL     1       8.372  10.460 -17.092  1.00  0.00     0.037 C 
HETATM    5  C10 UNL     1       8.962  12.302 -15.634  1.00  0.00     0.037 C 
HETATM    6  N2  UNL     1       7.811  10.402 -14.819  1.00  0.00    -0.402 N 
ATOM      7  H2  UNL     1       6.850  10.412 -15.160  1.00  0.00     0.154 HD
HETATM    8  C11 UNL     1       8.091  10.027 -13.505  1.00  0.00     0.056 C 
HETATM    9  C12 UNL     1       6.830   9.279 -13.023  1.00  0.00     0.041 C 
HETATM   10  C13 UNL     1       8.106  11.292 -12.643  1.00  0.00     0.041 C 
HETATM   11  C14 UNL     1       9.288   9.179 -13.268  1.00  0.00     0.157 C 
HETATM   12 CL1  UNL     1       9.949   9.705 -11.690  1.00  0.00    -0.097 Cl
HETATM   13 CL2  UNL     1       8.720   7.513 -12.977  1.00  0.00    -0.097 Cl
ENDROOT
BRANCH   1  14
HETATM   14  N1  UNL     1      10.462   7.815 -14.964  1.00  0.00    -0.380 N 
ATOM     15  H1  UNL     1       9.614   7.249 -14.971  1.00  0.00     0.160 HD
BRANCH  14  16
HETATM   16  C5  UNL     1      11.565   7.233 -15.545  1.00  0.00     0.061 A 
HETATM   17  C4  UNL     1      11.920   7.535 -16.841  1.00  0.00     0.032 A 
HETATM   18  C3  UNL     1      12.989   6.916 -17.471  1.00  0.00     0.009 A 
HETATM   19  C2  UNL     1      13.731   5.975 -16.808  1.00  0.00    -0.059 A 
HETATM   20  C1  UNL     1      14.899   5.285 -17.469  1.00  0.00     0.048 C 
HETATM   21  C16 UNL     1      13.399   5.664 -15.533  1.00  0.00     0.045 A 
HETATM   22  C15 UNL     1      12.317   6.285 -14.887  1.00  0.00     0.129 A 
BRANCH  22  23
HETATM   23  N3  UNL     1      12.104   5.858 -13.566  1.00  0.00    -0.113 N 
HETATM   24  O1  UNL     1      11.786   6.545 -12.586  1.00  0.00    -0.532 OA
HETATM   25  O2  UNL     1      12.285   4.505 -13.290  1.00  0.00    -0.532 OA
ENDBRANCH  22  23
ENDBRANCH  14  16
ENDBRANCH   1  14
TORSDOF 3
ENDMDL
MODEL 3
REMARK VINA RESULT: -7.496581141      2.456      3.183
REMARK  3 active torsions:
REMARK  status: ('A' for Active; 'I' for Inactive)
REMARK    1  A    between atoms: C5_5  and  N1_6 
REMARK    2  A    between atoms: N1_6  and  C6_8 
REMARK    3  A    between atoms: C15_21  and  N3_22 
ROOT
HETATM    1  C6  UNL     1      10.568   8.324 -12.259  1.00  0.00     0.125 C 
HETATM    2  C7  UNL     1      10.920   9.768 -12.073  1.00  0.00     0.058 C 
HETATM    3  C8  UNL     1       9.969  10.677 -11.434  1.00  0.00     0.021 C 
HETATM    4  C9  UNL     1       9.566  11.814 -12.393  1.00  0.00     0.037 C 
HETATM    5  C10 UNL     1      10.600  11.414 -10.240  1.00  0.00     0.037 C 
HETATM    6  N2  UNL     1       8.751  10.134 -10.979  1.00  0.00    -0.402 N 
ATOM      7  H2  UNL     1       7.907  10.706 -10.954  1.00  0.00     0.154 HD
HETATM    8  C11 UNL     1       8.716   8.803 -10.564  1.00  0.00     0.056 C 
HETATM    9  C12 UNL     1       7.222   8.417 -10.578  1.00  0.00     0.041 C 
HETATM   10  C13 UNL     1       9.082   8.759  -9.079  1.00  0.00     0.041 C 
HETATM   11  C14 UNL     1       9.489   7.811 -11.357  1.00  0.00     0.157 C 
HETATM   12 CL1  UNL     1      10.099   6.615 -10.172  1.00  0.00    -0.097 Cl
HETATM   13 CL2  UNL     1       8.327   6.894 -12.353  1.00  0.00    -0.097 Cl
ENDROOT
BRANCH   1  14
HETATM   14  N1  UNL     1      10.288   8.110 -13.679  1.00  0.00    -0.380 N 
ATOM     15  H1  UNL     1       9.485   8.619 -14.048  1.00  0.00     0.160 HD
BRANCH  14  16
HETATM   16  C5  UNL     1      10.953   7.319 -14.585  1.00  0.00     0.061 A 
HETATM   17  C4  UNL     1      11.676   6.223 -14.169  1.00  0.00     0.032 A 
HETATM   18  C3  UNL     1      12.407   5.446 -15.054  1.00  0.00     0.009 A 
HETATM   19  C2  UNL     1      12.428   5.755 -16.388  1.00  0.00    -0.059 A 
HETATM   20  C1  UNL     1      13.216   4.929 -17.375  1.00  0.00     0.048 C 
HETATM   21  C16 UNL     1      11.725   6.829 -16.820  1.00  0.00     0.045 A 
HETATM   22  C15 UNL     1      10.982   7.621 -15.930  1.00  0.00     0.129 A 
BRANCH  22  23
HETATM   23  N3  UNL     1      10.303   8.695 -16.531  1.00  0.00    -0.113 N 
HETATM   24  O1  UNL     1       9.618   8.681 -17.561  1.00  0.00    -0.532 OA
HETATM   25  O2  UNL     1      10.416   9.945 -15.928  1.00  0.00    -0.532 OA
ENDBRANCH  22  23
ENDBRANCH  14  16
ENDBRANCH   1  14
TORSDOF 3
ENDMDL
MODEL 4
REMARK VINA RESULT: -7.396784594      6.012      7.235
REMARK  3 active torsions:
REMARK  status: ('A' for Active; 'I' for Inactive)
REMARK    1  A    between atoms: C5_5  and  N1_6 
REMARK    2  A    between atoms: N1_6  and  C6_8 
REMARK    3  A    between atoms: C15_21  and  N3_22 
ROOT
HETATM    1  C6  UNL     1      11.356   5.135  -8.432  1.00  0.00     0.125 C 
HETATM    2  C7  UNL     1      10.891   6.557  -8.493  1.00  0.00     0.058 C 
HETATM    3  C8  UNL     1       9.686   6.966  -7.773  1.00  0.00     0.021 C 
HETATM    4  C9  UNL     1       8.620   7.506  -8.747  1.00  0.00     0.037 C 
HETATM    5  C10 UNL     1       9.958   8.155  -6.835  1.00  0.00     0.037 C 
HETATM    6  N2  UNL     1       9.020   5.989  -7.007  1.00  0.00    -0.402 N 
ATOM      7  H2  UNL     1       8.011   6.041  -6.866  1.00  0.00     0.154 HD
HETATM    8  C11 UNL     1       9.760   4.949  -6.445  1.00  0.00     0.056 C 
HETATM    9  C12 UNL     1       8.722   3.862  -6.093  1.00  0.00     0.041 C 
HETATM   10  C13 UNL     1      10.268   5.413  -5.079  1.00  0.00     0.041 C 
HETATM   11  C14 UNL     1      10.843   4.348  -7.267  1.00  0.00     0.157 C 
HETATM   12 CL1  UNL     1      12.140   3.913  -6.112  1.00  0.00    -0.097 Cl
HETATM   13 CL2  UNL     1      10.250   2.780  -7.878  1.00  0.00    -0.097 Cl
ENDROOT
BRANCH   1  14
HETATM   14  N1  UNL     1      11.066   4.513  -9.724  1.00  0.00    -0.380 N 
ATOM     15  H1  UNL     1      10.495   3.668  -9.685  1.00  0.00     0.160 HD
BRANCH  14  16
HETATM   16  C5  UNL     1      11.453   4.906 -10.983  1.00  0.00     0.061 A 
HETATM   17  C4  UNL     1      10.697   5.801 -11.707  1.00  0.00     0.032 A 
HETATM   18  C3  UNL     1      11.032   6.166 -13.002  1.00  0.00     0.009 A 
HETATM   19  C2  UNL     1      12.142   5.636 -13.604  1.00  0.00    -0.059 A 
HETATM   20  C1  UNL     1      12.530   6.014 -15.012  1.00  0.00     0.048 C 
HETATM   21  C16 UNL     1      12.901   4.754 -12.910  1.00  0.00     0.045 A 
HETATM   22  C15 UNL     1      12.569   4.379 -11.598  1.00  0.00     0.129 A 
BRANCH  22  23
HETATM   23  N3  UNL     1      13.455   3.460 -11.012  1.00  0.00    -0.113 N 
HETATM   24  O1  UNL     1      13.221   2.646 -10.110  1.00  0.00    -0.532 OA
HETATM   25  O2  UNL     1      14.772   3.457 -11.467  1.00  0.00    -0.532 OA
ENDBRANCH  22  23
ENDBRANCH  14  16
ENDBRANCH   1  14
TORSDOF 3
ENDMDL
MODEL 5
REMARK VINA RESULT: -7.372081007      2.621      3.650
REMARK  3 active torsions:
REMARK  status: ('A' for Active; 'I' for Inactive)
REMARK    1  A    between atoms: C5_5  and  N1_6 
REMARK    2  A    between atoms: N1_6  and  C6_8 
REMARK    3  A    between atoms: C15_21  and  N3_22 
ROOT
HETATM    1  C6  UNL     1       9.026   8.895 -14.445  1.00  0.00     0.125 C 
HETATM    2  C7  UNL     1       8.217   8.600 -13.219  1.00  0.00     0.058 C 
HETATM    3  C8  UNL     1       7.863   9.678 -12.298  1.00  0.00     0.021 C 
HETATM    4  C9  UNL     1       8.448   9.418 -10.896  1.00  0.00     0.037 C 
HETATM    5  C10 UNL     1       6.346   9.745 -12.053  1.00  0.00     0.037 C 
HETATM    6  N2  UNL     1       8.278  10.983 -12.630  1.00  0.00    -0.402 N 
ATOM      7  H2  UNL     1       8.479  11.665 -11.898  1.00  0.00     0.154 HD
HETATM    8  C11 UNL     1       8.411  11.330 -13.975  1.00  0.00     0.056 C 
HETATM    9  C12 UNL     1       9.286  12.602 -13.977  1.00  0.00     0.041 C 
HETATM   10  C13 UNL     1       7.053  11.830 -14.472  1.00  0.00     0.041 C 
HETATM   11  C14 UNL     1       9.004  10.323 -14.893  1.00  0.00     0.157 C 
HETATM   12 CL1  UNL     1       8.156  10.536 -16.455  1.00  0.00    -0.097 Cl
HETATM   13 CL2  UNL     1      10.683  10.822 -15.229  1.00  0.00    -0.097 Cl
ENDROOT
BRANCH   1  14
HETATM   14  N1  UNL     1      10.376   8.377 -14.226  1.00  0.00    -0.380 N 
ATOM     15  H1  UNL     1      10.871   8.769 -13.425  1.00  0.00     0.160 HD
BRANCH  14  16
HETATM   16  C5  UNL     1      11.073   7.436 -14.948  1.00  0.00     0.061 A 
HETATM   17  C4  UNL     1      11.229   7.566 -16.310  1.00  0.00     0.032 A 
HETATM   18  C3  UNL     1      11.872   6.600 -17.070  1.00  0.00     0.009 A 
HETATM   19  C2  UNL     1      12.377   5.475 -16.474  1.00  0.00    -0.059 A 
HETATM   20  C1  UNL     1      13.080   4.408 -17.275  1.00  0.00     0.048 C 
HETATM   21  C16 UNL     1      12.235   5.328 -15.135  1.00  0.00     0.045 A 
HETATM   22  C15 UNL     1      11.584   6.300 -14.358  1.00  0.00     0.129 A 
BRANCH  22  23
HETATM   23  N3  UNL     1      11.522   6.004 -12.985  1.00  0.00    -0.113 N 
HETATM   24  O1  UNL     1      10.911   6.619 -12.102  1.00  0.00    -0.532 OA
HETATM   25  O2  UNL     1      12.243   4.903 -12.532  1.00  0.00    -0.532 OA
ENDBRANCH  22  23
ENDBRANCH  14  16
ENDBRANCH   1  14
TORSDOF 3
ENDMDL
