MODEL 1
REMARK VINA RESULT: -6.454730715      0.000      0.000
REMARK  14 active torsions:
REMARK  status: ('A' for Active; 'I' for Inactive)
REMARK    1  A    between atoms: O1_2  and  C2_3 
REMARK    2  A    between atoms: C2_3  and  O2_4 
REMARK    3  A    between atoms: O2_4  and  C3_5 
REMARK    4  A    between atoms: C5_8  and  C6_9 
REMARK    5  A    between atoms: C6_9  and  O4_10 
REMARK    6  A    between atoms: C10_16  and  S1_17 
REMARK    7  A    between atoms: S1_17  and  C11_18 
REMARK    8  A    between atoms: C13_26  and  C14_27 
REMARK       I    between atoms: N5_30  and  C15_31 
REMARK       I    between atoms: C15_31  and  N6_33 
REMARK    9  A    between atoms: N6_33  and  S2_35 
REMARK   10  A    between atoms: S2_35  and  N7_38 
REMARK   11  A    between atoms: N7_38  and  C16_40 
REMARK   12  A    between atoms: C16_40  and  C17_41 
REMARK   13  A    between atoms: C17_41  and  N8_42 
REMARK   14  A    between atoms: C18_46  and  C19_47 
ROOT
HETATM    1  C2  UNL     1     -64.342  27.230 -34.823  1.00  0.00     0.217 C 
HETATM    2  C5  UNL     1     -64.317  25.741 -34.545  1.00  0.00     0.210 C 
HETATM    3  O5  UNL     1     -64.529  25.545 -33.220  1.00  0.00    -0.363 OA
HETATM    4  C7  UNL     1     -64.175  26.701 -32.505  1.00  0.00     0.114 C 
HETATM    5  C8  UNL     1     -65.367  26.951 -31.563  1.00  0.00     0.079 C 
HETATM    6  C9  UNL     1     -65.575  25.764 -30.701  1.00  0.00    -0.037 C 
HETATM    7  C10 UNL     1     -66.665  25.052 -30.649  1.00  0.00     0.059 C 
HETATM    8  C13 UNL     1     -64.373  25.435 -29.847  1.00  0.00     0.221 C 
HETATM    9  N5  UNL     1     -63.134  25.805 -30.445  1.00  0.00    -0.297 N 
HETATM   10  C15 UNL     1     -61.943  25.438 -29.745  1.00  0.00     0.335 C 
HETATM   11  O8  UNL     1     -60.827  25.791 -30.273  1.00  0.00    -0.246 OA
HETATM   12  N6  UNL     1     -61.862  24.733 -28.539  1.00  0.00    -0.219 N 
ATOM     13  H6  UNL     1     -62.700  24.409 -28.056  1.00  0.00     0.185 HD
HETATM   14  C18 UNL     1     -62.924  26.461 -31.732  1.00  0.00     0.227 C 
HETATM   15  C20 UNL     1     -64.195  27.831 -33.484  1.00  0.00     0.161 C 
HETATM   16  S3  UNL     1     -65.497  29.073 -33.085  1.00  0.00    -0.083 SA
ENDROOT
BRANCH   8  17
HETATM   17  C14 UNL     1     -64.605  26.167 -28.584  1.00  0.00     0.201 C 
HETATM   18  O6  UNL     1     -64.787  25.621 -27.477  1.00  0.00    -0.646 OA
HETATM   19  O7  UNL     1     -64.633  27.569 -28.568  1.00  0.00    -0.646 OA
ENDBRANCH   8  17
BRANCH  14  20
HETATM   20  C19 UNL     1     -62.039  27.602 -31.520  1.00  0.00     0.200 C 
HETATM   21  O11 UNL     1     -60.978  27.731 -32.226  1.00  0.00    -0.646 OA
HETATM   22  O12 UNL     1     -62.232  28.599 -30.600  1.00  0.00    -0.646 OA
ENDBRANCH  14  20
BRANCH  12  23
HETATM   23  S2  UNL     1     -60.264  24.434 -27.898  1.00  0.00     0.322 S 
HETATM   24  O9  UNL     1     -60.389  23.560 -26.655  1.00  0.00    -0.182 OA
HETATM   25  O10 UNL     1     -59.416  23.676 -28.875  1.00  0.00    -0.182 OA
BRANCH  23  26
HETATM   26  N7  UNL     1     -59.450  25.872 -27.462  1.00  0.00    -0.301 N 
ATOM     27  H7  UNL     1     -58.472  26.050 -27.687  1.00  0.00     0.173 HD
BRANCH  26  28
HETATM   28  C16 UNL     1     -60.279  26.810 -26.746  1.00  0.00     0.161 C 
BRANCH  28  29
HETATM   29  C17 UNL     1     -60.423  28.109 -27.503  1.00  0.00     0.250 C 
BRANCH  29  30
HETATM   30  N8  UNL     1     -61.830  28.441 -27.656  1.00  0.00    -0.078 N 
ATOM     31  H83 UNL     1     -62.055  28.722 -28.610  1.00  0.00     0.274 HD
ATOM     32  H82 UNL     1     -62.426  27.615 -27.601  1.00  0.00     0.274 HD
ATOM     33  H81 UNL     1     -62.096  29.151 -26.975  1.00  0.00     0.274 HD
ENDBRANCH  29  30
ENDBRANCH  28  29
ENDBRANCH  26  28
ENDBRANCH  23  26
ENDBRANCH  12  23
BRANCH   7  34
HETATM   34  S1  UNL     1     -68.090  25.442 -31.651  1.00  0.00    -0.063 SA
BRANCH  34  35
HETATM   35  C11 UNL     1     -67.935  24.856 -33.320  1.00  0.00     0.179 A 
HETATM   36  N1  UNL     1     -67.619  23.621 -33.763  1.00  0.00    -0.261 N 
HETATM   37  N2  UNL     1     -67.618  23.601 -35.097  1.00  0.00    -0.005 NA
ATOM     38  H1  UNL     1     -67.412  22.821 -33.166  1.00  0.00     0.186 HD
HETATM   39  N3  UNL     1     -67.938  24.837 -35.481  1.00  0.00    -0.223 N 
HETATM   40  N4  UNL     1     -68.130  25.599 -34.421  1.00  0.00    -0.261 N 
ATOM     41  H3  UNL     1     -68.023  25.147 -36.449  1.00  0.00     0.206 HD
HETATM   42  C12 UNL     1     -68.484  26.982 -34.466  1.00  0.00     0.181 C 
ENDBRANCH  34  35
ENDBRANCH   7  34
BRANCH   2  43
HETATM   43  C6  UNL     1     -63.076  25.060 -35.069  1.00  0.00     0.201 C 
BRANCH  43  44
HETATM   44  O4  UNL     1     -63.464  24.007 -35.942  1.00  0.00    -0.398 OA
ATOM     45  H4  UNL     1     -62.719  23.434 -36.081  1.00  0.00     0.209 HD
ENDBRANCH  43  44
ENDBRANCH   2  43
BRANCH   1  46
HETATM   46  O1  UNL     1     -63.112  27.484 -35.514  1.00  0.00    -0.356 OA
HETATM   47  C1  UNL     1     -62.624  28.746 -35.219  1.00  0.00     0.205 C 
ENDBRANCH   1  46
BRANCH   1  48
HETATM   48  O2  UNL     1     -65.290  27.627 -35.705  1.00  0.00    -0.279 OA
BRANCH  48  49
HETATM   49  C3  UNL     1     -65.588  27.415 -36.994  1.00  0.00     0.257 C 
HETATM   50  C4  UNL     1     -65.258  28.382 -38.097  1.00  0.00     0.126 C 
HETATM   51  O3  UNL     1     -66.176  26.334 -37.246  1.00  0.00    -0.266 OA
ENDBRANCH  48  49
ENDBRANCH   1  48
TORSDOF 14
ENDMDL
MODEL 2
REMARK VINA RESULT: -6.317337850      2.623      8.214
REMARK  14 active torsions:
REMARK  status: ('A' for Active; 'I' for Inactive)
REMARK    1  A    between atoms: O1_2  and  C2_3 
REMARK    2  A    between atoms: C2_3  and  O2_4 
REMARK    3  A    between atoms: O2_4  and  C3_5 
REMARK    4  A    between atoms: C5_8  and  C6_9 
REMARK    5  A    between atoms: C6_9  and  O4_10 
REMARK    6  A    between atoms: C10_16  and  S1_17 
REMARK    7  A    between atoms: S1_17  and  C11_18 
REMARK    8  A    between atoms: C13_26  and  C14_27 
REMARK       I    between atoms: N5_30  and  C15_31 
REMARK       I    between atoms: C15_31  and  N6_33 
REMARK    9  A    between atoms: N6_33  and  S2_35 
REMARK   10  A    between atoms: S2_35  and  N7_38 
REMARK   11  A    between atoms: N7_38  and  C16_40 
REMARK   12  A    between atoms: C16_40  and  C17_41 
REMARK   13  A    between atoms: C17_41  and  N8_42 
REMARK   14  A    between atoms: C18_46  and  C19_47 
ROOT
HETATM    1  C2  UNL     1     -60.436  25.731 -30.557  1.00  0.00     0.217 C 
HETATM    2  C5  UNL     1     -60.571  27.234 -30.421  1.00  0.00     0.210 C 
HETATM    3  O5  UNL     1     -61.868  27.529 -30.159  1.00  0.00    -0.363 OA
HETATM    4  C7  UNL     1     -62.695  26.488 -30.615  1.00  0.00     0.114 C 
HETATM    5  C8  UNL     1     -63.641  26.203 -29.434  1.00  0.00     0.079 C 
HETATM    6  C9  UNL     1     -64.383  27.437 -29.083  1.00  0.00    -0.037 C 
HETATM    7  C10 UNL     1     -64.352  28.031 -27.924  1.00  0.00     0.059 C 
HETATM    8  C13 UNL     1     -65.217  27.969 -30.224  1.00  0.00     0.221 C 
HETATM    9  N5  UNL     1     -64.674  27.678 -31.509  1.00  0.00    -0.297 N 
HETATM   10  C15 UNL     1     -65.351  28.232 -32.639  1.00  0.00     0.335 C 
HETATM   11  O8  UNL     1     -64.875  27.952 -33.797  1.00  0.00    -0.246 OA
HETATM   12  N6  UNL     1     -66.486  29.051 -32.617  1.00  0.00    -0.219 N 
ATOM     13  H6  UNL     1     -66.925  29.329 -31.740  1.00  0.00     0.185 HD
HETATM   14  C18 UNL     1     -63.459  26.930 -31.815  1.00  0.00     0.227 C 
HETATM   15  C20 UNL     1     -61.828  25.276 -30.735  1.00  0.00     0.161 C 
HETATM   16  S3  UNL     1     -62.327  23.947 -29.560  1.00  0.00    -0.083 SA
ENDROOT
BRANCH   8  17
HETATM   17  C14 UNL     1     -66.542  27.338 -30.040  1.00  0.00     0.201 C 
HETATM   18  O6  UNL     1     -67.616  27.967 -29.963  1.00  0.00    -0.646 OA
HETATM   19  O7  UNL     1     -66.658  25.944 -29.939  1.00  0.00    -0.646 OA
ENDBRANCH   8  17
BRANCH  14  20
HETATM   20  C19 UNL     1     -63.789  25.915 -32.809  1.00  0.00     0.200 C 
HETATM   21  O11 UNL     1     -63.071  25.788 -33.862  1.00  0.00    -0.646 OA
HETATM   22  O12 UNL     1     -64.840  25.038 -32.732  1.00  0.00    -0.646 OA
ENDBRANCH  14  20
BRANCH  12  23
HETATM   23  S2  UNL     1     -67.116  29.576 -34.161  1.00  0.00     0.322 S 
HETATM   24  O9  UNL     1     -68.482  30.216 -33.941  1.00  0.00    -0.182 OA
HETATM   25  O10 UNL     1     -66.243  30.626 -34.780  1.00  0.00    -0.182 OA
BRANCH  23  26
HETATM   26  N7  UNL     1     -67.300  28.289 -35.269  1.00  0.00    -0.301 N 
ATOM     27  H7  UNL     1     -66.748  28.203 -36.122  1.00  0.00     0.173 HD
BRANCH  26  28
HETATM   28  C16 UNL     1     -68.309  27.335 -34.883  1.00  0.00     0.161 C 
BRANCH  28  29
HETATM   29  C17 UNL     1     -67.721  25.958 -34.686  1.00  0.00     0.250 C 
BRANCH  29  30
HETATM   30  N8  UNL     1     -66.400  25.892 -35.290  1.00  0.00    -0.078 N 
ATOM     31  H83 UNL     1     -66.433  26.036 -36.299  1.00  0.00     0.274 HD
ATOM     32  H82 UNL     1     -65.826  26.698 -35.043  1.00  0.00     0.274 HD
ATOM     33  H81 UNL     1     -65.949  25.011 -35.044  1.00  0.00     0.274 HD
ENDBRANCH  29  30
ENDBRANCH  28  29
ENDBRANCH  26  28
ENDBRANCH  23  26
ENDBRANCH  12  23
BRANCH   7  34
HETATM   34  S1  UNL     1     -63.373  27.401 -26.571  1.00  0.00    -0.063 SA
BRANCH  34  35
HETATM   35  C11 UNL     1     -63.006  28.643 -25.356  1.00  0.00     0.179 A 
HETATM   36  N1  UNL     1     -63.835  29.532 -24.770  1.00  0.00    -0.261 N 
HETATM   37  N2  UNL     1     -63.158  30.285 -23.901  1.00  0.00    -0.005 NA
ATOM     38  H1  UNL     1     -64.833  29.616 -24.962  1.00  0.00     0.186 HD
HETATM   39  N3  UNL     1     -61.897  29.854 -23.951  1.00  0.00    -0.223 N 
HETATM   40  N4  UNL     1     -61.795  28.869 -24.822  1.00  0.00    -0.261 N 
ATOM     41  H3  UNL     1     -61.126  30.230 -23.399  1.00  0.00     0.206 HD
HETATM   42  C12 UNL     1     -60.585  28.175 -25.129  1.00  0.00     0.181 C 
ENDBRANCH  34  35
ENDBRANCH   7  34
BRANCH   2  43
HETATM   43  C6  UNL     1     -60.001  27.989 -31.596  1.00  0.00     0.201 C 
BRANCH  43  44
HETATM   44  O4  UNL     1     -59.305  29.132 -31.113  1.00  0.00    -0.398 OA
ATOM     45  H4  UNL     1     -58.393  28.902 -30.981  1.00  0.00     0.209 HD
ENDBRANCH  43  44
ENDBRANCH   2  43
BRANCH   1  46
HETATM   46  O1  UNL     1     -59.789  25.545 -31.822  1.00  0.00    -0.356 OA
HETATM   47  C1  UNL     1     -59.318  24.249 -31.958  1.00  0.00     0.205 C 
ENDBRANCH   1  46
BRANCH   1  48
HETATM   48  O2  UNL     1     -59.583  25.156 -29.677  1.00  0.00    -0.279 OA
BRANCH  48  49
HETATM   49  C3  UNL     1     -59.118  25.407 -28.446  1.00  0.00     0.257 C 
HETATM   50  C4  UNL     1     -59.217  24.435 -27.301  1.00  0.00     0.126 C 
HETATM   51  O3  UNL     1     -58.578  26.529 -28.286  1.00  0.00    -0.266 OA
ENDBRANCH  48  49
ENDBRANCH   1  48
TORSDOF 14
ENDMDL
MODEL 3
REMARK VINA RESULT: -6.247268827      3.432      5.544
REMARK  14 active torsions:
REMARK  status: ('A' for Active; 'I' for Inactive)
REMARK    1  A    between atoms: O1_2  and  C2_3 
REMARK    2  A    between atoms: C2_3  and  O2_4 
REMARK    3  A    between atoms: O2_4  and  C3_5 
REMARK    4  A    between atoms: C5_8  and  C6_9 
REMARK    5  A    between atoms: C6_9  and  O4_10 
REMARK    6  A    between atoms: C10_16  and  S1_17 
REMARK    7  A    between atoms: S1_17  and  C11_18 
REMARK    8  A    between atoms: C13_26  and  C14_27 
REMARK       I    between atoms: N5_30  and  C15_31 
REMARK       I    between atoms: C15_31  and  N6_33 
REMARK    9  A    between atoms: N6_33  and  S2_35 
REMARK   10  A    between atoms: S2_35  and  N7_38 
REMARK   11  A    between atoms: N7_38  and  C16_40 
REMARK   12  A    between atoms: C16_40  and  C17_41 
REMARK   13  A    between atoms: C17_41  and  N8_42 
REMARK   14  A    between atoms: C18_46  and  C19_47 
ROOT
HETATM    1  C2  UNL     1     -65.412  28.394 -31.794  1.00  0.00     0.217 C 
HETATM    2  C5  UNL     1     -64.636  29.647 -31.444  1.00  0.00     0.210 C 
HETATM    3  O5  UNL     1     -63.412  29.283 -30.989  1.00  0.00    -0.363 OA
HETATM    4  C7  UNL     1     -63.456  27.966 -30.501  1.00  0.00     0.114 C 
HETATM    5  C8  UNL     1     -62.237  27.277 -31.142  1.00  0.00     0.079 C 
HETATM    6  C9  UNL     1     -61.002  28.005 -30.766  1.00  0.00    -0.037 C 
HETATM    7  C10 UNL     1     -60.169  28.558 -31.601  1.00  0.00     0.059 C 
HETATM    8  C13 UNL     1     -60.774  28.052 -29.273  1.00  0.00     0.221 C 
HETATM    9  N5  UNL     1     -61.980  28.040 -28.515  1.00  0.00    -0.297 N 
HETATM   10  C15 UNL     1     -61.855  28.182 -27.098  1.00  0.00     0.335 C 
HETATM   11  O8  UNL     1     -62.939  28.148 -26.412  1.00  0.00    -0.246 OA
HETATM   12  N6  UNL     1     -60.669  28.352 -26.374  1.00  0.00    -0.219 N 
ATOM     13  H6  UNL     1     -59.763  28.397 -26.840  1.00  0.00     0.185 HD
HETATM   14  C18 UNL     1     -63.349  27.967 -29.015  1.00  0.00     0.227 C 
HETATM   15  C20 UNL     1     -64.652  27.321 -31.124  1.00  0.00     0.161 C 
HETATM   16  S3  UNL     1     -64.189  25.934 -32.245  1.00  0.00    -0.083 SA
ENDROOT
BRANCH   8  17
HETATM   17  C14 UNL     1     -59.943  26.863 -28.988  1.00  0.00     0.201 C 
HETATM   18  O6  UNL     1     -60.322  25.685 -29.147  1.00  0.00    -0.646 OA
HETATM   19  O7  UNL     1     -58.634  27.008 -28.506  1.00  0.00    -0.646 OA
ENDBRANCH   8  17
BRANCH  14  20
HETATM   20  C19 UNL     1     -64.040  26.903 -28.294  1.00  0.00     0.200 C 
HETATM   21  O11 UNL     1     -65.162  27.137 -27.722  1.00  0.00    -0.646 OA
HETATM   22  O12 UNL     1     -63.593  25.614 -28.157  1.00  0.00    -0.646 OA
ENDBRANCH  14  20
BRANCH  12  23
HETATM   23  S2  UNL     1     -60.811  28.484 -24.637  1.00  0.00     0.322 S 
HETATM   24  O9  UNL     1     -60.290  27.199 -24.003  1.00  0.00    -0.182 OA
HETATM   25  O10 UNL     1     -59.966  29.601 -24.103  1.00  0.00    -0.182 OA
BRANCH  23  26
HETATM   26  N7  UNL     1     -62.424  28.719 -24.124  1.00  0.00    -0.301 N 
ATOM     27  H7  UNL     1     -63.187  28.093 -24.377  1.00  0.00     0.173 HD
BRANCH  26  28
HETATM   28  C16 UNL     1     -62.601  29.888 -23.299  1.00  0.00     0.161 C 
BRANCH  28  29
HETATM   29  C17 UNL     1     -63.363  30.968 -24.029  1.00  0.00     0.250 C 
BRANCH  29  30
HETATM   30  N8  UNL     1     -64.185  30.377 -25.071  1.00  0.00    -0.078 N 
ATOM     31  H83 UNL     1     -63.624  29.994 -25.831  1.00  0.00     0.274 HD
ATOM     32  H82 UNL     1     -64.630  29.512 -24.763  1.00  0.00     0.274 HD
ATOM     33  H81 UNL     1     -64.867  31.059 -25.407  1.00  0.00     0.274 HD
ENDBRANCH  29  30
ENDBRANCH  28  29
ENDBRANCH  26  28
ENDBRANCH  23  26
ENDBRANCH  12  23
BRANCH   7  34
HETATM   34  S1  UNL     1     -60.430  28.499 -33.366  1.00  0.00    -0.063 SA
BRANCH  34  35
HETATM   35  C11 UNL     1     -61.795  29.506 -33.890  1.00  0.00     0.179 A 
HETATM   36  N1  UNL     1     -62.054  30.802 -33.612  1.00  0.00    -0.261 N 
HETATM   37  N2  UNL     1     -63.183  31.181 -34.213  1.00  0.00    -0.005 NA
ATOM     38  H1  UNL     1     -61.472  31.402 -33.028  1.00  0.00     0.186 HD
HETATM   39  N3  UNL     1     -63.625  30.109 -34.870  1.00  0.00    -0.223 N 
HETATM   40  N4  UNL     1     -62.799  29.098 -34.682  1.00  0.00    -0.261 N 
ATOM     41  H3  UNL     1     -64.475  30.075 -35.434  1.00  0.00     0.206 HD
HETATM   42  C12 UNL     1     -62.968  27.794 -35.240  1.00  0.00     0.181 C 
ENDBRANCH  34  35
ENDBRANCH   7  34
BRANCH   2  43
HETATM   43  C6  UNL     1     -65.384  30.566 -30.509  1.00  0.00     0.201 C 
BRANCH  43  44
HETATM   44  O4  UNL     1     -66.184  31.453 -31.280  1.00  0.00    -0.398 OA
ATOM     45  H4  UNL     1     -67.098  31.296 -31.078  1.00  0.00     0.209 HD
ENDBRANCH  43  44
ENDBRANCH   2  43
BRANCH   1  46
HETATM   46  O1  UNL     1     -66.644  28.524 -31.071  1.00  0.00    -0.356 OA
HETATM   47  C1  UNL     1     -67.108  27.290 -30.646  1.00  0.00     0.205 C 
ENDBRANCH   1  46
BRANCH   1  48
HETATM   48  O2  UNL     1     -65.810  28.314 -33.085  1.00  0.00    -0.279 OA
BRANCH  48  49
HETATM   49  C3  UNL     1     -66.763  28.851 -33.859  1.00  0.00     0.257 C 
HETATM   50  C4  UNL     1     -67.932  28.076 -34.403  1.00  0.00     0.126 C 
HETATM   51  O3  UNL     1     -66.631  30.073 -34.117  1.00  0.00    -0.266 OA
ENDBRANCH  48  49
ENDBRANCH   1  48
TORSDOF 14
ENDMDL
MODEL 4
REMARK VINA RESULT: -6.215325051      1.610      1.981
REMARK  14 active torsions:
REMARK  status: ('A' for Active; 'I' for Inactive)
REMARK    1  A    between atoms: O1_2  and  C2_3 
REMARK    2  A    between atoms: C2_3  and  O2_4 
REMARK    3  A    between atoms: O2_4  and  C3_5 
REMARK    4  A    between atoms: C5_8  and  C6_9 
REMARK    5  A    between atoms: C6_9  and  O4_10 
REMARK    6  A    between atoms: C10_16  and  S1_17 
REMARK    7  A    between atoms: S1_17  and  C11_18 
REMARK    8  A    between atoms: C13_26  and  C14_27 
REMARK       I    between atoms: N5_30  and  C15_31 
REMARK       I    between atoms: C15_31  and  N6_33 
REMARK    9  A    between atoms: N6_33  and  S2_35 
REMARK   10  A    between atoms: S2_35  and  N7_38 
REMARK   11  A    between atoms: N7_38  and  C16_40 
REMARK   12  A    between atoms: C16_40  and  C17_41 
REMARK   13  A    between atoms: C17_41  and  N8_42 
REMARK   14  A    between atoms: C18_46  and  C19_47 
ROOT
HETATM    1  C2  UNL     1     -65.173  27.832 -34.421  1.00  0.00     0.217 C 
HETATM    2  C5  UNL     1     -64.653  26.422 -34.232  1.00  0.00     0.210 C 
HETATM    3  O5  UNL     1     -64.640  26.141 -32.906  1.00  0.00    -0.363 OA
HETATM    4  C7  UNL     1     -64.584  27.334 -32.167  1.00  0.00     0.114 C 
HETATM    5  C8  UNL     1     -65.678  27.175 -31.094  1.00  0.00     0.079 C 
HETATM    6  C9  UNL     1     -65.406  25.964 -30.284  1.00  0.00    -0.037 C 
HETATM    7  C10 UNL     1     -66.206  24.944 -30.162  1.00  0.00     0.059 C 
HETATM    8  C13 UNL     1     -64.071  26.013 -29.578  1.00  0.00     0.221 C 
HETATM    9  N5  UNL     1     -63.086  26.769 -30.278  1.00  0.00    -0.297 N 
HETATM   10  C15 UNL     1     -61.768  26.782 -29.725  1.00  0.00     0.335 C 
HETATM   11  O8  UNL     1     -60.886  27.481 -30.343  1.00  0.00    -0.246 OA
HETATM   12  N6  UNL     1     -61.334  26.113 -28.575  1.00  0.00    -0.219 N 
ATOM     13  H6  UNL     1     -61.967  25.530 -28.028  1.00  0.00     0.185 HD
HETATM   14  C18 UNL     1     -63.240  27.485 -31.540  1.00  0.00     0.227 C 
HETATM   15  C20 UNL     1     -65.067  28.420 -33.073  1.00  0.00     0.161 C 
HETATM   16  S3  UNL     1     -66.636  29.178 -32.473  1.00  0.00    -0.083 SA
ENDROOT
BRANCH   8  17
HETATM   17  C14 UNL     1     -64.373  26.607 -28.258  1.00  0.00     0.201 C 
HETATM   18  O6  UNL     1     -64.378  25.971 -27.185  1.00  0.00    -0.646 OA
HETATM   19  O7  UNL     1     -64.681  27.971 -28.144  1.00  0.00    -0.646 OA
ENDBRANCH   8  17
BRANCH  14  20
HETATM   20  C19 UNL     1     -62.736  28.842 -31.356  1.00  0.00     0.200 C 
HETATM   21  O11 UNL     1     -61.809  29.292 -32.117  1.00  0.00    -0.646 OA
HETATM   22  O12 UNL     1     -63.172  29.731 -30.407  1.00  0.00    -0.646 OA
ENDBRANCH  14  20
BRANCH  12  23
HETATM   23  S2  UNL     1     -59.660  26.321 -28.119  1.00  0.00     0.322 S 
HETATM   24  O9  UNL     1     -59.432  27.779 -27.739  1.00  0.00    -0.182 OA
HETATM   25  O10 UNL     1     -59.316  25.502 -26.910  1.00  0.00    -0.182 OA
BRANCH  23  26
HETATM   26  N7  UNL     1     -58.579  25.920 -29.380  1.00  0.00    -0.301 N 
ATOM     27  H7  UNL     1     -57.805  26.519 -29.665  1.00  0.00     0.173 HD
BRANCH  26  28
HETATM   28  C16 UNL     1     -58.866  24.652 -30.005  1.00  0.00     0.161 C 
BRANCH  28  29
HETATM   29  C17 UNL     1     -58.719  24.730 -31.505  1.00  0.00     0.250 C 
BRANCH  29  30
HETATM   30  N8  UNL     1     -60.016  24.955 -32.121  1.00  0.00    -0.078 N 
ATOM     31  H83 UNL     1     -60.156  24.371 -32.945  1.00  0.00     0.274 HD
ATOM     32  H82 UNL     1     -60.779  24.591 -31.549  1.00  0.00     0.274 HD
ATOM     33  H81 UNL     1     -60.136  25.946 -32.330  1.00  0.00     0.274 HD
ENDBRANCH  29  30
ENDBRANCH  28  29
ENDBRANCH  26  28
ENDBRANCH  23  26
ENDBRANCH  12  23
BRANCH   7  34
HETATM   34  S1  UNL     1     -67.787  24.884 -30.989  1.00  0.00    -0.063 SA
BRANCH  34  35
HETATM   35  C11 UNL     1     -67.634  24.645 -32.741  1.00  0.00     0.179 A 
HETATM   36  N1  UNL     1     -66.960  23.689 -33.415  1.00  0.00    -0.261 N 
HETATM   37  N2  UNL     1     -67.109  23.865 -34.729  1.00  0.00    -0.005 NA
ATOM     38  H1  UNL     1     -66.416  22.943 -32.983  1.00  0.00     0.186 HD
HETATM   39  N3  UNL     1     -67.885  24.940 -34.868  1.00  0.00    -0.223 N 
HETATM   40  N4  UNL     1     -68.205  25.417 -33.680  1.00  0.00    -0.261 N 
ATOM     41  H3  UNL     1     -68.187  25.335 -35.759  1.00  0.00     0.206 HD
HETATM   42  C12 UNL     1     -69.025  26.565 -33.457  1.00  0.00     0.181 C 
ENDBRANCH  34  35
ENDBRANCH   7  34
BRANCH   2  43
HETATM   43  C6  UNL     1     -63.331  26.180 -34.918  1.00  0.00     0.201 C 
BRANCH  43  44
HETATM   44  O4  UNL     1     -62.493  25.427 -34.049  1.00  0.00    -0.398 OA
ATOM     45  H4  UNL     1     -61.754  25.966 -33.794  1.00  0.00     0.209 HD
ENDBRANCH  43  44
ENDBRANCH   2  43
BRANCH   1  46
HETATM   46  O1  UNL     1     -64.171  28.477 -35.219  1.00  0.00    -0.356 OA
HETATM   47  C1  UNL     1     -64.032  29.809 -34.868  1.00  0.00     0.205 C 
ENDBRANCH   1  46
BRANCH   1  48
HETATM   48  O2  UNL     1     -66.291  27.928 -35.178  1.00  0.00    -0.279 OA
BRANCH  48  49
HETATM   49  C3  UNL     1     -66.614  27.850 -36.476  1.00  0.00     0.257 C 
HETATM   50  C4  UNL     1     -66.943  29.046 -37.328  1.00  0.00     0.126 C 
HETATM   51  O3  UNL     1     -66.628  26.694 -36.965  1.00  0.00    -0.266 OA
ENDBRANCH  48  49
ENDBRANCH   1  48
TORSDOF 14
ENDMDL
MODEL 5
REMARK VINA RESULT: -6.201044549      1.940      2.171
REMARK  14 active torsions:
REMARK  status: ('A' for Active; 'I' for Inactive)
REMARK    1  A    between atoms: O1_2  and  C2_3 
REMARK    2  A    between atoms: C2_3  and  O2_4 
REMARK    3  A    between atoms: O2_4  and  C3_5 
REMARK    4  A    between atoms: C5_8  and  C6_9 
REMARK    5  A    between atoms: C6_9  and  O4_10 
REMARK    6  A    between atoms: C10_16  and  S1_17 
REMARK    7  A    between atoms: S1_17  and  C11_18 
REMARK    8  A    between atoms: C13_26  and  C14_27 
REMARK       I    between atoms: N5_30  and  C15_31 
REMARK       I    between atoms: C15_31  and  N6_33 
REMARK    9  A    between atoms: N6_33  and  S2_35 
REMARK   10  A    between atoms: S2_35  and  N7_38 
REMARK   11  A    between atoms: N7_38  and  C16_40 
REMARK   12  A    between atoms: C16_40  and  C17_41 
REMARK   13  A    between atoms: C17_41  and  N8_42 
REMARK   14  A    between atoms: C18_46  and  C19_47 
ROOT
HETATM    1  C2  UNL     1     -64.589  26.816 -34.576  1.00  0.00     0.217 C 
HETATM    2  C5  UNL     1     -65.336  25.731 -33.828  1.00  0.00     0.210 C 
HETATM    3  O5  UNL     1     -65.116  25.891 -32.500  1.00  0.00    -0.363 OA
HETATM    4  C7  UNL     1     -63.922  26.603 -32.298  1.00  0.00     0.114 C 
HETATM    5  C8  UNL     1     -64.293  27.693 -31.275  1.00  0.00     0.079 C 
HETATM    6  C9  UNL     1     -64.819  27.059 -30.043  1.00  0.00    -0.037 C 
HETATM    7  C10 UNL     1     -66.004  27.257 -29.540  1.00  0.00     0.059 C 
HETATM    8  C13 UNL     1     -63.826  26.129 -29.387  1.00  0.00     0.221 C 
HETATM    9  N5  UNL     1     -62.933  25.511 -30.309  1.00  0.00    -0.297 N 
HETATM   10  C15 UNL     1     -62.026  24.540 -29.780  1.00  0.00     0.335 C 
HETATM   11  O8  UNL     1     -61.206  23.999 -30.606  1.00  0.00    -0.246 OA
HETATM   12  N6  UNL     1     -61.935  24.116 -28.449  1.00  0.00    -0.219 N 
ATOM     13  H6  UNL     1     -62.553  24.488 -27.728  1.00  0.00     0.185 HD
HETATM   14  C18 UNL     1     -62.872  25.697 -31.755  1.00  0.00     0.227 C 
HETATM   15  C20 UNL     1     -63.639  27.331 -33.572  1.00  0.00     0.161 C 
HETATM   16  S3  UNL     1     -63.711  29.160 -33.358  1.00  0.00    -0.083 SA
ENDROOT
BRANCH   8  17
HETATM   17  C14 UNL     1     -63.102  26.982 -28.420  1.00  0.00     0.201 C 
HETATM   18  O6  UNL     1     -62.404  27.967 -28.737  1.00  0.00    -0.646 OA
HETATM   19  O7  UNL     1     -63.168  26.716 -27.045  1.00  0.00    -0.646 OA
ENDBRANCH   8  17
BRANCH  14  20
HETATM   20  C19 UNL     1     -61.488  25.984 -32.117  1.00  0.00     0.200 C 
HETATM   21  O11 UNL     1     -60.912  25.307 -33.040  1.00  0.00    -0.646 OA
HETATM   22  O12 UNL     1     -60.699  26.950 -31.547  1.00  0.00    -0.646 OA
ENDBRANCH  14  20
BRANCH  12  23
HETATM   23  S2  UNL     1     -60.716  22.920 -28.078  1.00  0.00     0.322 S 
HETATM   24  O9  UNL     1     -60.759  22.622 -26.584  1.00  0.00    -0.182 OA
HETATM   25  O10 UNL     1     -60.987  21.625 -28.784  1.00  0.00    -0.182 OA
BRANCH  23  26
HETATM   26  N7  UNL     1     -59.138  23.443 -28.475  1.00  0.00    -0.301 N 
ATOM     27  H7  UNL     1     -58.506  22.910 -29.070  1.00  0.00     0.173 HD
BRANCH  26  28
HETATM   28  C16 UNL     1     -58.787  24.711 -27.886  1.00  0.00     0.161 C 
BRANCH  28  29
HETATM   29  C17 UNL     1     -58.578  25.771 -28.942  1.00  0.00     0.250 C 
BRANCH  29  30
HETATM   30  N8  UNL     1     -59.505  26.870 -28.732  1.00  0.00    -0.078 N 
ATOM     31  H83 UNL     1     -59.243  27.699 -29.265  1.00  0.00     0.274 HD
ATOM     32  H82 UNL     1     -60.411  26.695 -29.166  1.00  0.00     0.274 HD
ATOM     33  H81 UNL     1     -59.590  27.068 -27.735  1.00  0.00     0.274 HD
ENDBRANCH  29  30
ENDBRANCH  28  29
ENDBRANCH  26  28
ENDBRANCH  23  26
ENDBRANCH  12  23
BRANCH   7  34
HETATM   34  S1  UNL     1     -67.178  28.361 -30.308  1.00  0.00    -0.063 SA
BRANCH  34  35
HETATM   35  C11 UNL     1     -67.960  27.646 -31.733  1.00  0.00     0.179 A 
HETATM   36  N1  UNL     1     -68.596  26.461 -31.850  1.00  0.00    -0.261 N 
HETATM   37  N2  UNL     1     -69.050  26.308 -33.095  1.00  0.00    -0.005 NA
ATOM     38  H1  UNL     1     -68.712  25.783 -31.098  1.00  0.00     0.186 HD
HETATM   39  N3  UNL     1     -68.692  27.411 -33.753  1.00  0.00    -0.223 N 
HETATM   40  N4  UNL     1     -68.036  28.221 -32.944  1.00  0.00    -0.261 N 
ATOM     41  H3  UNL     1     -68.894  27.601 -34.735  1.00  0.00     0.206 HD
HETATM   42  C12 UNL     1     -67.504  29.492 -33.320  1.00  0.00     0.181 C 
ENDBRANCH  34  35
ENDBRANCH   7  34
BRANCH   2  43
HETATM   43  C6  UNL     1     -65.027  24.342 -34.332  1.00  0.00     0.201 C 
BRANCH  43  44
HETATM   44  O4  UNL     1     -65.914  24.033 -35.401  1.00  0.00    -0.398 OA
ATOM     45  H4  UNL     1     -65.784  24.664 -36.098  1.00  0.00     0.209 HD
ENDBRANCH  43  44
ENDBRANCH   2  43
BRANCH   1  46
HETATM   46  O1  UNL     1     -63.804  26.106 -35.543  1.00  0.00    -0.356 OA
HETATM   47  C1  UNL     1     -62.613  26.763 -35.802  1.00  0.00     0.205 C 
ENDBRANCH   1  46
BRANCH   1  48
HETATM   48  O2  UNL     1     -65.368  27.624 -35.332  1.00  0.00    -0.279 OA
BRANCH  48  49
HETATM   49  C3  UNL     1     -66.159  27.509 -36.407  1.00  0.00     0.257 C 
HETATM   50  C4  UNL     1     -65.898  28.206 -37.714  1.00  0.00     0.126 C 
HETATM   51  O3  UNL     1     -67.161  26.766 -36.268  1.00  0.00    -0.266 OA
ENDBRANCH  48  49
ENDBRANCH   1  48
TORSDOF 14
ENDMDL
