MODEL 1
REMARK VINA RESULT: -7.313689510      0.000      0.000
REMARK  15 active torsions:
REMARK  status: ('A' for Active; 'I' for Inactive)
REMARK    1  A    between atoms: O1_2  and  C2_3 
REMARK    2  A    between atoms: C2_3  and  C3_5 
REMARK    3  A    between atoms: C3_5  and  O3_6 
REMARK    4  A    between atoms: C3_5  and  N1_8 
REMARK    5  A    between atoms: N1_8  and  C4_10 
REMARK    6  A    between atoms: C5_11  and  N2_12 
REMARK    7  A    between atoms: N2_12  and  N3_14 
REMARK    8  A    between atoms: C9_23  and  C10_24 
REMARK    9  A    between atoms: C13_30  and  C14_31 
REMARK   10  A    between atoms: C15_34  and  C16_35 
REMARK   11  A    between atoms: C16_35  and  N7_36 
REMARK   12  A    between atoms: N7_36  and  C17_37 
REMARK   13  A    between atoms: C17_37  and  N8_38 
REMARK   14  A    between atoms: C21_47  and  N11_48 
REMARK   15  A    between atoms: C23_54  and  O12_56 
ROOT
HETATM    1  C4  UNL     1     -66.259  25.857 -31.732  1.00  0.00     0.148 A 
HETATM    2  C5  UNL     1     -65.158  26.324 -32.444  1.00  0.00     0.179 A 
HETATM    3  N4  UNL     1     -64.354  26.969 -31.589  1.00  0.00    -0.231 N 
HETATM    4  N5  UNL     1     -64.873  26.948 -30.352  1.00  0.00    -0.245 N 
HETATM    5  C6  UNL     1     -66.053  26.262 -30.426  1.00  0.00     0.293 A 
HETATM    6  O6  UNL     1     -66.853  26.021 -29.462  1.00  0.00    -0.264 OA
HETATM    7  C7  UNL     1     -64.454  27.455 -29.081  1.00  0.00     0.179 C 
HETATM    8  C8  UNL     1     -63.070  28.001 -29.031  1.00  0.00     0.129 C 
HETATM    9  C9  UNL     1     -62.221  27.486 -27.879  1.00  0.00     0.171 C 
HETATM   10  C12 UNL     1     -62.157  26.237 -28.710  1.00  0.00     0.234 C 
HETATM   11  O8  UNL     1     -62.087  25.012 -28.536  1.00  0.00    -0.272 OA
HETATM   12  N6  UNL     1     -62.214  27.087 -29.825  1.00  0.00    -0.324 N 
HETATM   13  C13 UNL     1     -61.833  27.391 -31.207  1.00  0.00     0.242 C 
HETATM   14  C15 UNL     1     -63.074  27.590 -31.983  1.00  0.00     0.085 C 
ENDROOT
BRANCH  14  15
HETATM   15  C16 UNL     1     -63.141  28.275 -33.041  1.00  0.00     0.124 C 
BRANCH  15  16
HETATM   16  N7  UNL     1     -62.519  29.277 -33.808  1.00  0.00    -0.322 N 
HETATM   17  C23 UNL     1     -62.166  30.578 -33.658  1.00  0.00     0.114 C 
HETATM   18  C24 UNL     1     -62.514  31.625 -32.684  1.00  0.00     0.097 C 
BRANCH  16  19
HETATM   19  C17 UNL     1     -62.285  28.751 -35.244  1.00  0.00     0.264 C 
BRANCH  19  20
HETATM   20  N8  UNL     1     -61.302  27.703 -35.252  1.00  0.00    -0.309 N 
HETATM   21  C18 UNL     1     -60.023  27.886 -34.825  1.00  0.00     0.187 A 
HETATM   22  N9  UNL     1     -59.409  26.696 -34.910  1.00  0.00    -0.345 N 
HETATM   23  C19 UNL     1     -60.228  25.764 -35.371  1.00  0.00     0.147 A 
ATOM     24  H9  UNL     1     -58.436  26.530 -34.652  1.00  0.00     0.167 HD
HETATM   25  C20 UNL     1     -60.069  24.424 -35.651  1.00  0.00     0.290 A 
HETATM   26  C22 UNL     1     -61.458  26.423 -35.594  1.00  0.00     0.158 A 
HETATM   27  O11 UNL     1     -58.958  23.891 -35.431  1.00  0.00    -0.265 OA
HETATM   28  N10 UNL     1     -61.120  23.754 -36.150  1.00  0.00    -0.154 N 
HETATM   29  C21 UNL     1     -62.303  24.399 -36.366  1.00  0.00     0.680 A 
ATOM     30  H10 UNL     1     -61.034  22.761 -36.367  1.00  0.00     0.187 HD
HETATM   31  N12 UNL     1     -62.471  25.695 -36.098  1.00  0.00    -0.174 N 
ATOM     32  H12 UNL     1     -63.373  26.137 -36.275  1.00  0.00     0.186 HD
BRANCH  29  33
HETATM   33  N11 UNL     1     -63.322  23.749 -36.851  1.00  0.00    -0.234 N 
ATOM     34 2H11 UNL     1     -63.825  23.125 -36.220  1.00  0.00     0.174 HD
ATOM     35 1H11 UNL     1     -63.591  23.874 -37.827  1.00  0.00     0.174 HD
ENDBRANCH  29  33
ENDBRANCH  19  20
ENDBRANCH  16  19
BRANCH  17  36
HETATM   36  O12 UNL     1     -61.324  31.072 -34.574  1.00  0.00    -0.349 OA
ATOM     37  H12 UNL     1     -60.916  31.905 -34.364  1.00  0.00     0.219 HD
ENDBRANCH  17  36
ENDBRANCH  15  16
ENDBRANCH  14  15
BRANCH  13  38
HETATM   38  C14 UNL     1     -61.073  26.225 -31.694  1.00  0.00     0.203 C 
HETATM   39  O9  UNL     1     -61.694  25.204 -32.070  1.00  0.00    -0.646 OA
HETATM   40  O10 UNL     1     -59.708  26.225 -31.750  1.00  0.00    -0.646 OA
ENDBRANCH  13  38
BRANCH   2  41
HETATM   41  N2  UNL     1     -64.966  26.067 -33.827  1.00  0.00    -0.222 N 
ATOM     42  H2  UNL     1     -64.421  26.731 -34.378  1.00  0.00     0.195 HD
BRANCH  41  43
HETATM   43  N3  UNL     1     -65.495  24.940 -34.464  1.00  0.00    -0.037 N 
HETATM   44  O4  UNL     1     -65.097  23.784 -34.256  1.00  0.00    -0.516 OA
HETATM   45  O5  UNL     1     -66.508  25.106 -35.374  1.00  0.00    -0.516 OA
ENDBRANCH  41  43
ENDBRANCH   2  41
BRANCH   1  46
HETATM   46  N1  UNL     1     -67.332  25.117 -32.277  1.00  0.00    -0.348 N 
ATOM     47  H1  UNL     1     -67.149  24.152 -32.555  1.00  0.00     0.163 HD
BRANCH  46  48
HETATM   48  C3  UNL     1     -68.656  25.626 -32.467  1.00  0.00     0.320 C 
BRANCH  48  49
HETATM   49  C2  UNL     1     -68.722  27.015 -32.968  1.00  0.00     0.307 C 
HETATM   50  O2  UNL     1     -68.795  27.223 -34.217  1.00  0.00    -0.260 OA
BRANCH  49  51
HETATM   51  O1  UNL     1     -68.712  28.141 -32.173  1.00  0.00    -0.323 OA
HETATM   52  C1  UNL     1     -67.710  29.138 -32.261  1.00  0.00     0.213 C 
ENDBRANCH  49  51
ENDBRANCH  48  49
BRANCH  48  53
HETATM   53  O3  UNL     1     -69.293  25.667 -31.200  1.00  0.00    -0.368 OA
ATOM     54  H3  UNL     1     -68.785  25.080 -30.654  1.00  0.00     0.212 HD
ENDBRANCH  48  53
ENDBRANCH  46  48
ENDBRANCH   1  46
BRANCH   9  55
HETATM   55  C10 UNL     1     -62.852  27.374 -26.571  1.00  0.00     0.138 C 
HETATM   56  C11 UNL     1     -62.304  28.280 -25.491  1.00  0.00     0.091 C 
HETATM   57  O7  UNL     1     -63.755  26.654 -26.229  1.00  0.00    -0.297 OA
ENDBRANCH   9  55
TORSDOF 15
ENDMDL
MODEL 2
REMARK VINA RESULT: -7.284792716      2.427      6.123
REMARK  15 active torsions:
REMARK  status: ('A' for Active; 'I' for Inactive)
REMARK    1  A    between atoms: O1_2  and  C2_3 
REMARK    2  A    between atoms: C2_3  and  C3_5 
REMARK    3  A    between atoms: C3_5  and  O3_6 
REMARK    4  A    between atoms: C3_5  and  N1_8 
REMARK    5  A    between atoms: N1_8  and  C4_10 
REMARK    6  A    between atoms: C5_11  and  N2_12 
REMARK    7  A    between atoms: N2_12  and  N3_14 
REMARK    8  A    between atoms: C9_23  and  C10_24 
REMARK    9  A    between atoms: C13_30  and  C14_31 
REMARK   10  A    between atoms: C15_34  and  C16_35 
REMARK   11  A    between atoms: C16_35  and  N7_36 
REMARK   12  A    between atoms: N7_36  and  C17_37 
REMARK   13  A    between atoms: C17_37  and  N8_38 
REMARK   14  A    between atoms: C21_47  and  N11_48 
REMARK   15  A    between atoms: C23_54  and  O12_56 
ROOT
HETATM    1  C4  UNL     1     -62.440  26.051 -28.724  1.00  0.00     0.148 A 
HETATM    2  C5  UNL     1     -62.277  27.319 -29.271  1.00  0.00     0.179 A 
HETATM    3  N4  UNL     1     -63.140  27.447 -30.288  1.00  0.00    -0.231 N 
HETATM    4  N5  UNL     1     -63.861  26.325 -30.433  1.00  0.00    -0.245 N 
HETATM    5  C6  UNL     1     -63.439  25.452 -29.470  1.00  0.00     0.293 A 
HETATM    6  O6  UNL     1     -63.877  24.271 -29.272  1.00  0.00    -0.264 OA
HETATM    7  C7  UNL     1     -64.905  25.914 -31.321  1.00  0.00     0.179 C 
HETATM    8  C8  UNL     1     -65.460  26.980 -32.199  1.00  0.00     0.129 C 
HETATM    9  C9  UNL     1     -66.979  27.071 -32.212  1.00  0.00     0.171 C 
HETATM   10  C12 UNL     1     -66.782  27.692 -30.859  1.00  0.00     0.234 C 
HETATM   11  O8  UNL     1     -67.375  27.750 -29.773  1.00  0.00    -0.272 OA
HETATM   12  N6  UNL     1     -65.580  28.204 -31.372  1.00  0.00    -0.324 N 
HETATM   13  C13 UNL     1     -64.577  29.272 -31.421  1.00  0.00     0.242 C 
HETATM   14  C15 UNL     1     -63.266  28.672 -31.102  1.00  0.00     0.085 C 
ENDROOT
BRANCH  14  15
HETATM   15  C16 UNL     1     -62.161  29.158 -31.471  1.00  0.00     0.124 C 
BRANCH  15  16
HETATM   16  N7  UNL     1     -61.533  30.063 -32.346  1.00  0.00    -0.322 N 
HETATM   17  C23 UNL     1     -61.846  31.217 -32.986  1.00  0.00     0.114 C 
HETATM   18  C24 UNL     1     -63.108  31.926 -33.255  1.00  0.00     0.097 C 
BRANCH  16  19
HETATM   19  C17 UNL     1     -60.151  29.502 -32.757  1.00  0.00     0.264 C 
BRANCH  19  20
HETATM   20  N8  UNL     1     -60.293  28.259 -33.463  1.00  0.00    -0.309 N 
HETATM   21  C18 UNL     1     -60.810  28.176 -34.720  1.00  0.00     0.187 A 
HETATM   22  N9  UNL     1     -60.733  26.889 -35.090  1.00  0.00    -0.345 N 
HETATM   23  C19 UNL     1     -60.196  26.146 -34.136  1.00  0.00     0.147 A 
ATOM     24  H9  UNL     1     -61.048  26.530 -35.992  1.00  0.00     0.167 HD
HETATM   25  C20 UNL     1     -59.931  24.797 -34.029  1.00  0.00     0.290 A 
HETATM   26  C22 UNL     1     -59.913  27.039 -33.079  1.00  0.00     0.158 A 
HETATM   27  O11 UNL     1     -60.200  24.052 -34.998  1.00  0.00    -0.265 OA
HETATM   28  N10 UNL     1     -59.394  24.349 -32.883  1.00  0.00    -0.154 N 
HETATM   29  C21 UNL     1     -59.127  25.217 -31.866  1.00  0.00     0.680 A 
ATOM     30  H10 UNL     1     -59.185  23.356 -32.773  1.00  0.00     0.187 HD
HETATM   31  N12 UNL     1     -59.378  26.525 -31.957  1.00  0.00    -0.174 N 
ATOM     32  H12 UNL     1     -59.163  27.139 -31.171  1.00  0.00     0.186 HD
BRANCH  29  33
HETATM   33  N11 UNL     1     -58.608  24.782 -30.753  1.00  0.00    -0.234 N 
ATOM     34 2H11 UNL     1     -59.034  23.958 -30.328  1.00  0.00     0.174 HD
ATOM     35 1H11 UNL     1     -57.807  25.260 -30.340  1.00  0.00     0.174 HD
ENDBRANCH  29  33
ENDBRANCH  19  20
ENDBRANCH  16  19
BRANCH  17  36
HETATM   36  O12 UNL     1     -60.822  31.897 -33.516  1.00  0.00    -0.349 OA
ATOM     37  H12 UNL     1     -60.985  32.322 -34.350  1.00  0.00     0.219 HD
ENDBRANCH  17  36
ENDBRANCH  15  16
ENDBRANCH  14  15
BRANCH  13  38
HETATM   38  C14 UNL     1     -64.978  30.265 -30.407  1.00  0.00     0.203 C 
HETATM   39  O9  UNL     1     -65.571  31.306 -30.772  1.00  0.00    -0.646 OA
HETATM   40  O10 UNL     1     -64.724  30.081 -29.077  1.00  0.00    -0.646 OA
ENDBRANCH  13  38
BRANCH   2  41
HETATM   41  N2  UNL     1     -61.369  28.276 -28.747  1.00  0.00    -0.222 N 
ATOM     42  H2  UNL     1     -61.716  29.209 -28.522  1.00  0.00     0.195 HD
BRANCH  41  43
HETATM   43  N3  UNL     1     -60.018  27.990 -28.527  1.00  0.00    -0.037 N 
HETATM   44  O4  UNL     1     -59.214  27.733 -29.434  1.00  0.00    -0.516 OA
HETATM   45  O5  UNL     1     -59.542  27.986 -27.239  1.00  0.00    -0.516 OA
ENDBRANCH  41  43
ENDBRANCH   2  41
BRANCH   1  46
HETATM   46  N1  UNL     1     -61.719  25.535 -27.624  1.00  0.00    -0.348 N 
ATOM     47  H1  UNL     1     -62.093  25.703 -26.690  1.00  0.00     0.163 HD
BRANCH  46  48
HETATM   48  C3  UNL     1     -60.499  24.793 -27.729  1.00  0.00     0.320 C 
BRANCH  48  49
HETATM   49  C2  UNL     1     -60.668  23.362 -28.060  1.00  0.00     0.307 C 
HETATM   50  O2  UNL     1     -60.741  23.009 -29.275  1.00  0.00    -0.260 OA
BRANCH  49  51
HETATM   51  O1  UNL     1     -60.755  22.344 -27.134  1.00  0.00    -0.323 OA
HETATM   52  C1  UNL     1     -60.208  21.056 -27.350  1.00  0.00     0.213 C 
ENDBRANCH  49  51
ENDBRANCH  48  49
BRANCH  48  53
HETATM   53  O3  UNL     1     -59.873  24.800 -26.456  1.00  0.00    -0.368 OA
ATOM     54  H3  UNL     1     -59.806  25.718 -26.224  1.00  0.00     0.212 HD
ENDBRANCH  48  53
ENDBRANCH  46  48
ENDBRANCH   1  46
BRANCH   9  55
HETATM   55  C10 UNL     1     -67.730  25.824 -32.262  1.00  0.00     0.138 C 
HETATM   56  C11 UNL     1     -67.627  25.038 -33.549  1.00  0.00     0.091 C 
HETATM   57  O7  UNL     1     -68.428  25.331 -31.412  1.00  0.00    -0.297 OA
ENDBRANCH   9  55
TORSDOF 15
ENDMDL
MODEL 3
REMARK VINA RESULT: -7.256852124      2.561      6.519
REMARK  15 active torsions:
REMARK  status: ('A' for Active; 'I' for Inactive)
REMARK    1  A    between atoms: O1_2  and  C2_3 
REMARK    2  A    between atoms: C2_3  and  C3_5 
REMARK    3  A    between atoms: C3_5  and  O3_6 
REMARK    4  A    between atoms: C3_5  and  N1_8 
REMARK    5  A    between atoms: N1_8  and  C4_10 
REMARK    6  A    between atoms: C5_11  and  N2_12 
REMARK    7  A    between atoms: N2_12  and  N3_14 
REMARK    8  A    between atoms: C9_23  and  C10_24 
REMARK    9  A    between atoms: C13_30  and  C14_31 
REMARK   10  A    between atoms: C15_34  and  C16_35 
REMARK   11  A    between atoms: C16_35  and  N7_36 
REMARK   12  A    between atoms: N7_36  and  C17_37 
REMARK   13  A    between atoms: C17_37  and  N8_38 
REMARK   14  A    between atoms: C21_47  and  N11_48 
REMARK   15  A    between atoms: C23_54  and  O12_56 
ROOT
HETATM    1  C4  UNL     1     -65.507  26.179 -33.726  1.00  0.00     0.148 A 
HETATM    2  C5  UNL     1     -64.934  26.082 -32.463  1.00  0.00     0.179 A 
HETATM    3  N4  UNL     1     -64.055  27.085 -32.327  1.00  0.00    -0.231 N 
HETATM    4  N5  UNL     1     -64.026  27.835 -33.439  1.00  0.00    -0.245 N 
HETATM    5  C6  UNL     1     -64.920  27.285 -34.314  1.00  0.00     0.293 A 
HETATM    6  O6  UNL     1     -65.189  27.705 -35.488  1.00  0.00    -0.264 OA
HETATM    7  C7  UNL     1     -63.305  29.004 -33.839  1.00  0.00     0.179 C 
HETATM    8  C8  UNL     1     -62.513  29.669 -32.769  1.00  0.00     0.129 C 
HETATM    9  C9  UNL     1     -62.725  31.172 -32.657  1.00  0.00     0.171 C 
HETATM   10  C12 UNL     1     -64.030  30.768 -32.033  1.00  0.00     0.234 C 
HETATM   11  O8  UNL     1     -65.192  31.192 -31.962  1.00  0.00    -0.272 OA
HETATM   12  N6  UNL     1     -63.341  29.649 -31.540  1.00  0.00    -0.324 N 
HETATM   13  C13 UNL     1     -63.137  28.650 -30.486  1.00  0.00     0.242 C 
HETATM   14  C15 UNL     1     -63.262  27.314 -31.103  1.00  0.00     0.085 C 
ENDROOT
BRANCH  14  15
HETATM   15  C16 UNL     1     -62.730  26.270 -30.634  1.00  0.00     0.124 C 
BRANCH  15  16
HETATM   16  N7  UNL     1     -61.516  25.595 -30.408  1.00  0.00    -0.322 N 
HETATM   17  C23 UNL     1     -60.407  25.265 -31.115  1.00  0.00     0.114 C 
HETATM   18  C24 UNL     1     -60.078  25.250 -32.550  1.00  0.00     0.097 C 
BRANCH  16  19
HETATM   19  C17 UNL     1     -61.530  24.979 -28.989  1.00  0.00     0.264 C 
BRANCH  19  20
HETATM   20  N8  UNL     1     -61.488  26.006 -27.985  1.00  0.00    -0.309 N 
HETATM   21  C18 UNL     1     -60.359  26.709 -27.693  1.00  0.00     0.187 A 
HETATM   22  N9  UNL     1     -60.695  27.619 -26.766  1.00  0.00    -0.345 N 
HETATM   23  C19 UNL     1     -61.977  27.533 -26.449  1.00  0.00     0.147 A 
ATOM     24  H9  UNL     1     -60.045  28.291 -26.357  1.00  0.00     0.167 HD
HETATM   25  C20 UNL     1     -62.776  28.214 -25.556  1.00  0.00     0.290 A 
HETATM   26  C22 UNL     1     -62.489  26.482 -27.242  1.00  0.00     0.158 A 
HETATM   27  O11 UNL     1     -62.269  29.139 -24.880  1.00  0.00    -0.265 OA
HETATM   28  N10 UNL     1     -64.063  27.850 -25.455  1.00  0.00    -0.154 N 
HETATM   29  C21 UNL     1     -64.549  26.832 -26.222  1.00  0.00     0.680 A 
ATOM     30  H10 UNL     1     -64.680  28.336 -24.803  1.00  0.00     0.187 HD
HETATM   31  N12 UNL     1     -63.788  26.164 -27.091  1.00  0.00    -0.174 N 
ATOM     32  H12 UNL     1     -64.192  25.409 -27.644  1.00  0.00     0.186 HD
BRANCH  29  33
HETATM   33  N11 UNL     1     -65.798  26.477 -26.122  1.00  0.00    -0.234 N 
ATOM     34 2H11 UNL     1     -66.097  26.051 -25.245  1.00  0.00     0.174 HD
ATOM     35 1H11 UNL     1     -66.438  26.628 -26.903  1.00  0.00     0.174 HD
ENDBRANCH  29  33
ENDBRANCH  19  20
ENDBRANCH  16  19
BRANCH  17  36
HETATM   36  O12 UNL     1     -59.353  24.849 -30.403  1.00  0.00    -0.349 OA
ATOM     37  H12 UNL     1     -58.645  25.474 -30.296  1.00  0.00     0.219 HD
ENDBRANCH  17  36
ENDBRANCH  15  16
ENDBRANCH  14  15
BRANCH  13  38
HETATM   38  C14 UNL     1     -64.194  28.883 -29.484  1.00  0.00     0.203 C 
HETATM   39  O9  UNL     1     -65.349  28.452 -29.703  1.00  0.00    -0.646 OA
HETATM   40  O10 UNL     1     -63.948  29.553 -28.319  1.00  0.00    -0.646 OA
ENDBRANCH  13  38
BRANCH   2  41
HETATM   41  N2  UNL     1     -65.311  25.094 -31.516  1.00  0.00    -0.222 N 
ATOM     42  H2  UNL     1     -64.964  24.142 -31.636  1.00  0.00     0.195 HD
BRANCH  41  43
HETATM   43  N3  UNL     1     -66.140  25.375 -30.425  1.00  0.00    -0.037 N 
HETATM   44  O4  UNL     1     -67.293  25.816 -30.534  1.00  0.00    -0.516 OA
HETATM   45  O5  UNL     1     -65.663  25.158 -29.156  1.00  0.00    -0.516 OA
ENDBRANCH  41  43
ENDBRANCH   2  41
BRANCH   1  46
HETATM   46  N1  UNL     1     -66.490  25.309 -34.248  1.00  0.00    -0.348 N 
ATOM     47  H1  UNL     1     -66.171  24.478 -34.747  1.00  0.00     0.163 HD
BRANCH  46  48
HETATM   48  C3  UNL     1     -67.902  25.512 -34.125  1.00  0.00     0.320 C 
BRANCH  48  49
HETATM   49  C2  UNL     1     -68.321  26.927 -34.043  1.00  0.00     0.307 C 
HETATM   50  O2  UNL     1     -68.475  27.593 -35.110  1.00  0.00    -0.260 OA
BRANCH  49  51
HETATM   51  O1  UNL     1     -68.569  27.609 -32.870  1.00  0.00    -0.323 OA
HETATM   52  C1  UNL     1     -67.844  28.760 -32.480  1.00  0.00     0.213 C 
ENDBRANCH  49  51
ENDBRANCH  48  49
BRANCH  48  53
HETATM   53  O3  UNL     1     -68.319  24.937 -32.897  1.00  0.00    -0.368 OA
ATOM     54  H3  UNL     1     -69.241  24.742 -33.021  1.00  0.00     0.212 HD
ENDBRANCH  48  53
ENDBRANCH  46  48
ENDBRANCH   1  46
BRANCH   9  55
HETATM   55  C10 UNL     1     -62.796  31.939 -33.893  1.00  0.00     0.138 C 
HETATM   56  C11 UNL     1     -61.481  32.179 -34.600  1.00  0.00     0.091 C 
HETATM   57  O7  UNL     1     -63.764  32.412 -34.431  1.00  0.00    -0.297 OA
ENDBRANCH   9  55
TORSDOF 15
ENDMDL
MODEL 4
REMARK VINA RESULT: -7.204981194      1.762      2.192
REMARK  15 active torsions:
REMARK  status: ('A' for Active; 'I' for Inactive)
REMARK    1  A    between atoms: O1_2  and  C2_3 
REMARK    2  A    between atoms: C2_3  and  C3_5 
REMARK    3  A    between atoms: C3_5  and  O3_6 
REMARK    4  A    between atoms: C3_5  and  N1_8 
REMARK    5  A    between atoms: N1_8  and  C4_10 
REMARK    6  A    between atoms: C5_11  and  N2_12 
REMARK    7  A    between atoms: N2_12  and  N3_14 
REMARK    8  A    between atoms: C9_23  and  C10_24 
REMARK    9  A    between atoms: C13_30  and  C14_31 
REMARK   10  A    between atoms: C15_34  and  C16_35 
REMARK   11  A    between atoms: C16_35  and  N7_36 
REMARK   12  A    between atoms: N7_36  and  C17_37 
REMARK   13  A    between atoms: C17_37  and  N8_38 
REMARK   14  A    between atoms: C21_47  and  N11_48 
REMARK   15  A    between atoms: C23_54  and  O12_56 
ROOT
HETATM    1  C4  UNL     1     -65.797  26.812 -30.744  1.00  0.00     0.148 A 
HETATM    2  C5  UNL     1     -64.635  27.277 -31.351  1.00  0.00     0.179 A 
HETATM    3  N4  UNL     1     -63.890  27.880 -30.415  1.00  0.00    -0.231 N 
HETATM    4  N5  UNL     1     -64.505  27.831 -29.224  1.00  0.00    -0.245 N 
HETATM    5  C6  UNL     1     -65.687  27.171 -29.413  1.00  0.00     0.293 A 
HETATM    6  O6  UNL     1     -66.564  26.917 -28.523  1.00  0.00    -0.264 OA
HETATM    7  C7  UNL     1     -64.178  28.290 -27.909  1.00  0.00     0.179 C 
HETATM    8  C8  UNL     1     -62.793  28.805 -27.733  1.00  0.00     0.129 C 
HETATM    9  C9  UNL     1     -62.047  28.238 -26.535  1.00  0.00     0.171 C 
HETATM   10  C12 UNL     1     -61.940  27.015 -27.399  1.00  0.00     0.234 C 
HETATM   11  O8  UNL     1     -61.905  25.783 -27.260  1.00  0.00    -0.272 OA
HETATM   12  N6  UNL     1     -61.894  27.900 -28.487  1.00  0.00    -0.324 N 
HETATM   13  C13 UNL     1     -61.399  28.239 -29.824  1.00  0.00     0.242 C 
HETATM   14  C15 UNL     1     -62.572  28.487 -30.688  1.00  0.00     0.085 C 
ENDROOT
BRANCH  14  15
HETATM   15  C16 UNL     1     -62.543  29.206 -31.725  1.00  0.00     0.124 C 
BRANCH  15  16
HETATM   16  N7  UNL     1     -62.033  30.385 -32.297  1.00  0.00    -0.322 N 
HETATM   17  C23 UNL     1     -62.482  31.631 -32.591  1.00  0.00     0.114 C 
HETATM   18  C24 UNL     1     -63.819  32.242 -32.673  1.00  0.00     0.097 C 
BRANCH  16  19
HETATM   19  C17 UNL     1     -60.602  30.121 -32.823  1.00  0.00     0.264 C 
BRANCH  19  20
HETATM   20  N8  UNL     1     -60.634  29.307 -34.006  1.00  0.00    -0.309 N 
HETATM   21  C18 UNL     1     -60.979  29.794 -35.231  1.00  0.00     0.187 A 
HETATM   22  N9  UNL     1     -60.838  28.786 -36.105  1.00  0.00    -0.345 N 
HETATM   23  C19 UNL     1     -60.424  27.682 -35.504  1.00  0.00     0.147 A 
ATOM     24  H9  UNL     1     -61.026  28.861 -37.105  1.00  0.00     0.167 HD
HETATM   25  C20 UNL     1     -60.160  26.406 -35.954  1.00  0.00     0.290 A 
HETATM   26  C22 UNL     1     -60.294  28.024 -34.140  1.00  0.00     0.158 A 
HETATM   27  O11 UNL     1     -60.289  26.160 -37.175  1.00  0.00    -0.265 OA
HETATM   28  N10 UNL     1     -59.775  25.487 -35.056  1.00  0.00    -0.154 N 
HETATM   29  C21 UNL     1     -59.656  25.824 -33.739  1.00  0.00     0.680 A 
ATOM     30  H10 UNL     1     -59.571  24.534 -35.358  1.00  0.00     0.187 HD
HETATM   31  N12 UNL     1     -59.908  27.055 -33.290  1.00  0.00    -0.174 N 
ATOM     32  H12 UNL     1     -59.806  27.263 -32.296  1.00  0.00     0.186 HD
BRANCH  29  33
HETATM   33  N11 UNL     1     -59.285  24.931 -32.867  1.00  0.00    -0.234 N 
ATOM     34 2H11 UNL     1     -59.934  24.171 -32.667  1.00  0.00     0.174 HD
ATOM     35 1H11 UNL     1     -58.374  25.007 -32.411  1.00  0.00     0.174 HD
ENDBRANCH  29  33
ENDBRANCH  19  20
ENDBRANCH  16  19
BRANCH  17  36
HETATM   36  O12 UNL     1     -61.548  32.542 -32.887  1.00  0.00    -0.349 OA
ATOM     37  H12 UNL     1     -61.853  33.334 -33.314  1.00  0.00     0.219 HD
ENDBRANCH  17  36
ENDBRANCH  15  16
ENDBRANCH  14  15
BRANCH  13  38
HETATM   38  C14 UNL     1     -60.624  27.074 -30.288  1.00  0.00     0.203 C 
HETATM   39  O9  UNL     1     -61.231  26.033 -30.631  1.00  0.00    -0.646 OA
HETATM   40  O10 UNL     1     -59.260  27.095 -30.357  1.00  0.00    -0.646 OA
ENDBRANCH  13  38
BRANCH   2  41
HETATM   41  N2  UNL     1     -64.339  27.061 -32.722  1.00  0.00    -0.222 N 
ATOM     42  H2  UNL     1     -64.449  27.836 -33.377  1.00  0.00     0.195 HD
BRANCH  41  43
HETATM   43  N3  UNL     1     -63.903  25.825 -33.212  1.00  0.00    -0.037 N 
HETATM   44  O4  UNL     1     -62.747  25.611 -33.604  1.00  0.00    -0.516 OA
HETATM   45  O5  UNL     1     -64.793  24.782 -33.270  1.00  0.00    -0.516 OA
ENDBRANCH  41  43
ENDBRANCH   2  41
BRANCH   1  46
HETATM   46  N1  UNL     1     -66.836  26.110 -31.395  1.00  0.00    -0.348 N 
ATOM     47  H1  UNL     1     -66.692  25.118 -31.584  1.00  0.00     0.163 HD
BRANCH  46  48
HETATM   48  C3  UNL     1     -68.076  26.694 -31.807  1.00  0.00     0.320 C 
BRANCH  48  49
HETATM   49  C2  UNL     1     -68.103  27.174 -33.205  1.00  0.00     0.307 C 
HETATM   50  O2  UNL     1     -69.116  26.931 -33.926  1.00  0.00    -0.260 OA
BRANCH  49  51
HETATM   51  O1  UNL     1     -67.091  27.886 -33.814  1.00  0.00    -0.323 OA
HETATM   52  C1  UNL     1     -67.137  29.290 -33.994  1.00  0.00     0.213 C 
ENDBRANCH  49  51
ENDBRANCH  48  49
BRANCH  48  53
HETATM   53  O3  UNL     1     -68.293  27.855 -31.021  1.00  0.00    -0.368 OA
ATOM     54  H3  UNL     1     -67.426  28.128 -30.745  1.00  0.00     0.212 HD
ENDBRANCH  48  53
ENDBRANCH  46  48
ENDBRANCH   1  46
BRANCH   9  55
HETATM   55  C10 UNL     1     -62.781  28.099 -25.285  1.00  0.00     0.138 C 
HETATM   56  C11 UNL     1     -62.205  28.830 -24.093  1.00  0.00     0.091 C 
HETATM   57  O7  UNL     1     -63.789  27.476 -25.069  1.00  0.00    -0.297 OA
ENDBRANCH   9  55
TORSDOF 15
ENDMDL
MODEL 5
REMARK VINA RESULT: -7.201812850      2.537      6.094
REMARK  15 active torsions:
REMARK  status: ('A' for Active; 'I' for Inactive)
REMARK    1  A    between atoms: O1_2  and  C2_3 
REMARK    2  A    between atoms: C2_3  and  C3_5 
REMARK    3  A    between atoms: C3_5  and  O3_6 
REMARK    4  A    between atoms: C3_5  and  N1_8 
REMARK    5  A    between atoms: N1_8  and  C4_10 
REMARK    6  A    between atoms: C5_11  and  N2_12 
REMARK    7  A    between atoms: N2_12  and  N3_14 
REMARK    8  A    between atoms: C9_23  and  C10_24 
REMARK    9  A    between atoms: C13_30  and  C14_31 
REMARK   10  A    between atoms: C15_34  and  C16_35 
REMARK   11  A    between atoms: C16_35  and  N7_36 
REMARK   12  A    between atoms: N7_36  and  C17_37 
REMARK   13  A    between atoms: C17_37  and  N8_38 
REMARK   14  A    between atoms: C21_47  and  N11_48 
REMARK   15  A    between atoms: C23_54  and  O12_56 
ROOT
HETATM    1  C4  UNL     1     -61.940  25.731 -29.087  1.00  0.00     0.148 A 
HETATM    2  C5  UNL     1     -61.826  26.925 -29.791  1.00  0.00     0.179 A 
HETATM    3  N4  UNL     1     -62.817  26.973 -30.692  1.00  0.00    -0.231 N 
HETATM    4  N5  UNL     1     -63.576  25.869 -30.610  1.00  0.00    -0.245 N 
HETATM    5  C6  UNL     1     -63.044  25.092 -29.620  1.00  0.00     0.293 A 
HETATM    6  O6  UNL     1     -63.478  23.956 -29.232  1.00  0.00    -0.264 OA
HETATM    7  C7  UNL     1     -64.740  25.403 -31.299  1.00  0.00     0.179 C 
HETATM    8  C8  UNL     1     -65.387  26.386 -32.209  1.00  0.00     0.129 C 
HETATM    9  C9  UNL     1     -66.891  26.532 -32.030  1.00  0.00     0.171 C 
HETATM   10  C12 UNL     1     -66.496  27.289 -30.795  1.00  0.00     0.234 C 
HETATM   11  O8  UNL     1     -66.934  27.488 -29.652  1.00  0.00    -0.272 OA
HETATM   12  N6  UNL     1     -65.365  27.697 -31.518  1.00  0.00    -0.324 N 
HETATM   13  C13 UNL     1     -64.355  28.715 -31.822  1.00  0.00     0.242 C 
HETATM   14  C15 UNL     1     -63.026  28.105 -31.615  1.00  0.00     0.085 C 
ENDROOT
BRANCH  14  15
HETATM   15  C16 UNL     1     -61.971  28.506 -32.182  1.00  0.00     0.124 C 
BRANCH  15  16
HETATM   16  N7  UNL     1     -61.323  28.688 -33.416  1.00  0.00    -0.322 N 
HETATM   17  C23 UNL     1     -61.659  29.048 -34.681  1.00  0.00     0.114 C 
HETATM   18  C24 UNL     1     -62.936  29.170 -35.402  1.00  0.00     0.097 C 
BRANCH  16  19
HETATM   19  C17 UNL     1     -59.847  28.242 -33.290  1.00  0.00     0.264 C 
BRANCH  19  20
HETATM   20  N8  UNL     1     -59.715  26.833 -33.536  1.00  0.00    -0.309 N 
HETATM   21  C18 UNL     1     -59.851  25.895 -32.558  1.00  0.00     0.187 A 
HETATM   22  N9  UNL     1     -59.732  24.696 -33.147  1.00  0.00    -0.345 N 
HETATM   23  C19 UNL     1     -59.525  24.819 -34.448  1.00  0.00     0.147 A 
ATOM     24  H9  UNL     1     -59.793  23.804 -32.655  1.00  0.00     0.167 HD
HETATM   25  C20 UNL     1     -59.320  23.905 -35.461  1.00  0.00     0.290 A 
HETATM   26  C22 UNL     1     -59.512  26.209 -34.697  1.00  0.00     0.158 A 
HETATM   27  O11 UNL     1     -59.345  22.684 -35.183  1.00  0.00    -0.265 OA
HETATM   28  N10 UNL     1     -59.105  24.374 -36.700  1.00  0.00    -0.154 N 
HETATM   29  C21 UNL     1     -59.091  25.718 -36.931  1.00  0.00     0.680 A 
ATOM     30  H10 UNL     1     -58.952  23.723 -37.470  1.00  0.00     0.187 HD
HETATM   31  N12 UNL     1     -59.288  26.613 -35.961  1.00  0.00    -0.174 N 
ATOM     32  H12 UNL     1     -59.268  27.609 -36.178  1.00  0.00     0.186 HD
BRANCH  29  33
HETATM   33  N11 UNL     1     -58.880  26.172 -38.133  1.00  0.00    -0.234 N 
ATOM     34 2H11 UNL     1     -58.128  26.851 -38.253  1.00  0.00     0.174 HD
ATOM     35 1H11 UNL     1     -59.455  25.850 -38.911  1.00  0.00     0.174 HD
ENDBRANCH  29  33
ENDBRANCH  19  20
ENDBRANCH  16  19
BRANCH  17  36
HETATM   36  O12 UNL     1     -60.645  29.364 -35.495  1.00  0.00    -0.349 OA
ATOM     37  H12 UNL     1     -60.794  30.090 -36.089  1.00  0.00     0.219 HD
ENDBRANCH  17  36
ENDBRANCH  15  16
ENDBRANCH  14  15
BRANCH  13  38
HETATM   38  C14 UNL     1     -64.591  29.827 -30.883  1.00  0.00     0.203 C 
HETATM   39  O9  UNL     1     -64.317  29.672 -29.671  1.00  0.00    -0.646 OA
HETATM   40  O10 UNL     1     -65.098  31.026 -31.297  1.00  0.00    -0.646 OA
ENDBRANCH  13  38
BRANCH   2  41
HETATM   41  N2  UNL     1     -60.833  27.899 -29.506  1.00  0.00    -0.222 N 
ATOM     42  H2  UNL     1     -60.467  28.465 -30.272  1.00  0.00     0.195 HD
BRANCH  41  43
HETATM   43  N3  UNL     1     -60.339  28.114 -28.215  1.00  0.00    -0.037 N 
HETATM   44  O4  UNL     1     -61.024  28.556 -27.282  1.00  0.00    -0.516 OA
HETATM   45  O5  UNL     1     -59.023  27.826 -27.953  1.00  0.00    -0.516 OA
ENDBRANCH  41  43
ENDBRANCH   2  41
BRANCH   1  46
HETATM   46  N1  UNL     1     -61.086  25.312 -28.042  1.00  0.00    -0.348 N 
ATOM     47  H1  UNL     1     -61.164  25.791 -27.145  1.00  0.00     0.163 HD
BRANCH  46  48
HETATM   48  C3  UNL     1     -60.119  24.262 -28.156  1.00  0.00     0.320 C 
BRANCH  48  49
HETATM   49  C2  UNL     1     -60.120  23.293 -27.040  1.00  0.00     0.307 C 
HETATM   50  O2  UNL     1     -59.381  23.505 -26.032  1.00  0.00    -0.260 OA
BRANCH  49  51
HETATM   51  O1  UNL     1     -60.877  22.142 -26.997  1.00  0.00    -0.323 OA
HETATM   52  C1  UNL     1     -61.218  21.399 -28.153  1.00  0.00     0.213 C 
ENDBRANCH  49  51
ENDBRANCH  48  49
BRANCH  48  53
HETATM   53  O3  UNL     1     -58.829  24.853 -28.123  1.00  0.00    -0.368 OA
ATOM     54  H3  UNL     1     -58.644  25.083 -29.025  1.00  0.00     0.212 HD
ENDBRANCH  48  53
ENDBRANCH  46  48
ENDBRANCH   1  46
BRANCH   9  55
HETATM   55  C10 UNL     1     -67.669  25.316 -31.836  1.00  0.00     0.138 C 
HETATM   56  C11 UNL     1     -67.616  24.308 -32.962  1.00  0.00     0.091 C 
HETATM   57  O7  UNL     1     -68.355  25.002 -30.896  1.00  0.00    -0.297 OA
ENDBRANCH   9  55
TORSDOF 15
ENDMDL
