MODEL 1
REMARK VINA RESULT: -7.056109233      0.000      0.000
REMARK  21 active torsions:
REMARK  status: ('A' for Active; 'I' for Inactive)
REMARK    1  A    between atoms: C2_2  and  O2_4 
REMARK    2  A    between atoms: O2_4  and  C3_5 
REMARK    3  A    between atoms: C3_5  and  C4_6 
REMARK    4  A    between atoms: C3_5  and  C5_9 
REMARK    5  A    between atoms: C5_9  and  O5_10 
REMARK    6  A    between atoms: C5_9  and  C8_14 
REMARK    7  A    between atoms: O5_10  and  C6_11 
REMARK    8  A    between atoms: C8_14  and  O7_15 
REMARK    9  A    between atoms: C8_14  and  C9_17 
REMARK   10  A    between atoms: C9_17  and  O8_18 
REMARK   11  A    between atoms: C9_17  and  C10_20 
REMARK   12  A    between atoms: C13_25  and  O11_26 
REMARK   13  A    between atoms: O11_26  and  C14_27 
REMARK   14  A    between atoms: C15_28  and  N1_29 
REMARK   15  A    between atoms: C17_34  and  O12_35 
REMARK   16  A    between atoms: C18_37  and  O13_39 
REMARK   17  A    between atoms: C21_42  and  O14_43 
REMARK   18  A    between atoms: C22_45  and  O15_46 
REMARK   19  A    between atoms: O15_46  and  C23_47 
REMARK   20  A    between atoms: C25_50  and  O17_51 
REMARK   21  A    between atoms: O17_51  and  C26_52 
ROOT
HETATM    1  C10 UNL     1     -63.045  26.229 -29.639  1.00  0.00     0.186 C 
HETATM    2  O9  UNL     1     -62.335  25.583 -30.680  1.00  0.00    -0.364 OA
HETATM    3  C11 UNL     1     -61.030  25.921 -30.802  1.00  0.00     0.116 C 
HETATM    4  C12 UNL     1     -60.915  27.374 -31.156  1.00  0.00     0.211 C 
HETATM    5  O10 UNL     1     -60.089  27.499 -32.227  1.00  0.00    -0.358 OA
HETATM    6  C13 UNL     1     -59.619  26.283 -32.656  1.00  0.00     0.263 C 
HETATM    7  C20 UNL     1     -60.516  25.259 -32.068  1.00  0.00     0.104 C 
HETATM    8  C21 UNL     1     -60.191  25.547 -29.599  1.00  0.00     0.187 C 
HETATM    9  C22 UNL     1     -61.024  25.381 -28.361  1.00  0.00     0.195 C 
HETATM   10  C25 UNL     1     -62.269  26.277 -28.394  1.00  0.00     0.195 C 
ENDROOT
BRANCH   1  11
HETATM   11  C9  UNL     1     -64.355  25.419 -29.617  1.00  0.00     0.181 C 
BRANCH  11  12
HETATM   12  C8  UNL     1     -65.046  25.168 -30.835  1.00  0.00     0.182 C 
BRANCH  12  13
HETATM   13  C5  UNL     1     -66.430  25.711 -31.147  1.00  0.00     0.203 C 
BRANCH  13  14
HETATM   14  C3  UNL     1     -67.235  25.056 -32.186  1.00  0.00     0.264 C 
BRANCH  14  15
HETATM   15  O2  UNL     1     -66.676  25.393 -33.504  1.00  0.00    -0.303 OA
BRANCH  15  16
HETATM   16  C2  UNL     1     -66.247  24.424 -34.362  1.00  0.00     0.255 C 
HETATM   17  C1  UNL     1     -67.008  24.141 -35.602  1.00  0.00     0.126 C 
HETATM   18  O1  UNL     1     -65.202  23.779 -34.086  1.00  0.00    -0.266 OA
ENDBRANCH  15  16
ENDBRANCH  14  15
BRANCH  14  19
HETATM   19  C4  UNL     1     -68.594  25.719 -32.336  1.00  0.00     0.206 C 
HETATM   20  O3  UNL     1     -69.485  25.750 -31.500  1.00  0.00    -0.646 OA
HETATM   21  O4  UNL     1     -68.884  26.368 -33.555  1.00  0.00    -0.646 OA
ENDBRANCH  14  19
ENDBRANCH  13  14
BRANCH  13  22
HETATM   22  O5  UNL     1     -66.114  27.091 -31.540  1.00  0.00    -0.310 OA
BRANCH  22  23
HETATM   23  C6  UNL     1     -66.658  28.168 -30.899  1.00  0.00     0.255 C 
HETATM   24  C7  UNL     1     -66.609  29.547 -31.457  1.00  0.00     0.126 C 
HETATM   25  O6  UNL     1     -67.220  27.967 -29.790  1.00  0.00    -0.266 OA
ENDBRANCH  22  23
ENDBRANCH  13  22
ENDBRANCH  12  13
BRANCH  12  26
HETATM   26  O7  UNL     1     -64.288  25.882 -31.879  1.00  0.00    -0.390 OA
ATOM     27  H7  UNL     1     -63.534  25.305 -31.927  1.00  0.00     0.210 HD
ENDBRANCH  12  26
ENDBRANCH  11  12
BRANCH  11  28
HETATM   28  O8  UNL     1     -65.137  26.227 -28.702  1.00  0.00    -0.390 OA
ATOM     29  H8  UNL     1     -65.886  25.755 -28.358  1.00  0.00     0.210 HD
ENDBRANCH  11  28
ENDBRANCH   1  11
BRANCH  10  30
HETATM   30  O17 UNL     1     -62.890  26.096 -27.161  1.00  0.00    -0.311 OA
BRANCH  30  31
HETATM   31  C26 UNL     1     -63.301  27.169 -26.347  1.00  0.00     0.255 C 
HETATM   32  C27 UNL     1     -62.402  28.331 -26.235  1.00  0.00     0.126 C 
HETATM   33  O18 UNL     1     -64.386  27.146 -25.738  1.00  0.00    -0.266 OA
ENDBRANCH  30  31
ENDBRANCH  10  30
BRANCH   9  34
HETATM   34  O15 UNL     1     -61.279  24.068 -27.966  1.00  0.00    -0.311 OA
BRANCH  34  35
HETATM   35  C23 UNL     1     -60.558  23.293 -27.125  1.00  0.00     0.255 C 
HETATM   36  C24 UNL     1     -59.386  23.841 -26.412  1.00  0.00     0.126 C 
HETATM   37  O16 UNL     1     -60.894  22.122 -26.962  1.00  0.00    -0.266 OA
ENDBRANCH  34  35
ENDBRANCH   9  34
BRANCH   8  38
HETATM   38  O14 UNL     1     -59.494  24.387 -29.909  1.00  0.00    -0.390 OA
ATOM     39  H14 UNL     1     -59.061  24.087 -29.118  1.00  0.00     0.210 HD
ENDBRANCH   8  38
BRANCH   6  40
HETATM   40  O11 UNL     1     -59.665  26.323 -34.048  1.00  0.00    -0.351 OA
BRANCH  40  41
HETATM   41  C14 UNL     1     -59.934  25.129 -34.655  1.00  0.00     0.191 C 
HETATM   42  C15 UNL     1     -58.848  24.776 -35.680  1.00  0.00     0.218 C 
HETATM   43  C16 UNL     1     -59.032  25.901 -36.675  1.00  0.00     0.070 C 
HETATM   44  C17 UNL     1     -60.528  26.113 -36.713  1.00  0.00     0.156 C 
HETATM   45  C18 UNL     1     -61.114  25.340 -35.574  1.00  0.00     0.108 C 
HETATM   46  C19 UNL     1     -62.204  26.190 -34.916  1.00  0.00     0.051 C 
BRANCH  42  47
HETATM   47  N1  UNL     1     -59.157  23.544 -36.329  1.00  0.00    -0.072 N 
ATOM     48  H13 UNL     1     -58.615  22.768 -35.949  1.00  0.00     0.274 HD
ATOM     49  H12 UNL     1     -60.090  23.211 -36.086  1.00  0.00     0.274 HD
ATOM     50  H11 UNL     1     -59.036  23.633 -37.338  1.00  0.00     0.274 HD
ENDBRANCH  42  47
BRANCH  44  51
HETATM   51  O12 UNL     1     -60.767  27.469 -36.487  1.00  0.00    -0.392 OA
ATOM     52  H12 UNL     1     -61.188  27.820 -37.263  1.00  0.00     0.210 HD
ENDBRANCH  44  51
BRANCH  45  53
HETATM   53  O13 UNL     1     -61.712  24.152 -35.975  1.00  0.00    -0.385 OA
ATOM     54  H13 UNL     1     -61.379  23.828 -36.803  1.00  0.00     0.210 HD
ENDBRANCH  45  53
ENDBRANCH  40  41
ENDBRANCH   6  40
TORSDOF 21
ENDMDL
MODEL 2
REMARK VINA RESULT: -7.040008693      2.528      6.878
REMARK  21 active torsions:
REMARK  status: ('A' for Active; 'I' for Inactive)
REMARK    1  A    between atoms: C2_2  and  O2_4 
REMARK    2  A    between atoms: O2_4  and  C3_5 
REMARK    3  A    between atoms: C3_5  and  C4_6 
REMARK    4  A    between atoms: C3_5  and  C5_9 
REMARK    5  A    between atoms: C5_9  and  O5_10 
REMARK    6  A    between atoms: C5_9  and  C8_14 
REMARK    7  A    between atoms: O5_10  and  C6_11 
REMARK    8  A    between atoms: C8_14  and  O7_15 
REMARK    9  A    between atoms: C8_14  and  C9_17 
REMARK   10  A    between atoms: C9_17  and  O8_18 
REMARK   11  A    between atoms: C9_17  and  C10_20 
REMARK   12  A    between atoms: C13_25  and  O11_26 
REMARK   13  A    between atoms: O11_26  and  C14_27 
REMARK   14  A    between atoms: C15_28  and  N1_29 
REMARK   15  A    between atoms: C17_34  and  O12_35 
REMARK   16  A    between atoms: C18_37  and  O13_39 
REMARK   17  A    between atoms: C21_42  and  O14_43 
REMARK   18  A    between atoms: C22_45  and  O15_46 
REMARK   19  A    between atoms: O15_46  and  C23_47 
REMARK   20  A    between atoms: C25_50  and  O17_51 
REMARK   21  A    between atoms: O17_51  and  C26_52 
ROOT
HETATM    1  C10 UNL     1     -62.310  26.210 -34.242  1.00  0.00     0.186 C 
HETATM    2  O9  UNL     1     -61.895  26.560 -32.934  1.00  0.00    -0.364 OA
HETATM    3  C11 UNL     1     -60.559  26.663 -32.746  1.00  0.00     0.116 C 
HETATM    4  C12 UNL     1     -59.913  25.327 -32.967  1.00  0.00     0.211 C 
HETATM    5  O10 UNL     1     -59.104  25.054 -31.911  1.00  0.00    -0.358 OA
HETATM    6  C13 UNL     1     -59.122  26.060 -30.978  1.00  0.00     0.263 C 
HETATM    7  C20 UNL     1     -60.333  26.867 -31.260  1.00  0.00     0.104 C 
HETATM    8  C21 UNL     1     -59.914  27.763 -33.563  1.00  0.00     0.187 C 
HETATM    9  C22 UNL     1     -60.744  28.139 -34.756  1.00  0.00     0.195 C 
HETATM   10  C25 UNL     1     -61.567  26.949 -35.269  1.00  0.00     0.195 C 
ENDROOT
BRANCH   1  11
HETATM   11  C9  UNL     1     -63.828  26.462 -34.157  1.00  0.00     0.181 C 
BRANCH  11  12
HETATM   12  C8  UNL     1     -64.488  26.351 -32.902  1.00  0.00     0.182 C 
BRANCH  12  13
HETATM   13  C5  UNL     1     -65.995  26.225 -32.751  1.00  0.00     0.203 C 
BRANCH  13  14
HETATM   14  C3  UNL     1     -66.619  26.611 -31.478  1.00  0.00     0.264 C 
BRANCH  14  15
HETATM   15  O2  UNL     1     -66.579  25.462 -30.561  1.00  0.00    -0.303 OA
BRANCH  15  16
HETATM   16  C2  UNL     1     -65.843  25.495 -29.413  1.00  0.00     0.255 C 
HETATM   17  C1  UNL     1     -66.409  26.100 -28.186  1.00  0.00     0.126 C 
HETATM   18  O1  UNL     1     -64.683  25.005 -29.414  1.00  0.00    -0.266 OA
ENDBRANCH  15  16
ENDBRANCH  14  15
BRANCH  14  19
HETATM   19  C4  UNL     1     -68.126  26.744 -31.616  1.00  0.00     0.206 C 
HETATM   20  O3  UNL     1     -68.948  25.848 -31.508  1.00  0.00    -0.646 OA
HETATM   21  O4  UNL     1     -68.655  28.021 -31.902  1.00  0.00    -0.646 OA
ENDBRANCH  14  19
ENDBRANCH  13  14
BRANCH  13  22
HETATM   22  O5  UNL     1     -66.188  24.790 -32.999  1.00  0.00    -0.310 OA
BRANCH  22  23
HETATM   23  C6  UNL     1     -67.121  24.328 -33.884  1.00  0.00     0.255 C 
HETATM   24  C7  UNL     1     -67.718  25.185 -34.945  1.00  0.00     0.126 C 
HETATM   25  O6  UNL     1     -67.480  23.125 -33.784  1.00  0.00    -0.266 OA
ENDBRANCH  22  23
ENDBRANCH  13  22
ENDBRANCH  12  13
BRANCH  12  26
HETATM   26  O7  UNL     1     -64.101  25.035 -32.360  1.00  0.00    -0.390 OA
ATOM     27  H7  UNL     1     -63.428  24.812 -32.994  1.00  0.00     0.210 HD
ENDBRANCH  12  26
ENDBRANCH  11  12
BRANCH  11  28
HETATM   28  O8  UNL     1     -64.301  25.480 -35.112  1.00  0.00    -0.390 OA
ATOM     29  H8  UNL     1     -63.863  24.643 -35.012  1.00  0.00     0.210 HD
ENDBRANCH  11  28
ENDBRANCH   1  11
BRANCH  10  30
HETATM   30  O17 UNL     1     -62.206  27.406 -36.419  1.00  0.00    -0.311 OA
BRANCH  30  31
HETATM   31  C26 UNL     1     -62.190  26.698 -37.636  1.00  0.00     0.255 C 
HETATM   32  C27 UNL     1     -61.182  27.081 -38.640  1.00  0.00     0.126 C 
HETATM   33  O18 UNL     1     -62.996  25.779 -37.864  1.00  0.00    -0.266 OA
ENDBRANCH  30  31
ENDBRANCH  10  30
BRANCH   9  34
HETATM   34  O15 UNL     1     -61.467  29.326 -34.650  1.00  0.00    -0.311 OA
BRANCH  34  35
HETATM   35  C23 UNL     1     -61.147  30.546 -35.134  1.00  0.00     0.255 C 
HETATM   36  C24 UNL     1     -61.279  30.844 -36.576  1.00  0.00     0.126 C 
HETATM   37  O16 UNL     1     -60.744  31.407 -34.356  1.00  0.00    -0.266 OA
ENDBRANCH  34  35
ENDBRANCH   9  34
BRANCH   8  38
HETATM   38  O14 UNL     1     -59.699  28.848 -32.725  1.00  0.00    -0.390 OA
ATOM     39  H14 UNL     1     -59.788  29.639 -33.242  1.00  0.00     0.210 HD
ENDBRANCH   8  38
BRANCH   6  40
HETATM   40  O11 UNL     1     -59.155  25.431 -29.735  1.00  0.00    -0.351 OA
BRANCH  40  41
HETATM   41  C14 UNL     1     -60.156  25.843 -28.901  1.00  0.00     0.191 C 
HETATM   42  C15 UNL     1     -59.587  26.367 -27.576  1.00  0.00     0.218 C 
HETATM   43  C16 UNL     1     -58.961  25.105 -27.026  1.00  0.00     0.070 C 
HETATM   44  C17 UNL     1     -59.922  24.012 -27.435  1.00  0.00     0.156 C 
HETATM   45  C18 UNL     1     -60.881  24.611 -28.415  1.00  0.00     0.108 C 
HETATM   46  C19 UNL     1     -61.116  23.605 -29.545  1.00  0.00     0.051 C 
BRANCH  42  47
HETATM   47  N1  UNL     1     -60.643  26.764 -26.703  1.00  0.00    -0.072 N 
ATOM     48  H13 UNL     1     -60.981  27.703 -26.917  1.00  0.00     0.274 HD
ATOM     49  H12 UNL     1     -61.503  26.248 -26.889  1.00  0.00     0.274 HD
ATOM     50  H11 UNL     1     -60.352  26.678 -25.729  1.00  0.00     0.274 HD
ENDBRANCH  42  47
BRANCH  44  51
HETATM   51  O12 UNL     1     -59.186  23.027 -28.093  1.00  0.00    -0.392 OA
ATOM     52  H12 UNL     1     -59.457  22.185 -27.745  1.00  0.00     0.210 HD
ENDBRANCH  44  51
BRANCH  45  53
HETATM   53  O13 UNL     1     -62.122  24.893 -27.858  1.00  0.00    -0.385 OA
ATOM     54  H13 UNL     1     -62.556  24.125 -27.507  1.00  0.00     0.210 HD
ENDBRANCH  45  53
ENDBRANCH  40  41
ENDBRANCH   6  40
TORSDOF 21
ENDMDL
MODEL 3
REMARK VINA RESULT: -7.037659580      2.345      6.723
REMARK  21 active torsions:
REMARK  status: ('A' for Active; 'I' for Inactive)
REMARK    1  A    between atoms: C2_2  and  O2_4 
REMARK    2  A    between atoms: O2_4  and  C3_5 
REMARK    3  A    between atoms: C3_5  and  C4_6 
REMARK    4  A    between atoms: C3_5  and  C5_9 
REMARK    5  A    between atoms: C5_9  and  O5_10 
REMARK    6  A    between atoms: C5_9  and  C8_14 
REMARK    7  A    between atoms: O5_10  and  C6_11 
REMARK    8  A    between atoms: C8_14  and  O7_15 
REMARK    9  A    between atoms: C8_14  and  C9_17 
REMARK   10  A    between atoms: C9_17  and  O8_18 
REMARK   11  A    between atoms: C9_17  and  C10_20 
REMARK   12  A    between atoms: C13_25  and  O11_26 
REMARK   13  A    between atoms: O11_26  and  C14_27 
REMARK   14  A    between atoms: C15_28  and  N1_29 
REMARK   15  A    between atoms: C17_34  and  O12_35 
REMARK   16  A    between atoms: C18_37  and  O13_39 
REMARK   17  A    between atoms: C21_42  and  O14_43 
REMARK   18  A    between atoms: C22_45  and  O15_46 
REMARK   19  A    between atoms: O15_46  and  C23_47 
REMARK   20  A    between atoms: C25_50  and  O17_51 
REMARK   21  A    between atoms: O17_51  and  C26_52 
ROOT
HETATM    1  C10 UNL     1     -61.972  26.596 -29.680  1.00  0.00     0.186 C 
HETATM    2  O9  UNL     1     -63.214  27.269 -29.781  1.00  0.00    -0.364 OA
HETATM    3  C11 UNL     1     -64.260  26.674 -29.164  1.00  0.00     0.116 C 
HETATM    4  C12 UNL     1     -64.535  25.345 -29.804  1.00  0.00     0.211 C 
HETATM    5  O10 UNL     1     -65.859  25.267 -30.096  1.00  0.00    -0.358 OA
HETATM    6  C13 UNL     1     -66.533  26.404 -29.728  1.00  0.00     0.263 C 
HETATM    7  C20 UNL     1     -65.504  27.456 -29.542  1.00  0.00     0.104 C 
HETATM    8  C21 UNL     1     -64.102  26.574 -27.661  1.00  0.00     0.187 C 
HETATM    9  C22 UNL     1     -62.663  26.656 -27.240  1.00  0.00     0.195 C 
HETATM   10  C25 UNL     1     -61.725  26.102 -28.321  1.00  0.00     0.195 C 
ENDROOT
BRANCH   1  11
HETATM   11  C9  UNL     1     -61.003  27.663 -30.225  1.00  0.00     0.181 C 
BRANCH  11  12
HETATM   12  C8  UNL     1     -59.828  27.257 -30.916  1.00  0.00     0.182 C 
BRANCH  12  13
HETATM   13  C5  UNL     1     -59.789  26.944 -32.402  1.00  0.00     0.203 C 
BRANCH  13  14
HETATM   14  C3  UNL     1     -60.605  27.749 -33.322  1.00  0.00     0.264 C 
BRANCH  14  15
HETATM   15  O2  UNL     1     -61.853  27.026 -33.608  1.00  0.00    -0.303 OA
BRANCH  15  16
HETATM   16  C2  UNL     1     -63.063  27.653 -33.565  1.00  0.00     0.255 C 
HETATM   17  C1  UNL     1     -63.198  28.957 -32.876  1.00  0.00     0.126 C 
HETATM   18  O1  UNL     1     -64.055  27.109 -34.117  1.00  0.00    -0.266 OA
ENDBRANCH  15  16
ENDBRANCH  14  15
BRANCH  14  19
HETATM   19  C4  UNL     1     -60.017  27.758 -34.722  1.00  0.00     0.206 C 
HETATM   20  O3  UNL     1     -59.230  26.946 -35.186  1.00  0.00    -0.646 OA
HETATM   21  O4  UNL     1     -60.398  28.799 -35.595  1.00  0.00    -0.646 OA
ENDBRANCH  14  19
ENDBRANCH  13  14
BRANCH  13  22
HETATM   22  O5  UNL     1     -60.239  25.546 -32.411  1.00  0.00    -0.310 OA
BRANCH  22  23
HETATM   23  C6  UNL     1     -59.365  24.507 -32.560  1.00  0.00     0.255 C 
HETATM   24  C7  UNL     1     -59.313  23.668 -33.789  1.00  0.00     0.126 C 
HETATM   25  O6  UNL     1     -58.578  24.261 -31.608  1.00  0.00    -0.266 OA
ENDBRANCH  22  23
ENDBRANCH  13  22
ENDBRANCH  12  13
BRANCH  12  26
HETATM   26  O7  UNL     1     -58.936  28.432 -30.913  1.00  0.00    -0.390 OA
ATOM     27  H7  UNL     1     -58.689  28.421 -29.996  1.00  0.00     0.210 HD
ENDBRANCH  12  26
ENDBRANCH  11  12
BRANCH  11  28
HETATM   28  O8  UNL     1     -60.698  28.376 -29.000  1.00  0.00    -0.390 OA
ATOM     29  H8  UNL     1     -60.791  29.316 -29.101  1.00  0.00     0.210 HD
ENDBRANCH  11  28
ENDBRANCH   1  11
BRANCH  10  30
HETATM   30  O17 UNL     1     -60.449  26.150 -27.767  1.00  0.00    -0.311 OA
BRANCH  30  31
HETATM   31  C26 UNL     1     -59.719  24.995 -27.424  1.00  0.00     0.255 C 
HETATM   32  C27 UNL     1     -59.876  23.805 -28.278  1.00  0.00     0.126 C 
HETATM   33  O18 UNL     1     -58.966  24.972 -26.435  1.00  0.00    -0.266 OA
ENDBRANCH  30  31
ENDBRANCH  10  30
BRANCH   9  34
HETATM   34  O15 UNL     1     -62.252  27.875 -26.702  1.00  0.00    -0.311 OA
BRANCH  34  35
HETATM   35  C23 UNL     1     -62.028  28.183 -25.405  1.00  0.00     0.255 C 
HETATM   36  C24 UNL     1     -60.650  28.323 -24.889  1.00  0.00     0.126 C 
HETATM   37  O16 UNL     1     -62.990  28.346 -24.658  1.00  0.00    -0.266 OA
ENDBRANCH  34  35
ENDBRANCH   9  34
BRANCH   8  38
HETATM   38  O14 UNL     1     -64.865  27.579 -27.083  1.00  0.00    -0.390 OA
ATOM     39  H14 UNL     1     -64.426  28.407 -27.242  1.00  0.00     0.210 HD
ENDBRANCH   8  38
BRANCH   6  40
HETATM   40  O11 UNL     1     -67.421  26.679 -30.766  1.00  0.00    -0.351 OA
BRANCH  40  41
HETATM   41  C14 UNL     1     -66.838  26.976 -31.966  1.00  0.00     0.191 C 
HETATM   42  C15 UNL     1     -67.160  28.415 -32.391  1.00  0.00     0.218 C 
HETATM   43  C16 UNL     1     -68.659  28.322 -32.569  1.00  0.00     0.070 C 
HETATM   44  C17 UNL     1     -68.873  26.946 -33.156  1.00  0.00     0.156 C 
HETATM   45  C18 UNL     1     -67.577  26.208 -33.035  1.00  0.00     0.108 C 
HETATM   46  C19 UNL     1     -67.874  24.770 -32.601  1.00  0.00     0.051 C 
BRANCH  42  47
HETATM   47  N1  UNL     1     -66.573  28.702 -33.660  1.00  0.00    -0.072 N 
ATOM     48  H13 UNL     1     -65.957  27.951 -33.971  1.00  0.00     0.274 HD
ATOM     49  H12 UNL     1     -67.258  28.659 -34.413  1.00  0.00     0.274 HD
ATOM     50  H11 UNL     1     -66.092  29.601 -33.634  1.00  0.00     0.274 HD
ENDBRANCH  42  47
BRANCH  44  51
HETATM   51  O12 UNL     1     -69.821  26.293 -32.368  1.00  0.00    -0.392 OA
ATOM     52  H12 UNL     1     -69.644  25.361 -32.418  1.00  0.00     0.210 HD
ENDBRANCH  44  51
BRANCH  45  53
HETATM   53  O13 UNL     1     -66.880  26.134 -34.234  1.00  0.00    -0.385 OA
ATOM     54  H13 UNL     1     -67.209  26.733 -34.894  1.00  0.00     0.210 HD
ENDBRANCH  45  53
ENDBRANCH  40  41
ENDBRANCH   6  40
TORSDOF 21
ENDMDL
MODEL 4
REMARK VINA RESULT: -6.985088401      2.270      6.219
REMARK  21 active torsions:
REMARK  status: ('A' for Active; 'I' for Inactive)
REMARK    1  A    between atoms: C2_2  and  O2_4 
REMARK    2  A    between atoms: O2_4  and  C3_5 
REMARK    3  A    between atoms: C3_5  and  C4_6 
REMARK    4  A    between atoms: C3_5  and  C5_9 
REMARK    5  A    between atoms: C5_9  and  O5_10 
REMARK    6  A    between atoms: C5_9  and  C8_14 
REMARK    7  A    between atoms: O5_10  and  C6_11 
REMARK    8  A    between atoms: C8_14  and  O7_15 
REMARK    9  A    between atoms: C8_14  and  C9_17 
REMARK   10  A    between atoms: C9_17  and  O8_18 
REMARK   11  A    between atoms: C9_17  and  C10_20 
REMARK   12  A    between atoms: C13_25  and  O11_26 
REMARK   13  A    between atoms: O11_26  and  C14_27 
REMARK   14  A    between atoms: C15_28  and  N1_29 
REMARK   15  A    between atoms: C17_34  and  O12_35 
REMARK   16  A    between atoms: C18_37  and  O13_39 
REMARK   17  A    between atoms: C21_42  and  O14_43 
REMARK   18  A    between atoms: C22_45  and  O15_46 
REMARK   19  A    between atoms: O15_46  and  C23_47 
REMARK   20  A    between atoms: C25_50  and  O17_51 
REMARK   21  A    between atoms: O17_51  and  C26_52 
ROOT
HETATM    1  C10 UNL     1     -61.984  24.955 -29.961  1.00  0.00     0.186 C 
HETATM    2  O9  UNL     1     -62.894  25.970 -30.344  1.00  0.00    -0.364 OA
HETATM    3  C11 UNL     1     -63.878  26.247 -29.456  1.00  0.00     0.116 C 
HETATM    4  C12 UNL     1     -64.756  25.043 -29.284  1.00  0.00     0.211 C 
HETATM    5  O10 UNL     1     -66.052  25.423 -29.428  1.00  0.00    -0.358 OA
HETATM    6  C13 UNL     1     -66.166  26.766 -29.685  1.00  0.00     0.263 C 
HETATM    7  C20 UNL     1     -64.826  27.219 -30.131  1.00  0.00     0.104 C 
HETATM    8  C21 UNL     1     -63.370  26.790 -28.137  1.00  0.00     0.187 C 
HETATM    9  C22 UNL     1     -61.935  26.422 -27.892  1.00  0.00     0.195 C 
HETATM   10  C25 UNL     1     -61.571  25.089 -28.559  1.00  0.00     0.195 C 
ENDROOT
BRANCH   1  11
HETATM   11  C9  UNL     1     -60.887  25.111 -31.032  1.00  0.00     0.181 C 
BRANCH  11  12
HETATM   12  C8  UNL     1     -61.253  25.416 -32.372  1.00  0.00     0.182 C 
BRANCH  12  13
HETATM   13  C5  UNL     1     -61.644  26.806 -32.845  1.00  0.00     0.203 C 
BRANCH  13  14
HETATM   14  C3  UNL     1     -61.913  27.024 -34.273  1.00  0.00     0.264 C 
BRANCH  14  15
HETATM   15  O2  UNL     1     -60.807  27.803 -34.851  1.00  0.00    -0.303 OA
BRANCH  15  16
HETATM   16  C2  UNL     1     -60.078  27.328 -35.901  1.00  0.00     0.255 C 
HETATM   17  C1  UNL     1     -60.476  27.656 -37.289  1.00  0.00     0.126 C 
HETATM   18  O1  UNL     1     -59.067  26.613 -35.672  1.00  0.00    -0.266 OA
ENDBRANCH  15  16
ENDBRANCH  14  15
BRANCH  14  19
HETATM   19  C4  UNL     1     -63.035  28.027 -34.479  1.00  0.00     0.206 C 
HETATM   20  O3  UNL     1     -64.225  27.776 -34.588  1.00  0.00    -0.646 OA
HETATM   21  O4  UNL     1     -62.695  29.395 -34.559  1.00  0.00    -0.646 OA
ENDBRANCH  14  19
ENDBRANCH  13  14
BRANCH  13  22
HETATM   22  O5  UNL     1     -60.478  27.591 -32.419  1.00  0.00    -0.310 OA
BRANCH  22  23
HETATM   23  C6  UNL     1     -60.560  28.527 -31.428  1.00  0.00     0.255 C 
HETATM   24  C7  UNL     1     -61.825  29.238 -31.094  1.00  0.00     0.126 C 
HETATM   25  O6  UNL     1     -59.512  28.789 -30.779  1.00  0.00    -0.266 OA
ENDBRANCH  22  23
ENDBRANCH  13  22
ENDBRANCH  12  13
BRANCH  12  26
HETATM   26  O7  UNL     1     -60.024  25.249 -33.171  1.00  0.00    -0.390 OA
ATOM     27  H7  UNL     1     -60.391  24.751 -33.893  1.00  0.00     0.210 HD
ENDBRANCH  12  26
ENDBRANCH  11  12
BRANCH  11  28
HETATM   28  O8  UNL     1     -60.241  23.819 -30.922  1.00  0.00    -0.390 OA
ATOM     29  H8  UNL     1     -59.307  23.898 -30.767  1.00  0.00     0.210 HD
ENDBRANCH  11  28
ENDBRANCH   1  11
BRANCH  10  30
HETATM   30  O17 UNL     1     -60.259  24.827 -28.175  1.00  0.00    -0.311 OA
BRANCH  30  31
HETATM   31  C26 UNL     1     -59.919  23.813 -27.258  1.00  0.00     0.255 C 
HETATM   32  C27 UNL     1     -60.386  22.445 -27.542  1.00  0.00     0.126 C 
HETATM   33  O18 UNL     1     -59.247  24.056 -26.240  1.00  0.00    -0.266 OA
ENDBRANCH  30  31
ENDBRANCH  10  30
BRANCH   9  34
HETATM   34  O15 UNL     1     -61.000  27.435 -28.099  1.00  0.00    -0.311 OA
BRANCH  34  35
HETATM   35  C23 UNL     1     -60.093  27.927 -27.225  1.00  0.00     0.255 C 
HETATM   36  C24 UNL     1     -60.480  28.245 -25.835  1.00  0.00     0.126 C 
HETATM   37  O16 UNL     1     -58.938  28.106 -27.606  1.00  0.00    -0.266 OA
ENDBRANCH  34  35
ENDBRANCH   9  34
BRANCH   8  38
HETATM   38  O14 UNL     1     -63.554  28.165 -28.143  1.00  0.00    -0.390 OA
ATOM     39  H14 UNL     1     -62.750  28.567 -28.449  1.00  0.00     0.210 HD
ENDBRANCH   8  38
BRANCH   6  40
HETATM   40  O11 UNL     1     -67.145  26.888 -30.668  1.00  0.00    -0.351 OA
BRANCH  40  41
HETATM   41  C14 UNL     1     -66.684  27.216 -31.912  1.00  0.00     0.191 C 
HETATM   42  C15 UNL     1     -67.215  28.588 -32.350  1.00  0.00     0.218 C 
HETATM   43  C16 UNL     1     -68.698  28.299 -32.424  1.00  0.00     0.070 C 
HETATM   44  C17 UNL     1     -68.769  26.888 -32.961  1.00  0.00     0.156 C 
HETATM   45  C18 UNL     1     -67.384  26.325 -32.909  1.00  0.00     0.108 C 
HETATM   46  C19 UNL     1     -67.464  24.876 -32.420  1.00  0.00     0.051 C 
BRANCH  42  47
HETATM   47  N1  UNL     1     -66.752  28.905 -33.662  1.00  0.00    -0.072 N 
ATOM     48  H13 UNL     1     -66.749  28.086 -34.271  1.00  0.00     0.274 HD
ATOM     49  H12 UNL     1     -67.425  29.473 -34.175  1.00  0.00     0.274 HD
ATOM     50  H11 UNL     1     -65.834  29.349 -33.618  1.00  0.00     0.274 HD
ENDBRANCH  42  47
BRANCH  44  51
HETATM   51  O12 UNL     1     -69.573  26.146 -32.095  1.00  0.00    -0.392 OA
ATOM     52  H12 UNL     1     -69.412  25.226 -32.270  1.00  0.00     0.210 HD
ENDBRANCH  44  51
BRANCH  45  53
HETATM   53  O13 UNL     1     -66.761  26.301 -34.150  1.00  0.00    -0.385 OA
ATOM     54  H13 UNL     1     -65.813  26.320 -34.092  1.00  0.00     0.210 HD
ENDBRANCH  45  53
ENDBRANCH  40  41
ENDBRANCH   6  40
TORSDOF 21
ENDMDL
MODEL 5
REMARK VINA RESULT: -6.934316081      2.468      7.128
REMARK  21 active torsions:
REMARK  status: ('A' for Active; 'I' for Inactive)
REMARK    1  A    between atoms: C2_2  and  O2_4 
REMARK    2  A    between atoms: O2_4  and  C3_5 
REMARK    3  A    between atoms: C3_5  and  C4_6 
REMARK    4  A    between atoms: C3_5  and  C5_9 
REMARK    5  A    between atoms: C5_9  and  O5_10 
REMARK    6  A    between atoms: C5_9  and  C8_14 
REMARK    7  A    between atoms: O5_10  and  C6_11 
REMARK    8  A    between atoms: C8_14  and  O7_15 
REMARK    9  A    between atoms: C8_14  and  C9_17 
REMARK   10  A    between atoms: C9_17  and  O8_18 
REMARK   11  A    between atoms: C9_17  and  C10_20 
REMARK   12  A    between atoms: C13_25  and  O11_26 
REMARK   13  A    between atoms: O11_26  and  C14_27 
REMARK   14  A    between atoms: C15_28  and  N1_29 
REMARK   15  A    between atoms: C17_34  and  O12_35 
REMARK   16  A    between atoms: C18_37  and  O13_39 
REMARK   17  A    between atoms: C21_42  and  O14_43 
REMARK   18  A    between atoms: C22_45  and  O15_46 
REMARK   19  A    between atoms: O15_46  and  C23_47 
REMARK   20  A    between atoms: C25_50  and  O17_51 
REMARK   21  A    between atoms: O17_51  and  C26_52 
ROOT
HETATM    1  C10 UNL     1     -62.092  26.051 -34.193  1.00  0.00     0.186 C 
HETATM    2  O9  UNL     1     -61.924  26.791 -32.997  1.00  0.00    -0.364 OA
HETATM    3  C11 UNL     1     -60.651  27.121 -32.681  1.00  0.00     0.116 C 
HETATM    4  C12 UNL     1     -59.853  25.875 -32.431  1.00  0.00     0.211 C 
HETATM    5  O10 UNL     1     -59.198  26.006 -31.248  1.00  0.00    -0.358 OA
HETATM    6  C13 UNL     1     -59.459  27.213 -30.649  1.00  0.00     0.263 C 
HETATM    7  C20 UNL     1     -60.682  27.743 -31.298  1.00  0.00     0.104 C 
HETATM    8  C21 UNL     1     -59.993  28.039 -33.690  1.00  0.00     0.187 C 
HETATM    9  C22 UNL     1     -60.657  27.966 -35.034  1.00  0.00     0.195 C 
HETATM   10  C25 UNL     1     -61.271  26.582 -35.287  1.00  0.00     0.195 C 
ENDROOT
BRANCH   1  11
HETATM   11  C9  UNL     1     -63.621  26.108 -34.373  1.00  0.00     0.181 C 
BRANCH  11  12
HETATM   12  C8  UNL     1     -64.460  26.202 -33.229  1.00  0.00     0.182 C 
BRANCH  12  13
HETATM   13  C5  UNL     1     -65.970  26.040 -33.274  1.00  0.00     0.203 C 
BRANCH  13  14
HETATM   14  C3  UNL     1     -66.776  26.552 -32.158  1.00  0.00     0.264 C 
BRANCH  14  15
HETATM   15  O2  UNL     1     -66.664  25.621 -31.024  1.00  0.00    -0.303 OA
BRANCH  15  16
HETATM   16  C2  UNL     1     -65.997  25.966 -29.886  1.00  0.00     0.255 C 
HETATM   17  C1  UNL     1     -66.438  27.136 -29.093  1.00  0.00     0.126 C 
HETATM   18  O1  UNL     1     -65.008  25.277 -29.522  1.00  0.00    -0.266 OA
ENDBRANCH  15  16
ENDBRANCH  14  15
BRANCH  14  19
HETATM   19  C4  UNL     1     -68.263  26.403 -32.432  1.00  0.00     0.206 C 
HETATM   20  O3  UNL     1     -68.889  26.916 -33.348  1.00  0.00    -0.646 OA
HETATM   21  O4  UNL     1     -69.022  25.599 -31.555  1.00  0.00    -0.646 OA
ENDBRANCH  14  19
ENDBRANCH  13  14
BRANCH  13  22
HETATM   22  O5  UNL     1     -66.098  24.580 -33.369  1.00  0.00    -0.310 OA
BRANCH  22  23
HETATM   23  C6  UNL     1     -67.001  23.986 -34.205  1.00  0.00     0.255 C 
HETATM   24  C7  UNL     1     -67.275  24.486 -35.580  1.00  0.00     0.126 C 
HETATM   25  O6  UNL     1     -67.619  22.975 -33.778  1.00  0.00    -0.266 OA
ENDBRANCH  22  23
ENDBRANCH  13  22
ENDBRANCH  12  13
BRANCH  12  26
HETATM   26  O7  UNL     1     -64.137  25.028 -32.397  1.00  0.00    -0.390 OA
ATOM     27  H7  UNL     1     -63.241  25.254 -32.174  1.00  0.00     0.210 HD
ENDBRANCH  12  26
ENDBRANCH  11  12
BRANCH  11  28
HETATM   28  O8  UNL     1     -63.836  24.877 -35.108  1.00  0.00    -0.390 OA
ATOM     29  H8  UNL     1     -64.677  24.484 -34.909  1.00  0.00     0.210 HD
ENDBRANCH  11  28
ENDBRANCH   1  11
BRANCH  10  30
HETATM   30  O17 UNL     1     -61.762  26.625 -36.590  1.00  0.00    -0.311 OA
BRANCH  30  31
HETATM   31  C26 UNL     1     -61.452  25.649 -37.556  1.00  0.00     0.255 C 
HETATM   32  C27 UNL     1     -60.527  26.023 -38.639  1.00  0.00     0.126 C 
HETATM   33  O18 UNL     1     -61.939  24.505 -37.504  1.00  0.00    -0.266 OA
ENDBRANCH  30  31
ENDBRANCH  10  30
BRANCH   9  34
HETATM   34  O15 UNL     1     -61.498  29.029 -35.360  1.00  0.00    -0.311 OA
BRANCH  34  35
HETATM   35  C23 UNL     1     -61.219  30.115 -36.115  1.00  0.00     0.255 C 
HETATM   36  C24 UNL     1     -61.279  30.044 -37.590  1.00  0.00     0.126 C 
HETATM   37  O16 UNL     1     -60.914  31.166 -35.555  1.00  0.00    -0.266 OA
ENDBRANCH  34  35
ENDBRANCH   9  34
BRANCH   8  38
HETATM   38  O14 UNL     1     -60.018  29.327 -33.174  1.00  0.00    -0.390 OA
ATOM     39  H14 UNL     1     -60.280  29.917 -33.871  1.00  0.00     0.210 HD
ENDBRANCH   8  38
BRANCH   6  40
HETATM   40  O11 UNL     1     -59.628  26.940 -29.293  1.00  0.00    -0.351 OA
BRANCH  40  41
HETATM   41  C14 UNL     1     -60.902  27.093 -28.823  1.00  0.00     0.191 C 
HETATM   42  C15 UNL     1     -60.988  28.271 -27.843  1.00  0.00     0.218 C 
HETATM   43  C16 UNL     1     -60.097  27.768 -26.729  1.00  0.00     0.070 C 
HETATM   44  C17 UNL     1     -60.387  26.286 -26.669  1.00  0.00     0.156 C 
HETATM   45  C18 UNL     1     -61.184  25.942 -27.888  1.00  0.00     0.108 C 
HETATM   46  C19 UNL     1     -60.670  24.613 -28.448  1.00  0.00     0.051 C 
BRANCH  42  47
HETATM   47  N1  UNL     1     -62.316  28.399 -27.336  1.00  0.00    -0.072 N 
ATOM     48  H13 UNL     1     -62.808  29.187 -27.757  1.00  0.00     0.274 HD
ATOM     49  H12 UNL     1     -62.922  27.648 -27.665  1.00  0.00     0.274 HD
ATOM     50  H11 UNL     1     -62.303  28.460 -26.318  1.00  0.00     0.274 HD
ENDBRANCH  42  47
BRANCH  44  51
HETATM   51  O12 UNL     1     -59.167  25.614 -26.742  1.00  0.00    -0.392 OA
ATOM     52  H12 UNL     1     -58.600  25.975 -26.071  1.00  0.00     0.210 HD
ENDBRANCH  44  51
BRANCH  45  53
HETATM   53  O13 UNL     1     -62.537  25.775 -27.622  1.00  0.00    -0.385 OA
ATOM     54  H13 UNL     1     -62.886  24.961 -27.965  1.00  0.00     0.210 HD
ENDBRANCH  45  53
ENDBRANCH  40  41
ENDBRANCH   6  40
TORSDOF 21
ENDMDL
