MODEL 1
REMARK VINA RESULT: -6.837317977      0.000      0.000
REMARK  16 active torsions:
REMARK  status: ('A' for Active; 'I' for Inactive)
REMARK    1  A    between atoms: C2_2  and  C3_3 
REMARK    2  A    between atoms: C3_3  and  O1_4 
REMARK    3  A    between atoms: C3_3  and  C4_6 
REMARK    4  A    between atoms: C6_10  and  C7_11 
REMARK       I    between atoms: C7_11  and  N1_13 
REMARK    5  A    between atoms: N1_13  and  C8_15 
REMARK    6  A    between atoms: C9_16  and  O3_17 
REMARK    7  A    between atoms: N3_25  and  C12_26 
REMARK    8  A    between atoms: C12_26  and  C13_27 
REMARK    9  A    between atoms: C13_27  and  N4_28 
REMARK   10  A    between atoms: C13_27  and  C14_32 
REMARK   11  A    between atoms: C14_32  and  C15_33 
REMARK   12  A    between atoms: C15_33  and  S4_34 
REMARK   13  A    between atoms: C17_36  and  N5_37 
REMARK   14  A    between atoms: C18_42  and  C19_43 
REMARK       I    between atoms: C19_43  and  N7_45 
REMARK   15  A    between atoms: N7_45  and  S5_47 
REMARK   16  A    between atoms: S5_47  and  N8_48 
ROOT
HETATM    1  C8  UNL     1     -64.734  29.270 -32.226  1.00  0.00     0.265 C 
HETATM    2  C9  UNL     1     -65.385  30.579 -31.889  1.00  0.00     0.245 C 
HETATM    3  C10 UNL     1     -65.674  31.277 -33.174  1.00  0.00     0.240 C 
HETATM    4  O4  UNL     1     -65.619  32.468 -33.242  1.00  0.00    -0.281 OA
HETATM    5  S3  UNL     1     -66.105  30.227 -34.585  1.00  0.00     0.057 SA
HETATM    6  N2  UNL     1     -66.377  28.627 -33.837  1.00  0.00    -0.150 N 
HETATM    7  C11 UNL     1     -67.186  27.604 -34.156  1.00  0.00     0.373 A 
HETATM    8  O5  UNL     1     -67.944  27.666 -35.159  1.00  0.00    -0.243 OA
HETATM    9  N3  UNL     1     -66.997  26.627 -33.246  1.00  0.00    -0.105 N 
HETATM   10  C17 UNL     1     -66.070  27.070 -32.382  1.00  0.00     0.706 A 
HETATM   11  N6  UNL     1     -65.691  28.322 -32.761  1.00  0.00    -0.079 N 
ENDROOT
BRANCH   1  12
HETATM   12  N1  UNL     1     -63.977  28.712 -31.125  1.00  0.00    -0.333 N 
HETATM   13  C7  UNL     1     -62.550  28.797 -31.106  1.00  0.00     0.249 C 
HETATM   14  O2  UNL     1     -61.967  29.363 -32.066  1.00  0.00    -0.271 OA
ATOM     15  H1  UNL     1     -64.467  28.254 -30.356  1.00  0.00     0.164 HD
BRANCH  13  16
HETATM   16  C6  UNL     1     -61.719  28.252 -30.011  1.00  0.00     0.224 C 
HETATM   17  C5  UNL     1     -60.255  28.184 -30.402  1.00  0.00     0.128 C 
HETATM   18  S2  UNL     1     -59.777  26.642 -31.172  1.00  0.00    -0.094 SA
HETATM   19  S1  UNL     1     -60.678  24.929 -30.360  1.00  0.00    -0.087 SA
HETATM   20  C4  UNL     1     -61.145  25.143 -28.600  1.00  0.00     0.125 C 
HETATM   21  C18 UNL     1     -61.475  26.634 -28.469  1.00  0.00     0.232 C 
HETATM   22  O6  UNL     1     -62.154  27.000 -29.657  1.00  0.00    -0.360 OA
BRANCH  20  23
HETATM   23  C3  UNL     1     -60.006  24.803 -27.703  1.00  0.00     0.135 C 
BRANCH  23  24
HETATM   24  C2  UNL     1     -59.357  23.481 -28.058  1.00  0.00     0.028 C 
HETATM   25  C1  UNL     1     -60.075  22.310 -27.450  1.00  0.00     0.007 C 
ENDBRANCH  23  24
BRANCH  23  26
HETATM   26  O1  UNL     1     -59.012  25.791 -27.877  1.00  0.00    -0.394 OA
ATOM     27  H1  UNL     1     -59.147  26.427 -27.185  1.00  0.00     0.210 HD
ENDBRANCH  23  26
ENDBRANCH  20  23
BRANCH  21  28
HETATM   28  C19 UNL     1     -62.333  26.942 -27.326  1.00  0.00     0.262 C 
HETATM   29  O7  UNL     1     -63.237  26.120 -26.997  1.00  0.00    -0.270 OA
HETATM   30  N7  UNL     1     -62.143  28.152 -26.606  1.00  0.00    -0.235 N 
ATOM     31  H7  UNL     1     -61.407  28.798 -26.893  1.00  0.00     0.183 HD
BRANCH  30  32
HETATM   32  S5  UNL     1     -63.145  28.547 -25.244  1.00  0.00     0.319 S 
HETATM   33  O8  UNL     1     -63.643  29.942 -25.289  1.00  0.00    -0.183 OA
HETATM   34  O9  UNL     1     -62.317  28.338 -23.993  1.00  0.00    -0.183 OA
BRANCH  32  35
HETATM   35  N8  UNL     1     -64.486  27.458 -25.180  1.00  0.00    -0.311 N 
ATOM     36  H82 UNL     1     -65.009  27.139 -25.996  1.00  0.00     0.170 HD
ATOM     37  H81 UNL     1     -64.664  27.194 -24.211  1.00  0.00     0.170 HD
ENDBRANCH  32  35
ENDBRANCH  30  32
ENDBRANCH  21  28
ENDBRANCH  13  16
ENDBRANCH   1  12
BRANCH   2  38
HETATM   38  O3  UNL     1     -66.541  30.424 -31.127  1.00  0.00    -0.383 OA
ATOM     39  H3  UNL     1     -66.415  30.665 -30.217  1.00  0.00     0.210 HD
ENDBRANCH   2  38
BRANCH  10  40
HETATM   40  N5  UNL     1     -65.532  26.490 -31.363  1.00  0.00    -0.232 N 
ATOM     41  H52 UNL     1     -65.360  25.484 -31.360  1.00  0.00     0.174 HD
ATOM     42  H51 UNL     1     -65.240  26.871 -30.463  1.00  0.00     0.174 HD
ENDBRANCH  10  40
BRANCH   9  43
HETATM   43  C12 UNL     1     -67.641  25.376 -33.230  1.00  0.00     0.126 C 
BRANCH  43  44
HETATM   44  C13 UNL     1     -67.114  24.324 -34.202  1.00  0.00     0.223 C 
BRANCH  44  45
HETATM   45  N4  UNL     1     -67.851  23.100 -33.861  1.00  0.00    -0.070 N 
ATOM     46  H43 UNL     1     -68.842  23.131 -34.104  1.00  0.00     0.275 HD
ATOM     47  H42 UNL     1     -67.615  22.297 -34.444  1.00  0.00     0.275 HD
ATOM     48  H41 UNL     1     -67.672  22.959 -32.867  1.00  0.00     0.275 HD
ENDBRANCH  44  45
BRANCH  44  49
HETATM   49  C14 UNL     1     -65.662  24.149 -34.143  1.00  0.00     0.048 C 
BRANCH  49  50
HETATM   50  C15 UNL     1     -64.866  24.554 -35.320  1.00  0.00     0.076 C 
BRANCH  50  51
HETATM   51  S4  UNL     1     -63.830  25.973 -35.313  1.00  0.00    -0.173 SA
HETATM   52  C16 UNL     1     -62.800  26.287 -33.895  1.00  0.00     0.089 C 
ENDBRANCH  50  51
ENDBRANCH  49  50
ENDBRANCH  44  49
ENDBRANCH  43  44
ENDBRANCH   9  43
TORSDOF 16
ENDMDL
MODEL 2
REMARK VINA RESULT: -6.668049941      1.869      2.098
REMARK  16 active torsions:
REMARK  status: ('A' for Active; 'I' for Inactive)
REMARK    1  A    between atoms: C2_2  and  C3_3 
REMARK    2  A    between atoms: C3_3  and  O1_4 
REMARK    3  A    between atoms: C3_3  and  C4_6 
REMARK    4  A    between atoms: C6_10  and  C7_11 
REMARK       I    between atoms: C7_11  and  N1_13 
REMARK    5  A    between atoms: N1_13  and  C8_15 
REMARK    6  A    between atoms: C9_16  and  O3_17 
REMARK    7  A    between atoms: N3_25  and  C12_26 
REMARK    8  A    between atoms: C12_26  and  C13_27 
REMARK    9  A    between atoms: C13_27  and  N4_28 
REMARK   10  A    between atoms: C13_27  and  C14_32 
REMARK   11  A    between atoms: C14_32  and  C15_33 
REMARK   12  A    between atoms: C15_33  and  S4_34 
REMARK   13  A    between atoms: C17_36  and  N5_37 
REMARK   14  A    between atoms: C18_42  and  C19_43 
REMARK       I    between atoms: C19_43  and  N7_45 
REMARK   15  A    between atoms: N7_45  and  S5_47 
REMARK   16  A    between atoms: S5_47  and  N8_48 
ROOT
HETATM    1  C8  UNL     1     -63.729  30.255 -32.343  1.00  0.00     0.265 C 
HETATM    2  C9  UNL     1     -63.701  31.754 -32.391  1.00  0.00     0.245 C 
HETATM    3  C10 UNL     1     -64.041  32.163 -33.783  1.00  0.00     0.240 C 
HETATM    4  O4  UNL     1     -63.551  33.138 -34.265  1.00  0.00    -0.281 OA
HETATM    5  S3  UNL     1     -65.218  31.110 -34.670  1.00  0.00     0.057 SA
HETATM    6  N2  UNL     1     -65.870  30.051 -33.385  1.00  0.00    -0.150 N 
HETATM    7  C11 UNL     1     -67.066  29.466 -33.214  1.00  0.00     0.373 A 
HETATM    8  O5  UNL     1     -67.986  29.613 -34.059  1.00  0.00    -0.243 OA
HETATM    9  N3  UNL     1     -67.025  28.771 -32.058  1.00  0.00    -0.105 N 
HETATM   10  C17 UNL     1     -65.799  28.944 -31.540  1.00  0.00     0.706 A 
HETATM   11  N6  UNL     1     -65.086  29.746 -32.377  1.00  0.00    -0.079 N 
ENDROOT
BRANCH   1  12
HETATM   12  N1  UNL     1     -62.974  29.708 -31.235  1.00  0.00    -0.333 N 
HETATM   13  C7  UNL     1     -61.807  28.917 -31.471  1.00  0.00     0.249 C 
HETATM   14  O2  UNL     1     -61.451  28.704 -32.658  1.00  0.00    -0.271 OA
ATOM     15  H1  UNL     1     -63.278  29.888 -30.278  1.00  0.00     0.164 HD
BRANCH  13  16
HETATM   16  C6  UNL     1     -60.989  28.333 -30.386  1.00  0.00     0.224 C 
HETATM   17  C5  UNL     1     -59.649  27.842 -30.898  1.00  0.00     0.128 C 
HETATM   18  S2  UNL     1     -59.657  26.139 -31.445  1.00  0.00    -0.094 SA
HETATM   19  S1  UNL     1     -60.822  24.838 -30.280  1.00  0.00    -0.087 SA
HETATM   20  C4  UNL     1     -60.986  25.402 -28.543  1.00  0.00     0.125 C 
HETATM   21  C18 UNL     1     -60.933  26.931 -28.628  1.00  0.00     0.232 C 
HETATM   22  O6  UNL     1     -61.657  27.293 -29.790  1.00  0.00    -0.360 OA
BRANCH  20  23
HETATM   23  C3  UNL     1     -59.850  24.908 -27.715  1.00  0.00     0.135 C 
BRANCH  23  24
HETATM   24  C2  UNL     1     -59.453  23.487 -28.055  1.00  0.00     0.028 C 
HETATM   25  C1  UNL     1     -60.222  22.471 -27.259  1.00  0.00     0.007 C 
ENDBRANCH  23  24
BRANCH  23  26
HETATM   26  O1  UNL     1     -58.727  25.713 -28.004  1.00  0.00    -0.394 OA
ATOM     27  H1  UNL     1     -58.433  25.457 -28.870  1.00  0.00     0.210 HD
ENDBRANCH  23  26
ENDBRANCH  20  23
BRANCH  21  28
HETATM   28  C19 UNL     1     -61.533  27.599 -27.475  1.00  0.00     0.262 C 
HETATM   29  O7  UNL     1     -60.854  28.459 -26.841  1.00  0.00    -0.270 OA
HETATM   30  N7  UNL     1     -62.861  27.277 -27.083  1.00  0.00    -0.235 N 
ATOM     31  H7  UNL     1     -63.385  26.579 -27.611  1.00  0.00     0.183 HD
BRANCH  30  32
HETATM   32  S5  UNL     1     -63.602  28.054 -25.719  1.00  0.00     0.319 S 
HETATM   33  O8  UNL     1     -64.824  27.353 -25.259  1.00  0.00    -0.183 OA
HETATM   34  O9  UNL     1     -63.947  29.468 -26.131  1.00  0.00    -0.183 OA
BRANCH  32  35
HETATM   35  N8  UNL     1     -62.466  28.143 -24.418  1.00  0.00    -0.311 N 
ATOM     36  H82 UNL     1     -62.081  27.332 -23.932  1.00  0.00     0.170 HD
ATOM     37  H81 UNL     1     -62.249  29.119 -24.222  1.00  0.00     0.170 HD
ENDBRANCH  32  35
ENDBRANCH  30  32
ENDBRANCH  21  28
ENDBRANCH  13  16
ENDBRANCH   1  12
BRANCH   2  38
HETATM   38  O3  UNL     1     -64.567  32.337 -31.467  1.00  0.00    -0.383 OA
ATOM     39  H3  UNL     1     -64.225  33.147 -31.107  1.00  0.00     0.210 HD
ENDBRANCH   2  38
BRANCH  10  40
HETATM   40  N5  UNL     1     -65.268  28.456 -30.470  1.00  0.00    -0.232 N 
ATOM     41  H52 UNL     1     -65.775  27.792 -29.886  1.00  0.00     0.174 HD
ATOM     42  H51 UNL     1     -64.362  28.641 -30.039  1.00  0.00     0.174 HD
ENDBRANCH  10  40
BRANCH   9  43
HETATM   43  C12 UNL     1     -68.071  27.999 -31.522  1.00  0.00     0.126 C 
BRANCH  43  44
HETATM   44  C13 UNL     1     -68.274  26.610 -32.123  1.00  0.00     0.223 C 
BRANCH  44  45
HETATM   45  N4  UNL     1     -69.715  26.531 -32.398  1.00  0.00    -0.070 N 
ATOM     46  H43 UNL     1     -70.141  27.425 -32.641  1.00  0.00     0.275 HD
ATOM     47  H42 UNL     1     -69.945  26.054 -33.269  1.00  0.00     0.275 HD
ATOM     48  H41 UNL     1     -70.113  26.094 -31.567  1.00  0.00     0.275 HD
ENDBRANCH  44  45
BRANCH  44  49
HETATM   49  C14 UNL     1     -67.798  25.526 -31.264  1.00  0.00     0.048 C 
BRANCH  49  50
HETATM   50  C15 UNL     1     -66.377  25.135 -31.362  1.00  0.00     0.076 C 
BRANCH  50  51
HETATM   51  S4  UNL     1     -65.446  25.333 -32.839  1.00  0.00    -0.173 SA
HETATM   52  C16 UNL     1     -63.826  26.068 -32.750  1.00  0.00     0.089 C 
ENDBRANCH  50  51
ENDBRANCH  49  50
ENDBRANCH  44  49
ENDBRANCH  43  44
ENDBRANCH   9  43
TORSDOF 16
ENDMDL
MODEL 3
REMARK VINA RESULT: -6.639104293      1.897      2.453
REMARK  16 active torsions:
REMARK  status: ('A' for Active; 'I' for Inactive)
REMARK    1  A    between atoms: C2_2  and  C3_3 
REMARK    2  A    between atoms: C3_3  and  O1_4 
REMARK    3  A    between atoms: C3_3  and  C4_6 
REMARK    4  A    between atoms: C6_10  and  C7_11 
REMARK       I    between atoms: C7_11  and  N1_13 
REMARK    5  A    between atoms: N1_13  and  C8_15 
REMARK    6  A    between atoms: C9_16  and  O3_17 
REMARK    7  A    between atoms: N3_25  and  C12_26 
REMARK    8  A    between atoms: C12_26  and  C13_27 
REMARK    9  A    between atoms: C13_27  and  N4_28 
REMARK   10  A    between atoms: C13_27  and  C14_32 
REMARK   11  A    between atoms: C14_32  and  C15_33 
REMARK   12  A    between atoms: C15_33  and  S4_34 
REMARK   13  A    between atoms: C17_36  and  N5_37 
REMARK   14  A    between atoms: C18_42  and  C19_43 
REMARK       I    between atoms: C19_43  and  N7_45 
REMARK   15  A    between atoms: N7_45  and  S5_47 
REMARK   16  A    between atoms: S5_47  and  N8_48 
ROOT
HETATM    1  C8  UNL     1     -63.103  29.896 -32.702  1.00  0.00     0.265 C 
HETATM    2  C9  UNL     1     -63.159  31.394 -32.642  1.00  0.00     0.245 C 
HETATM    3  C10 UNL     1     -63.327  31.891 -34.037  1.00  0.00     0.240 C 
HETATM    4  O4  UNL     1     -62.834  32.924 -34.376  1.00  0.00    -0.281 OA
HETATM    5  S3  UNL     1     -64.304  30.851 -35.153  1.00  0.00     0.057 SA
HETATM    6  N2  UNL     1     -65.062  29.667 -34.050  1.00  0.00    -0.150 N 
HETATM    7  C11 UNL     1     -66.233  29.011 -34.093  1.00  0.00     0.373 A 
HETATM    8  O5  UNL     1     -67.034  29.177 -35.048  1.00  0.00    -0.243 OA
HETATM    9  N3  UNL     1     -66.312  28.232 -32.994  1.00  0.00    -0.105 N 
HETATM   10  C17 UNL     1     -65.182  28.426 -32.295  1.00  0.00     0.706 A 
HETATM   11  N6  UNL     1     -64.409  29.325 -32.964  1.00  0.00    -0.079 N 
ENDROOT
BRANCH   1  12
HETATM   12  N1  UNL     1     -62.478  29.304 -31.538  1.00  0.00    -0.333 N 
HETATM   13  C7  UNL     1     -61.241  28.597 -31.657  1.00  0.00     0.249 C 
HETATM   14  O2  UNL     1     -60.710  28.497 -32.793  1.00  0.00    -0.271 OA
ATOM     15  H1  UNL     1     -62.923  29.393 -30.625  1.00  0.00     0.164 HD
BRANCH  13  16
HETATM   16  C6  UNL     1     -60.548  27.973 -30.510  1.00  0.00     0.224 C 
HETATM   17  C5  UNL     1     -59.248  27.316 -30.931  1.00  0.00     0.128 C 
HETATM   18  S2  UNL     1     -59.419  25.603 -31.415  1.00  0.00    -0.094 SA
HETATM   19  S1  UNL     1     -60.778  24.489 -30.267  1.00  0.00    -0.087 SA
HETATM   20  C4  UNL     1     -60.963  25.140 -28.563  1.00  0.00     0.125 C 
HETATM   21  C18 UNL     1     -60.735  26.649 -28.701  1.00  0.00     0.232 C 
HETATM   22  O6  UNL     1     -61.357  27.039 -29.913  1.00  0.00    -0.360 OA
BRANCH  20  23
HETATM   23  C3  UNL     1     -59.932  24.561 -27.658  1.00  0.00     0.135 C 
BRANCH  23  24
HETATM   24  C2  UNL     1     -59.574  23.133 -28.017  1.00  0.00     0.028 C 
HETATM   25  C1  UNL     1     -60.346  22.129 -27.210  1.00  0.00     0.007 C 
ENDBRANCH  23  24
BRANCH  23  26
HETATM   26  O1  UNL     1     -58.749  25.316 -27.815  1.00  0.00    -0.394 OA
ATOM     27  H1  UNL     1     -58.229  25.159 -27.035  1.00  0.00     0.210 HD
ENDBRANCH  23  26
ENDBRANCH  20  23
BRANCH  21  28
HETATM   28  C19 UNL     1     -61.313  27.428 -27.607  1.00  0.00     0.262 C 
HETATM   29  O7  UNL     1     -60.637  28.370 -27.101  1.00  0.00    -0.270 OA
HETATM   30  N7  UNL     1     -62.615  27.118 -27.129  1.00  0.00    -0.235 N 
ATOM     31  H7  UNL     1     -63.138  26.352 -27.555  1.00  0.00     0.183 HD
BRANCH  30  32
HETATM   32  S5  UNL     1     -63.329  28.025 -25.832  1.00  0.00     0.319 S 
HETATM   33  O8  UNL     1     -64.513  27.350 -25.250  1.00  0.00    -0.183 OA
HETATM   34  O9  UNL     1     -63.729  29.375 -26.386  1.00  0.00    -0.183 OA
BRANCH  32  35
HETATM   35  N8  UNL     1     -62.150  28.287 -24.595  1.00  0.00    -0.311 N 
ATOM     36  H82 UNL     1     -61.522  27.568 -24.235  1.00  0.00     0.170 HD
ATOM     37  H81 UNL     1     -62.186  29.259 -24.291  1.00  0.00     0.170 HD
ENDBRANCH  32  35
ENDBRANCH  30  32
ENDBRANCH  21  28
ENDBRANCH  13  16
ENDBRANCH   1  12
BRANCH   2  38
HETATM   38  O3  UNL     1     -64.177  31.861 -31.814  1.00  0.00    -0.383 OA
ATOM     39  H3  UNL     1     -64.263  32.807 -31.837  1.00  0.00     0.210 HD
ENDBRANCH   2  38
BRANCH  10  40
HETATM   40  N5  UNL     1     -64.776  27.885 -31.196  1.00  0.00    -0.232 N 
ATOM     41  H52 UNL     1     -64.309  26.977 -31.196  1.00  0.00     0.174 HD
ATOM     42  H51 UNL     1     -64.861  28.205 -30.231  1.00  0.00     0.174 HD
ENDBRANCH  10  40
BRANCH   9  43
HETATM   43  C12 UNL     1     -67.373  27.370 -32.666  1.00  0.00     0.126 C 
BRANCH  43  44
HETATM   44  C13 UNL     1     -67.285  25.943 -33.200  1.00  0.00     0.223 C 
BRANCH  44  45
HETATM   45  N4  UNL     1     -68.474  25.789 -34.049  1.00  0.00    -0.070 N 
ATOM     46  H43 UNL     1     -68.490  26.410 -34.858  1.00  0.00     0.275 HD
ATOM     47  H42 UNL     1     -68.497  24.915 -34.575  1.00  0.00     0.275 HD
ATOM     48  H41 UNL     1     -69.263  25.913 -33.414  1.00  0.00     0.275 HD
ENDBRANCH  44  45
BRANCH  44  49
HETATM   49  C14 UNL     1     -67.201  24.930 -32.147  1.00  0.00     0.048 C 
BRANCH  49  50
HETATM   50  C15 UNL     1     -67.401  25.362 -30.749  1.00  0.00     0.076 C 
BRANCH  50  51
HETATM   51  S4  UNL     1     -66.139  25.234 -29.534  1.00  0.00    -0.173 SA
HETATM   52  C16 UNL     1     -66.274  26.193 -28.040  1.00  0.00     0.089 C 
ENDBRANCH  50  51
ENDBRANCH  49  50
ENDBRANCH  44  49
ENDBRANCH  43  44
ENDBRANCH   9  43
TORSDOF 16
ENDMDL
MODEL 4
REMARK VINA RESULT: -6.576142139      1.058      1.240
REMARK  16 active torsions:
REMARK  status: ('A' for Active; 'I' for Inactive)
REMARK    1  A    between atoms: C2_2  and  C3_3 
REMARK    2  A    between atoms: C3_3  and  O1_4 
REMARK    3  A    between atoms: C3_3  and  C4_6 
REMARK    4  A    between atoms: C6_10  and  C7_11 
REMARK       I    between atoms: C7_11  and  N1_13 
REMARK    5  A    between atoms: N1_13  and  C8_15 
REMARK    6  A    between atoms: C9_16  and  O3_17 
REMARK    7  A    between atoms: N3_25  and  C12_26 
REMARK    8  A    between atoms: C12_26  and  C13_27 
REMARK    9  A    between atoms: C13_27  and  N4_28 
REMARK   10  A    between atoms: C13_27  and  C14_32 
REMARK   11  A    between atoms: C14_32  and  C15_33 
REMARK   12  A    between atoms: C15_33  and  S4_34 
REMARK   13  A    between atoms: C17_36  and  N5_37 
REMARK   14  A    between atoms: C18_42  and  C19_43 
REMARK       I    between atoms: C19_43  and  N7_45 
REMARK   15  A    between atoms: N7_45  and  S5_47 
REMARK   16  A    between atoms: S5_47  and  N8_48 
ROOT
HETATM    1  C8  UNL     1     -64.608  29.458 -32.309  1.00  0.00     0.265 C 
HETATM    2  C9  UNL     1     -65.287  30.741 -31.932  1.00  0.00     0.245 C 
HETATM    3  C10 UNL     1     -65.729  31.400 -33.193  1.00  0.00     0.240 C 
HETATM    4  O4  UNL     1     -65.739  32.591 -33.285  1.00  0.00    -0.281 OA
HETATM    5  S3  UNL     1     -66.238  30.305 -34.543  1.00  0.00     0.057 SA
HETATM    6  N2  UNL     1     -66.361  28.708 -33.749  1.00  0.00    -0.150 N 
HETATM    7  C11 UNL     1     -67.146  27.642 -33.976  1.00  0.00     0.373 A 
HETATM    8  O5  UNL     1     -67.996  27.649 -34.903  1.00  0.00    -0.243 OA
HETATM    9  N3  UNL     1     -66.826  26.692 -33.073  1.00  0.00    -0.105 N 
HETATM   10  C17 UNL     1     -65.845  27.195 -32.307  1.00  0.00     0.706 A 
HETATM   11  N6  UNL     1     -65.564  28.456 -32.738  1.00  0.00    -0.079 N 
ENDROOT
BRANCH   1  12
HETATM   12  N1  UNL     1     -63.726  28.958 -31.276  1.00  0.00    -0.333 N 
HETATM   13  C7  UNL     1     -62.309  28.957 -31.467  1.00  0.00     0.249 C 
HETATM   14  O2  UNL     1     -61.846  29.397 -32.551  1.00  0.00    -0.271 OA
ATOM     15  H1  UNL     1     -64.119  28.602 -30.405  1.00  0.00     0.164 HD
BRANCH  13  16
HETATM   16  C6  UNL     1     -61.353  28.464 -30.453  1.00  0.00     0.224 C 
HETATM   17  C5  UNL     1     -60.013  28.114 -31.070  1.00  0.00     0.128 C 
HETATM   18  S2  UNL     1     -59.887  26.417 -31.624  1.00  0.00    -0.094 SA
HETATM   19  S1  UNL     1     -60.815  25.007 -30.377  1.00  0.00    -0.087 SA
HETATM   20  C4  UNL     1     -60.900  25.556 -28.630  1.00  0.00     0.125 C 
HETATM   21  C18 UNL     1     -61.013  27.082 -28.711  1.00  0.00     0.232 C 
HETATM   22  O6  UNL     1     -61.861  27.362 -29.811  1.00  0.00    -0.360 OA
BRANCH  20  23
HETATM   23  C3  UNL     1     -59.659  25.186 -27.896  1.00  0.00     0.135 C 
BRANCH  23  24
HETATM   24  C2  UNL     1     -59.199  23.775 -28.199  1.00  0.00     0.028 C 
HETATM   25  C1  UNL     1     -59.978  22.742 -27.434  1.00  0.00     0.007 C 
ENDBRANCH  23  24
BRANCH  23  26
HETATM   26  O1  UNL     1     -58.626  26.041 -28.339  1.00  0.00    -0.394 OA
ATOM     27  H1  UNL     1     -57.853  25.805 -27.840  1.00  0.00     0.210 HD
ENDBRANCH  23  26
ENDBRANCH  20  23
BRANCH  21  28
HETATM   28  C19 UNL     1     -61.588  27.688 -27.512  1.00  0.00     0.262 C 
HETATM   29  O7  UNL     1     -60.886  28.496 -26.836  1.00  0.00    -0.270 OA
HETATM   30  N7  UNL     1     -62.915  27.363 -27.122  1.00  0.00    -0.235 N 
ATOM     31  H7  UNL     1     -63.458  26.707 -27.684  1.00  0.00     0.183 HD
BRANCH  30  32
HETATM   32  S5  UNL     1     -63.626  28.067 -25.703  1.00  0.00     0.319 S 
HETATM   33  O8  UNL     1     -64.823  27.327 -25.238  1.00  0.00    -0.183 OA
HETATM   34  O9  UNL     1     -64.005  29.493 -26.041  1.00  0.00    -0.183 OA
BRANCH  32  35
HETATM   35  N8  UNL     1     -62.452  28.117 -24.434  1.00  0.00    -0.311 N 
ATOM     36  H82 UNL     1     -61.981  27.297 -24.051  1.00  0.00     0.170 HD
ATOM     37  H81 UNL     1     -62.311  29.083 -24.139  1.00  0.00     0.170 HD
ENDBRANCH  32  35
ENDBRANCH  30  32
ENDBRANCH  21  28
ENDBRANCH  13  16
ENDBRANCH   1  12
BRANCH   2  38
HETATM   38  O3  UNL     1     -66.359  30.546 -31.062  1.00  0.00    -0.383 OA
ATOM     39  H3  UNL     1     -66.817  31.354 -30.859  1.00  0.00     0.210 HD
ENDBRANCH   2  38
BRANCH  10  40
HETATM   40  N5  UNL     1     -65.186  26.660 -31.335  1.00  0.00    -0.232 N 
ATOM     41  H52 UNL     1     -65.582  25.896 -30.788  1.00  0.00     0.174 HD
ATOM     42  H51 UNL     1     -64.269  26.891 -30.953  1.00  0.00     0.174 HD
ENDBRANCH  10  40
BRANCH   9  43
HETATM   43  C12 UNL     1     -67.404  25.414 -32.979  1.00  0.00     0.126 C 
BRANCH  43  44
HETATM   44  C13 UNL     1     -67.024  24.410 -34.063  1.00  0.00     0.223 C 
BRANCH  44  45
HETATM   45  N4  UNL     1     -67.818  23.212 -33.757  1.00  0.00    -0.070 N 
ATOM     46  H43 UNL     1     -68.401  23.303 -32.926  1.00  0.00     0.275 HD
ATOM     47  H42 UNL     1     -68.580  23.041 -34.414  1.00  0.00     0.275 HD
ATOM     48  H41 UNL     1     -67.136  22.456 -33.706  1.00  0.00     0.275 HD
ENDBRANCH  44  45
BRANCH  44  49
HETATM   49  C14 UNL     1     -65.587  24.137 -34.131  1.00  0.00     0.048 C 
BRANCH  49  50
HETATM   50  C15 UNL     1     -64.849  24.597 -35.326  1.00  0.00     0.076 C 
BRANCH  50  51
HETATM   51  S4  UNL     1     -65.646  25.377 -36.683  1.00  0.00    -0.173 SA
HETATM   52  C16 UNL     1     -65.191  27.043 -37.115  1.00  0.00     0.089 C 
ENDBRANCH  50  51
ENDBRANCH  49  50
ENDBRANCH  44  49
ENDBRANCH  43  44
ENDBRANCH   9  43
TORSDOF 16
ENDMDL
MODEL 5
REMARK VINA RESULT: -6.541661395      2.401      3.519
REMARK  16 active torsions:
REMARK  status: ('A' for Active; 'I' for Inactive)
REMARK    1  A    between atoms: C2_2  and  C3_3 
REMARK    2  A    between atoms: C3_3  and  O1_4 
REMARK    3  A    between atoms: C3_3  and  C4_6 
REMARK    4  A    between atoms: C6_10  and  C7_11 
REMARK       I    between atoms: C7_11  and  N1_13 
REMARK    5  A    between atoms: N1_13  and  C8_15 
REMARK    6  A    between atoms: C9_16  and  O3_17 
REMARK    7  A    between atoms: N3_25  and  C12_26 
REMARK    8  A    between atoms: C12_26  and  C13_27 
REMARK    9  A    between atoms: C13_27  and  N4_28 
REMARK   10  A    between atoms: C13_27  and  C14_32 
REMARK   11  A    between atoms: C14_32  and  C15_33 
REMARK   12  A    between atoms: C15_33  and  S4_34 
REMARK   13  A    between atoms: C17_36  and  N5_37 
REMARK   14  A    between atoms: C18_42  and  C19_43 
REMARK       I    between atoms: C19_43  and  N7_45 
REMARK   15  A    between atoms: N7_45  and  S5_47 
REMARK   16  A    between atoms: S5_47  and  N8_48 
ROOT
HETATM    1  C8  UNL     1     -61.596  30.133 -33.022  1.00  0.00     0.265 C 
HETATM    2  C9  UNL     1     -60.992  31.448 -33.415  1.00  0.00     0.245 C 
HETATM    3  C10 UNL     1     -61.244  31.639 -34.871  1.00  0.00     0.240 C 
HETATM    4  O4  UNL     1     -60.449  32.209 -35.555  1.00  0.00    -0.281 OA
HETATM    5  S3  UNL     1     -62.797  30.967 -35.517  1.00  0.00     0.057 SA
HETATM    6  N2  UNL     1     -63.716  30.564 -34.037  1.00  0.00    -0.150 N 
HETATM    7  C11 UNL     1     -65.030  30.551 -33.763  1.00  0.00     0.373 A 
HETATM    8  O5  UNL     1     -65.878  30.859 -34.640  1.00  0.00    -0.243 OA
HETATM    9  N3  UNL     1     -65.181  30.171 -32.477  1.00  0.00    -0.105 N 
HETATM   10  C17 UNL     1     -63.950  29.957 -31.985  1.00  0.00     0.706 A 
HETATM   11  N6  UNL     1     -63.043  30.206 -32.969  1.00  0.00    -0.079 N 
ENDROOT
BRANCH   1  12
HETATM   12  N1  UNL     1     -61.037  29.592 -31.801  1.00  0.00    -0.333 N 
HETATM   13  C7  UNL     1     -60.694  28.208 -31.708  1.00  0.00     0.249 C 
HETATM   14  O2  UNL     1     -60.892  27.469 -32.706  1.00  0.00    -0.271 OA
ATOM     15  H1  UNL     1     -60.886  30.205 -31.000  1.00  0.00     0.164 HD
BRANCH  13  16
HETATM   16  C6  UNL     1     -60.117  27.594 -30.493  1.00  0.00     0.224 C 
HETATM   17  C5  UNL     1     -58.814  26.876 -30.794  1.00  0.00     0.128 C 
HETATM   18  S2  UNL     1     -59.017  25.156 -31.242  1.00  0.00    -0.094 SA
HETATM   19  S1  UNL     1     -60.502  24.130 -30.172  1.00  0.00    -0.087 SA
HETATM   20  C4  UNL     1     -60.790  24.839 -28.506  1.00  0.00     0.125 C 
HETATM   21  C18 UNL     1     -60.493  26.334 -28.668  1.00  0.00     0.232 C 
HETATM   22  O6  UNL     1     -61.005  26.709 -29.935  1.00  0.00    -0.360 OA
BRANCH  20  23
HETATM   23  C3  UNL     1     -59.855  24.250 -27.508  1.00  0.00     0.135 C 
BRANCH  23  24
HETATM   24  C2  UNL     1     -59.490  22.814 -27.825  1.00  0.00     0.028 C 
HETATM   25  C1  UNL     1     -60.532  21.841 -27.349  1.00  0.00     0.007 C 
ENDBRANCH  23  24
BRANCH  23  26
HETATM   26  O1  UNL     1     -58.651  24.985 -27.562  1.00  0.00    -0.394 OA
ATOM     27  H1  UNL     1     -57.994  24.393 -27.910  1.00  0.00     0.210 HD
ENDBRANCH  23  26
ENDBRANCH  20  23
BRANCH  21  28
HETATM   28  C19 UNL     1     -61.121  27.167 -27.645  1.00  0.00     0.262 C 
HETATM   29  O7  UNL     1     -60.447  28.095 -27.110  1.00  0.00    -0.270 OA
HETATM   30  N7  UNL     1     -62.470  26.925 -27.266  1.00  0.00    -0.235 N 
ATOM     31  H7  UNL     1     -62.990  26.170 -27.712  1.00  0.00     0.183 HD
BRANCH  30  32
HETATM   32  S5  UNL     1     -63.244  27.898 -26.054  1.00  0.00     0.319 S 
HETATM   33  O8  UNL     1     -64.436  27.239 -25.471  1.00  0.00    -0.183 OA
HETATM   34  O9  UNL     1     -63.647  29.203 -26.705  1.00  0.00    -0.183 OA
BRANCH  32  35
HETATM   35  N8  UNL     1     -62.114  28.259 -24.796  1.00  0.00    -0.311 N 
ATOM     36  H82 UNL     1     -61.723  27.568 -24.155  1.00  0.00     0.170 HD
ATOM     37  H81 UNL     1     -61.907  29.257 -24.801  1.00  0.00     0.170 HD
ENDBRANCH  32  35
ENDBRANCH  30  32
ENDBRANCH  21  28
ENDBRANCH  13  16
ENDBRANCH   1  12
BRANCH   2  38
HETATM   38  O3  UNL     1     -61.495  32.514 -32.671  1.00  0.00    -0.383 OA
ATOM     39  H3  UNL     1     -60.958  33.294 -32.741  1.00  0.00     0.210 HD
ENDBRANCH   2  38
BRANCH  10  40
HETATM   40  N5  UNL     1     -63.576  29.549 -30.820  1.00  0.00    -0.232 N 
ATOM     41  H52 UNL     1     -64.203  29.602 -30.017  1.00  0.00     0.174 HD
ATOM     42  H51 UNL     1     -62.681  29.171 -30.508  1.00  0.00     0.174 HD
ENDBRANCH  10  40
BRANCH   9  43
HETATM   43  C12 UNL     1     -66.404  30.014 -31.801  1.00  0.00     0.126 C 
BRANCH  43  44
HETATM   44  C13 UNL     1     -67.122  28.680 -31.988  1.00  0.00     0.223 C 
BRANCH  44  45
HETATM   45  N4  UNL     1     -68.364  29.022 -32.694  1.00  0.00    -0.070 N 
ATOM     46  H43 UNL     1     -68.289  29.846 -33.290  1.00  0.00     0.275 HD
ATOM     47  H42 UNL     1     -68.614  28.367 -33.434  1.00  0.00     0.275 HD
ATOM     48  H41 UNL     1     -69.066  29.104 -31.958  1.00  0.00     0.275 HD
ENDBRANCH  44  45
BRANCH  44  49
HETATM   49  C14 UNL     1     -67.358  27.962 -30.735  1.00  0.00     0.048 C 
BRANCH  49  50
HETATM   50  C15 UNL     1     -67.239  26.489 -30.745  1.00  0.00     0.076 C 
BRANCH  50  51
HETATM   51  S4  UNL     1     -68.303  25.465 -31.696  1.00  0.00    -0.173 SA
HETATM   52  C16 UNL     1     -67.591  24.260 -32.797  1.00  0.00     0.089 C 
ENDBRANCH  50  51
ENDBRANCH  49  50
ENDBRANCH  44  49
ENDBRANCH  43  44
ENDBRANCH   9  43
TORSDOF 16
ENDMDL
