MODEL 1
REMARK VINA RESULT: -7.399709102      0.000      0.000
REMARK  13 active torsions:
REMARK  status: ('A' for Active; 'I' for Inactive)
REMARK    1  A    between atoms: O1_2  and  C2_3 
REMARK    2  A    between atoms: N4_13  and  C7_15 
REMARK    3  A    between atoms: C7_15  and  C8_16 
REMARK    4  A    between atoms: C7_15  and  C9_19 
REMARK    5  A    between atoms: C9_19  and  O3_20 
REMARK    6  A    between atoms: C9_19  and  N6_22 
REMARK    7  A    between atoms: N6_22  and  C10_25 
REMARK    8  A    between atoms: C14_31  and  C15_32 
REMARK       I    between atoms: C15_32  and  N7_34 
REMARK    9  A    between atoms: N7_34  and  S3_35 
REMARK   10  A    between atoms: S3_35  and  C16_38 
REMARK   11  A    between atoms: C16_38  and  C17_39 
REMARK   12  A    between atoms: C18_42  and  C19_43 
REMARK   13  A    between atoms: C20_48  and  C21_49 
ROOT
HETATM    1  C2  UNL     1     -61.169  28.216 -28.145  1.00  0.00     0.150 A 
HETATM    2  C3  UNL     1     -61.830  28.415 -26.985  1.00  0.00     0.152 A 
HETATM    3  C4  UNL     1     -61.170  28.193 -25.706  1.00  0.00     0.120 C 
HETATM    4  N1  UNL     1     -60.632  28.039 -24.687  1.00  0.00    -0.190 NA
HETATM    5  N2  UNL     1     -63.107  28.812 -27.003  1.00  0.00    -0.341 N 
ATOM      6  H2  UNL     1     -63.626  28.974 -26.140  1.00  0.00     0.167 HD
HETATM    7  C5  UNL     1     -63.694  28.995 -28.242  1.00  0.00     0.183 A 
HETATM    8  N3  UNL     1     -63.048  28.802 -29.324  1.00  0.00    -0.336 N 
ATOM      9  H3  UNL     1     -63.556  28.965 -30.194  1.00  0.00     0.168 HD
HETATM   10  C6  UNL     1     -61.758  28.403 -29.441  1.00  0.00     0.140 A 
HETATM   11  N4  UNL     1     -61.060  28.209 -30.437  1.00  0.00    -0.357 N 
ATOM     12  H4  UNL     1     -60.110  27.921 -30.204  1.00  0.00     0.162 HD
ENDROOT
BRANCH   1  13
HETATM   13  O1  UNL     1     -59.811  27.794 -28.206  1.00  0.00    -0.350 OA
HETATM   14  C1  UNL     1     -59.639  26.403 -28.145  1.00  0.00     0.210 C 
ENDBRANCH   1  13
BRANCH  11  15
HETATM   15  C7  UNL     1     -61.277  28.296 -31.826  1.00  0.00     0.229 C 
BRANCH  15  16
HETATM   16  C8  UNL     1     -60.175  27.563 -32.541  1.00  0.00     0.258 C 
HETATM   17  N5  UNL     1     -59.565  26.406 -32.086  1.00  0.00    -0.060 NA
HETATM   18  O2  UNL     1     -59.772  28.022 -33.662  1.00  0.00    -0.274 OA
ENDBRANCH  15  16
BRANCH  15  19
HETATM   19  C9  UNL     1     -62.591  27.646 -32.228  1.00  0.00     0.352 C 
BRANCH  19  20
HETATM   20  O3  UNL     1     -63.556  28.655 -32.469  1.00  0.00    -0.368 OA
ATOM     21  H3  UNL     1     -64.234  28.311 -33.039  1.00  0.00     0.212 HD
ENDBRANCH  19  20
BRANCH  19  22
HETATM   22  N6  UNL     1     -62.470  27.000 -33.568  1.00  0.00    -0.028 N 
ATOM     23  H62 UNL     1     -61.553  27.119 -33.999  1.00  0.00     0.282 HD
ATOM     24  H61 UNL     1     -62.454  25.981 -33.531  1.00  0.00     0.282 HD
BRANCH  22  25
HETATM   25  C10 UNL     1     -63.537  27.525 -34.341  1.00  0.00     0.300 C 
HETATM   26  S1  UNL     1     -62.945  28.140 -35.960  1.00  0.00    -0.059 SA
HETATM   27  S2  UNL     1     -62.542  26.342 -37.025  1.00  0.00    -0.091 SA
HETATM   28  C11 UNL     1     -63.068  25.053 -35.790  1.00  0.00     0.120 C 
HETATM   29  C12 UNL     1     -64.415  25.475 -35.263  1.00  0.00    -0.058 C 
HETATM   30  C13 UNL     1     -65.426  24.352 -35.235  1.00  0.00     0.045 C 
HETATM   31  C14 UNL     1     -64.672  26.551 -34.642  1.00  0.00     0.069 C 
BRANCH  31  32
HETATM   32  C15 UNL     1     -66.018  27.266 -34.572  1.00  0.00     0.336 C 
HETATM   33  O4  UNL     1     -66.480  27.496 -35.644  1.00  0.00    -0.251 OA
HETATM   34  N7  UNL     1     -66.486  27.521 -33.282  1.00  0.00    -0.280 NA
BRANCH  34  35
HETATM   35  S3  UNL     1     -67.031  27.818 -31.794  1.00  0.00     0.302 S 
HETATM   36  O5  UNL     1     -68.266  28.690 -31.597  1.00  0.00    -0.191 OA
HETATM   37  O6  UNL     1     -65.963  28.438 -30.858  1.00  0.00    -0.191 OA
BRANCH  35  38
HETATM   38  C16 UNL     1     -67.517  26.287 -30.904  1.00  0.00     0.254 C 
BRANCH  38  39
HETATM   39  C17 UNL     1     -66.469  26.053 -29.905  1.00  0.00     0.101 A 
HETATM   40  N8  UNL     1     -66.669  26.418 -28.638  1.00  0.00    -0.327 N 
HETATM   41  C18 UNL     1     -65.731  26.237 -27.651  1.00  0.00     0.174 A 
ATOM     42  H8  UNL     1     -67.558  26.851 -28.391  1.00  0.00     0.169 HD
HETATM   43  N10 UNL     1     -64.573  25.675 -28.031  1.00  0.00    -0.319 N 
HETATM   44  C20 UNL     1     -64.334  25.302 -29.309  1.00  0.00     0.186 A 
ATOM     45  H10 UNL     1     -63.847  25.524 -27.331  1.00  0.00     0.169 HD
HETATM   46  N11 UNL     1     -65.285  25.502 -30.200  1.00  0.00    -0.326 N 
ATOM     47  H11 UNL     1     -65.108  25.224 -31.166  1.00  0.00     0.169 HD
BRANCH  41  48
HETATM   48  C19 UNL     1     -66.037  26.650 -26.296  1.00  0.00     0.298 C 
HETATM   49  N9  UNL     1     -64.997  26.971 -25.394  1.00  0.00    -0.054 NA
HETATM   50  O7  UNL     1     -67.220  26.742 -25.882  1.00  0.00    -0.268 OA
ENDBRANCH  41  48
BRANCH  44  51
HETATM   51  C21 UNL     1     -63.024  24.776 -29.670  1.00  0.00     0.245 C 
HETATM   52  O8  UNL     1     -62.274  24.245 -28.810  1.00  0.00    -0.642 OA
HETATM   53  O9  UNL     1     -62.511  24.814 -30.951  1.00  0.00    -0.642 OA
ENDBRANCH  44  51
ENDBRANCH  38  39
ENDBRANCH  35  38
ENDBRANCH  34  35
ENDBRANCH  31  32
ENDBRANCH  22  25
ENDBRANCH  19  22
ENDBRANCH  15  19
ENDBRANCH  11  15
TORSDOF 13
ENDMDL
MODEL 2
REMARK VINA RESULT: -7.210686630      4.684      8.306
REMARK  13 active torsions:
REMARK  status: ('A' for Active; 'I' for Inactive)
REMARK    1  A    between atoms: O1_2  and  C2_3 
REMARK    2  A    between atoms: N4_13  and  C7_15 
REMARK    3  A    between atoms: C7_15  and  C8_16 
REMARK    4  A    between atoms: C7_15  and  C9_19 
REMARK    5  A    between atoms: C9_19  and  O3_20 
REMARK    6  A    between atoms: C9_19  and  N6_22 
REMARK    7  A    between atoms: N6_22  and  C10_25 
REMARK    8  A    between atoms: C14_31  and  C15_32 
REMARK       I    between atoms: C15_32  and  N7_34 
REMARK    9  A    between atoms: N7_34  and  S3_35 
REMARK   10  A    between atoms: S3_35  and  C16_38 
REMARK   11  A    between atoms: C16_38  and  C17_39 
REMARK   12  A    between atoms: C18_42  and  C19_43 
REMARK   13  A    between atoms: C20_48  and  C21_49 
ROOT
HETATM    1  C2  UNL     1     -61.877  25.498 -30.409  1.00  0.00     0.150 A 
HETATM    2  C3  UNL     1     -60.536  25.468 -30.252  1.00  0.00     0.152 A 
HETATM    3  C4  UNL     1     -59.650  25.619 -31.398  1.00  0.00     0.120 C 
HETATM    4  N1  UNL     1     -58.946  25.765 -32.312  1.00  0.00    -0.190 NA
HETATM    5  N2  UNL     1     -60.010  25.291 -29.035  1.00  0.00    -0.341 N 
ATOM      6  H2  UNL     1     -59.000  25.269 -28.891  1.00  0.00     0.167 HD
HETATM    7  C5  UNL     1     -60.892  25.137 -27.981  1.00  0.00     0.183 A 
HETATM    8  N3  UNL     1     -62.154  25.171 -28.155  1.00  0.00    -0.336 N 
ATOM      9  H3  UNL     1     -62.732  25.054 -27.323  1.00  0.00     0.168 HD
HETATM   10  C6  UNL     1     -62.810  25.344 -29.329  1.00  0.00     0.140 A 
HETATM   11  N4  UNL     1     -64.014  25.404 -29.580  1.00  0.00    -0.357 N 
ATOM     12  H4  UNL     1     -64.204  25.556 -30.570  1.00  0.00     0.162 HD
ENDROOT
BRANCH   1  13
HETATM   13  O1  UNL     1     -62.510  25.683 -31.670  1.00  0.00    -0.350 OA
HETATM   14  C1  UNL     1     -62.463  27.001 -32.147  1.00  0.00     0.210 C 
ENDBRANCH   1  13
BRANCH  11  15
HETATM   15  C7  UNL     1     -65.188  25.311 -28.808  1.00  0.00     0.229 C 
BRANCH  15  16
HETATM   16  C8  UNL     1     -65.080  26.246 -27.635  1.00  0.00     0.258 C 
HETATM   17  N5  UNL     1     -65.450  25.939 -26.337  1.00  0.00    -0.060 NA
HETATM   18  O2  UNL     1     -64.595  27.411 -27.833  1.00  0.00    -0.274 OA
ENDBRANCH  15  16
BRANCH  15  19
HETATM   19  C9  UNL     1     -66.415  25.722 -29.606  1.00  0.00     0.352 C 
BRANCH  19  20
HETATM   20  O3  UNL     1     -67.098  26.753 -28.915  1.00  0.00    -0.368 OA
ATOM     21  H3  UNL     1     -66.819  26.759 -28.007  1.00  0.00     0.212 HD
ENDBRANCH  19  20
BRANCH  19  22
HETATM   22  N6  UNL     1     -66.015  26.403 -30.873  1.00  0.00    -0.028 N 
ATOM     23  H62 UNL     1     -66.400  27.342 -30.972  1.00  0.00     0.282 HD
ATOM     24  H61 UNL     1     -65.032  26.673 -30.900  1.00  0.00     0.282 HD
BRANCH  22  25
HETATM   25  C10 UNL     1     -66.393  25.519 -31.916  1.00  0.00     0.300 C 
HETATM   26  S1  UNL     1     -68.164  25.075 -31.805  1.00  0.00    -0.059 SA
HETATM   27  S2  UNL     1     -69.134  26.861 -32.440  1.00  0.00    -0.091 SA
HETATM   28  C11 UNL     1     -67.680  27.944 -32.857  1.00  0.00     0.120 C 
HETATM   29  C12 UNL     1     -66.740  27.114 -33.693  1.00  0.00    -0.058 C 
HETATM   30  C13 UNL     1     -66.243  27.831 -34.927  1.00  0.00     0.045 C 
HETATM   31  C14 UNL     1     -66.169  26.040 -33.332  1.00  0.00     0.069 C 
BRANCH  31  32
HETATM   32  C15 UNL     1     -65.680  24.916 -34.241  1.00  0.00     0.336 C 
HETATM   33  O4  UNL     1     -64.670  24.415 -33.862  1.00  0.00    -0.251 OA
HETATM   34  N7  UNL     1     -66.492  24.656 -35.347  1.00  0.00    -0.280 NA
BRANCH  34  35
HETATM   35  S3  UNL     1     -67.426  24.350 -36.625  1.00  0.00     0.302 S 
HETATM   36  O5  UNL     1     -66.789  24.039 -37.975  1.00  0.00    -0.191 OA
HETATM   37  O6  UNL     1     -68.448  25.475 -36.925  1.00  0.00    -0.191 OA
BRANCH  35  38
HETATM   38  C16 UNL     1     -68.498  22.879 -36.378  1.00  0.00     0.254 C 
BRANCH  38  39
HETATM   39  C17 UNL     1     -69.164  22.648 -37.664  1.00  0.00     0.101 A 
HETATM   40  N8  UNL     1     -70.386  23.139 -37.874  1.00  0.00    -0.327 N 
HETATM   41  C18 UNL     1     -71.074  22.957 -39.048  1.00  0.00     0.174 A 
ATOM     42  H8  UNL     1     -70.829  23.675 -37.128  1.00  0.00     0.169 HD
HETATM   43  N10 UNL     1     -70.452  22.234 -39.992  1.00  0.00    -0.319 N 
HETATM   44  C20 UNL     1     -69.217  21.714 -39.809  1.00  0.00     0.186 A 
ATOM     45  H10 UNL     1     -70.927  22.071 -40.880  1.00  0.00     0.169 HD
HETATM   46  N11 UNL     1     -68.616  21.935 -38.657  1.00  0.00    -0.326 N 
ATOM     47  H11 UNL     1     -67.686  21.543 -38.513  1.00  0.00     0.169 HD
BRANCH  41  48
HETATM   48  C19 UNL     1     -72.393  23.540 -39.197  1.00  0.00     0.298 C 
HETATM   49  N9  UNL     1     -72.537  24.909 -39.521  1.00  0.00    -0.054 NA
HETATM   50  O7  UNL     1     -73.439  22.859 -39.049  1.00  0.00    -0.268 OA
ENDBRANCH  41  48
BRANCH  44  51
HETATM   51  C21 UNL     1     -68.634  20.867 -40.842  1.00  0.00     0.245 C 
HETATM   52  O8  UNL     1     -69.094  20.857 -42.014  1.00  0.00    -0.642 OA
HETATM   53  O9  UNL     1     -67.559  20.029 -40.628  1.00  0.00    -0.642 OA
ENDBRANCH  44  51
ENDBRANCH  38  39
ENDBRANCH  35  38
ENDBRANCH  34  35
ENDBRANCH  31  32
ENDBRANCH  22  25
ENDBRANCH  19  22
ENDBRANCH  15  19
ENDBRANCH  11  15
TORSDOF 13
ENDMDL
MODEL 3
REMARK VINA RESULT: -7.050168450      2.062      3.509
REMARK  13 active torsions:
REMARK  status: ('A' for Active; 'I' for Inactive)
REMARK    1  A    between atoms: O1_2  and  C2_3 
REMARK    2  A    between atoms: N4_13  and  C7_15 
REMARK    3  A    between atoms: C7_15  and  C8_16 
REMARK    4  A    between atoms: C7_15  and  C9_19 
REMARK    5  A    between atoms: C9_19  and  O3_20 
REMARK    6  A    between atoms: C9_19  and  N6_22 
REMARK    7  A    between atoms: N6_22  and  C10_25 
REMARK    8  A    between atoms: C14_31  and  C15_32 
REMARK       I    between atoms: C15_32  and  N7_34 
REMARK    9  A    between atoms: N7_34  and  S3_35 
REMARK   10  A    between atoms: S3_35  and  C16_38 
REMARK   11  A    between atoms: C16_38  and  C17_39 
REMARK   12  A    between atoms: C18_42  and  C19_43 
REMARK   13  A    between atoms: C20_48  and  C21_49 
ROOT
HETATM    1  C2  UNL     1     -61.659  28.257 -29.717  1.00  0.00     0.150 A 
HETATM    2  C3  UNL     1     -61.112  27.855 -28.550  1.00  0.00     0.152 A 
HETATM    3  C4  UNL     1     -59.821  27.182 -28.528  1.00  0.00     0.120 C 
HETATM    4  N1  UNL     1     -58.778  26.667 -28.511  1.00  0.00    -0.190 NA
HETATM    5  N2  UNL     1     -61.761  28.068 -27.400  1.00  0.00    -0.341 N 
ATOM      6  H2  UNL     1     -61.366  27.777 -26.506  1.00  0.00     0.167 HD
HETATM    7  C5  UNL     1     -62.990  28.697 -27.475  1.00  0.00     0.183 A 
HETATM    8  N3  UNL     1     -63.485  29.069 -28.590  1.00  0.00    -0.336 N 
ATOM      9  H3  UNL     1     -64.394  29.530 -28.554  1.00  0.00     0.168 HD
HETATM   10  C6  UNL     1     -62.931  28.915 -29.818  1.00  0.00     0.140 A 
HETATM   11  N4  UNL     1     -63.331  29.255 -30.932  1.00  0.00    -0.357 N 
ATOM     12  H4  UNL     1     -62.679  29.009 -31.677  1.00  0.00     0.162 HD
ENDROOT
BRANCH   1  13
HETATM   13  O1  UNL     1     -61.029  28.067 -30.980  1.00  0.00    -0.350 OA
HETATM   14  C1  UNL     1     -60.136  29.090 -31.335  1.00  0.00     0.210 C 
ENDBRANCH   1  13
BRANCH  11  15
HETATM   15  C7  UNL     1     -64.483  29.907 -31.410  1.00  0.00     0.229 C 
BRANCH  15  16
HETATM   16  C8  UNL     1     -64.071  31.151 -32.151  1.00  0.00     0.258 C 
HETATM   17  N5  UNL     1     -64.944  32.051 -32.737  1.00  0.00    -0.060 NA
HETATM   18  O2  UNL     1     -62.826  31.418 -32.239  1.00  0.00    -0.274 OA
ENDBRANCH  15  16
BRANCH  15  19
HETATM   19  C9  UNL     1     -65.257  29.033 -32.383  1.00  0.00     0.352 C 
BRANCH  19  20
HETATM   20  O3  UNL     1     -66.544  29.587 -32.588  1.00  0.00    -0.368 OA
ATOM     21  H3  UNL     1     -67.145  29.232 -31.943  1.00  0.00     0.212 HD
ENDBRANCH  19  20
BRANCH  19  22
HETATM   22  N6  UNL     1     -64.660  29.110 -33.749  1.00  0.00    -0.028 N 
ATOM     23  H62 UNL     1     -64.184  29.992 -33.938  1.00  0.00     0.282 HD
ATOM     24  H61 UNL     1     -63.848  28.506 -33.876  1.00  0.00     0.282 HD
BRANCH  22  25
HETATM   25  C10 UNL     1     -65.723  28.832 -34.646  1.00  0.00     0.300 C 
HETATM   26  S1  UNL     1     -65.539  29.767 -36.208  1.00  0.00    -0.059 SA
HETATM   27  S2  UNL     1     -63.939  28.749 -37.176  1.00  0.00    -0.091 SA
HETATM   28  C11 UNL     1     -63.590  27.376 -35.970  1.00  0.00     0.120 C 
HETATM   29  C12 UNL     1     -64.918  26.768 -35.601  1.00  0.00    -0.058 C 
HETATM   30  C13 UNL     1     -64.921  25.257 -35.650  1.00  0.00     0.045 C 
HETATM   31  C14 UNL     1     -65.885  27.367 -35.039  1.00  0.00     0.069 C 
BRANCH  31  32
HETATM   32  C15 UNL     1     -67.363  27.002 -35.132  1.00  0.00     0.336 C 
HETATM   33  O4  UNL     1     -67.742  26.872 -36.253  1.00  0.00    -0.251 OA
HETATM   34  N7  UNL     1     -68.019  26.872 -33.906  1.00  0.00    -0.280 NA
BRANCH  34  35
HETATM   35  S3  UNL     1     -68.780  26.720 -32.493  1.00  0.00     0.302 S 
HETATM   36  O5  UNL     1     -70.303  26.672 -32.452  1.00  0.00    -0.191 OA
HETATM   37  O6  UNL     1     -68.397  27.815 -31.465  1.00  0.00    -0.191 OA
BRANCH  35  38
HETATM   38  C16 UNL     1     -68.340  25.166 -31.620  1.00  0.00     0.254 C 
BRANCH  38  39
HETATM   39  C17 UNL     1     -67.121  25.463 -30.862  1.00  0.00     0.101 A 
HETATM   40  N8  UNL     1     -65.941  25.474 -31.484  1.00  0.00    -0.327 N 
HETATM   41  C18 UNL     1     -64.758  25.736 -30.838  1.00  0.00     0.174 A 
ATOM     42  H8  UNL     1     -65.917  25.280 -32.484  1.00  0.00     0.169 HD
HETATM   43  N10 UNL     1     -64.843  25.973 -29.520  1.00  0.00    -0.319 N 
HETATM   44  C20 UNL     1     -66.021  25.960 -28.857  1.00  0.00     0.186 A 
ATOM     45  H10 UNL     1     -63.988  26.169 -28.999  1.00  0.00     0.169 HD
HETATM   46  N11 UNL     1     -67.116  25.706 -29.545  1.00  0.00    -0.326 N 
ATOM     47  H11 UNL     1     -68.007  25.693 -29.048  1.00  0.00     0.169 HD
BRANCH  41  48
HETATM   48  C19 UNL     1     -63.522  25.742 -31.595  1.00  0.00     0.298 C 
HETATM   49  N9  UNL     1     -62.432  24.936 -31.192  1.00  0.00    -0.054 NA
HETATM   50  O7  UNL     1     -63.378  26.450 -32.624  1.00  0.00    -0.268 OA
ENDBRANCH  41  48
BRANCH  44  51
HETATM   51  C21 UNL     1     -66.033  26.141 -27.411  1.00  0.00     0.245 C 
HETATM   52  O8  UNL     1     -67.070  26.525 -26.809  1.00  0.00    -0.642 OA
HETATM   53  O9  UNL     1     -64.938  25.912 -26.602  1.00  0.00    -0.642 OA
ENDBRANCH  44  51
ENDBRANCH  38  39
ENDBRANCH  35  38
ENDBRANCH  34  35
ENDBRANCH  31  32
ENDBRANCH  22  25
ENDBRANCH  19  22
ENDBRANCH  15  19
ENDBRANCH  11  15
TORSDOF 13
ENDMDL
MODEL 4
REMARK VINA RESULT: -7.041018432      2.745      5.445
REMARK  13 active torsions:
REMARK  status: ('A' for Active; 'I' for Inactive)
REMARK    1  A    between atoms: O1_2  and  C2_3 
REMARK    2  A    between atoms: N4_13  and  C7_15 
REMARK    3  A    between atoms: C7_15  and  C8_16 
REMARK    4  A    between atoms: C7_15  and  C9_19 
REMARK    5  A    between atoms: C9_19  and  O3_20 
REMARK    6  A    between atoms: C9_19  and  N6_22 
REMARK    7  A    between atoms: N6_22  and  C10_25 
REMARK    8  A    between atoms: C14_31  and  C15_32 
REMARK       I    between atoms: C15_32  and  N7_34 
REMARK    9  A    between atoms: N7_34  and  S3_35 
REMARK   10  A    between atoms: S3_35  and  C16_38 
REMARK   11  A    between atoms: C16_38  and  C17_39 
REMARK   12  A    between atoms: C18_42  and  C19_43 
REMARK   13  A    between atoms: C20_48  and  C21_49 
ROOT
HETATM    1  C2  UNL     1     -61.109  29.948 -33.502  1.00  0.00     0.150 A 
HETATM    2  C3  UNL     1     -60.966  31.290 -33.519  1.00  0.00     0.152 A 
HETATM    3  C4  UNL     1     -59.860  31.929 -32.819  1.00  0.00     0.120 C 
HETATM    4  N1  UNL     1     -58.961  32.434 -32.280  1.00  0.00    -0.190 NA
HETATM    5  N2  UNL     1     -61.850  32.048 -34.178  1.00  0.00    -0.341 N 
ATOM      6  H2  UNL     1     -61.760  33.063 -34.209  1.00  0.00     0.167 HD
HETATM    7  C5  UNL     1     -62.890  31.396 -34.814  1.00  0.00     0.183 A 
HETATM    8  N3  UNL     1     -63.003  30.126 -34.784  1.00  0.00    -0.336 N 
ATOM      9  H3  UNL     1     -63.797  29.727 -35.284  1.00  0.00     0.168 HD
HETATM   10  C6  UNL     1     -62.179  29.251 -34.157  1.00  0.00     0.140 A 
HETATM   11  N4  UNL     1     -62.206  28.021 -34.093  1.00  0.00    -0.357 N 
ATOM     12  H4  UNL     1     -61.432  27.637 -33.550  1.00  0.00     0.162 HD
ENDROOT
BRANCH   1  13
HETATM   13  O1  UNL     1     -60.209  29.077 -32.824  1.00  0.00    -0.350 OA
HETATM   14  C1  UNL     1     -60.454  28.958 -31.448  1.00  0.00     0.210 C 
ENDBRANCH   1  13
BRANCH  11  15
HETATM   15  C7  UNL     1     -63.063  27.025 -34.598  1.00  0.00     0.229 C 
BRANCH  15  16
HETATM   16  C8  UNL     1     -62.262  26.067 -35.437  1.00  0.00     0.258 C 
HETATM   17  N5  UNL     1     -61.310  26.436 -36.373  1.00  0.00    -0.060 NA
HETATM   18  O2  UNL     1     -62.450  24.816 -35.272  1.00  0.00    -0.274 OA
ENDBRANCH  15  16
BRANCH  15  19
HETATM   19  C9  UNL     1     -63.707  26.222 -33.479  1.00  0.00     0.352 C 
BRANCH  19  20
HETATM   20  O3  UNL     1     -63.576  26.931 -32.260  1.00  0.00    -0.368 OA
ATOM     21  H3  UNL     1     -64.062  26.478 -31.581  1.00  0.00     0.212 HD
ENDBRANCH  19  20
BRANCH  19  22
HETATM   22  N6  UNL     1     -65.188  26.169 -33.655  1.00  0.00    -0.028 N 
ATOM     23  H62 UNL     1     -65.488  26.247 -34.627  1.00  0.00     0.282 HD
ATOM     24  H61 UNL     1     -65.589  25.247 -33.480  1.00  0.00     0.282 HD
BRANCH  22  25
HETATM   25  C10 UNL     1     -65.708  27.186 -32.814  1.00  0.00     0.300 C 
HETATM   26  S1  UNL     1     -66.299  28.618 -33.787  1.00  0.00    -0.059 SA
HETATM   27  S2  UNL     1     -68.096  27.881 -34.660  1.00  0.00    -0.091 SA
HETATM   28  C11 UNL     1     -68.190  26.173 -33.928  1.00  0.00     0.120 C 
HETATM   29  C12 UNL     1     -67.929  26.314 -32.451  1.00  0.00    -0.058 C 
HETATM   30  C13 UNL     1     -68.916  25.558 -31.592  1.00  0.00     0.045 C 
HETATM   31  C14 UNL     1     -66.870  26.767 -31.918  1.00  0.00     0.069 C 
BRANCH  31  32
HETATM   32  C15 UNL     1     -66.746  27.423 -30.547  1.00  0.00     0.336 C 
HETATM   33  O4  UNL     1     -67.490  28.341 -30.399  1.00  0.00    -0.251 OA
HETATM   34  N7  UNL     1     -65.803  26.843 -29.696  1.00  0.00    -0.280 NA
BRANCH  34  35
HETATM   35  S3  UNL     1     -64.716  26.176 -28.710  1.00  0.00     0.302 S 
HETATM   36  O5  UNL     1     -64.289  24.727 -28.917  1.00  0.00    -0.191 OA
HETATM   37  O6  UNL     1     -65.109  26.257 -27.214  1.00  0.00    -0.191 OA
BRANCH  35  38
HETATM   38  C16 UNL     1     -63.098  27.044 -28.756  1.00  0.00     0.254 C 
BRANCH  38  39
HETATM   39  C17 UNL     1     -62.089  26.001 -28.966  1.00  0.00     0.101 A 
HETATM   40  N8  UNL     1     -61.596  25.794 -30.188  1.00  0.00    -0.327 N 
HETATM   41  C18 UNL     1     -60.655  24.832 -30.462  1.00  0.00     0.174 A 
ATOM     42  H8  UNL     1     -61.933  26.378 -30.953  1.00  0.00     0.169 HD
HETATM   43  N10 UNL     1     -60.254  24.084 -29.423  1.00  0.00    -0.319 N 
HETATM   44  C20 UNL     1     -60.740  24.260 -28.173  1.00  0.00     0.186 A 
ATOM     45  H10 UNL     1     -59.558  23.354 -29.581  1.00  0.00     0.169 HD
HETATM   46  N11 UNL     1     -61.638  25.208 -27.986  1.00  0.00    -0.326 N 
ATOM     47  H11 UNL     1     -62.009  25.343 -27.046  1.00  0.00     0.169 HD
BRANCH  41  48
HETATM   48  C19 UNL     1     -60.163  24.686 -31.817  1.00  0.00     0.298 C 
HETATM   49  N9  UNL     1     -60.145  25.794 -32.695  1.00  0.00    -0.054 NA
HETATM   50  O7  UNL     1     -59.736  23.587 -32.253  1.00  0.00    -0.268 OA
ENDBRANCH  41  48
BRANCH  44  51
HETATM   51  C21 UNL     1     -60.326  23.357 -27.107  1.00  0.00     0.245 C 
HETATM   52  O8  UNL     1     -60.900  22.250 -26.930  1.00  0.00    -0.642 OA
HETATM   53  O9  UNL     1     -59.299  23.632 -26.227  1.00  0.00    -0.642 OA
ENDBRANCH  44  51
ENDBRANCH  38  39
ENDBRANCH  35  38
ENDBRANCH  34  35
ENDBRANCH  31  32
ENDBRANCH  22  25
ENDBRANCH  19  22
ENDBRANCH  15  19
ENDBRANCH  11  15
TORSDOF 13
ENDMDL
MODEL 5
REMARK VINA RESULT: -7.021113773      2.818      7.156
REMARK  13 active torsions:
REMARK  status: ('A' for Active; 'I' for Inactive)
REMARK    1  A    between atoms: O1_2  and  C2_3 
REMARK    2  A    between atoms: N4_13  and  C7_15 
REMARK    3  A    between atoms: C7_15  and  C8_16 
REMARK    4  A    between atoms: C7_15  and  C9_19 
REMARK    5  A    between atoms: C9_19  and  O3_20 
REMARK    6  A    between atoms: C9_19  and  N6_22 
REMARK    7  A    between atoms: N6_22  and  C10_25 
REMARK    8  A    between atoms: C14_31  and  C15_32 
REMARK       I    between atoms: C15_32  and  N7_34 
REMARK    9  A    between atoms: N7_34  and  S3_35 
REMARK   10  A    between atoms: S3_35  and  C16_38 
REMARK   11  A    between atoms: C16_38  and  C17_39 
REMARK   12  A    between atoms: C18_42  and  C19_43 
REMARK   13  A    between atoms: C20_48  and  C21_49 
ROOT
HETATM    1  C2  UNL     1     -66.937  26.904 -32.003  1.00  0.00     0.150 A 
HETATM    2  C3  UNL     1     -67.648  27.472 -33.001  1.00  0.00     0.152 A 
HETATM    3  C4  UNL     1     -68.114  26.675 -34.127  1.00  0.00     0.120 C 
HETATM    4  N1  UNL     1     -68.507  26.031 -35.013  1.00  0.00    -0.190 NA
HETATM    5  N2  UNL     1     -67.924  28.780 -32.964  1.00  0.00    -0.341 N 
ATOM      6  H2  UNL     1     -68.463  29.231 -33.703  1.00  0.00     0.167 HD
HETATM    7  C5  UNL     1     -67.446  29.496 -31.881  1.00  0.00     0.183 A 
HETATM    8  N3  UNL     1     -66.778  28.936 -30.951  1.00  0.00    -0.336 N 
ATOM      9  H3  UNL     1     -66.468  29.537 -30.187  1.00  0.00     0.168 HD
HETATM   10  C6  UNL     1     -66.435  27.627 -30.870  1.00  0.00     0.140 A 
HETATM   11  N4  UNL     1     -65.811  27.008 -30.007  1.00  0.00    -0.357 N 
ATOM     12  H4  UNL     1     -65.721  26.015 -30.221  1.00  0.00     0.162 HD
ENDROOT
BRANCH   1  13
HETATM   13  O1  UNL     1     -66.605  25.520 -31.972  1.00  0.00    -0.350 OA
HETATM   14  C1  UNL     1     -67.660  24.687 -31.569  1.00  0.00     0.210 C 
ENDBRANCH   1  13
BRANCH  11  15
HETATM   15  C7  UNL     1     -65.194  27.361 -28.791  1.00  0.00     0.229 C 
BRANCH  15  16
HETATM   16  C8  UNL     1     -64.879  26.109 -28.020  1.00  0.00     0.258 C 
HETATM   17  N5  UNL     1     -64.896  26.000 -26.639  1.00  0.00    -0.060 NA
HETATM   18  O2  UNL     1     -64.587  25.052 -28.675  1.00  0.00    -0.274 OA
ENDBRANCH  15  16
BRANCH  15  19
HETATM   19  C9  UNL     1     -63.884  28.096 -29.022  1.00  0.00     0.352 C 
BRANCH  19  20
HETATM   20  O3  UNL     1     -64.059  29.469 -28.720  1.00  0.00    -0.368 OA
ATOM     21  H3  UNL     1     -63.375  29.973 -29.146  1.00  0.00     0.212 HD
ENDBRANCH  19  20
BRANCH  19  22
HETATM   22  N6  UNL     1     -62.863  27.680 -28.016  1.00  0.00    -0.028 N 
ATOM     23  H62 UNL     1     -63.055  28.019 -27.074  1.00  0.00     0.282 HD
ATOM     24  H61 UNL     1     -62.888  26.685 -27.794  1.00  0.00     0.282 HD
BRANCH  22  25
HETATM   25  C10 UNL     1     -61.617  28.116 -28.536  1.00  0.00     0.300 C 
HETATM   26  S1  UNL     1     -60.282  27.945 -27.296  1.00  0.00    -0.059 SA
HETATM   27  S2  UNL     1     -59.963  25.841 -27.238  1.00  0.00    -0.091 SA
HETATM   28  C11 UNL     1     -61.158  25.249 -28.536  1.00  0.00     0.120 C 
HETATM   29  C12 UNL     1     -60.965  26.130 -29.743  1.00  0.00    -0.058 C 
HETATM   30  C13 UNL     1     -60.861  25.358 -31.038  1.00  0.00     0.045 C 
HETATM   31  C14 UNL     1     -61.136  27.386 -29.787  1.00  0.00     0.069 C 
BRANCH  31  32
HETATM   32  C15 UNL     1     -60.469  28.365 -30.748  1.00  0.00     0.336 C 
HETATM   33  O4  UNL     1     -59.281  28.363 -30.667  1.00  0.00    -0.251 OA
HETATM   34  N7  UNL     1     -61.346  29.085 -31.562  1.00  0.00    -0.280 NA
BRANCH  34  35
HETATM   35  S3  UNL     1     -62.354  29.919 -32.505  1.00  0.00     0.302 S 
HETATM   36  O5  UNL     1     -61.889  30.404 -33.873  1.00  0.00    -0.191 OA
HETATM   37  O6  UNL     1     -62.935  31.182 -31.820  1.00  0.00    -0.191 OA
BRANCH  35  38
HETATM   38  C16 UNL     1     -63.858  28.963 -32.947  1.00  0.00     0.254 C 
BRANCH  38  39
HETATM   39  C17 UNL     1     -63.382  27.771 -33.656  1.00  0.00     0.101 A 
HETATM   40  N8  UNL     1     -64.253  26.837 -34.039  1.00  0.00    -0.327 N 
HETATM   41  C18 UNL     1     -63.881  25.692 -34.700  1.00  0.00     0.174 A 
ATOM     42  H8  UNL     1     -65.242  26.979 -33.831  1.00  0.00     0.169 HD
HETATM   43  N10 UNL     1     -62.568  25.547 -34.938  1.00  0.00    -0.319 N 
HETATM   44  C20 UNL     1     -61.657  26.470 -34.556  1.00  0.00     0.186 A 
ATOM     45  H10 UNL     1     -62.246  24.710 -35.425  1.00  0.00     0.169 HD
HETATM   46  N11 UNL     1     -62.090  27.546 -33.929  1.00  0.00    -0.326 N 
ATOM     47  H11 UNL     1     -61.407  28.244 -33.637  1.00  0.00     0.169 HD
BRANCH  41  48
HETATM   48  C19 UNL     1     -64.897  24.736 -35.093  1.00  0.00     0.298 C 
HETATM   49  N9  UNL     1     -65.272  23.692 -34.216  1.00  0.00    -0.054 NA
HETATM   50  O7  UNL     1     -65.474  24.801 -36.207  1.00  0.00    -0.268 OA
ENDBRANCH  41  48
BRANCH  44  51
HETATM   51  C21 UNL     1     -60.239  26.210 -34.769  1.00  0.00     0.245 C 
HETATM   52  O8  UNL     1     -59.803  25.037 -34.907  1.00  0.00    -0.642 OA
HETATM   53  O9  UNL     1     -59.281  27.202 -34.836  1.00  0.00    -0.642 OA
ENDBRANCH  44  51
ENDBRANCH  38  39
ENDBRANCH  35  38
ENDBRANCH  34  35
ENDBRANCH  31  32
ENDBRANCH  22  25
ENDBRANCH  19  22
ENDBRANCH  15  19
ENDBRANCH  11  15
TORSDOF 13
ENDMDL
