MODEL 1
REMARK VINA RESULT: -4.288843479      0.000      0.000
REMARK  2 active torsions:
REMARK  status: ('A' for Active; 'I' for Inactive)
REMARK    1  A    between atoms: C2_3  and  N2_4 
REMARK    2  A    between atoms: C3_8  and  O1_9 
ROOT
HETATM    1  C1  UNL     1      -6.921  39.292  14.107  1.00  0.00     0.315 C 
HETATM    2  N1  UNL     1      -6.052  40.317  13.641  1.00  0.00     0.139 N 
HETATM    3  C2  UNL     1      -4.774  40.451  14.262  1.00  0.00     0.450 C 
HETATM    4  C3  UNL     1      -4.087  39.758  13.091  1.00  0.00     0.227 C 
HETATM    5  C4  UNL     1      -5.384  40.089  12.380  1.00  0.00     0.352 C 
HETATM    6 CL1  UNL     1      -5.249  41.612  11.483  1.00  0.00    -0.089 Cl
ENDROOT
BRANCH   3   7
HETATM    7  N2  UNL     1      -4.549  39.750  15.483  1.00  0.00    -0.045 N 
ATOM      8  H23 UNL     1      -4.934  40.291  16.256  1.00  0.00     0.277 HD
ATOM      9  H22 UNL     1      -5.146  38.922  15.509  1.00  0.00     0.277 HD
ATOM     10  H21 UNL     1      -3.591  39.479  15.708  1.00  0.00     0.277 HD
ENDBRANCH   3   7
BRANCH   4  11
HETATM   11  O1  UNL     1      -2.981  40.477  12.677  1.00  0.00    -0.388 OA
ATOM     12  H1  UNL     1      -2.454  39.966  12.073  1.00  0.00     0.210 HD
ENDBRANCH   4  11
TORSDOF 2
ENDMDL
MODEL 2
REMARK VINA RESULT: -4.069683311      2.665      3.399
REMARK  2 active torsions:
REMARK  status: ('A' for Active; 'I' for Inactive)
REMARK    1  A    between atoms: C2_3  and  N2_4 
REMARK    2  A    between atoms: C3_8  and  O1_9 
ROOT
HETATM    1  C1  UNL     1      -3.468  39.950  12.237  1.00  0.00     0.315 C 
HETATM    2  N1  UNL     1      -4.296  40.338  13.327  1.00  0.00     0.139 N 
HETATM    3  C2  UNL     1      -5.665  40.639  13.058  1.00  0.00     0.450 C 
HETATM    4  C3  UNL     1      -6.111  39.284  13.597  1.00  0.00     0.227 C 
HETATM    5  C4  UNL     1      -4.731  39.292  14.225  1.00  0.00     0.352 C 
HETATM    6 CL1  UNL     1      -4.790  39.908  15.886  1.00  0.00    -0.089 Cl
ENDROOT
BRANCH   3   7
HETATM    7  N2  UNL     1      -6.057  40.808  11.698  1.00  0.00    -0.045 N 
ATOM      8  H23 UNL     1      -6.934  41.327  11.664  1.00  0.00     0.277 HD
ATOM      9  H22 UNL     1      -5.424  41.469  11.247  1.00  0.00     0.277 HD
ATOM     10  H21 UNL     1      -6.139  39.973  11.117  1.00  0.00     0.277 HD
ENDBRANCH   3   7
BRANCH   4  11
HETATM   11  O1  UNL     1      -7.166  39.431  14.479  1.00  0.00    -0.388 OA
ATOM     12  H1  UNL     1      -7.994  39.262  14.044  1.00  0.00     0.210 HD
ENDBRANCH   4  11
TORSDOF 2
ENDMDL
MODEL 3
REMARK VINA RESULT: -3.720480384      2.344      2.820
REMARK  2 active torsions:
REMARK  status: ('A' for Active; 'I' for Inactive)
REMARK    1  A    between atoms: C2_3  and  N2_4 
REMARK    2  A    between atoms: C3_8  and  O1_9 
ROOT
HETATM    1  C1  UNL     1      -5.407  41.898  12.362  1.00  0.00     0.315 C 
HETATM    2  N1  UNL     1      -5.569  40.549  12.784  1.00  0.00     0.139 N 
HETATM    3  C2  UNL     1      -4.483  39.646  12.579  1.00  0.00     0.450 C 
HETATM    4  C3  UNL     1      -4.077  39.736  14.046  1.00  0.00     0.227 C 
HETATM    5  C4  UNL     1      -5.480  40.290  14.203  1.00  0.00     0.352 C 
HETATM    6 CL1  UNL     1      -6.623  39.014  14.657  1.00  0.00    -0.089 Cl
ENDROOT
BRANCH   3   7
HETATM    7  N2  UNL     1      -3.422  40.061  11.723  1.00  0.00    -0.045 N 
ATOM      8  H23 UNL     1      -3.483  39.549  10.842  1.00  0.00     0.277 HD
ATOM      9  H22 UNL     1      -3.601  41.014  11.405  1.00  0.00     0.277 HD
ATOM     10  H21 UNL     1      -2.468  40.000  12.080  1.00  0.00     0.277 HD
ENDBRANCH   3   7
BRANCH   4  11
HETATM   11  O1  UNL     1      -3.874  38.475  14.576  1.00  0.00    -0.388 OA
ATOM     12  H1  UNL     1      -3.003  38.404  14.952  1.00  0.00     0.210 HD
ENDBRANCH   4  11
TORSDOF 2
ENDMDL
MODEL 4
REMARK VINA RESULT: -3.630988380      2.367      2.768
REMARK  2 active torsions:
REMARK  status: ('A' for Active; 'I' for Inactive)
REMARK    1  A    between atoms: C2_3  and  N2_4 
REMARK    2  A    between atoms: C3_8  and  O1_9 
ROOT
HETATM    1  C1  UNL     1      -6.300  40.409  11.377  1.00  0.00     0.315 C 
HETATM    2  N1  UNL     1      -5.919  39.642  12.513  1.00  0.00     0.139 N 
HETATM    3  C2  UNL     1      -4.545  39.650  12.900  1.00  0.00     0.450 C 
HETATM    4  C3  UNL     1      -4.828  40.628  14.035  1.00  0.00     0.227 C 
HETATM    5  C4  UNL     1      -6.259  40.178  13.811  1.00  0.00     0.352 C 
HETATM    6 CL1  UNL     1      -6.694  38.860  14.914  1.00  0.00    -0.089 Cl
ENDROOT
BRANCH   3   7
HETATM    7  N2  UNL     1      -3.596  40.186  11.982  1.00  0.00    -0.045 N 
ATOM      8  H23 UNL     1      -2.961  39.445  11.685  1.00  0.00     0.277 HD
ATOM      9  H22 UNL     1      -4.066  40.402  11.102  1.00  0.00     0.277 HD
ATOM     10  H21 UNL     1      -3.050  40.996  12.277  1.00  0.00     0.277 HD
ENDBRANCH   3   7
BRANCH   4  11
HETATM   11  O1  UNL     1      -4.246  40.194  15.212  1.00  0.00    -0.388 OA
ATOM     12  H1  UNL     1      -4.212  40.897  15.850  1.00  0.00     0.210 HD
ENDBRANCH   4  11
TORSDOF 2
ENDMDL
MODEL 5
REMARK VINA RESULT: -3.516789452      1.921      2.515
REMARK  2 active torsions:
REMARK  status: ('A' for Active; 'I' for Inactive)
REMARK    1  A    between atoms: C2_3  and  N2_4 
REMARK    2  A    between atoms: C3_8  and  O1_9 
ROOT
HETATM    1  C1  UNL     1      -6.997  39.622  14.328  1.00  0.00     0.315 C 
HETATM    2  N1  UNL     1      -5.769  39.187  13.756  1.00  0.00     0.139 N 
HETATM    3  C2  UNL     1      -5.403  39.703  12.477  1.00  0.00     0.450 C 
HETATM    4  C3  UNL     1      -4.412  40.676  13.108  1.00  0.00     0.227 C 
HETATM    5  C4  UNL     1      -4.555  39.751  14.301  1.00  0.00     0.352 C 
HETATM    6 CL1  UNL     1      -3.274  38.526  14.315  1.00  0.00    -0.089 Cl
ENDROOT
BRANCH   3   7
HETATM    7  N2  UNL     1      -6.398  40.394  11.726  1.00  0.00    -0.045 N 
ATOM      8  H23 UNL     1      -5.984  40.743  10.862  1.00  0.00     0.277 HD
ATOM      9  H22 UNL     1      -7.070  39.719  11.360  1.00  0.00     0.277 HD
ATOM     10  H21 UNL     1      -6.902  41.153  12.185  1.00  0.00     0.277 HD
ENDBRANCH   3   7
BRANCH   4  11
HETATM   11  O1  UNL     1      -3.194  40.624  12.458  1.00  0.00    -0.388 OA
ATOM     12  H1  UNL     1      -2.620  39.987  12.868  1.00  0.00     0.210 HD
ENDBRANCH   4  11
TORSDOF 2
ENDMDL
