MODEL 1
REMARK VINA RESULT: -5.182158881      0.000      0.000
REMARK  2 active torsions:
REMARK  status: ('A' for Active; 'I' for Inactive)
REMARK    1  A    between atoms: O1_1  and  N1_3 
REMARK    2  A    between atoms: C3_6  and  O2_7 
ROOT
HETATM    1  N1  UNL     1      -3.968  39.383  12.762  1.00  0.00    -0.150 NA
HETATM    2  C1  UNL     1      -3.765  39.757  14.164  1.00  0.00     0.131 C 
HETATM    3  C2  UNL     1      -5.231  40.086  14.225  1.00  0.00     0.091 C 
HETATM    4  C3  UNL     1      -5.275  40.055  12.708  1.00  0.00     0.217 C 
HETATM    5 CL1  UNL     1      -5.237  41.661  11.985  1.00  0.00    -0.069 Cl
ENDROOT
BRANCH   4   6
HETATM    6  O2  UNL     1      -6.242  39.229  12.165  1.00  0.00    -0.361 OA
ATOM      7  H2  UNL     1      -6.077  38.319  12.379  1.00  0.00     0.213 HD
ENDBRANCH   4   6
BRANCH   1   8
HETATM    8  O1  UNL     1      -3.141  39.994  11.897  1.00  0.00    -0.309 OA
ATOM      9  H1  UNL     1      -2.538  39.412  11.449  1.00  0.00     0.237 HD
ENDBRANCH   1   8
TORSDOF 2
ENDMDL
MODEL 2
REMARK VINA RESULT: -4.365845831      1.833      2.792
REMARK  2 active torsions:
REMARK  status: ('A' for Active; 'I' for Inactive)
REMARK    1  A    between atoms: O1_1  and  N1_3 
REMARK    2  A    between atoms: C3_6  and  O2_7 
ROOT
HETATM    1  N1  UNL     1      -5.897  39.469  12.679  1.00  0.00    -0.150 NA
HETATM    2  C1  UNL     1      -6.218  40.826  12.231  1.00  0.00     0.131 C 
HETATM    3  C2  UNL     1      -4.739  41.106  12.223  1.00  0.00     0.091 C 
HETATM    4  C3  UNL     1      -4.523  39.847  13.041  1.00  0.00     0.217 C 
HETATM    5 CL1  UNL     1      -4.284  40.171  14.756  1.00  0.00    -0.069 Cl
ENDROOT
BRANCH   4   6
HETATM    6  O2  UNL     1      -3.604  38.956  12.516  1.00  0.00    -0.361 OA
ATOM      7  H2  UNL     1      -2.730  39.128  12.847  1.00  0.00     0.213 HD
ENDBRANCH   4   6
BRANCH   1   8
HETATM    8  O1  UNL     1      -6.539  39.086  13.797  1.00  0.00    -0.309 OA
ATOM      9  H1  UNL     1      -7.450  39.353  13.840  1.00  0.00     0.237 HD
ENDBRANCH   1   8
TORSDOF 2
ENDMDL
MODEL 3
REMARK VINA RESULT: -4.218231773      2.204      2.569
REMARK  2 active torsions:
REMARK  status: ('A' for Active; 'I' for Inactive)
REMARK    1  A    between atoms: O1_1  and  N1_3 
REMARK    2  A    between atoms: C3_6  and  O2_7 
ROOT
HETATM    1  N1  UNL     1      -5.364  41.456  12.566  1.00  0.00    -0.150 NA
HETATM    2  C1  UNL     1      -6.342  40.621  11.865  1.00  0.00     0.131 C 
HETATM    3  C2  UNL     1      -6.058  39.546  12.879  1.00  0.00     0.091 C 
HETATM    4  C3  UNL     1      -4.812  40.306  13.296  1.00  0.00     0.217 C 
HETATM    5 CL1  UNL     1      -3.335  39.643  12.602  1.00  0.00    -0.069 Cl
ENDROOT
BRANCH   4   6
HETATM    6  O2  UNL     1      -4.713  40.572  14.650  1.00  0.00    -0.361 OA
ATOM      7  H2  UNL     1      -3.928  40.186  15.020  1.00  0.00     0.213 HD
ENDBRANCH   4   6
BRANCH   1   8
HETATM    8  O1  UNL     1      -4.398  41.961  11.779  1.00  0.00    -0.309 OA
ATOM      9  H1  UNL     1      -4.714  42.392  10.993  1.00  0.00     0.237 HD
ENDBRANCH   1   8
TORSDOF 2
ENDMDL
MODEL 4
REMARK VINA RESULT: -4.046280457      1.867      2.350
REMARK  2 active torsions:
REMARK  status: ('A' for Active; 'I' for Inactive)
REMARK    1  A    between atoms: O1_1  and  N1_3 
REMARK    2  A    between atoms: C3_6  and  O2_7 
ROOT
HETATM    1  N1  UNL     1      -6.365  39.868  13.169  1.00  0.00    -0.150 NA
HETATM    2  C1  UNL     1      -6.152  39.214  14.462  1.00  0.00     0.131 C 
HETATM    3  C2  UNL     1      -5.078  40.234  14.730  1.00  0.00     0.091 C 
HETATM    4  C3  UNL     1      -5.091  40.597  13.257  1.00  0.00     0.217 C 
HETATM    5 CL1  UNL     1      -3.769  39.862  12.355  1.00  0.00    -0.069 Cl
ENDROOT
BRANCH   4   6
HETATM    6  O2  UNL     1      -5.263  41.942  12.985  1.00  0.00    -0.361 OA
ATOM      7  H2  UNL     1      -5.498  42.424  13.769  1.00  0.00     0.213 HD
ENDBRANCH   4   6
BRANCH   1   8
HETATM    8  O1  UNL     1      -6.307  39.041  12.110  1.00  0.00    -0.309 OA
ATOM      9  H1  UNL     1      -5.593  39.219  11.509  1.00  0.00     0.237 HD
ENDBRANCH   1   8
TORSDOF 2
ENDMDL
MODEL 5
REMARK VINA RESULT: -4.027122506      1.813      2.094
REMARK  2 active torsions:
REMARK  status: ('A' for Active; 'I' for Inactive)
REMARK    1  A    between atoms: O1_1  and  N1_3 
REMARK    2  A    between atoms: C3_6  and  O2_7 
ROOT
HETATM    1  N1  UNL     1      -4.462  40.731  13.798  1.00  0.00    -0.150 NA
HETATM    2  C1  UNL     1      -4.861  40.252  15.124  1.00  0.00     0.131 C 
HETATM    3  C2  UNL     1      -4.775  38.853  14.576  1.00  0.00     0.091 C 
HETATM    4  C3  UNL     1      -4.752  39.431  13.174  1.00  0.00     0.217 C 
HETATM    5 CL1  UNL     1      -6.315  39.344  12.367  1.00  0.00    -0.069 Cl
ENDROOT
BRANCH   4   6
HETATM    6  O2  UNL     1      -3.699  39.010  12.382  1.00  0.00    -0.361 OA
ATOM      7  H2  UNL     1      -3.019  39.671  12.332  1.00  0.00     0.213 HD
ENDBRANCH   4   6
BRANCH   1   8
HETATM    8  O1  UNL     1      -5.287  41.649  13.266  1.00  0.00    -0.309 OA
ATOM      9  H1  UNL     1      -6.204  41.401  13.264  1.00  0.00     0.237 HD
ENDBRANCH   1   8
TORSDOF 2
ENDMDL
