MODEL 1
REMARK VINA RESULT: -4.886548785      0.000      0.000
REMARK  2 active torsions:
REMARK  status: ('A' for Active; 'I' for Inactive)
REMARK    1  A    between atoms: N1_1  and  C1_5 
REMARK    2  A    between atoms: C2_6  and  O1_7 
ROOT
HETATM    1  C1  UNL     1      -5.307  40.580  12.742  1.00  0.00     0.230 C 
HETATM    2  C2  UNL     1      -3.894  39.987  12.613  1.00  0.00     0.151 C 
HETATM    3  C3  UNL     1      -4.183  39.309  13.957  1.00  0.00     0.056 C 
HETATM    4  C4  UNL     1      -5.641  39.280  13.479  1.00  0.00     0.117 C 
HETATM    5 CL1  UNL     1      -6.841  39.507  14.722  1.00  0.00    -0.123 Cl
ENDROOT
BRANCH   1   6
HETATM    6  N1  UNL     1      -5.953  40.762  11.492  1.00  0.00    -0.071 N 
ATOM      7  H13 UNL     1      -5.395  40.368  10.734  1.00  0.00     0.274 HD
ATOM      8  H12 UNL     1      -6.778  40.167  11.420  1.00  0.00     0.274 HD
ATOM      9  H11 UNL     1      -6.190  41.736  11.301  1.00  0.00     0.274 HD
ENDBRANCH   1   6
BRANCH   2  10
HETATM   10  O1  UNL     1      -2.882  40.928  12.654  1.00  0.00    -0.393 OA
ATOM     11  H1  UNL     1      -2.728  41.294  13.518  1.00  0.00     0.210 HD
ENDBRANCH   2  10
TORSDOF 2
ENDMDL
MODEL 2
REMARK VINA RESULT: -4.626055257      2.124      2.409
REMARK  2 active torsions:
REMARK  status: ('A' for Active; 'I' for Inactive)
REMARK    1  A    between atoms: N1_1  and  C1_5 
REMARK    2  A    between atoms: C2_6  and  O1_7 
ROOT
HETATM    1  C1  UNL     1      -4.635  39.931  12.844  1.00  0.00     0.230 C 
HETATM    2  C2  UNL     1      -5.877  40.721  12.397  1.00  0.00     0.151 C 
HETATM    3  C3  UNL     1      -6.583  40.055  13.583  1.00  0.00     0.056 C 
HETATM    4  C4  UNL     1      -5.204  40.094  14.256  1.00  0.00     0.117 C 
HETATM    5 CL1  UNL     1      -4.835  38.736  15.284  1.00  0.00    -0.123 Cl
ENDROOT
BRANCH   1   6
HETATM    6  N1  UNL     1      -3.417  40.614  12.589  1.00  0.00    -0.071 N 
ATOM      7  H13 UNL     1      -3.583  41.460  12.044  1.00  0.00     0.274 HD
ATOM      8  H12 UNL     1      -3.051  41.033  13.443  1.00  0.00     0.274 HD
ATOM      9  H11 UNL     1      -2.714  40.025  12.143  1.00  0.00     0.274 HD
ENDBRANCH   1   6
BRANCH   2  10
HETATM   10  O1  UNL     1      -6.366  40.349  11.159  1.00  0.00    -0.393 OA
ATOM     11  H1  UNL     1      -7.298  40.499  11.049  1.00  0.00     0.210 HD
ENDBRANCH   2  10
TORSDOF 2
ENDMDL
MODEL 3
REMARK VINA RESULT: -4.507962299      1.102      1.102
REMARK  2 active torsions:
REMARK  status: ('A' for Active; 'I' for Inactive)
REMARK    1  A    between atoms: N1_1  and  C1_5 
REMARK    2  A    between atoms: C2_6  and  O1_7 
ROOT
HETATM    1  C1  UNL     1      -5.669  40.544  13.211  1.00  0.00     0.230 C 
HETATM    2  C2  UNL     1      -4.362  40.497  12.401  1.00  0.00     0.151 C 
HETATM    3  C3  UNL     1      -3.722  39.960  13.687  1.00  0.00     0.056 C 
HETATM    4  C4  UNL     1      -5.097  39.332  13.952  1.00  0.00     0.117 C 
HETATM    5 CL1  UNL     1      -5.586  39.281  15.624  1.00  0.00    -0.123 Cl
ENDROOT
BRANCH   1   6
HETATM    6  N1  UNL     1      -6.823  40.296  12.424  1.00  0.00    -0.071 N 
ATOM      7  H13 UNL     1      -6.985  41.058  11.766  1.00  0.00     0.274 HD
ATOM      8  H12 UNL     1      -6.655  39.537  11.763  1.00  0.00     0.274 HD
ATOM      9  H11 UNL     1      -7.657  40.113  12.982  1.00  0.00     0.274 HD
ENDBRANCH   1   6
BRANCH   2  10
HETATM   10  O1  UNL     1      -3.898  41.738  12.008  1.00  0.00    -0.393 OA
ATOM     11  H1  UNL     1      -2.990  41.741  11.727  1.00  0.00     0.210 HD
ENDBRANCH   2  10
TORSDOF 2
ENDMDL
MODEL 4
REMARK VINA RESULT: -4.106427434      2.739      3.051
REMARK  2 active torsions:
REMARK  status: ('A' for Active; 'I' for Inactive)
REMARK    1  A    between atoms: N1_1  and  C1_5 
REMARK    2  A    between atoms: C2_6  and  O1_7 
ROOT
HETATM    1  C1  UNL     1      -4.707  40.122  14.306  1.00  0.00     0.230 C 
HETATM    2  C2  UNL     1      -5.283  39.046  15.241  1.00  0.00     0.151 C 
HETATM    3  C3  UNL     1      -6.580  39.211  14.440  1.00  0.00     0.056 C 
HETATM    4  C4  UNL     1      -5.653  39.530  13.258  1.00  0.00     0.117 C 
HETATM    5 CL1  UNL     1      -6.249  40.728  12.143  1.00  0.00    -0.123 Cl
ENDROOT
BRANCH   1   6
HETATM    6  N1  UNL     1      -3.322  39.955  14.048  1.00  0.00    -0.071 N 
ATOM      7  H13 UNL     1      -2.866  40.857  13.910  1.00  0.00     0.274 HD
ATOM      8  H12 UNL     1      -2.831  39.646  14.887  1.00  0.00     0.274 HD
ATOM      9  H11 UNL     1      -3.133  39.328  13.265  1.00  0.00     0.274 HD
ENDBRANCH   1   6
BRANCH   2  10
HETATM   10  O1  UNL     1      -5.375  39.438  16.563  1.00  0.00    -0.393 OA
ATOM     11  H1  UNL     1      -6.025  38.960  17.065  1.00  0.00     0.210 HD
ENDBRANCH   2  10
TORSDOF 2
ENDMDL
MODEL 5
REMARK VINA RESULT: -3.955912929      2.250      2.528
REMARK  2 active torsions:
REMARK  status: ('A' for Active; 'I' for Inactive)
REMARK    1  A    between atoms: N1_1  and  C1_5 
REMARK    2  A    between atoms: C2_6  and  O1_7 
ROOT
HETATM    1  C1  UNL     1      -5.446  39.448  13.279  1.00  0.00     0.230 C 
HETATM    2  C2  UNL     1      -4.050  39.538  13.919  1.00  0.00     0.151 C 
HETATM    3  C3  UNL     1      -3.660  40.344  12.674  1.00  0.00     0.056 C 
HETATM    4  C4  UNL     1      -5.118  40.823  12.689  1.00  0.00     0.117 C 
HETATM    5 CL1  UNL     1      -5.842  41.067  11.123  1.00  0.00    -0.123 Cl
ENDROOT
BRANCH   1   6
HETATM    6  N1  UNL     1      -6.497  39.423  14.232  1.00  0.00    -0.071 N 
ATOM      7  H13 UNL     1      -7.166  40.172  14.055  1.00  0.00     0.274 HD
ATOM      8  H12 UNL     1      -7.104  38.617  14.081  1.00  0.00     0.274 HD
ATOM      9  H11 UNL     1      -6.165  39.452  15.196  1.00  0.00     0.274 HD
ENDBRANCH   1   6
BRANCH   2  10
HETATM   10  O1  UNL     1      -3.405  38.322  14.037  1.00  0.00    -0.393 OA
ATOM     11  H1  UNL     1      -3.491  37.762  13.274  1.00  0.00     0.210 HD
ENDBRANCH   2  10
TORSDOF 2
ENDMDL
