MODEL 1
REMARK VINA RESULT: -5.446695743      0.000      0.000
REMARK  7 active torsions:
REMARK  status: ('A' for Active; 'I' for Inactive)
REMARK    1  A    between atoms: N1_1  and  C1_5 
REMARK    2  A    between atoms: C1_5  and  C2_6 
REMARK    3  A    between atoms: C2_6  and  C3_7 
REMARK    4  A    between atoms: C3_7  and  N2_8 
REMARK    5  A    between atoms: N2_8  and  C4_11 
REMARK    6  A    between atoms: C4_11  and  C5_12 
REMARK    7  A    between atoms: C9_18  and  N4_19 
ROOT
HETATM    1  C5  UNL     1     -50.646 -37.717  27.721  1.00  0.00     0.045 C 
HETATM    2  C6  UNL     1     -51.389 -38.117  26.483  1.00  0.00     0.027 C 
HETATM    3  C7  UNL     1     -51.832 -36.974  25.627  1.00  0.00     0.114 C 
HETATM    4  N3  UNL     1     -52.550 -35.967  26.344  1.00  0.00    -0.419 N 
ATOM      5  H3  UNL     1     -53.188 -35.316  25.886  1.00  0.00     0.153 HD
HETATM    6  C8  UNL     1     -52.307 -35.940  27.753  1.00  0.00     0.147 C 
HETATM    7  C9  UNL     1     -50.845 -36.272  28.083  1.00  0.00     0.206 C 
ENDROOT
BRANCH   1   8
HETATM    8  C4  UNL     1     -49.182 -38.123  27.664  1.00  0.00     0.239 C 
BRANCH   8   9
HETATM    9  N2  UNL     1     -48.784 -38.489  29.004  1.00  0.00    -0.075 N 
ATOM     10  H22 UNL     1     -49.306 -39.306  29.322  1.00  0.00     0.277 HD
ATOM     11  H21 UNL     1     -49.117 -37.800  29.678  1.00  0.00     0.277 HD
BRANCH   9  12
HETATM   12  C3  UNL     1     -47.379 -38.701  29.155  1.00  0.00     0.233 C 
BRANCH  12  13
HETATM   13  C2  UNL     1     -46.641 -37.444  29.579  1.00  0.00     0.055 C 
BRANCH  13  14
HETATM   14  C1  UNL     1     -45.383 -37.802  30.352  1.00  0.00     0.231 C 
BRANCH  14  15
HETATM   15  N1  UNL     1     -44.599 -38.801  29.664  1.00  0.00    -0.079 N 
ATOM     16  H13 UNL     1     -45.164 -39.614  29.419  1.00  0.00     0.274 HD
ATOM     17  H12 UNL     1     -44.347 -38.494  28.725  1.00  0.00     0.274 HD
ATOM     18  H11 UNL     1     -43.774 -39.070  30.202  1.00  0.00     0.274 HD
ENDBRANCH  14  15
ENDBRANCH  13  14
ENDBRANCH  12  13
ENDBRANCH   9  12
ENDBRANCH   8   9
ENDBRANCH   1   8
BRANCH   7  19
HETATM   19  N4  UNL     1     -50.020 -35.360  27.350  1.00  0.00    -0.073 N 
ATOM     20  H43 UNL     1     -49.644 -35.811  26.517  1.00  0.00     0.274 HD
ATOM     21  H42 UNL     1     -50.591 -34.635  26.915  1.00  0.00     0.274 HD
ATOM     22  H41 UNL     1     -49.268 -34.940  27.897  1.00  0.00     0.274 HD
ENDBRANCH   7  19
TORSDOF 7
ENDMDL
MODEL 2
REMARK VINA RESULT: -5.352140954      1.040      1.046
REMARK  7 active torsions:
REMARK  status: ('A' for Active; 'I' for Inactive)
REMARK    1  A    between atoms: N1_1  and  C1_5 
REMARK    2  A    between atoms: C1_5  and  C2_6 
REMARK    3  A    between atoms: C2_6  and  C3_7 
REMARK    4  A    between atoms: C3_7  and  N2_8 
REMARK    5  A    between atoms: N2_8  and  C4_11 
REMARK    6  A    between atoms: C4_11  and  C5_12 
REMARK    7  A    between atoms: C9_18  and  N4_19 
ROOT
HETATM    1  C5  UNL     1     -50.816 -37.587  27.711  1.00  0.00     0.045 C 
HETATM    2  C6  UNL     1     -50.197 -37.773  26.360  1.00  0.00     0.027 C 
HETATM    3  C7  UNL     1     -50.145 -36.534  25.524  1.00  0.00     0.114 C 
HETATM    4  N3  UNL     1     -51.404 -35.864  25.416  1.00  0.00    -0.419 N 
ATOM      5  H3  UNL     1     -51.621 -35.226  24.651  1.00  0.00     0.153 HD
HETATM    6  C8  UNL     1     -52.334 -36.156  26.461  1.00  0.00     0.147 C 
HETATM    7  C9  UNL     1     -51.631 -36.329  27.815  1.00  0.00     0.206 C 
ENDROOT
BRANCH   1   8
HETATM    8  C4  UNL     1     -49.797 -37.734  28.830  1.00  0.00     0.239 C 
BRANCH   8   9
HETATM    9  N2  UNL     1     -48.560 -38.181  28.231  1.00  0.00    -0.075 N 
ATOM     10  H22 UNL     1     -48.160 -37.448  27.645  1.00  0.00     0.277 HD
ATOM     11  H21 UNL     1     -48.742 -38.890  27.520  1.00  0.00     0.277 HD
BRANCH   9  12
HETATM   12  C3  UNL     1     -47.596 -38.653  29.174  1.00  0.00     0.233 C 
BRANCH  12  13
HETATM   13  C2  UNL     1     -46.583 -37.589  29.555  1.00  0.00     0.055 C 
BRANCH  13  14
HETATM   14  C1  UNL     1     -45.275 -38.231  29.985  1.00  0.00     0.231 C 
BRANCH  14  15
HETATM   15  N1  UNL     1     -44.943 -39.371  29.162  1.00  0.00    -0.079 N 
ATOM     16  H13 UNL     1     -45.057 -40.245  29.675  1.00  0.00     0.274 HD
ATOM     17  H12 UNL     1     -45.642 -39.521  28.435  1.00  0.00     0.274 HD
ATOM     18  H11 UNL     1     -44.005 -39.291  28.767  1.00  0.00     0.274 HD
ENDBRANCH  14  15
ENDBRANCH  13  14
ENDBRANCH  12  13
ENDBRANCH   9  12
ENDBRANCH   8   9
ENDBRANCH   1   8
BRANCH   7  19
HETATM   19  N4  UNL     1     -50.864 -35.146  28.057  1.00  0.00    -0.073 N 
ATOM     20  H43 UNL     1     -50.025 -35.369  28.592  1.00  0.00     0.274 HD
ATOM     21  H42 UNL     1     -50.435 -34.816  27.191  1.00  0.00     0.274 HD
ATOM     22  H41 UNL     1     -51.383 -34.391  28.506  1.00  0.00     0.274 HD
ENDBRANCH   7  19
TORSDOF 7
ENDMDL
MODEL 3
REMARK VINA RESULT: -5.268611239      1.385      1.596
REMARK  7 active torsions:
REMARK  status: ('A' for Active; 'I' for Inactive)
REMARK    1  A    between atoms: N1_1  and  C1_5 
REMARK    2  A    between atoms: C1_5  and  C2_6 
REMARK    3  A    between atoms: C2_6  and  C3_7 
REMARK    4  A    between atoms: C3_7  and  N2_8 
REMARK    5  A    between atoms: N2_8  and  C4_11 
REMARK    6  A    between atoms: C4_11  and  C5_12 
REMARK    7  A    between atoms: C9_18  and  N4_19 
ROOT
HETATM    1  C5  UNL     1     -50.160 -36.901  27.548  1.00  0.00     0.045 C 
HETATM    2  C6  UNL     1     -51.000 -38.109  27.271  1.00  0.00     0.027 C 
HETATM    3  C7  UNL     1     -51.271 -38.358  25.821  1.00  0.00     0.114 C 
HETATM    4  N3  UNL     1     -51.784 -37.215  25.131  1.00  0.00    -0.419 N 
ATOM      5  H3  UNL     1     -52.318 -37.292  24.265  1.00  0.00     0.153 HD
HETATM    6  C8  UNL     1     -51.494 -35.958  25.747  1.00  0.00     0.147 C 
HETATM    7  C9  UNL     1     -50.099 -35.949  26.387  1.00  0.00     0.206 C 
ENDROOT
BRANCH   1   8
HETATM    8  C4  UNL     1     -48.789 -37.272  28.090  1.00  0.00     0.239 C 
BRANCH   8   9
HETATM    9  N2  UNL     1     -48.435 -36.283  29.083  1.00  0.00    -0.075 N 
ATOM     10  H22 UNL     1     -49.137 -36.249  29.821  1.00  0.00     0.277 HD
ATOM     11  H21 UNL     1     -48.539 -35.342  28.704  1.00  0.00     0.277 HD
BRANCH   9  12
HETATM   12  C3  UNL     1     -47.130 -36.458  29.638  1.00  0.00     0.233 C 
BRANCH  12  13
HETATM   13  C2  UNL     1     -46.619 -37.880  29.493  1.00  0.00     0.055 C 
BRANCH  13  14
HETATM   14  C1  UNL     1     -45.420 -38.108  30.396  1.00  0.00     0.231 C 
BRANCH  14  15
HETATM   15  N1  UNL     1     -44.352 -38.792  29.705  1.00  0.00    -0.079 N 
ATOM     16  H13 UNL     1     -43.652 -39.144  30.358  1.00  0.00     0.274 HD
ATOM     17  H12 UNL     1     -44.669 -39.680  29.317  1.00  0.00     0.274 HD
ATOM     18  H11 UNL     1     -43.928 -38.202  28.988  1.00  0.00     0.274 HD
ENDBRANCH  14  15
ENDBRANCH  13  14
ENDBRANCH  12  13
ENDBRANCH   9  12
ENDBRANCH   8   9
ENDBRANCH   1   8
BRANCH   7  19
HETATM   19  N4  UNL     1     -49.157 -36.312  25.374  1.00  0.00    -0.073 N 
ATOM     20  H43 UNL     1     -49.193 -37.316  25.198  1.00  0.00     0.274 HD
ATOM     21  H42 UNL     1     -49.461 -35.964  24.464  1.00  0.00     0.274 HD
ATOM     22  H41 UNL     1     -48.199 -36.018  25.565  1.00  0.00     0.274 HD
ENDBRANCH   7  19
TORSDOF 7
ENDMDL
MODEL 4
REMARK VINA RESULT: -5.238727302      2.587      4.857
REMARK  7 active torsions:
REMARK  status: ('A' for Active; 'I' for Inactive)
REMARK    1  A    between atoms: N1_1  and  C1_5 
REMARK    2  A    between atoms: C1_5  and  C2_6 
REMARK    3  A    between atoms: C2_6  and  C3_7 
REMARK    4  A    between atoms: C3_7  and  N2_8 
REMARK    5  A    between atoms: N2_8  and  C4_11 
REMARK    6  A    between atoms: C4_11  and  C5_12 
REMARK    7  A    between atoms: C9_18  and  N4_19 
ROOT
HETATM    1  C5  UNL     1     -51.165 -38.011  27.049  1.00  0.00     0.045 C 
HETATM    2  C6  UNL     1     -51.899 -36.739  27.344  1.00  0.00     0.027 C 
HETATM    3  C7  UNL     1     -51.031 -35.616  27.816  1.00  0.00     0.114 C 
HETATM    4  N3  UNL     1     -50.177 -35.972  28.906  1.00  0.00    -0.419 N 
ATOM      5  H3  UNL     1     -49.785 -35.279  29.543  1.00  0.00     0.153 HD
HETATM    6  C8  UNL     1     -49.915 -37.371  29.035  1.00  0.00     0.147 C 
HETATM    7  C9  UNL     1     -49.795 -38.055  27.666  1.00  0.00     0.206 C 
ENDROOT
BRANCH   1   8
HETATM    8  C4  UNL     1     -51.163 -38.337  25.564  1.00  0.00     0.239 C 
BRANCH   8   9
HETATM    9  N2  UNL     1     -52.003 -37.361  24.907  1.00  0.00    -0.075 N 
ATOM     10  H22 UNL     1     -52.312 -36.650  25.570  1.00  0.00     0.277 HD
ATOM     11  H21 UNL     1     -52.904 -37.771  24.662  1.00  0.00     0.277 HD
BRANCH   9  12
HETATM   12  C3  UNL     1     -51.401 -36.753  23.763  1.00  0.00     0.233 C 
BRANCH  12  13
HETATM   13  C2  UNL     1     -51.026 -35.302  24.001  1.00  0.00     0.055 C 
BRANCH  13  14
HETATM   14  C1  UNL     1     -49.529 -35.169  24.220  1.00  0.00     0.231 C 
BRANCH  14  15
HETATM   15  N1  UNL     1     -48.796 -36.224  23.560  1.00  0.00    -0.079 N 
ATOM     16  H13 UNL     1     -48.038 -36.573  24.146  1.00  0.00     0.274 HD
ATOM     17  H12 UNL     1     -49.351 -37.077  23.493  1.00  0.00     0.274 HD
ATOM     18  H11 UNL     1     -48.454 -35.930  22.644  1.00  0.00     0.274 HD
ENDBRANCH  14  15
ENDBRANCH  13  14
ENDBRANCH  12  13
ENDBRANCH   9  12
ENDBRANCH   8   9
ENDBRANCH   1   8
BRANCH   7  19
HETATM   19  N4  UNL     1     -48.790 -37.358  26.922  1.00  0.00    -0.073 N 
ATOM     20  H43 UNL     1     -48.872 -37.571  25.928  1.00  0.00     0.274 HD
ATOM     21  H42 UNL     1     -48.990 -36.358  26.904  1.00  0.00     0.274 HD
ATOM     22  H41 UNL     1     -47.837 -37.524  27.245  1.00  0.00     0.274 HD
ENDBRANCH   7  19
TORSDOF 7
ENDMDL
MODEL 5
REMARK VINA RESULT: -5.226444739      1.489      2.055
REMARK  7 active torsions:
REMARK  status: ('A' for Active; 'I' for Inactive)
REMARK    1  A    between atoms: N1_1  and  C1_5 
REMARK    2  A    between atoms: C1_5  and  C2_6 
REMARK    3  A    between atoms: C2_6  and  C3_7 
REMARK    4  A    between atoms: C3_7  and  N2_8 
REMARK    5  A    between atoms: N2_8  and  C4_11 
REMARK    6  A    between atoms: C4_11  and  C5_12 
REMARK    7  A    between atoms: C9_18  and  N4_19 
ROOT
HETATM    1  C5  UNL     1     -49.730 -36.243  27.718  1.00  0.00     0.045 C 
HETATM    2  C6  UNL     1     -51.054 -35.628  28.048  1.00  0.00     0.027 C 
HETATM    3  C7  UNL     1     -52.219 -36.245  27.342  1.00  0.00     0.114 C 
HETATM    4  N3  UNL     1     -52.045 -36.339  25.926  1.00  0.00    -0.419 N 
ATOM      5  H3  UNL     1     -52.831 -36.416  25.280  1.00  0.00     0.153 HD
HETATM    6  C8  UNL     1     -50.686 -36.318  25.483  1.00  0.00     0.147 C 
HETATM    7  C9  UNL     1     -49.760 -37.060  26.457  1.00  0.00     0.206 C 
ENDROOT
BRANCH   1   8
HETATM    8  C4  UNL     1     -49.137 -36.992  28.901  1.00  0.00     0.239 C 
BRANCH   8   9
HETATM    9  N2  UNL     1     -47.944 -36.284  29.306  1.00  0.00    -0.075 N 
ATOM     10  H22 UNL     1     -48.141 -35.674  30.099  1.00  0.00     0.277 HD
ATOM     11  H21 UNL     1     -47.690 -35.583  28.609  1.00  0.00     0.277 HD
BRANCH   9  12
HETATM   12  C3  UNL     1     -46.832 -37.135  29.590  1.00  0.00     0.233 C 
BRANCH  12  13
HETATM   13  C2  UNL     1     -46.942 -38.488  28.911  1.00  0.00     0.055 C 
BRANCH  13  14
HETATM   14  C1  UNL     1     -45.729 -39.343  29.231  1.00  0.00     0.231 C 
BRANCH  14  15
HETATM   15  N1  UNL     1     -44.602 -38.540  29.646  1.00  0.00    -0.079 N 
ATOM     16  H13 UNL     1     -44.725 -37.563  29.382  1.00  0.00     0.274 HD
ATOM     17  H12 UNL     1     -44.578 -38.429  30.660  1.00  0.00     0.274 HD
ATOM     18  H11 UNL     1     -43.721 -38.914  29.291  1.00  0.00     0.274 HD
ENDBRANCH  14  15
ENDBRANCH  13  14
ENDBRANCH  12  13
ENDBRANCH   9  12
ENDBRANCH   8   9
ENDBRANCH   1   8
BRANCH   7  19
HETATM   19  N4  UNL     1     -50.279 -38.383  26.622  1.00  0.00    -0.073 N 
ATOM     20  H43 UNL     1     -49.522 -39.043  26.799  1.00  0.00     0.274 HD
ATOM     21  H42 UNL     1     -50.786 -38.459  27.505  1.00  0.00     0.274 HD
ATOM     22  H41 UNL     1     -50.861 -38.707  25.849  1.00  0.00     0.274 HD
ENDBRANCH   7  19
TORSDOF 7
ENDMDL
