MODEL 1
REMARK VINA RESULT: -5.206007572      0.000      0.000
REMARK  7 active torsions:
REMARK  status: ('A' for Active; 'I' for Inactive)
REMARK    1  A    between atoms: N1_1  and  C1_5 
REMARK    2  A    between atoms: C1_5  and  C2_6 
REMARK    3  A    between atoms: C2_6  and  N2_7 
REMARK    4  A    between atoms: N2_7  and  C3_9 
REMARK    5  A    between atoms: C3_9  and  C4_10 
REMARK    6  A    between atoms: C4_10  and  N3_11 
REMARK    7  A    between atoms: N3_11  and  C5_13 
ROOT
HETATM    1  N3  UNL     1     -48.471 -36.254  29.151  1.00  0.00    -0.370 N 
ATOM      2  H3  UNL     1     -48.325 -35.301  29.484  1.00  0.00     0.161 HD
ENDROOT
BRANCH   1   3
HETATM    3  C4  UNL     1     -49.752 -36.654  28.546  1.00  0.00     0.165 C 
BRANCH   3   4
HETATM    4  C3  UNL     1     -49.710 -36.167  27.114  1.00  0.00     0.075 C 
BRANCH   4   5
HETATM    5  N2  UNL     1     -49.722 -37.191  26.147  1.00  0.00    -0.399 N 
ATOM      6  H2  UNL     1     -49.145 -37.122  25.309  1.00  0.00     0.158 HD
BRANCH   5   7
HETATM    7  C2  UNL     1     -50.553 -38.319  26.362  1.00  0.00     0.146 C 
BRANCH   7   8
HETATM    8  C1  UNL     1     -51.328 -38.768  25.168  1.00  0.00     0.249 C 
BRANCH   8   9
HETATM    9  N1  UNL     1     -51.084 -40.072  24.682  1.00  0.00    -0.078 N 
ATOM     10  H13 UNL     1     -50.681 -40.640  25.429  1.00  0.00     0.274 HD
ATOM     11  H12 UNL     1     -51.973 -40.549  24.537  1.00  0.00     0.274 HD
ATOM     12  H11 UNL     1     -50.511 -40.163  23.843  1.00  0.00     0.274 HD
ENDBRANCH   8   9
ENDBRANCH   7   8
ENDBRANCH   5   7
ENDBRANCH   4   5
ENDBRANCH   3   4
ENDBRANCH   1   3
BRANCH   1  13
HETATM   13  C5  UNL     1     -47.537 -37.140  29.252  1.00  0.00     0.134 A 
HETATM   14  N4  UNL     1     -47.154 -38.261  28.475  1.00  0.00    -0.325 N 
HETATM   15  C6  UNL     1     -46.071 -38.552  29.358  1.00  0.00     0.139 A 
ATOM     16  H4  UNL     1     -47.511 -38.690  27.621  1.00  0.00     0.169 HD
HETATM   17  N5  UNL     1     -45.003 -39.108  29.941  1.00  0.00    -0.337 N 
HETATM   18  C8  UNL     1     -46.432 -37.468  30.121  1.00  0.00     0.122 A 
HETATM   19  C7  UNL     1     -44.675 -38.409  31.050  1.00  0.00     0.182 A 
ATOM     20  H5  UNL     1     -44.511 -39.934  29.600  1.00  0.00     0.168 HD
HETATM   21  N6  UNL     1     -45.569 -37.392  31.154  1.00  0.00    -0.346 N 
ATOM     22  H6  UNL     1     -45.585 -36.687  31.891  1.00  0.00     0.167 HD
ENDBRANCH   1  13
TORSDOF 7
ENDMDL
MODEL 2
REMARK VINA RESULT: -5.126430601      1.619      6.104
REMARK  7 active torsions:
REMARK  status: ('A' for Active; 'I' for Inactive)
REMARK    1  A    between atoms: N1_1  and  C1_5 
REMARK    2  A    between atoms: C1_5  and  C2_6 
REMARK    3  A    between atoms: C2_6  and  N2_7 
REMARK    4  A    between atoms: N2_7  and  C3_9 
REMARK    5  A    between atoms: C3_9  and  C4_10 
REMARK    6  A    between atoms: C4_10  and  N3_11 
REMARK    7  A    between atoms: N3_11  and  C5_13 
ROOT
HETATM    1  N3  UNL     1     -48.105 -37.751  27.686  1.00  0.00    -0.370 N 
ATOM      2  H3  UNL     1     -47.378 -37.865  26.979  1.00  0.00     0.161 HD
ENDROOT
BRANCH   1   3
HETATM    3  C4  UNL     1     -47.793 -37.880  29.118  1.00  0.00     0.165 C 
BRANCH   3   4
HETATM    4  C3  UNL     1     -47.233 -36.541  29.548  1.00  0.00     0.075 C 
BRANCH   4   5
HETATM    5  N2  UNL     1     -45.907 -36.585  30.019  1.00  0.00    -0.399 N 
ATOM      6  H2  UNL     1     -45.158 -36.113  29.511  1.00  0.00     0.158 HD
BRANCH   5   7
HETATM    7  C2  UNL     1     -45.632 -37.299  31.212  1.00  0.00     0.146 C 
BRANCH   7   8
HETATM    8  C1  UNL     1     -44.674 -38.433  31.062  1.00  0.00     0.249 C 
BRANCH   8   9
HETATM    9  N1  UNL     1     -44.374 -38.867  29.751  1.00  0.00    -0.078 N 
ATOM     10  H13 UNL     1     -44.290 -39.884  29.743  1.00  0.00     0.274 HD
ATOM     11  H12 UNL     1     -45.194 -38.738  29.159  1.00  0.00     0.274 HD
ATOM     12  H11 UNL     1     -43.560 -38.457  29.294  1.00  0.00     0.274 HD
ENDBRANCH   8   9
ENDBRANCH   7   8
ENDBRANCH   5   7
ENDBRANCH   4   5
ENDBRANCH   3   4
ENDBRANCH   1   3
BRANCH   1  13
HETATM   13  C5  UNL     1     -49.323 -37.489  27.345  1.00  0.00     0.134 A 
HETATM   14  N4  UNL     1     -50.259 -38.106  26.478  1.00  0.00    -0.325 N 
HETATM   15  C6  UNL     1     -51.249 -37.127  26.787  1.00  0.00     0.139 A 
ATOM     16  H4  UNL     1     -50.233 -38.927  25.873  1.00  0.00     0.169 HD
HETATM   17  N5  UNL     1     -52.381 -36.415  26.834  1.00  0.00    -0.337 N 
HETATM   18  C8  UNL     1     -50.351 -36.517  27.630  1.00  0.00     0.122 A 
HETATM   19  C7  UNL     1     -52.229 -35.374  27.682  1.00  0.00     0.182 A 
ATOM     20  H5  UNL     1     -53.230 -36.626  26.309  1.00  0.00     0.168 HD
HETATM   21  N6  UNL     1     -50.964 -35.445  28.172  1.00  0.00    -0.346 N 
ATOM     22  H6  UNL     1     -50.547 -34.796  28.838  1.00  0.00     0.167 HD
ENDBRANCH   1  13
TORSDOF 7
ENDMDL
MODEL 3
REMARK VINA RESULT: -5.112054633      7.969      9.984
REMARK  7 active torsions:
REMARK  status: ('A' for Active; 'I' for Inactive)
REMARK    1  A    between atoms: N1_1  and  C1_5 
REMARK    2  A    between atoms: C1_5  and  C2_6 
REMARK    3  A    between atoms: C2_6  and  N2_7 
REMARK    4  A    between atoms: N2_7  and  C3_9 
REMARK    5  A    between atoms: C3_9  and  C4_10 
REMARK    6  A    between atoms: C4_10  and  N3_11 
REMARK    7  A    between atoms: N3_11  and  C5_13 
ROOT
HETATM    1  N3  UNL     1     -54.966 -37.822  21.443  1.00  0.00    -0.370 N 
ATOM      2  H3  UNL     1     -55.524 -37.403  22.188  1.00  0.00     0.161 HD
ENDROOT
BRANCH   1   3
HETATM    3  C4  UNL     1     -55.581 -38.192  20.158  1.00  0.00     0.165 C 
BRANCH   3   4
HETATM    4  C3  UNL     1     -56.627 -39.237  20.478  1.00  0.00     0.075 C 
BRANCH   4   5
HETATM    5  N2  UNL     1     -56.141 -40.558  20.523  1.00  0.00    -0.399 N 
ATOM      6  H2  UNL     1     -56.478 -41.213  21.229  1.00  0.00     0.158 HD
BRANCH   5   7
HETATM    7  C2  UNL     1     -55.175 -40.960  19.567  1.00  0.00     0.146 C 
BRANCH   7   8
HETATM    8  C1  UNL     1     -55.090 -42.432  19.336  1.00  0.00     0.249 C 
BRANCH   8   9
HETATM    9  N1  UNL     1     -55.100 -42.885  17.998  1.00  0.00    -0.078 N 
ATOM     10  H13 UNL     1     -54.162 -42.799  17.606  1.00  0.00     0.274 HD
ATOM     11  H12 UNL     1     -55.221 -43.897  17.986  1.00  0.00     0.274 HD
ATOM     12  H11 UNL     1     -55.773 -42.458  17.361  1.00  0.00     0.274 HD
ENDBRANCH   8   9
ENDBRANCH   7   8
ENDBRANCH   5   7
ENDBRANCH   4   5
ENDBRANCH   3   4
ENDBRANCH   1   3
BRANCH   1  13
HETATM   13  C5  UNL     1     -53.704 -38.042  21.605  1.00  0.00     0.134 A 
HETATM   14  N4  UNL     1     -52.904 -38.425  22.709  1.00  0.00    -0.325 N 
HETATM   15  C6  UNL     1     -51.723 -38.413  21.907  1.00  0.00     0.139 A 
ATOM     16  H4  UNL     1     -53.096 -38.628  23.690  1.00  0.00     0.169 HD
HETATM   17  N5  UNL     1     -50.458 -38.504  21.483  1.00  0.00    -0.337 N 
HETATM   18  C8  UNL     1     -52.488 -38.041  20.828  1.00  0.00     0.122 A 
HETATM   19  C7  UNL     1     -50.396 -38.202  20.167  1.00  0.00     0.182 A 
ATOM     20  H5  UNL     1     -49.660 -38.762  22.064  1.00  0.00     0.168 HD
HETATM   21  N6  UNL     1     -51.663 -37.915  19.769  1.00  0.00    -0.346 N 
ATOM     22  H6  UNL     1     -51.943 -37.648  18.825  1.00  0.00     0.167 HD
ENDBRANCH   1  13
TORSDOF 7
ENDMDL
MODEL 4
REMARK VINA RESULT: -5.069488639      1.576      2.687
REMARK  7 active torsions:
REMARK  status: ('A' for Active; 'I' for Inactive)
REMARK    1  A    between atoms: N1_1  and  C1_5 
REMARK    2  A    between atoms: C1_5  and  C2_6 
REMARK    3  A    between atoms: C2_6  and  N2_7 
REMARK    4  A    between atoms: N2_7  and  C3_9 
REMARK    5  A    between atoms: C3_9  and  C4_10 
REMARK    6  A    between atoms: C4_10  and  N3_11 
REMARK    7  A    between atoms: N3_11  and  C5_13 
ROOT
HETATM    1  N3  UNL     1     -48.725 -37.479  27.266  1.00  0.00    -0.370 N 
ATOM      2  H3  UNL     1     -48.570 -36.974  26.394  1.00  0.00     0.161 HD
ENDROOT
BRANCH   1   3
HETATM    3  C4  UNL     1     -49.847 -38.422  27.403  1.00  0.00     0.165 C 
BRANCH   3   4
HETATM    4  C3  UNL     1     -50.763 -38.158  26.228  1.00  0.00     0.075 C 
BRANCH   4   5
HETATM    5  N2  UNL     1     -50.980 -36.794  25.950  1.00  0.00    -0.399 N 
ATOM      6  H2  UNL     1     -50.253 -36.232  25.508  1.00  0.00     0.158 HD
BRANCH   5   7
HETATM    7  C2  UNL     1     -52.227 -36.219  26.297  1.00  0.00     0.146 C 
BRANCH   7   8
HETATM    8  C1  UNL     1     -52.289 -35.622  27.664  1.00  0.00     0.249 C 
BRANCH   8   9
HETATM    9  N1  UNL     1     -51.095 -35.087  28.197  1.00  0.00    -0.078 N 
ATOM     10  H13 UNL     1     -51.314 -34.535  29.027  1.00  0.00     0.274 HD
ATOM     11  H12 UNL     1     -50.543 -35.839  28.607  1.00  0.00     0.274 HD
ATOM     12  H11 UNL     1     -50.506 -34.536  27.573  1.00  0.00     0.274 HD
ENDBRANCH   8   9
ENDBRANCH   7   8
ENDBRANCH   5   7
ENDBRANCH   4   5
ENDBRANCH   3   4
ENDBRANCH   1   3
BRANCH   1  13
HETATM   13  C5  UNL     1     -47.942 -37.307  28.279  1.00  0.00     0.134 A 
HETATM   14  N4  UNL     1     -47.864 -36.341  29.312  1.00  0.00    -0.325 N 
HETATM   15  C6  UNL     1     -46.743 -37.001  29.897  1.00  0.00     0.139 A 
ATOM     16  H4  UNL     1     -48.399 -35.503  29.544  1.00  0.00     0.169 HD
HETATM   17  N5  UNL     1     -45.721 -37.335  30.694  1.00  0.00    -0.337 N 
HETATM   18  C8  UNL     1     -46.807 -37.945  28.901  1.00  0.00     0.122 A 
HETATM   19  C7  UNL     1     -45.135 -38.462  30.234  1.00  0.00     0.182 A 
ATOM     20  H5  UNL     1     -45.428 -36.817  31.522  1.00  0.00     0.168 HD
HETATM   21  N6  UNL     1     -45.817 -38.834  29.119  1.00  0.00    -0.346 N 
ATOM     22  H6  UNL     1     -45.613 -39.650  28.542  1.00  0.00     0.167 HD
ENDBRANCH   1  13
TORSDOF 7
ENDMDL
MODEL 5
REMARK VINA RESULT: -5.063653662      1.570      6.270
REMARK  7 active torsions:
REMARK  status: ('A' for Active; 'I' for Inactive)
REMARK    1  A    between atoms: N1_1  and  C1_5 
REMARK    2  A    between atoms: C1_5  and  C2_6 
REMARK    3  A    between atoms: C2_6  and  N2_7 
REMARK    4  A    between atoms: N2_7  and  C3_9 
REMARK    5  A    between atoms: C3_9  and  C4_10 
REMARK    6  A    between atoms: C4_10  and  N3_11 
REMARK    7  A    between atoms: N3_11  and  C5_13 
ROOT
HETATM    1  N3  UNL     1     -50.463 -36.074  28.451  1.00  0.00    -0.370 N 
ATOM      2  H3  UNL     1     -50.450 -35.104  28.765  1.00  0.00     0.161 HD
ENDROOT
BRANCH   1   3
HETATM    3  C4  UNL     1     -49.773 -37.124  29.218  1.00  0.00     0.165 C 
BRANCH   3   4
HETATM    4  C3  UNL     1     -48.319 -37.060  28.803  1.00  0.00     0.075 C 
BRANCH   4   5
HETATM    5  N2  UNL     1     -47.522 -36.210  29.593  1.00  0.00    -0.399 N 
ATOM      6  H2  UNL     1     -47.858 -35.285  29.864  1.00  0.00     0.158 HD
BRANCH   5   7
HETATM    7  C2  UNL     1     -46.244 -36.664  30.005  1.00  0.00     0.146 C 
BRANCH   7   8
HETATM    8  C1  UNL     1     -45.959 -38.098  29.708  1.00  0.00     0.249 C 
BRANCH   8   9
HETATM    9  N1  UNL     1     -44.610 -38.518  29.749  1.00  0.00    -0.078 N 
ATOM     10  H13 UNL     1     -44.006 -37.704  29.859  1.00  0.00     0.274 HD
ATOM     11  H12 UNL     1     -44.436 -39.006  30.627  1.00  0.00     0.274 HD
ATOM     12  H11 UNL     1     -44.271 -39.088  28.974  1.00  0.00     0.274 HD
ENDBRANCH   8   9
ENDBRANCH   7   8
ENDBRANCH   5   7
ENDBRANCH   4   5
ENDBRANCH   3   4
ENDBRANCH   1   3
BRANCH   1  13
HETATM   13  C5  UNL     1     -51.085 -36.412  27.370  1.00  0.00     0.134 A 
HETATM   14  N4  UNL     1     -52.111 -35.817  26.596  1.00  0.00    -0.325 N 
HETATM   15  C6  UNL     1     -52.084 -36.895  25.661  1.00  0.00     0.139 A 
ATOM     16  H4  UNL     1     -52.655 -34.958  26.676  1.00  0.00     0.169 HD
HETATM   17  N5  UNL     1     -52.331 -37.700  24.622  1.00  0.00    -0.337 N 
HETATM   18  C8  UNL     1     -51.088 -37.484  26.403  1.00  0.00     0.122 A 
HETATM   19  C7  UNL     1     -51.522 -38.781  24.681  1.00  0.00     0.182 A 
ATOM     20  H5  UNL     1     -53.025 -37.525  23.895  1.00  0.00     0.168 HD
HETATM   21  N6  UNL     1     -50.753 -38.638  25.792  1.00  0.00    -0.346 N 
ATOM     22  H6  UNL     1     -50.041 -39.294  26.110  1.00  0.00     0.167 HD
ENDBRANCH   1  13
TORSDOF 7
ENDMDL
