MODEL 1
REMARK VINA RESULT: -5.526000061      0.000      0.000
REMARK  6 active torsions:
REMARK  status: ('A' for Active; 'I' for Inactive)
REMARK    1  A    between atoms: N1_1  and  C1_5 
REMARK    2  A    between atoms: C1_5  and  C2_6 
REMARK    3  A    between atoms: C2_6  and  C3_7 
REMARK    4  A    between atoms: C3_7  and  N2_8 
REMARK    5  A    between atoms: N2_8  and  C4_10 
REMARK    6  A    between atoms: C4_10  and  C5_11 
ROOT
HETATM    1  C4  UNL     1     -49.486 -38.093  28.784  1.00  0.00     0.063 C 
ENDROOT
BRANCH   1   2
HETATM    2  N2  UNL     1     -48.344 -38.682  29.270  1.00  0.00    -0.402 N 
ATOM      3  H2  UNL     1     -48.482 -39.366  30.014  1.00  0.00     0.158 HD
BRANCH   2   4
HETATM    4  C3  UNL     1     -47.036 -38.471  28.886  1.00  0.00     0.120 C 
BRANCH   4   5
HETATM    5  C2  UNL     1     -46.454 -37.372  29.812  1.00  0.00     0.047 C 
BRANCH   5   6
HETATM    6  C1  UNL     1     -45.319 -37.883  30.640  1.00  0.00     0.231 C 
BRANCH   6   7
HETATM    7  N1  UNL     1     -44.506 -38.706  29.735  1.00  0.00    -0.079 N 
ATOM      8  H13 UNL     1     -44.604 -39.709  29.895  1.00  0.00     0.274 HD
ATOM      9  H12 UNL     1     -44.838 -38.703  28.770  1.00  0.00     0.274 HD
ATOM     10  H11 UNL     1     -43.549 -38.366  29.839  1.00  0.00     0.274 HD
ENDBRANCH   6   7
ENDBRANCH   5   6
ENDBRANCH   4   5
ENDBRANCH   2   4
ENDBRANCH   1   2
BRANCH   1  11
HETATM   11  C5  UNL     1     -49.629 -37.723  27.338  1.00  0.00     0.059 C 
HETATM   12  C6  UNL     1     -50.782 -38.244  26.588  1.00  0.00     0.133 C 
HETATM   13  N3  UNL     1     -51.909 -37.323  26.506  1.00  0.00    -0.364 N 
HETATM   14  C7  UNL     1     -51.807 -36.042  26.545  1.00  0.00     0.184 C 
ATOM     15  H3  UNL     1     -52.843 -37.722  26.412  1.00  0.00     0.162 HD
HETATM   16  N4  UNL     1     -52.976 -35.219  26.456  1.00  0.00    -0.064 NA
HETATM   17  N5  UNL     1     -50.509 -35.508  26.672  1.00  0.00    -0.364 N 
HETATM   18  C8  UNL     1     -49.377 -36.242  27.119  1.00  0.00     0.133 C 
ATOM     19  H5  UNL     1     -50.373 -34.528  26.425  1.00  0.00     0.162 HD
ENDBRANCH   1  11
TORSDOF 6
ENDMDL
MODEL 2
REMARK VINA RESULT: -5.479440131      1.382      1.953
REMARK  6 active torsions:
REMARK  status: ('A' for Active; 'I' for Inactive)
REMARK    1  A    between atoms: N1_1  and  C1_5 
REMARK    2  A    between atoms: C1_5  and  C2_6 
REMARK    3  A    between atoms: C2_6  and  C3_7 
REMARK    4  A    between atoms: C3_7  and  N2_8 
REMARK    5  A    between atoms: N2_8  and  C4_10 
REMARK    6  A    between atoms: C4_10  and  C5_11 
ROOT
HETATM    1  C4  UNL     1     -48.132 -38.004  28.958  1.00  0.00     0.063 C 
ENDROOT
BRANCH   1   2
HETATM    2  N2  UNL     1     -47.406 -37.005  29.562  1.00  0.00    -0.402 N 
ATOM      3  H2  UNL     1     -47.953 -36.239  29.955  1.00  0.00     0.158 HD
BRANCH   2   4
HETATM    4  C3  UNL     1     -46.038 -36.901  29.706  1.00  0.00     0.120 C 
BRANCH   4   5
HETATM    5  C2  UNL     1     -45.690 -37.360  31.145  1.00  0.00     0.047 C 
BRANCH   5   6
HETATM    6  C1  UNL     1     -44.662 -38.447  31.151  1.00  0.00     0.231 C 
BRANCH   6   7
HETATM    7  N1  UNL     1     -44.427 -38.779  29.739  1.00  0.00    -0.079 N 
ATOM      8  H13 UNL     1     -44.200 -39.761  29.583  1.00  0.00     0.274 HD
ATOM      9  H12 UNL     1     -45.272 -38.757  29.168  1.00  0.00     0.274 HD
ATOM     10  H11 UNL     1     -43.703 -38.135  29.422  1.00  0.00     0.274 HD
ENDBRANCH   6   7
ENDBRANCH   5   6
ENDBRANCH   4   5
ENDBRANCH   2   4
ENDBRANCH   1   2
BRANCH   1  11
HETATM   11  C5  UNL     1     -49.565 -37.810  28.564  1.00  0.00     0.059 C 
HETATM   12  C6  UNL     1     -50.224 -36.540  28.906  1.00  0.00     0.133 C 
HETATM   13  N3  UNL     1     -50.227 -35.557  27.829  1.00  0.00    -0.364 N 
HETATM   14  C7  UNL     1     -50.204 -35.849  26.578  1.00  0.00     0.184 C 
ATOM     15  H3  UNL     1     -50.248 -34.570  28.087  1.00  0.00     0.162 HD
HETATM   16  N4  UNL     1     -50.210 -34.810  25.592  1.00  0.00    -0.064 NA
HETATM   17  N5  UNL     1     -50.177 -37.216  26.241  1.00  0.00    -0.364 N 
HETATM   18  C8  UNL     1     -49.811 -38.259  27.135  1.00  0.00     0.133 C 
ATOM     19  H5  UNL     1     -50.439 -37.477  25.290  1.00  0.00     0.162 HD
ENDBRANCH   1  11
TORSDOF 6
ENDMDL
MODEL 3
REMARK VINA RESULT: -5.428837768      1.008      1.598
REMARK  6 active torsions:
REMARK  status: ('A' for Active; 'I' for Inactive)
REMARK    1  A    between atoms: N1_1  and  C1_5 
REMARK    2  A    between atoms: C1_5  and  C2_6 
REMARK    3  A    between atoms: C2_6  and  C3_7 
REMARK    4  A    between atoms: C3_7  and  N2_8 
REMARK    5  A    between atoms: N2_8  and  C4_10 
REMARK    6  A    between atoms: C4_10  and  C5_11 
ROOT
HETATM    1  C4  UNL     1     -48.672 -37.228  27.385  1.00  0.00     0.063 C 
ENDROOT
BRANCH   1   2
HETATM    2  N2  UNL     1     -47.538 -37.782  27.929  1.00  0.00    -0.402 N 
ATOM      3  H2  UNL     1     -46.748 -37.884  27.292  1.00  0.00     0.158 HD
BRANCH   2   4
HETATM    4  C3  UNL     1     -47.327 -38.217  29.221  1.00  0.00     0.120 C 
BRANCH   4   5
HETATM    5  C2  UNL     1     -46.303 -37.251  29.871  1.00  0.00     0.047 C 
BRANCH   5   6
HETATM    6  C1  UNL     1     -45.249 -37.987  30.636  1.00  0.00     0.231 C 
BRANCH   6   7
HETATM    7  N1  UNL     1     -44.547 -38.815  29.647  1.00  0.00    -0.079 N 
ATOM      8  H13 UNL     1     -43.534 -38.833  29.774  1.00  0.00     0.274 HD
ATOM      9  H12 UNL     1     -44.702 -39.816  29.768  1.00  0.00     0.274 HD
ATOM     10  H11 UNL     1     -44.839 -38.463  28.735  1.00  0.00     0.274 HD
ENDBRANCH   6   7
ENDBRANCH   5   6
ENDBRANCH   4   5
ENDBRANCH   2   4
ENDBRANCH   1   2
BRANCH   1  11
HETATM   11  C5  UNL     1     -50.031 -37.489  27.962  1.00  0.00     0.059 C 
HETATM   12  C6  UNL     1     -50.666 -36.437  28.770  1.00  0.00     0.133 C 
HETATM   13  N3  UNL     1     -51.598 -35.593  28.031  1.00  0.00    -0.364 N 
HETATM   14  C7  UNL     1     -52.261 -35.973  26.997  1.00  0.00     0.184 C 
ATOM     15  H3  UNL     1     -51.732 -34.636  28.356  1.00  0.00     0.162 HD
HETATM   16  N4  UNL     1     -53.154 -35.069  26.338  1.00  0.00    -0.064 NA
HETATM   17  N5  UNL     1     -52.065 -37.299  26.565  1.00  0.00    -0.364 N 
HETATM   18  C8  UNL     1     -50.958 -38.112  26.933  1.00  0.00     0.133 C 
ATOM     19  H5  UNL     1     -52.765 -37.705  25.944  1.00  0.00     0.162 HD
ENDBRANCH   1  11
TORSDOF 6
ENDMDL
MODEL 4
REMARK VINA RESULT: -5.412924108      8.839     10.920
REMARK  6 active torsions:
REMARK  status: ('A' for Active; 'I' for Inactive)
REMARK    1  A    between atoms: N1_1  and  C1_5 
REMARK    2  A    between atoms: C1_5  and  C2_6 
REMARK    3  A    between atoms: C2_6  and  C3_7 
REMARK    4  A    between atoms: C3_7  and  N2_8 
REMARK    5  A    between atoms: N2_8  and  C4_10 
REMARK    6  A    between atoms: C4_10  and  C5_11 
ROOT
HETATM    1  C4  UNL     1     -56.520 -38.286  20.714  1.00  0.00     0.063 C 
ENDROOT
BRANCH   1   2
HETATM    2  N2  UNL     1     -56.402 -39.650  20.830  1.00  0.00    -0.402 N 
ATOM      3  H2  UNL     1     -56.215 -39.999  21.771  1.00  0.00     0.158 HD
BRANCH   2   4
HETATM    4  C3  UNL     1     -56.502 -40.610  19.845  1.00  0.00     0.120 C 
BRANCH   4   5
HETATM    5  C2  UNL     1     -55.068 -41.117  19.547  1.00  0.00     0.047 C 
BRANCH   5   6
HETATM    6  C1  UNL     1     -55.027 -42.600  19.362  1.00  0.00     0.231 C 
BRANCH   6   7
HETATM    7  N1  UNL     1     -55.117 -42.822  17.913  1.00  0.00    -0.079 N 
ATOM      8  H13 UNL     1     -55.926 -42.376  17.480  1.00  0.00     0.274 HD
ATOM      9  H12 UNL     1     -54.404 -42.326  17.377  1.00  0.00     0.274 HD
ATOM     10  H11 UNL     1     -55.092 -43.835  17.787  1.00  0.00     0.274 HD
ENDBRANCH   6   7
ENDBRANCH   5   6
ENDBRANCH   4   5
ENDBRANCH   2   4
ENDBRANCH   1   2
BRANCH   1  11
HETATM   11  C5  UNL     1     -55.383 -37.366  21.041  1.00  0.00     0.059 C 
HETATM   12  C6  UNL     1     -54.181 -37.928  21.675  1.00  0.00     0.133 C 
HETATM   13  N3  UNL     1     -53.107 -38.251  20.743  1.00  0.00    -0.364 N 
HETATM   14  C7  UNL     1     -52.914 -37.654  19.621  1.00  0.00     0.184 C 
ATOM     15  H3  UNL     1     -52.466 -39.002  20.998  1.00  0.00     0.162 HD
HETATM   16  N4  UNL     1     -51.828 -38.043  18.771  1.00  0.00    -0.064 NA
HETATM   17  N5  UNL     1     -53.807 -36.618  19.286  1.00  0.00    -0.364 N 
HETATM   18  C8  UNL     1     -55.082 -36.428  19.885  1.00  0.00     0.133 C 
ATOM     19  H5  UNL     1     -53.519 -35.957  18.563  1.00  0.00     0.162 HD
ENDBRANCH   1  11
TORSDOF 6
ENDMDL
MODEL 5
REMARK VINA RESULT: -5.337628097      1.397      1.892
REMARK  6 active torsions:
REMARK  status: ('A' for Active; 'I' for Inactive)
REMARK    1  A    between atoms: N1_1  and  C1_5 
REMARK    2  A    between atoms: C1_5  and  C2_6 
REMARK    3  A    between atoms: C2_6  and  C3_7 
REMARK    4  A    between atoms: C3_7  and  N2_8 
REMARK    5  A    between atoms: N2_8  and  C4_10 
REMARK    6  A    between atoms: C4_10  and  C5_11 
ROOT
HETATM    1  C4  UNL     1     -49.408 -37.647  29.179  1.00  0.00     0.063 C 
ENDROOT
BRANCH   1   2
HETATM    2  N2  UNL     1     -48.270 -36.884  29.070  1.00  0.00    -0.402 N 
ATOM      3  H2  UNL     1     -48.420 -35.895  28.868  1.00  0.00     0.158 HD
BRANCH   2   4
HETATM    4  C3  UNL     1     -46.954 -37.277  29.196  1.00  0.00     0.120 C 
BRANCH   4   5
HETATM    5  C2  UNL     1     -46.939 -38.827  29.253  1.00  0.00     0.047 C 
BRANCH   5   6
HETATM    6  C1  UNL     1     -45.582 -39.383  28.957  1.00  0.00     0.231 C 
BRANCH   6   7
HETATM    7  N1  UNL     1     -44.645 -38.594  29.768  1.00  0.00    -0.079 N 
ATOM      8  H13 UNL     1     -43.742 -38.442  29.317  1.00  0.00     0.274 HD
ATOM      9  H12 UNL     1     -44.905 -37.612  29.854  1.00  0.00     0.274 HD
ATOM     10  H11 UNL     1     -44.578 -39.080  30.663  1.00  0.00     0.274 HD
ENDBRANCH   6   7
ENDBRANCH   5   6
ENDBRANCH   4   5
ENDBRANCH   2   4
ENDBRANCH   1   2
BRANCH   1  11
HETATM   11  C5  UNL     1     -50.467 -37.641  28.119  1.00  0.00     0.059 C 
HETATM   12  C6  UNL     1     -51.355 -36.472  28.017  1.00  0.00     0.133 C 
HETATM   13  N3  UNL     1     -50.939 -35.489  27.024  1.00  0.00    -0.364 N 
HETATM   14  C7  UNL     1     -50.262 -35.764  25.966  1.00  0.00     0.184 C 
ATOM     15  H3  UNL     1     -51.203 -34.516  27.179  1.00  0.00     0.162 HD
HETATM   16  N4  UNL     1     -49.901 -34.727  25.047  1.00  0.00    -0.064 NA
HETATM   17  N5  UNL     1     -49.910 -37.113  25.766  1.00  0.00    -0.364 N 
HETATM   18  C8  UNL     1     -49.915 -38.106  26.783  1.00  0.00     0.133 C 
ATOM     19  H5  UNL     1     -49.631 -37.397  24.827  1.00  0.00     0.162 HD
ENDBRANCH   1  11
TORSDOF 6
ENDMDL
