MODEL 1
REMARK VINA RESULT: -9.878791654      0.000      0.000
REMARK  5 active torsions:
REMARK  status: ('A' for Active; 'I' for Inactive)
REMARK    1  A    between atoms: N1_4  and  C4_5 
REMARK    2  A    between atoms: C6_8  and  O2_9 
REMARK    3  A    between atoms: O2_9  and  C7_10 
REMARK    4  A    between atoms: C17_20  and  S1_21 
REMARK    5  A    between atoms: C25_30  and  O3_31 
ROOT
HETATM    1  C7  UNL     1      -5.339 -16.292  17.566  1.00  0.00     0.133 C 
HETATM    2  C8  UNL     1      -5.614 -14.829  17.771  1.00  0.00     0.034 C 
HETATM    3  C9  UNL     1      -5.239 -14.288  19.070  1.00  0.00     0.012 C 
HETATM    4  C10 UNL     1      -5.739 -15.052  20.320  1.00  0.00    -0.035 C 
HETATM    5  C11 UNL     1      -7.219 -15.128  20.157  1.00  0.00     0.016 C 
HETATM    6  C12 UNL     1      -5.175 -16.422  20.095  1.00  0.00     0.005 C 
HETATM    7  C13 UNL     1      -5.447 -17.339  21.228  1.00  0.00     0.012 C 
HETATM    8  C14 UNL     1      -5.036 -16.888  22.562  1.00  0.00     0.002 C 
HETATM    9  C15 UNL     1      -5.959 -15.832  23.187  1.00  0.00     0.017 C 
HETATM   10  C16 UNL     1      -4.953 -14.838  22.789  1.00  0.00    -0.014 C 
HETATM   11  C17 UNL     1      -3.941 -15.905  22.675  1.00  0.00     0.073 C 
HETATM   12  C18 UNL     1      -5.189 -14.263  21.419  1.00  0.00     0.004 C 
HETATM   13  C19 UNL     1      -5.919 -12.933  21.436  1.00  0.00     0.007 C 
HETATM   14  C20 UNL     1      -6.664 -12.689  22.712  1.00  0.00     0.007 C 
HETATM   15  C21 UNL     1      -5.681 -12.673  23.886  1.00  0.00     0.005 C 
HETATM   16  C22 UNL     1      -5.281 -11.308  24.293  1.00  0.00    -0.017 C 
HETATM   17  C23 UNL     1      -5.590 -11.003  25.777  1.00  0.00     0.018 C 
HETATM   18  C24 UNL     1      -6.072 -10.192  23.575  1.00  0.00     0.018 C 
HETATM   19  C25 UNL     1      -3.858 -10.909  24.092  1.00  0.00     0.126 C 
HETATM   20  C26 UNL     1      -2.862 -11.993  24.275  1.00  0.00     0.033 C 
HETATM   21  C27 UNL     1      -3.267 -13.099  23.320  1.00  0.00     0.013 C 
HETATM   22  C28 UNL     1      -4.612 -13.708  23.751  1.00  0.00    -0.030 C 
HETATM   23  C29 UNL     1      -4.338 -14.226  25.147  1.00  0.00     0.016 C 
HETATM   24  C30 UNL     1      -5.407 -17.109  18.820  1.00  0.00    -0.017 C 
HETATM   25  C31 UNL     1      -6.644 -17.982  18.723  1.00  0.00     0.018 C 
HETATM   26  C32 UNL     1      -4.276 -18.166  18.676  1.00  0.00     0.018 C 
ENDROOT
BRANCH   1  27
HETATM   27  O2  UNL     1      -6.232 -16.765  16.606  1.00  0.00    -0.354 OA
BRANCH  27  28
HETATM   28  C6  UNL     1      -5.783 -16.717  15.307  1.00  0.00     0.278 C 
HETATM   29  C5  UNL     1      -6.726 -17.621  14.520  1.00  0.00     0.185 C 
HETATM   30  N1  UNL     1      -6.260 -17.829  13.186  1.00  0.00    -0.352 N 
HETATM   31  C3  UNL     1      -4.845 -18.167  13.061  1.00  0.00     0.157 C 
HETATM   32  C2  UNL     1      -3.989 -17.273  13.916  1.00  0.00     0.138 C 
HETATM   33  C1  UNL     1      -2.605 -17.904  13.959  1.00  0.00     0.041 C 
HETATM   34  O4  UNL     1      -4.478 -16.929  15.112  1.00  0.00    -0.353 OA
BRANCH  30  35
HETATM   35  C4  UNL     1      -7.115 -17.720  12.039  1.00  0.00     0.351 C 
HETATM   36  O1  UNL     1      -8.288 -17.357  12.233  1.00  0.00    -0.284 OA
ENDBRANCH  30  35
ENDBRANCH  27  28
ENDBRANCH   1  27
BRANCH  11  37
HETATM   37  S1  UNL     1      -2.857 -16.425  24.006  1.00  0.00    -0.079 SA
HETATM   38  S2  UNL     1      -1.477 -17.894  23.390  1.00  0.00    -0.013 SA
ENDBRANCH  11  37
BRANCH  19  39
HETATM   39  O3  UNL     1      -3.626 -10.329  22.824  1.00  0.00    -0.395 OA
ATOM     40  H3  UNL     1      -3.200  -9.481  22.880  1.00  0.00     0.210 HD
ENDBRANCH  19  39
TORSDOF 5
ENDMDL
MODEL 2
REMARK VINA RESULT: -9.478522155      0.977      1.935
REMARK  5 active torsions:
REMARK  status: ('A' for Active; 'I' for Inactive)
REMARK    1  A    between atoms: N1_4  and  C4_5 
REMARK    2  A    between atoms: C6_8  and  O2_9 
REMARK    3  A    between atoms: O2_9  and  C7_10 
REMARK    4  A    between atoms: C17_20  and  S1_21 
REMARK    5  A    between atoms: C25_30  and  O3_31 
ROOT
HETATM    1  C7  UNL     1      -4.882 -16.231  17.435  1.00  0.00     0.133 C 
HETATM    2  C8  UNL     1      -5.169 -14.771  17.645  1.00  0.00     0.034 C 
HETATM    3  C9  UNL     1      -4.898 -14.256  18.980  1.00  0.00     0.012 C 
HETATM    4  C10 UNL     1      -5.500 -15.041  20.170  1.00  0.00    -0.035 C 
HETATM    5  C11 UNL     1      -6.962 -15.107  19.887  1.00  0.00     0.016 C 
HETATM    6  C12 UNL     1      -4.924 -16.409  19.966  1.00  0.00     0.005 C 
HETATM    7  C13 UNL     1      -5.289 -17.346  21.057  1.00  0.00     0.012 C 
HETATM    8  C14 UNL     1      -4.985 -16.921  22.427  1.00  0.00     0.002 C 
HETATM    9  C15 UNL     1      -5.952 -15.872  22.995  1.00  0.00     0.017 C 
HETATM   10  C16 UNL     1      -4.914 -14.876  22.699  1.00  0.00    -0.014 C 
HETATM   11  C17 UNL     1      -3.901 -15.946  22.647  1.00  0.00     0.073 C 
HETATM   12  C18 UNL     1      -5.038 -14.275  21.325  1.00  0.00     0.004 C 
HETATM   13  C19 UNL     1      -5.763 -12.942  21.308  1.00  0.00     0.007 C 
HETATM   14  C20 UNL     1      -6.607 -12.718  22.524  1.00  0.00     0.007 C 
HETATM   15  C21 UNL     1      -5.722 -12.728  23.774  1.00  0.00     0.005 C 
HETATM   16  C22 UNL     1      -5.352 -11.373  24.237  1.00  0.00    -0.017 C 
HETATM   17  C23 UNL     1      -5.778 -11.094  25.697  1.00  0.00     0.018 C 
HETATM   18  C24 UNL     1      -6.078 -10.240  23.479  1.00  0.00     0.018 C 
HETATM   19  C25 UNL     1      -3.916 -10.977  24.159  1.00  0.00     0.126 C 
HETATM   20  C26 UNL     1      -2.942 -12.069  24.402  1.00  0.00     0.033 C 
HETATM   21  C27 UNL     1      -3.272 -13.155  23.397  1.00  0.00     0.013 C 
HETATM   22  C28 UNL     1      -4.649 -13.766  23.706  1.00  0.00    -0.030 C 
HETATM   23  C29 UNL     1      -4.490 -14.310  25.109  1.00  0.00     0.016 C 
HETATM   24  C30 UNL     1      -5.055 -17.071  18.664  1.00  0.00    -0.017 C 
HETATM   25  C31 UNL     1      -6.283 -17.937  18.451  1.00  0.00     0.018 C 
HETATM   26  C32 UNL     1      -3.919 -18.131  18.591  1.00  0.00     0.018 C 
ENDROOT
BRANCH   1  27
HETATM   27  O2  UNL     1      -5.697 -16.682  16.397  1.00  0.00    -0.354 OA
BRANCH  27  28
HETATM   28  C6  UNL     1      -5.067 -17.445  15.441  1.00  0.00     0.278 C 
HETATM   29  C5  UNL     1      -3.650 -16.888  15.350  1.00  0.00     0.185 C 
HETATM   30  N1  UNL     1      -2.935 -17.453  14.251  1.00  0.00    -0.352 N 
HETATM   31  C3  UNL     1      -3.660 -17.489  12.983  1.00  0.00     0.157 C 
HETATM   32  C2  UNL     1      -5.067 -17.987  13.168  1.00  0.00     0.138 C 
HETATM   33  C1  UNL     1      -5.810 -17.685  11.876  1.00  0.00     0.041 C 
HETATM   34  O4  UNL     1      -5.705 -17.601  14.278  1.00  0.00    -0.353 OA
BRANCH  30  35
HETATM   35  C4  UNL     1      -1.595 -17.952  14.370  1.00  0.00     0.351 C 
HETATM   36  O1  UNL     1      -1.137 -18.092  15.517  1.00  0.00    -0.284 OA
ENDBRANCH  30  35
ENDBRANCH  27  28
ENDBRANCH   1  27
BRANCH  11  37
HETATM   37  S1  UNL     1      -2.929 -16.495  24.051  1.00  0.00    -0.079 SA
HETATM   38  S2  UNL     1      -1.417 -17.856  23.498  1.00  0.00    -0.013 SA
ENDBRANCH  11  37
BRANCH  19  39
HETATM   39  O3  UNL     1      -3.580 -10.374  22.925  1.00  0.00    -0.395 OA
ATOM     40  H3  UNL     1      -3.511 -11.003  22.215  1.00  0.00     0.210 HD
ENDBRANCH  19  39
TORSDOF 5
ENDMDL
MODEL 3
REMARK VINA RESULT: -9.090348126      3.481      9.462
REMARK  5 active torsions:
REMARK  status: ('A' for Active; 'I' for Inactive)
REMARK    1  A    between atoms: N1_4  and  C4_5 
REMARK    2  A    between atoms: C6_8  and  O2_9 
REMARK    3  A    between atoms: O2_9  and  C7_10 
REMARK    4  A    between atoms: C17_20  and  S1_21 
REMARK    5  A    between atoms: C25_30  and  O3_31 
ROOT
HETATM    1  C7  UNL     1      -5.040 -11.776  22.649  1.00  0.00     0.133 C 
HETATM    2  C8  UNL     1      -4.579 -11.724  21.220  1.00  0.00     0.034 C 
HETATM    3  C9  UNL     1      -4.992 -12.838  20.378  1.00  0.00     0.012 C 
HETATM    4  C10 UNL     1      -4.725 -14.263  20.918  1.00  0.00    -0.035 C 
HETATM    5  C11 UNL     1      -3.263 -14.299  21.205  1.00  0.00     0.016 C 
HETATM    6  C12 UNL     1      -5.456 -14.243  22.227  1.00  0.00     0.005 C 
HETATM    7  C13 UNL     1      -5.425 -15.558  22.912  1.00  0.00     0.012 C 
HETATM    8  C14 UNL     1      -5.891 -16.719  22.145  1.00  0.00     0.002 C 
HETATM    9  C15 UNL     1      -4.889 -17.233  21.101  1.00  0.00     0.017 C 
HETATM   10  C16 UNL     1      -5.701 -16.530  20.098  1.00  0.00    -0.014 C 
HETATM   11  C17 UNL     1      -6.839 -16.505  21.036  1.00  0.00     0.073 C 
HETATM   12  C18 UNL     1      -5.258 -15.113  19.856  1.00  0.00     0.004 C 
HETATM   13  C19 UNL     1      -4.350 -14.959  18.650  1.00  0.00     0.007 C 
HETATM   14  C20 UNL     1      -3.701 -16.243  18.236  1.00  0.00     0.007 C 
HETATM   15  C21 UNL     1      -4.777 -17.264  17.855  1.00  0.00     0.005 C 
HETATM   16  C22 UNL     1      -5.014 -17.345  16.398  1.00  0.00    -0.017 C 
HETATM   17  C23 UNL     1      -4.806 -18.768  15.828  1.00  0.00     0.018 C 
HETATM   18  C24 UNL     1      -4.009 -16.525  15.561  1.00  0.00     0.018 C 
HETATM   19  C25 UNL     1      -6.341 -16.901  15.881  1.00  0.00     0.126 C 
HETATM   20  C26 UNL     1      -7.494 -17.170  16.775  1.00  0.00     0.033 C 
HETATM   21  C27 UNL     1      -7.163 -16.505  18.096  1.00  0.00     0.013 C 
HETATM   22  C28 UNL     1      -5.966 -17.205  18.760  1.00  0.00    -0.030 C 
HETATM   23  C29 UNL     1      -6.440 -18.632  18.937  1.00  0.00     0.016 C 
HETATM   24  C30 UNL     1      -5.206 -13.164  23.188  1.00  0.00    -0.017 C 
HETATM   25  C31 UNL     1      -4.103 -13.389  24.205  1.00  0.00     0.018 C 
HETATM   26  C32 UNL     1      -6.458 -13.093  24.107  1.00  0.00     0.018 C 
ENDROOT
BRANCH   1  27
HETATM   27  O2  UNL     1      -4.137 -11.042  23.416  1.00  0.00    -0.354 OA
BRANCH  27  28
HETATM   28  C6  UNL     1      -4.678  -9.991  24.120  1.00  0.00     0.278 C 
HETATM   29  C5  UNL     1      -3.838  -9.878  25.388  1.00  0.00     0.185 C 
HETATM   30  N1  UNL     1      -4.409  -8.954  26.314  1.00  0.00    -0.352 N 
HETATM   31  C3  UNL     1      -5.844  -9.103  26.544  1.00  0.00     0.157 C 
HETATM   32  C2  UNL     1      -6.593  -9.273  25.252  1.00  0.00     0.138 C 
HETATM   33  C1  UNL     1      -7.997  -9.731  25.617  1.00  0.00     0.041 C 
HETATM   34  O4  UNL     1      -6.002 -10.005  24.301  1.00  0.00    -0.353 OA
BRANCH  30  35
HETATM   35  C4  UNL     1      -3.637  -7.946  26.982  1.00  0.00     0.351 C 
HETATM   36  O1  UNL     1      -3.180  -7.022  26.287  1.00  0.00    -0.284 OA
ENDBRANCH  30  35
ENDBRANCH  27  28
ENDBRANCH   1  27
BRANCH  11  37
HETATM   37  S1  UNL     1      -8.107 -17.771  21.130  1.00  0.00    -0.079 SA
HETATM   38  S2  UNL     1      -9.938 -17.138  20.301  1.00  0.00    -0.013 SA
ENDBRANCH  11  37
BRANCH  19  39
HETATM   39  O3  UNL     1      -6.368 -15.525  15.555  1.00  0.00    -0.395 OA
ATOM     40  H3  UNL     1      -5.877 -14.992  16.170  1.00  0.00     0.210 HD
ENDBRANCH  19  39
TORSDOF 5
ENDMDL
MODEL 4
REMARK VINA RESULT: -8.914365806      2.431      4.376
REMARK  5 active torsions:
REMARK  status: ('A' for Active; 'I' for Inactive)
REMARK    1  A    between atoms: N1_4  and  C4_5 
REMARK    2  A    between atoms: C6_8  and  O2_9 
REMARK    3  A    between atoms: O2_9  and  C7_10 
REMARK    4  A    between atoms: C17_20  and  S1_21 
REMARK    5  A    between atoms: C25_30  and  O3_31 
ROOT
HETATM    1  C7  UNL     1      -6.466 -17.201  14.380  1.00  0.00     0.133 C 
HETATM    2  C8  UNL     1      -7.496 -16.688  15.347  1.00  0.00     0.034 C 
HETATM    3  C9  UNL     1      -6.978 -16.066  16.557  1.00  0.00     0.012 C 
HETATM    4  C10 UNL     1      -5.921 -16.862  17.359  1.00  0.00    -0.035 C 
HETATM    5  C11 UNL     1      -6.563 -18.177  17.643  1.00  0.00     0.016 C 
HETATM    6  C12 UNL     1      -4.849 -17.079  16.333  1.00  0.00     0.005 C 
HETATM    7  C13 UNL     1      -3.657 -17.759  16.896  1.00  0.00     0.012 C 
HETATM    8  C14 UNL     1      -3.041 -17.150  18.079  1.00  0.00     0.002 C 
HETATM    9  C15 UNL     1      -3.805 -17.394  19.389  1.00  0.00     0.017 C 
HETATM   10  C16 UNL     1      -4.330 -16.029  19.240  1.00  0.00    -0.014 C 
HETATM   11  C17 UNL     1      -3.227 -15.706  18.315  1.00  0.00     0.073 C 
HETATM   12  C18 UNL     1      -5.622 -15.966  18.473  1.00  0.00     0.004 C 
HETATM   13  C19 UNL     1      -6.852 -15.916  19.360  1.00  0.00     0.007 C 
HETATM   14  C20 UNL     1      -6.593 -16.408  20.750  1.00  0.00     0.007 C 
HETATM   15  C21 UNL     1      -5.528 -15.532  21.416  1.00  0.00     0.005 C 
HETATM   16  C22 UNL     1      -6.098 -14.485  22.291  1.00  0.00    -0.017 C 
HETATM   17  C23 UNL     1      -5.585 -14.567  23.748  1.00  0.00     0.018 C 
HETATM   18  C24 UNL     1      -7.625 -14.610  22.492  1.00  0.00     0.018 C 
HETATM   19  C25 UNL     1      -5.917 -13.061  21.885  1.00  0.00     0.126 C 
HETATM   20  C26 UNL     1      -4.637 -12.754  21.200  1.00  0.00     0.033 C 
HETATM   21  C27 UNL     1      -4.569 -13.684  20.005  1.00  0.00     0.013 C 
HETATM   22  C28 UNL     1      -4.437 -15.143  20.472  1.00  0.00    -0.030 C 
HETATM   23  C29 UNL     1      -3.154 -15.145  21.276  1.00  0.00     0.016 C 
HETATM   24  C30 UNL     1      -5.192 -17.653  15.027  1.00  0.00    -0.017 C 
HETATM   25  C31 UNL     1      -5.133 -19.164  14.902  1.00  0.00     0.018 C 
HETATM   26  C32 UNL     1      -4.065 -17.221  14.047  1.00  0.00     0.018 C 
ENDROOT
BRANCH   1  27
HETATM   27  O2  UNL     1      -7.048 -18.228  13.640  1.00  0.00    -0.354 OA
BRANCH  27  28
HETATM   28  C6  UNL     1      -8.150 -17.871  12.900  1.00  0.00     0.278 C 
HETATM   29  C5  UNL     1      -7.630 -16.903  11.842  1.00  0.00     0.185 C 
HETATM   30  N1  UNL     1      -8.699 -16.289  11.122  1.00  0.00    -0.352 N 
HETATM   31  C3  UNL     1      -9.790 -15.768  11.942  1.00  0.00     0.157 C 
HETATM   32  C2  UNL     1     -10.202 -16.755  13.000  1.00  0.00     0.138 C 
HETATM   33  C1  UNL     1     -11.097 -16.003  13.973  1.00  0.00     0.041 C 
HETATM   34  O4  UNL     1      -9.226 -17.463  13.578  1.00  0.00    -0.353 OA
BRANCH  30  35
HETATM   35  C4  UNL     1      -8.712 -16.182   9.691  1.00  0.00     0.351 C 
HETATM   36  O1  UNL     1      -7.682 -15.756   9.140  1.00  0.00    -0.284 OA
ENDBRANCH  30  35
ENDBRANCH  27  28
ENDBRANCH   1  27
BRANCH  11  37
HETATM   37  S1  UNL     1      -1.650 -15.013  18.817  1.00  0.00    -0.079 SA
HETATM   38  S2  UNL     1      -0.021 -15.953  17.864  1.00  0.00    -0.013 SA
ENDBRANCH  11  37
BRANCH  19  39
HETATM   39  O3  UNL     1      -6.964 -12.589  21.061  1.00  0.00    -0.395 OA
ATOM     40  H3  UNL     1      -6.711 -11.835  20.540  1.00  0.00     0.210 HD
ENDBRANCH  19  39
TORSDOF 5
ENDMDL
MODEL 5
REMARK VINA RESULT: -8.781714315      1.416      2.297
REMARK  5 active torsions:
REMARK  status: ('A' for Active; 'I' for Inactive)
REMARK    1  A    between atoms: N1_4  and  C4_5 
REMARK    2  A    between atoms: C6_8  and  O2_9 
REMARK    3  A    between atoms: O2_9  and  C7_10 
REMARK    4  A    between atoms: C17_20  and  S1_21 
REMARK    5  A    between atoms: C25_30  and  O3_31 
ROOT
HETATM    1  C7  UNL     1      -5.810 -15.609  18.389  1.00  0.00     0.133 C 
HETATM    2  C8  UNL     1      -5.670 -14.113  18.337  1.00  0.00     0.034 C 
HETATM    3  C9  UNL     1      -5.091 -13.487  19.517  1.00  0.00     0.012 C 
HETATM    4  C10 UNL     1      -5.706 -13.866  20.886  1.00  0.00    -0.035 C 
HETATM    5  C11 UNL     1      -7.159 -13.559  20.752  1.00  0.00     0.016 C 
HETATM    6  C12 UNL     1      -5.544 -15.356  20.900  1.00  0.00     0.005 C 
HETATM    7  C13 UNL     1      -5.988 -15.960  22.180  1.00  0.00     0.012 C 
HETATM    8  C14 UNL     1      -5.395 -15.424  23.410  1.00  0.00     0.002 C 
HETATM    9  C15 UNL     1      -5.964 -14.066  23.847  1.00  0.00     0.017 C 
HETATM   10  C16 UNL     1      -4.752 -13.467  23.272  1.00  0.00    -0.014 C 
HETATM   11  C17 UNL     1      -4.073 -14.774  23.338  1.00  0.00     0.073 C 
HETATM   12  C18 UNL     1      -4.903 -13.086  21.825  1.00  0.00     0.004 C 
HETATM   13  C19 UNL     1      -5.247 -11.624  21.614  1.00  0.00     0.007 C 
HETATM   14  C20 UNL     1      -5.825 -10.976  22.834  1.00  0.00     0.007 C 
HETATM   15  C21 UNL     1      -4.809 -11.034  23.978  1.00  0.00     0.005 C 
HETATM   16  C22 UNL     1      -4.035  -9.784  24.135  1.00  0.00    -0.017 C 
HETATM   17  C23 UNL     1      -4.165  -9.162  25.545  1.00  0.00     0.018 C 
HETATM   18  C24 UNL     1      -4.536  -8.629  23.239  1.00  0.00     0.018 C 
HETATM   19  C25 UNL     1      -2.571  -9.830  23.855  1.00  0.00     0.126 C 
HETATM   20  C26 UNL     1      -1.894 -11.099  24.217  1.00  0.00     0.033 C 
HETATM   21  C27 UNL     1      -2.634 -12.194  23.474  1.00  0.00     0.013 C 
HETATM   22  C28 UNL     1      -4.067 -12.331  24.018  1.00  0.00    -0.030 C 
HETATM   23  C29 UNL     1      -3.863 -12.663  25.480  1.00  0.00     0.016 C 
HETATM   24  C30 UNL     1      -6.024 -16.155  19.768  1.00  0.00    -0.017 C 
HETATM   25  C31 UNL     1      -7.454 -16.658  19.837  1.00  0.00     0.018 C 
HETATM   26  C32 UNL     1      -5.229 -17.490  19.802  1.00  0.00     0.018 C 
ENDROOT
BRANCH   1  27
HETATM   27  O2  UNL     1      -6.851 -15.971  17.535  1.00  0.00    -0.354 OA
BRANCH  27  28
HETATM   28  C6  UNL     1      -6.526 -16.894  16.569  1.00  0.00     0.278 C 
HETATM   29  C5  UNL     1      -5.191 -16.428  15.997  1.00  0.00     0.185 C 
HETATM   30  N1  UNL     1      -4.824 -17.180  14.841  1.00  0.00    -0.352 N 
HETATM   31  C3  UNL     1      -5.882 -17.363  13.850  1.00  0.00     0.157 C 
HETATM   32  C2  UNL     1      -7.181 -17.758  14.498  1.00  0.00     0.138 C 
HETATM   33  C1  UNL     1      -8.261 -17.609  13.438  1.00  0.00     0.041 C 
HETATM   34  O4  UNL     1      -7.471 -17.184  15.670  1.00  0.00    -0.353 OA
BRANCH  30  35
HETATM   35  C4  UNL     1      -3.510 -17.724  14.651  1.00  0.00     0.351 C 
HETATM   36  O1  UNL     1      -2.587 -17.235  15.326  1.00  0.00    -0.284 OA
ENDBRANCH  30  35
ENDBRANCH  27  28
ENDBRANCH   1  27
BRANCH  11  37
HETATM   37  S1  UNL     1      -3.094 -15.342  24.731  1.00  0.00    -0.079 SA
HETATM   38  S2  UNL     1      -2.171 -17.201  24.358  1.00  0.00    -0.013 SA
ENDBRANCH  11  37
BRANCH  19  39
HETATM   39  O3  UNL     1      -2.263  -9.555  22.502  1.00  0.00    -0.395 OA
ATOM     40  H3  UNL     1      -1.839  -8.712  22.385  1.00  0.00     0.210 HD
ENDBRANCH  19  39
TORSDOF 5
ENDMDL
