MODEL 1
REMARK VINA RESULT: -10.065004284      0.000      0.000
REMARK  8 active torsions:
REMARK  status: ('A' for Active; 'I' for Inactive)
REMARK    1  A    between atoms: C2_2  and  O2_4 
REMARK    2  A    between atoms: O2_4  and  C3_5 
REMARK    3  A    between atoms: C13_15  and  O3_17 
REMARK    4  A    between atoms: C26_31  and  O5_32 
REMARK    5  A    between atoms: O5_32  and  C27_33 
REMARK    6  A    between atoms: C27_33  and  C28_35 
REMARK    7  A    between atoms: C28_35  and  C29_36 
REMARK    8  A    between atoms: C29_36  and  C30_37 
ROOT
HETATM    1  C3  UNL     1      -2.924 -15.366  18.967  1.00  0.00     0.141 C 
HETATM    2  C4  UNL     1      -3.504 -15.735  20.324  1.00  0.00     0.046 C 
HETATM    3  C5  UNL     1      -4.747 -14.973  20.540  1.00  0.00    -0.003 C 
HETATM    4  C6  UNL     1      -4.259 -13.526  20.472  1.00  0.00     0.019 C 
HETATM    5  C7  UNL     1      -5.360 -15.073  21.921  1.00  0.00     0.042 C 
HETATM    6  C8  UNL     1      -4.769 -14.332  23.046  1.00  0.00    -0.033 A 
HETATM    7  C9  UNL     1      -3.537 -14.680  23.742  1.00  0.00     0.011 A 
HETATM    8  C10 UNL     1      -4.767 -15.153  24.380  1.00  0.00     0.011 A 
HETATM    9  C11 UNL     1      -5.388 -12.981  23.332  1.00  0.00     0.013 C 
HETATM   10  C12 UNL     1      -6.829 -13.190  23.572  1.00  0.00     0.041 C 
HETATM   11  C13 UNL     1      -7.501 -13.681  22.321  1.00  0.00     0.085 C 
HETATM   12  C14 UNL     1      -7.932 -12.552  21.406  1.00  0.00     0.049 C 
HETATM   13  C15 UNL     1      -6.787 -14.807  21.615  1.00  0.00     0.094 C 
HETATM   14  C16 UNL     1      -7.512 -16.047  22.145  1.00  0.00     0.050 C 
HETATM   15  O4  UNL     1      -6.845 -14.529  20.285  1.00  0.00    -0.365 OA
HETATM   16  C17 UNL     1      -5.835 -15.155  19.573  1.00  0.00     0.075 C 
HETATM   17  C18 UNL     1      -5.255 -14.488  18.363  1.00  0.00     0.052 C 
HETATM   18  C19 UNL     1      -4.037 -15.343  17.981  1.00  0.00    -0.006 A 
HETATM   19  C20 UNL     1      -3.633 -15.168  16.531  1.00  0.00     0.013 A 
HETATM   20  C21 UNL     1      -3.883 -16.613  16.280  1.00  0.00     0.007 A 
HETATM   21  C22 UNL     1      -4.409 -16.762  17.671  1.00  0.00     0.005 A 
HETATM   22  C23 UNL     1      -5.821 -17.126  17.902  1.00  0.00    -0.031 C 
HETATM   23  C24 UNL     1      -5.811 -18.615  18.311  1.00  0.00     0.016 C 
HETATM   24  C25 UNL     1      -6.576 -17.112  16.616  1.00  0.00     0.042 C 
HETATM   25  C26 UNL     1      -8.039 -17.302  16.627  1.00  0.00     0.136 C 
HETATM   26  C31 UNL     1      -8.568 -17.151  18.026  1.00  0.00     0.012 C 
HETATM   27  C32 UNL     1     -10.028 -16.761  17.931  1.00  0.00     0.012 C 
HETATM   28  C33 UNL     1      -7.828 -15.959  18.539  1.00  0.00     0.015 C 
HETATM   29  C34 UNL     1      -6.421 -16.365  19.056  1.00  0.00     0.030 C 
ENDROOT
BRANCH  25  30
HETATM   30  O5  UNL     1      -8.532 -18.389  15.931  1.00  0.00    -0.316 OA
BRANCH  30  31
HETATM   31  C27 UNL     1      -9.267 -18.389  14.759  1.00  0.00     0.259 C 
HETATM   32  O6  UNL     1     -10.483 -18.615  14.991  1.00  0.00    -0.265 OA
BRANCH  31  33
HETATM   33  C28 UNL     1      -8.662 -18.153  13.446  1.00  0.00     0.121 C 
BRANCH  33  34
HETATM   34  C29 UNL     1      -8.418 -16.717  13.094  1.00  0.00     0.123 C 
BRANCH  34  35
HETATM   35  C30 UNL     1      -9.461 -16.146  12.238  1.00  0.00     0.172 C 
HETATM   36  O7  UNL     1      -9.252 -15.968  11.020  1.00  0.00    -0.648 OA
HETATM   37  O8  UNL     1     -10.687 -15.805  12.801  1.00  0.00    -0.648 OA
ENDBRANCH  34  35
ENDBRANCH  33  34
ENDBRANCH  31  33
ENDBRANCH  30  31
ENDBRANCH  25  30
BRANCH   1  38
HETATM   38  O2  UNL     1      -2.110 -16.498  18.670  1.00  0.00    -0.316 OA
BRANCH  38  39
HETATM   39  C2  UNL     1      -0.747 -16.394  18.499  1.00  0.00     0.255 C 
HETATM   40  C1  UNL     1      -0.027 -15.095  18.455  1.00  0.00     0.126 C 
HETATM   41  O1  UNL     1      -0.083 -17.453  18.377  1.00  0.00    -0.266 OA
ENDBRANCH  38  39
ENDBRANCH   1  38
BRANCH  11  42
HETATM   42  O3  UNL     1      -8.764 -14.113  22.843  1.00  0.00    -0.387 OA
ATOM     43  H3  UNL     1      -9.001 -13.367  23.382  1.00  0.00     0.210 HD
ENDBRANCH  11  42
TORSDOF 8
ENDMDL
MODEL 2
REMARK VINA RESULT: -9.976583023      1.093      1.462
REMARK  8 active torsions:
REMARK  status: ('A' for Active; 'I' for Inactive)
REMARK    1  A    between atoms: C2_2  and  O2_4 
REMARK    2  A    between atoms: O2_4  and  C3_5 
REMARK    3  A    between atoms: C13_15  and  O3_17 
REMARK    4  A    between atoms: C26_31  and  O5_32 
REMARK    5  A    between atoms: O5_32  and  C27_33 
REMARK    6  A    between atoms: C27_33  and  C28_35 
REMARK    7  A    between atoms: C28_35  and  C29_36 
REMARK    8  A    between atoms: C29_36  and  C30_37 
ROOT
HETATM    1  C3  UNL     1      -2.840 -15.349  19.063  1.00  0.00     0.141 C 
HETATM    2  C4  UNL     1      -3.455 -15.755  20.394  1.00  0.00     0.046 C 
HETATM    3  C5  UNL     1      -4.709 -15.006  20.594  1.00  0.00    -0.003 C 
HETATM    4  C6  UNL     1      -4.228 -13.555  20.575  1.00  0.00     0.019 C 
HETATM    5  C7  UNL     1      -5.359 -15.143  21.954  1.00  0.00     0.042 C 
HETATM    6  C8  UNL     1      -4.804 -14.427  23.113  1.00  0.00    -0.033 A 
HETATM    7  C9  UNL     1      -3.589 -14.784  23.834  1.00  0.00     0.011 A 
HETATM    8  C10 UNL     1      -4.833 -15.280  24.427  1.00  0.00     0.011 A 
HETATM    9  C11 UNL     1      -5.439 -13.087  23.415  1.00  0.00     0.013 C 
HETATM   10  C12 UNL     1      -6.885 -13.310  23.609  1.00  0.00     0.041 C 
HETATM   11  C13 UNL     1      -7.520 -13.774  22.329  1.00  0.00     0.085 C 
HETATM   12  C14 UNL     1      -7.932 -12.626  21.430  1.00  0.00     0.049 C 
HETATM   13  C15 UNL     1      -6.778 -14.878  21.616  1.00  0.00     0.094 C 
HETATM   14  C16 UNL     1      -7.509 -16.135  22.095  1.00  0.00     0.050 C 
HETATM   15  O4  UNL     1      -6.802 -14.569  20.292  1.00  0.00    -0.365 OA
HETATM   16  C17 UNL     1      -5.768 -15.171  19.593  1.00  0.00     0.075 C 
HETATM   17  C18 UNL     1      -5.159 -14.471  18.416  1.00  0.00     0.052 C 
HETATM   18  C19 UNL     1      -3.925 -15.309  18.047  1.00  0.00    -0.006 A 
HETATM   19  C20 UNL     1      -3.482 -15.096  16.614  1.00  0.00     0.013 A 
HETATM   20  C21 UNL     1      -3.716 -16.536  16.321  1.00  0.00     0.007 A 
HETATM   21  C22 UNL     1      -4.279 -16.722  17.693  1.00  0.00     0.005 A 
HETATM   22  C23 UNL     1      -5.695 -17.100  17.875  1.00  0.00    -0.031 C 
HETATM   23  C24 UNL     1      -5.686 -18.599  18.248  1.00  0.00     0.016 C 
HETATM   24  C25 UNL     1      -6.413 -17.059  16.570  1.00  0.00     0.042 C 
HETATM   25  C26 UNL     1      -7.876 -17.258  16.535  1.00  0.00     0.136 C 
HETATM   26  C31 UNL     1      -8.443 -17.145  17.922  1.00  0.00     0.012 C 
HETATM   27  C32 UNL     1      -9.903 -16.761  17.797  1.00  0.00     0.012 C 
HETATM   28  C33 UNL     1      -7.726 -15.962  18.485  1.00  0.00     0.015 C 
HETATM   29  C34 UNL     1      -6.331 -16.371  19.030  1.00  0.00     0.030 C 
ENDROOT
BRANCH  25  30
HETATM   30  O5  UNL     1      -8.341 -18.331  15.800  1.00  0.00    -0.316 OA
BRANCH  30  31
HETATM   31  C27 UNL     1      -8.879 -18.321  14.525  1.00  0.00     0.259 C 
HETATM   32  O6  UNL     1     -10.117 -18.101  14.560  1.00  0.00    -0.265 OA
BRANCH  31  33
HETATM   33  C28 UNL     1      -8.070 -18.545  13.325  1.00  0.00     0.121 C 
BRANCH  33  34
HETATM   34  C29 UNL     1      -7.101 -17.454  12.984  1.00  0.00     0.123 C 
BRANCH  34  35
HETATM   35  C30 UNL     1      -5.717 -17.923  12.877  1.00  0.00     0.172 C 
HETATM   36  O7  UNL     1      -5.189 -18.557  13.814  1.00  0.00    -0.648 OA
HETATM   37  O8  UNL     1      -4.999 -17.650  11.716  1.00  0.00    -0.648 OA
ENDBRANCH  34  35
ENDBRANCH  33  34
ENDBRANCH  31  33
ENDBRANCH  30  31
ENDBRANCH  25  30
BRANCH   1  38
HETATM   38  O2  UNL     1      -2.010 -16.469  18.761  1.00  0.00    -0.316 OA
BRANCH  38  39
HETATM   39  C2  UNL     1      -0.651 -16.342  18.573  1.00  0.00     0.255 C 
HETATM   40  C1  UNL     1       0.029 -15.034  18.394  1.00  0.00     0.126 C 
HETATM   41  O1  UNL     1       0.044 -17.389  18.554  1.00  0.00    -0.266 OA
ENDBRANCH  38  39
ENDBRANCH   1  38
BRANCH  11  42
HETATM   42  O3  UNL     1      -8.793 -14.227  22.805  1.00  0.00    -0.387 OA
ATOM     43  H3  UNL     1      -8.721 -14.027  23.731  1.00  0.00     0.210 HD
ENDBRANCH  11  42
TORSDOF 8
ENDMDL
MODEL 3
REMARK VINA RESULT: -9.685412502      2.627      5.593
REMARK  8 active torsions:
REMARK  status: ('A' for Active; 'I' for Inactive)
REMARK    1  A    between atoms: C2_2  and  O2_4 
REMARK    2  A    between atoms: O2_4  and  C3_5 
REMARK    3  A    between atoms: C13_15  and  O3_17 
REMARK    4  A    between atoms: C26_31  and  O5_32 
REMARK    5  A    between atoms: O5_32  and  C27_33 
REMARK    6  A    between atoms: C27_33  and  C28_35 
REMARK    7  A    between atoms: C28_35  and  C29_36 
REMARK    8  A    between atoms: C29_36  and  C30_37 
ROOT
HETATM    1  C3  UNL     1      -7.666 -16.464  20.591  1.00  0.00     0.141 C 
HETATM    2  C4  UNL     1      -7.392 -14.997  20.884  1.00  0.00     0.046 C 
HETATM    3  C5  UNL     1      -6.169 -14.888  21.700  1.00  0.00    -0.003 C 
HETATM    4  C6  UNL     1      -6.539 -15.688  22.949  1.00  0.00     0.019 C 
HETATM    5  C7  UNL     1      -5.850 -13.512  22.245  1.00  0.00     0.042 C 
HETATM    6  C8  UNL     1      -6.603 -12.980  23.391  1.00  0.00    -0.033 A 
HETATM    7  C9  UNL     1      -7.969 -12.474  23.353  1.00  0.00     0.011 A 
HETATM    8  C10 UNL     1      -6.924 -11.453  23.252  1.00  0.00     0.011 A 
HETATM    9  C11 UNL     1      -5.967 -13.199  24.747  1.00  0.00     0.013 C 
HETATM   10  C12 UNL     1      -4.619 -12.600  24.710  1.00  0.00     0.041 C 
HETATM   11  C13 UNL     1      -3.745 -13.335  23.735  1.00  0.00     0.085 C 
HETATM   12  C14 UNL     1      -3.068 -14.544  24.350  1.00  0.00     0.049 C 
HETATM   13  C15 UNL     1      -4.377 -13.601  22.391  1.00  0.00     0.094 C 
HETATM   14  C16 UNL     1      -3.855 -12.441  21.540  1.00  0.00     0.050 C 
HETATM   15  O4  UNL     1      -4.038 -14.872  22.047  1.00  0.00    -0.365 OA
HETATM   16  C17 UNL     1      -4.925 -15.427  21.139  1.00  0.00     0.075 C 
HETATM   17  C18 UNL     1      -5.209 -16.898  21.179  1.00  0.00     0.052 C 
HETATM   18  C19 UNL     1      -6.380 -17.105  20.205  1.00  0.00    -0.006 A 
HETATM   19  C20 UNL     1      -6.476 -18.532  19.704  1.00  0.00     0.013 A 
HETATM   20  C21 UNL     1      -6.276 -18.060  18.306  1.00  0.00     0.007 A 
HETATM   21  C22 UNL     1      -6.047 -16.671  18.810  1.00  0.00     0.005 A 
HETATM   22  C23 UNL     1      -4.735 -16.017  18.630  1.00  0.00    -0.031 C 
HETATM   23  C24 UNL     1      -4.924 -15.003  17.480  1.00  0.00     0.016 C 
HETATM   24  C25 UNL     1      -3.742 -16.989  18.093  1.00  0.00     0.042 C 
HETATM   25  C26 UNL     1      -2.325 -16.593  17.972  1.00  0.00     0.136 C 
HETATM   26  C31 UNL     1      -2.076 -15.329  18.747  1.00  0.00     0.012 C 
HETATM   27  C32 UNL     1      -0.604 -15.283  19.099  1.00  0.00     0.012 C 
HETATM   28  C33 UNL     1      -2.823 -15.561  20.020  1.00  0.00     0.015 C 
HETATM   29  C34 UNL     1      -4.328 -15.222  19.845  1.00  0.00     0.030 C 
ENDROOT
BRANCH  25  30
HETATM   30  O5  UNL     1      -1.776 -16.618  16.705  1.00  0.00    -0.316 OA
BRANCH  30  31
HETATM   31  C27 UNL     1      -1.440 -17.723  15.943  1.00  0.00     0.259 C 
HETATM   32  O6  UNL     1      -0.644 -18.473  16.566  1.00  0.00    -0.265 OA
BRANCH  31  33
HETATM   33  C28 UNL     1      -1.967 -17.944  14.595  1.00  0.00     0.121 C 
BRANCH  33  34
HETATM   34  C29 UNL     1      -3.149 -17.105  14.216  1.00  0.00     0.123 C 
BRANCH  34  35
HETATM   35  C30 UNL     1      -4.120 -17.817  13.380  1.00  0.00     0.172 C 
HETATM   36  O7  UNL     1      -5.011 -18.518  13.903  1.00  0.00    -0.648 OA
HETATM   37  O8  UNL     1      -4.034 -17.700  11.997  1.00  0.00    -0.648 OA
ENDBRANCH  34  35
ENDBRANCH  33  34
ENDBRANCH  31  33
ENDBRANCH  30  31
ENDBRANCH  25  30
BRANCH   1  38
HETATM   38  O2  UNL     1      -8.477 -16.392  19.420  1.00  0.00    -0.316 OA
BRANCH  38  39
HETATM   39  C2  UNL     1      -9.676 -17.061  19.320  1.00  0.00     0.255 C 
HETATM   40  C1  UNL     1     -10.497 -17.082  18.082  1.00  0.00     0.126 C 
HETATM   41  O1  UNL     1     -10.093 -17.684  20.328  1.00  0.00    -0.266 OA
ENDBRANCH  38  39
ENDBRANCH   1  38
BRANCH  11  42
HETATM   42  O3  UNL     1      -2.642 -12.427  23.620  1.00  0.00    -0.387 OA
ATOM     43  H3  UNL     1      -2.253 -12.506  24.483  1.00  0.00     0.210 HD
ENDBRANCH  11  42
TORSDOF 8
ENDMDL
MODEL 4
REMARK VINA RESULT: -9.259845005      2.752      8.068
REMARK  8 active torsions:
REMARK  status: ('A' for Active; 'I' for Inactive)
REMARK    1  A    between atoms: C2_2  and  O2_4 
REMARK    2  A    between atoms: O2_4  and  C3_5 
REMARK    3  A    between atoms: C13_15  and  O3_17 
REMARK    4  A    between atoms: C26_31  and  O5_32 
REMARK    5  A    between atoms: O5_32  and  C27_33 
REMARK    6  A    between atoms: C27_33  and  C28_35 
REMARK    7  A    between atoms: C28_35  and  C29_36 
REMARK    8  A    between atoms: C29_36  and  C30_37 
ROOT
HETATM    1  C3  UNL     1      -3.363 -17.194  22.266  1.00  0.00     0.141 C 
HETATM    2  C4  UNL     1      -2.977 -16.712  20.876  1.00  0.00     0.046 C 
HETATM    3  C5  UNL     1      -4.192 -16.609  20.047  1.00  0.00    -0.003 C 
HETATM    4  C6  UNL     1      -4.717 -18.045  20.058  1.00  0.00     0.019 C 
HETATM    5  C7  UNL     1      -3.974 -16.326  18.576  1.00  0.00     0.042 C 
HETATM    6  C8  UNL     1      -3.513 -17.396  17.679  1.00  0.00    -0.033 A 
HETATM    7  C9  UNL     1      -2.158 -17.929  17.614  1.00  0.00     0.011 A 
HETATM    8  C10 UNL     1      -2.469 -16.898  16.622  1.00  0.00     0.011 A 
HETATM    9  C11 UNL     1      -4.603 -18.141  16.939  1.00  0.00     0.013 C 
HETATM   10  C12 UNL     1      -5.384 -17.149  16.175  1.00  0.00     0.041 C 
HETATM   11  C13 UNL     1      -6.100 -16.215  17.109  1.00  0.00     0.085 C 
HETATM   12  C14 UNL     1      -7.441 -16.755  17.562  1.00  0.00     0.049 C 
HETATM   13  C15 UNL     1      -5.252 -15.658  18.225  1.00  0.00     0.094 C 
HETATM   14  C16 UNL     1      -4.813 -14.301  17.668  1.00  0.00     0.050 C 
HETATM   15  O4  UNL     1      -6.018 -15.691  19.348  1.00  0.00    -0.365 OA
HETATM   16  C17 UNL     1      -5.255 -15.708  20.505  1.00  0.00     0.075 C 
HETATM   17  C18 UNL     1      -5.751 -16.444  21.712  1.00  0.00     0.052 C 
HETATM   18  C19 UNL     1      -4.571 -16.439  22.696  1.00  0.00    -0.006 A 
HETATM   19  C20 UNL     1      -5.008 -16.651  24.132  1.00  0.00     0.013 A 
HETATM   20  C21 UNL     1      -4.452 -15.321  24.504  1.00  0.00     0.007 A 
HETATM   21  C22 UNL     1      -4.141 -15.051  23.066  1.00  0.00     0.005 A 
HETATM   22  C23 UNL     1      -4.816 -13.951  22.349  1.00  0.00    -0.031 C 
HETATM   23  C24 UNL     1      -3.774 -12.817  22.241  1.00  0.00     0.016 C 
HETATM   24  C25 UNL     1      -5.896 -13.368  23.194  1.00  0.00     0.042 C 
HETATM   25  C26 UNL     1      -6.801 -12.351  22.623  1.00  0.00     0.136 C 
HETATM   26  C31 UNL     1      -6.661 -12.320  21.127  1.00  0.00     0.012 C 
HETATM   27  C32 UNL     1      -7.944 -11.756  20.553  1.00  0.00     0.012 C 
HETATM   28  C33 UNL     1      -6.617 -13.767  20.762  1.00  0.00     0.015 C 
HETATM   29  C34 UNL     1      -5.184 -14.337  20.939  1.00  0.00     0.030 C 
ENDROOT
BRANCH  25  30
HETATM   30  O5  UNL     1      -6.810 -11.112  23.234  1.00  0.00    -0.316 OA
BRANCH  30  31
HETATM   31  C27 UNL     1      -7.141 -10.810  24.543  1.00  0.00     0.259 C 
HETATM   32  O6  UNL     1      -8.303 -11.208  24.817  1.00  0.00    -0.265 OA
BRANCH  31  33
HETATM   33  C28 UNL     1      -6.224 -10.116  25.451  1.00  0.00     0.121 C 
BRANCH  33  34
HETATM   34  C29 UNL     1      -4.780 -10.493  25.325  1.00  0.00     0.123 C 
BRANCH  34  35
HETATM   35  C30 UNL     1      -4.437 -11.720  26.049  1.00  0.00     0.172 C 
HETATM   36  O7  UNL     1      -3.330 -12.271  25.873  1.00  0.00    -0.648 OA
HETATM   37  O8  UNL     1      -5.363 -12.263  26.934  1.00  0.00    -0.648 OA
ENDBRANCH  34  35
ENDBRANCH  33  34
ENDBRANCH  31  33
ENDBRANCH  30  31
ENDBRANCH  25  30
BRANCH   1  38
HETATM   38  O2  UNL     1      -2.269 -16.738  23.058  1.00  0.00    -0.316 OA
BRANCH  38  39
HETATM   39  C2  UNL     1      -1.408 -17.611  23.686  1.00  0.00     0.255 C 
HETATM   40  C1  UNL     1      -1.848 -18.597  24.707  1.00  0.00     0.126 C 
HETATM   41  O1  UNL     1      -0.191 -17.569  23.377  1.00  0.00    -0.266 OA
ENDBRANCH  38  39
ENDBRANCH   1  38
BRANCH  11  42
HETATM   42  O3  UNL     1      -6.507 -15.183  16.202  1.00  0.00    -0.387 OA
ATOM     43  H3  UNL     1      -6.871 -14.547  16.805  1.00  0.00     0.210 HD
ENDBRANCH  11  42
TORSDOF 8
ENDMDL
MODEL 5
REMARK VINA RESULT: -9.249635889      1.352      1.623
REMARK  8 active torsions:
REMARK  status: ('A' for Active; 'I' for Inactive)
REMARK    1  A    between atoms: C2_2  and  O2_4 
REMARK    2  A    between atoms: O2_4  and  C3_5 
REMARK    3  A    between atoms: C13_15  and  O3_17 
REMARK    4  A    between atoms: C26_31  and  O5_32 
REMARK    5  A    between atoms: O5_32  and  C27_33 
REMARK    6  A    between atoms: C27_33  and  C28_35 
REMARK    7  A    between atoms: C28_35  and  C29_36 
REMARK    8  A    between atoms: C29_36  and  C30_37 
ROOT
HETATM    1  C3  UNL     1      -2.671 -15.981  18.698  1.00  0.00     0.141 C 
HETATM    2  C4  UNL     1      -3.292 -16.738  19.862  1.00  0.00     0.046 C 
HETATM    3  C5  UNL     1      -4.537 -16.061  20.267  1.00  0.00    -0.003 C 
HETATM    4  C6  UNL     1      -4.040 -14.669  20.656  1.00  0.00     0.019 C 
HETATM    5  C7  UNL     1      -5.191 -16.569  21.535  1.00  0.00     0.042 C 
HETATM    6  C8  UNL     1      -4.629 -16.213  22.848  1.00  0.00    -0.033 A 
HETATM    7  C9  UNL     1      -3.419 -16.772  23.437  1.00  0.00     0.011 A 
HETATM    8  C10 UNL     1      -4.669 -17.401  23.868  1.00  0.00     0.011 A 
HETATM    9  C11 UNL     1      -5.250 -15.005  23.515  1.00  0.00     0.013 C 
HETATM   10  C12 UNL     1      -6.698 -15.258  23.642  1.00  0.00     0.041 C 
HETATM   11  C13 UNL     1      -7.336 -15.336  22.284  1.00  0.00     0.085 C 
HETATM   12  C14 UNL     1      -7.735 -13.977  21.745  1.00  0.00     0.049 C 
HETATM   13  C15 UNL     1      -6.607 -16.203  21.288  1.00  0.00     0.094 C 
HETATM   14  C16 UNL     1      -7.352 -17.536  21.396  1.00  0.00     0.050 C 
HETATM   15  O4  UNL     1      -6.625 -15.534  20.105  1.00  0.00    -0.365 OA
HETATM   16  C17 UNL     1      -5.598 -15.926  19.262  1.00  0.00     0.075 C 
HETATM   17  C18 UNL     1      -4.979 -14.930  18.329  1.00  0.00     0.052 C 
HETATM   18  C19 UNL     1      -3.755 -15.645  17.736  1.00  0.00    -0.006 A 
HETATM   19  C20 UNL     1      -3.308 -15.042  16.420  1.00  0.00     0.013 A 
HETATM   20  C21 UNL     1      -3.557 -16.339  15.734  1.00  0.00     0.007 A 
HETATM   21  C22 UNL     1      -4.124 -16.897  17.000  1.00  0.00     0.005 A 
HETATM   22  C23 UNL     1      -5.544 -17.295  17.071  1.00  0.00    -0.031 C 
HETATM   23  C24 UNL     1      -5.552 -18.839  17.007  1.00  0.00     0.016 C 
HETATM   24  C25 UNL     1      -6.261 -16.881  15.831  1.00  0.00     0.042 C 
HETATM   25  C26 UNL     1      -7.725 -17.046  15.745  1.00  0.00     0.136 C 
HETATM   26  C31 UNL     1      -8.293 -17.321  17.109  1.00  0.00     0.012 C 
HETATM   27  C32 UNL     1      -9.748 -16.901  17.100  1.00  0.00     0.012 C 
HETATM   28  C33 UNL     1      -7.563 -16.352  17.981  1.00  0.00     0.015 C 
HETATM   29  C34 UNL     1      -6.174 -16.913  18.386  1.00  0.00     0.030 C 
ENDROOT
BRANCH  25  30
HETATM   30  O5  UNL     1      -8.202 -17.863  14.739  1.00  0.00    -0.316 OA
BRANCH  30  31
HETATM   31  C27 UNL     1      -8.889 -17.495  13.596  1.00  0.00     0.259 C 
HETATM   32  O6  UNL     1      -8.152 -17.580  12.580  1.00  0.00    -0.265 OA
BRANCH  31  33
HETATM   33  C28 UNL     1     -10.291 -17.070  13.619  1.00  0.00     0.121 C 
BRANCH  33  34
HETATM   34  C29 UNL     1     -10.592 -15.792  12.898  1.00  0.00     0.123 C 
BRANCH  34  35
HETATM   35  C30 UNL     1     -11.735 -15.067  13.459  1.00  0.00     0.172 C 
HETATM   36  O7  UNL     1     -12.010 -13.915  13.064  1.00  0.00    -0.648 OA
HETATM   37  O8  UNL     1     -12.510 -15.681  14.438  1.00  0.00    -0.648 OA
ENDBRANCH  34  35
ENDBRANCH  33  34
ENDBRANCH  31  33
ENDBRANCH  30  31
ENDBRANCH  25  30
BRANCH   1  38
HETATM   38  O2  UNL     1      -1.854 -16.980  18.091  1.00  0.00    -0.316 OA
BRANCH  38  39
HETATM   39  C2  UNL     1      -0.489 -16.836  17.975  1.00  0.00     0.255 C 
HETATM   40  C1  UNL     1       0.216 -15.544  18.181  1.00  0.00     0.126 C 
HETATM   41  O1  UNL     1       0.191 -17.851  17.681  1.00  0.00    -0.266 OA
ENDBRANCH  38  39
ENDBRANCH   1  38
BRANCH  11  42
HETATM   42  O3  UNL     1      -8.616 -15.890  22.616  1.00  0.00    -0.387 OA
ATOM     43  H3  UNL     1      -8.440 -16.819  22.521  1.00  0.00     0.210 HD
ENDBRANCH  11  42
TORSDOF 8
ENDMDL
