MODEL 1
REMARK VINA RESULT: -10.355196560      0.000      0.000
REMARK  8 active torsions:
REMARK  status: ('A' for Active; 'I' for Inactive)
REMARK    1  A    between atoms: C2_2  and  O2_4 
REMARK    2  A    between atoms: O2_4  and  C3_5 
REMARK    3  A    between atoms: C5_7  and  O3_8 
REMARK    4  A    between atoms: O3_8  and  C6_9 
REMARK    5  A    between atoms: C7_11  and  O5_13 
REMARK    6  A    between atoms: C9_15  and  O6_16 
REMARK    7  A    between atoms: O6_16  and  C10_17 
REMARK    8  A    between atoms: C23_30  and  O7_31 
ROOT
HETATM    1  C10 UNL     1      -6.428 -14.641  19.983  1.00  0.00     0.131 C 
HETATM    2  C11 UNL     1      -6.501 -15.979  20.794  1.00  0.00     0.041 C 
HETATM    3  C12 UNL     1      -7.412 -15.801  21.945  1.00  0.00    -0.045 C 
HETATM    4  C13 UNL     1      -8.864 -16.038  21.473  1.00  0.00     0.015 C 
HETATM    5  C14 UNL     1      -7.171 -16.983  22.903  1.00  0.00     0.015 C 
HETATM    6  C15 UNL     1      -7.347 -14.565  22.732  1.00  0.00     0.014 C 
HETATM    7  C16 UNL     1      -6.845 -13.358  22.015  1.00  0.00     0.001 C 
HETATM    8  C17 UNL     1      -6.171 -12.368  22.927  1.00  0.00    -0.005 C 
HETATM    9  C18 UNL     1      -7.131 -11.805  23.963  1.00  0.00     0.006 C 
HETATM   10  C19 UNL     1      -6.507 -10.488  24.415  1.00  0.00     0.006 C 
HETATM   11  C20 UNL     1      -4.990 -10.519  24.342  1.00  0.00     0.000 C 
HETATM   12  C21 UNL     1      -4.407  -9.465  25.229  1.00  0.00     0.015 C 
HETATM   13  C22 UNL     1      -3.796  -8.303  24.435  1.00  0.00     0.013 C 
HETATM   14  C23 UNL     1      -3.392  -9.921  26.212  1.00  0.00     0.122 C 
HETATM   15  C24 UNL     1      -2.434 -10.947  25.717  1.00  0.00     0.033 C 
HETATM   16  C25 UNL     1      -2.924 -11.781  24.585  1.00  0.00     0.012 C 
HETATM   17  C26 UNL     1      -4.425 -11.891  24.575  1.00  0.00    -0.036 C 
HETATM   18  C27 UNL     1      -4.903 -12.360  25.955  1.00  0.00     0.016 C 
HETATM   19  C28 UNL     1      -4.909 -12.870  23.558  1.00  0.00    -0.002 C 
HETATM   20  C29 UNL     1      -3.927 -13.175  22.455  1.00  0.00     0.007 C 
HETATM   21  C30 UNL     1      -4.538 -14.187  21.544  1.00  0.00     0.012 C 
HETATM   22  C31 UNL     1      -5.835 -13.669  20.920  1.00  0.00    -0.014 C 
HETATM   23  C32 UNL     1      -5.583 -12.353  20.232  1.00  0.00     0.018 C 
ENDROOT
BRANCH   1  24
HETATM   24  O6  UNL     1      -5.678 -14.816  18.862  1.00  0.00    -0.376 OA
BRANCH  24  25
HETATM   25  C9  UNL     1      -5.415 -16.036  18.359  1.00  0.00     0.168 C 
HETATM   26  C7  UNL     1      -3.919 -16.180  18.191  1.00  0.00     0.107 C 
HETATM   27  C5  UNL     1      -3.484 -17.555  17.748  1.00  0.00     0.170 C 
HETATM   28  C8  UNL     1      -3.353 -15.108  17.259  1.00  0.00     0.051 C 
HETATM   29  C4  UNL     1      -4.690 -18.447  17.588  1.00  0.00     0.069 C 
HETATM   30  C3  UNL     1      -5.585 -17.774  16.596  1.00  0.00     0.144 C 
HETATM   31  C33 UNL     1      -6.131 -16.436  17.075  1.00  0.00     0.008 C 
HETATM   32  C34 UNL     1      -7.579 -16.714  17.417  1.00  0.00     0.020 C 
HETATM   33  C35 UNL     1      -6.046 -15.483  15.954  1.00  0.00     0.020 C 
BRANCH  26  34
HETATM   34  O5  UNL     1      -3.301 -15.945  19.408  1.00  0.00    -0.385 OA
ATOM     35  H5  UNL     1      -2.905 -15.083  19.347  1.00  0.00     0.210 HD
ENDBRANCH  26  34
BRANCH  27  36
HETATM   36  O3  UNL     1      -2.821 -17.467  16.512  1.00  0.00    -0.320 OA
BRANCH  36  37
HETATM   37  C6  UNL     1      -1.546 -17.925  16.272  1.00  0.00     0.398 C 
HETATM   38  O4  UNL     1      -1.188 -18.108  15.078  1.00  0.00    -0.276 OA
ENDBRANCH  36  37
ENDBRANCH  27  36
BRANCH  30  39
HETATM   39  O2  UNL     1      -4.897 -17.666  15.368  1.00  0.00    -0.315 OA
BRANCH  39  40
HETATM   40  C2  UNL     1      -5.330 -18.212  14.174  1.00  0.00     0.255 C 
HETATM   41  C1  UNL     1      -4.448 -18.483  13.017  1.00  0.00     0.126 C 
HETATM   42  O1  UNL     1      -6.576 -18.483  14.107  1.00  0.00    -0.266 OA
ENDBRANCH  39  40
ENDBRANCH  30  39
ENDBRANCH  24  25
ENDBRANCH   1  24
BRANCH  14  43
HETATM   43  O7  UNL     1      -2.622  -8.786  26.569  1.00  0.00    -0.395 OA
ATOM     44  H7  UNL     1      -2.211  -8.980  27.403  1.00  0.00     0.210 HD
ENDBRANCH  14  43
TORSDOF 8
ENDMDL
MODEL 2
REMARK VINA RESULT: -9.711858900      1.109      1.234
REMARK  8 active torsions:
REMARK  status: ('A' for Active; 'I' for Inactive)
REMARK    1  A    between atoms: C2_2  and  O2_4 
REMARK    2  A    between atoms: O2_4  and  C3_5 
REMARK    3  A    between atoms: C5_7  and  O3_8 
REMARK    4  A    between atoms: O3_8  and  C6_9 
REMARK    5  A    between atoms: C7_11  and  O5_13 
REMARK    6  A    between atoms: C9_15  and  O6_16 
REMARK    7  A    between atoms: O6_16  and  C10_17 
REMARK    8  A    between atoms: C23_30  and  O7_31 
ROOT
HETATM    1  C10 UNL     1      -5.397 -15.567  20.378  1.00  0.00     0.131 C 
HETATM    2  C11 UNL     1      -5.325 -16.740  21.414  1.00  0.00     0.041 C 
HETATM    3  C12 UNL     1      -6.347 -16.529  22.461  1.00  0.00    -0.045 C 
HETATM    4  C13 UNL     1      -7.698 -17.088  21.960  1.00  0.00     0.015 C 
HETATM    5  C14 UNL     1      -6.003 -17.471  23.629  1.00  0.00     0.015 C 
HETATM    6  C15 UNL     1      -6.547 -15.184  23.012  1.00  0.00     0.014 C 
HETATM    7  C16 UNL     1      -6.183 -14.049  22.117  1.00  0.00     0.001 C 
HETATM    8  C17 UNL     1      -5.756 -12.817  22.870  1.00  0.00    -0.005 C 
HETATM    9  C18 UNL     1      -6.877 -12.260  23.732  1.00  0.00     0.006 C 
HETATM   10  C19 UNL     1      -6.511 -10.797  23.970  1.00  0.00     0.006 C 
HETATM   11  C20 UNL     1      -5.008 -10.580  23.989  1.00  0.00     0.000 C 
HETATM   12  C21 UNL     1      -4.677  -9.307  24.700  1.00  0.00     0.015 C 
HETATM   13  C22 UNL     1      -4.193  -8.209  23.744  1.00  0.00     0.013 C 
HETATM   14  C23 UNL     1      -3.689  -9.408  25.805  1.00  0.00     0.122 C 
HETATM   15  C24 UNL     1      -2.542 -10.323  25.558  1.00  0.00     0.033 C 
HETATM   16  C25 UNL     1      -2.796 -11.409  24.571  1.00  0.00     0.012 C 
HETATM   17  C26 UNL     1      -4.253 -11.775  24.499  1.00  0.00    -0.036 C 
HETATM   18  C27 UNL     1      -4.766 -12.077  25.912  1.00  0.00     0.016 C 
HETATM   19  C28 UNL     1      -4.488 -12.980  23.650  1.00  0.00    -0.002 C 
HETATM   20  C29 UNL     1      -3.379 -13.296  22.678  1.00  0.00     0.007 C 
HETATM   21  C30 UNL     1      -3.742 -14.537  21.933  1.00  0.00     0.012 C 
HETATM   22  C31 UNL     1      -5.048 -14.363  21.155  1.00  0.00    -0.014 C 
HETATM   23  C32 UNL     1      -4.950 -13.159  20.255  1.00  0.00     0.018 C 
ENDROOT
BRANCH   1  24
HETATM   24  O6  UNL     1      -4.535 -15.799  19.351  1.00  0.00    -0.376 OA
BRANCH  24  25
HETATM   25  C9  UNL     1      -4.799 -16.696  18.384  1.00  0.00     0.168 C 
HETATM   26  C7  UNL     1      -3.554 -16.886  17.546  1.00  0.00     0.107 C 
HETATM   27  C5  UNL     1      -3.682 -17.964  16.498  1.00  0.00     0.170 C 
HETATM   28  C8  UNL     1      -3.097 -15.571  16.915  1.00  0.00     0.051 C 
HETATM   29  C4  UNL     1      -5.056 -18.586  16.567  1.00  0.00     0.069 C 
HETATM   30  C3  UNL     1      -6.034 -17.470  16.375  1.00  0.00     0.144 C 
HETATM   31  C33 UNL     1      -6.002 -16.431  17.488  1.00  0.00     0.008 C 
HETATM   32  C34 UNL     1      -7.253 -16.700  18.298  1.00  0.00     0.020 C 
HETATM   33  C35 UNL     1      -6.074 -15.097  16.866  1.00  0.00     0.020 C 
BRANCH  26  34
HETATM   34  O5  UNL     1      -2.506 -17.261  18.369  1.00  0.00    -0.385 OA
ATOM     35  H5  UNL     1      -2.839 -17.237  19.259  1.00  0.00     0.210 HD
ENDBRANCH  26  34
BRANCH  27  36
HETATM   36  O3  UNL     1      -3.504 -17.406  15.220  1.00  0.00    -0.320 OA
BRANCH  36  37
HETATM   37  C6  UNL     1      -2.522 -17.780  14.332  1.00  0.00     0.398 C 
HETATM   38  O4  UNL     1      -1.392 -18.102  14.786  1.00  0.00    -0.276 OA
ENDBRANCH  36  37
ENDBRANCH  27  36
BRANCH  30  39
HETATM   39  O2  UNL     1      -5.825 -16.901  15.101  1.00  0.00    -0.315 OA
BRANCH  39  40
HETATM   40  C2  UNL     1      -6.561 -17.208  13.972  1.00  0.00     0.255 C 
HETATM   41  C1  UNL     1      -8.016 -16.973  13.840  1.00  0.00     0.126 C 
HETATM   42  O1  UNL     1      -5.906 -17.725  13.006  1.00  0.00    -0.266 OA
ENDBRANCH  39  40
ENDBRANCH  30  39
ENDBRANCH  24  25
ENDBRANCH   1  24
BRANCH  14  43
HETATM   43  O7  UNL     1      -3.143  -8.114  25.992  1.00  0.00    -0.395 OA
ATOM     44  H7  UNL     1      -3.834  -7.570  26.350  1.00  0.00     0.210 HD
ENDBRANCH  14  43
TORSDOF 8
ENDMDL
MODEL 3
REMARK VINA RESULT: -9.315197706      2.127      9.751
REMARK  8 active torsions:
REMARK  status: ('A' for Active; 'I' for Inactive)
REMARK    1  A    between atoms: C2_2  and  O2_4 
REMARK    2  A    between atoms: O2_4  and  C3_5 
REMARK    3  A    between atoms: C5_7  and  O3_8 
REMARK    4  A    between atoms: O3_8  and  C6_9 
REMARK    5  A    between atoms: C7_11  and  O5_13 
REMARK    6  A    between atoms: C9_15  and  O6_16 
REMARK    7  A    between atoms: O6_16  and  C10_17 
REMARK    8  A    between atoms: C23_30  and  O7_31 
ROOT
HETATM    1  C10 UNL     1      -5.714 -14.964  21.097  1.00  0.00     0.131 C 
HETATM    2  C11 UNL     1      -6.901 -15.902  21.502  1.00  0.00     0.041 C 
HETATM    3  C12 UNL     1      -6.469 -17.311  21.385  1.00  0.00    -0.045 C 
HETATM    4  C13 UNL     1      -5.737 -17.719  22.683  1.00  0.00     0.015 C 
HETATM    5  C14 UNL     1      -7.740 -18.181  21.425  1.00  0.00     0.015 C 
HETATM    6  C15 UNL     1      -5.677 -17.728  20.223  1.00  0.00     0.014 C 
HETATM    7  C16 UNL     1      -4.858 -16.665  19.573  1.00  0.00     0.001 C 
HETATM    8  C17 UNL     1      -4.633 -16.908  18.105  1.00  0.00    -0.005 C 
HETATM    9  C18 UNL     1      -3.843 -18.182  17.854  1.00  0.00     0.006 C 
HETATM   10  C19 UNL     1      -3.238 -18.012  16.463  1.00  0.00     0.006 C 
HETATM   11  C20 UNL     1      -4.112 -17.160  15.559  1.00  0.00     0.000 C 
HETATM   12  C21 UNL     1      -3.780 -17.419  14.124  1.00  0.00     0.015 C 
HETATM   13  C22 UNL     1      -3.043 -16.242  13.471  1.00  0.00     0.013 C 
HETATM   14  C23 UNL     1      -4.917 -17.782  13.241  1.00  0.00     0.122 C 
HETATM   15  C24 UNL     1      -6.183 -17.038  13.484  1.00  0.00     0.033 C 
HETATM   16  C25 UNL     1      -6.344 -16.489  14.859  1.00  0.00     0.012 C 
HETATM   17  C26 UNL     1      -5.575 -17.287  15.877  1.00  0.00    -0.036 C 
HETATM   18  C27 UNL     1      -5.951 -18.768  15.742  1.00  0.00     0.016 C 
HETATM   19  C28 UNL     1      -5.877 -16.855  17.273  1.00  0.00    -0.002 C 
HETATM   20  C29 UNL     1      -6.461 -15.470  17.395  1.00  0.00     0.007 C 
HETATM   21  C30 UNL     1      -6.739 -15.199  18.836  1.00  0.00     0.012 C 
HETATM   22  C31 UNL     1      -5.463 -15.273  19.677  1.00  0.00    -0.014 C 
HETATM   23  C32 UNL     1      -4.420 -14.347  19.107  1.00  0.00     0.018 C 
ENDROOT
BRANCH   1  24
HETATM   24  O6  UNL     1      -6.058 -13.663  21.299  1.00  0.00    -0.376 OA
BRANCH  24  25
HETATM   25  C9  UNL     1      -5.814 -13.030  22.461  1.00  0.00     0.168 C 
HETATM   26  C7  UNL     1      -7.084 -12.347  22.918  1.00  0.00     0.107 C 
HETATM   27  C5  UNL     1      -6.975 -11.702  24.277  1.00  0.00     0.170 C 
HETATM   28  C8  UNL     1      -7.584 -11.341  21.880  1.00  0.00     0.051 C 
HETATM   29  C4  UNL     1      -5.590 -11.917  24.837  1.00  0.00     0.069 C 
HETATM   30  C3  UNL     1      -4.637 -11.337  23.841  1.00  0.00     0.144 C 
HETATM   31  C33 UNL     1      -4.647 -12.052  22.497  1.00  0.00     0.008 C 
HETATM   32  C34 UNL     1      -3.365 -12.857  22.483  1.00  0.00     0.020 C 
HETATM   33  C35 UNL     1      -4.617 -11.029  21.437  1.00  0.00     0.020 C 
BRANCH  26  34
HETATM   34  O5  UNL     1      -8.097 -13.287  23.008  1.00  0.00    -0.385 OA
ATOM     35  H5  UNL     1      -7.729 -14.111  22.712  1.00  0.00     0.210 HD
ENDBRANCH  26  34
BRANCH  27  36
HETATM   36  O3  UNL     1      -7.207 -10.320  24.165  1.00  0.00    -0.320 OA
BRANCH  36  37
HETATM   37  C6  UNL     1      -7.831  -9.550  25.119  1.00  0.00     0.398 C 
HETATM   38  O4  UNL     1      -7.141  -9.096  26.071  1.00  0.00    -0.276 OA
ENDBRANCH  36  37
ENDBRANCH  27  36
BRANCH  30  39
HETATM   39  O2  UNL     1      -4.899  -9.955  23.717  1.00  0.00    -0.315 OA
BRANCH  39  40
HETATM   40  C2  UNL     1      -4.095  -8.953  24.228  1.00  0.00     0.255 C 
HETATM   41  C1  UNL     1      -3.659  -8.878  25.640  1.00  0.00     0.126 C 
HETATM   42  O1  UNL     1      -3.729  -8.057  23.396  1.00  0.00    -0.266 OA
ENDBRANCH  39  40
ENDBRANCH  30  39
ENDBRANCH  24  25
ENDBRANCH   1  24
BRANCH  14  43
HETATM   43  O7  UNL     1      -4.521 -17.488  11.912  1.00  0.00    -0.395 OA
ATOM     44  H7  UNL     1      -3.919 -16.755  11.958  1.00  0.00     0.210 HD
ENDBRANCH  14  43
TORSDOF 8
ENDMDL
MODEL 4
REMARK VINA RESULT: -8.999708059      1.434      1.817
REMARK  8 active torsions:
REMARK  status: ('A' for Active; 'I' for Inactive)
REMARK    1  A    between atoms: C2_2  and  O2_4 
REMARK    2  A    between atoms: O2_4  and  C3_5 
REMARK    3  A    between atoms: C5_7  and  O3_8 
REMARK    4  A    between atoms: O3_8  and  C6_9 
REMARK    5  A    between atoms: C7_11  and  O5_13 
REMARK    6  A    between atoms: C9_15  and  O6_16 
REMARK    7  A    between atoms: O6_16  and  C10_17 
REMARK    8  A    between atoms: C23_30  and  O7_31 
ROOT
HETATM    1  C10 UNL     1      -5.638 -15.120  21.156  1.00  0.00     0.131 C 
HETATM    2  C11 UNL     1      -4.758 -16.330  21.622  1.00  0.00     0.041 C 
HETATM    3  C12 UNL     1      -4.927 -16.523  23.078  1.00  0.00    -0.045 C 
HETATM    4  C13 UNL     1      -6.189 -17.378  23.325  1.00  0.00     0.015 C 
HETATM    5  C14 UNL     1      -3.792 -17.451  23.549  1.00  0.00     0.015 C 
HETATM    6  C15 UNL     1      -4.946 -15.353  23.962  1.00  0.00     0.014 C 
HETATM    7  C16 UNL     1      -5.397 -14.073  23.345  1.00  0.00     0.001 C 
HETATM    8  C17 UNL     1      -4.792 -12.858  23.997  1.00  0.00    -0.005 C 
HETATM    9  C18 UNL     1      -5.205 -12.728  25.454  1.00  0.00     0.006 C 
HETATM   10  C19 UNL     1      -5.002 -11.255  25.799  1.00  0.00     0.006 C 
HETATM   11  C20 UNL     1      -3.868 -10.633  25.002  1.00  0.00     0.000 C 
HETATM   12  C21 UNL     1      -3.369  -9.400  25.687  1.00  0.00     0.015 C 
HETATM   13  C22 UNL     1      -3.761  -8.116  24.944  1.00  0.00     0.013 C 
HETATM   14  C23 UNL     1      -1.909  -9.340  25.950  1.00  0.00     0.122 C 
HETATM   15  C24 UNL     1      -1.039  -9.869  24.865  1.00  0.00     0.033 C 
HETATM   16  C25 UNL     1      -1.678 -10.872  23.970  1.00  0.00     0.012 C 
HETATM   17  C26 UNL     1      -2.787 -11.618  24.660  1.00  0.00    -0.036 C 
HETATM   18  C27 UNL     1      -2.258 -12.199  25.977  1.00  0.00     0.016 C 
HETATM   19  C28 UNL     1      -3.308 -12.745  23.831  1.00  0.00    -0.002 C 
HETATM   20  C29 UNL     1      -3.010 -12.635  22.356  1.00  0.00     0.007 C 
HETATM   21  C30 UNL     1      -3.560 -13.842  21.672  1.00  0.00     0.012 C 
HETATM   22  C31 UNL     1      -5.073 -13.956  21.864  1.00  0.00    -0.014 C 
HETATM   23  C32 UNL     1      -5.743 -12.684  21.413  1.00  0.00     0.018 C 
ENDROOT
BRANCH   1  24
HETATM   24  O6  UNL     1      -5.577 -14.993  19.803  1.00  0.00    -0.376 OA
BRANCH  24  25
HETATM   25  C9  UNL     1      -5.192 -16.007  19.005  1.00  0.00     0.168 C 
HETATM   26  C7  UNL     1      -4.073 -15.522  18.111  1.00  0.00     0.107 C 
HETATM   27  C5  UNL     1      -3.468 -16.603  17.250  1.00  0.00     0.170 C 
HETATM   28  C8  UNL     1      -4.514 -14.334  17.255  1.00  0.00     0.051 C 
HETATM   29  C4  UNL     1      -4.157 -17.919  17.520  1.00  0.00     0.069 C 
HETATM   30  C3  UNL     1      -5.610 -17.699  17.239  1.00  0.00     0.144 C 
HETATM   31  C33 UNL     1      -6.269 -16.697  18.177  1.00  0.00     0.008 C 
HETATM   32  C34 UNL     1      -7.106 -17.541  19.114  1.00  0.00     0.020 C 
HETATM   33  C35 UNL     1      -7.135 -15.820  17.369  1.00  0.00     0.020 C 
BRANCH  26  34
HETATM   34  O5  UNL     1      -3.047 -15.024  18.897  1.00  0.00    -0.385 OA
ATOM     35  H5  UNL     1      -3.455 -14.655  19.671  1.00  0.00     0.210 HD
ENDBRANCH  26  34
BRANCH  27  36
HETATM   36  O3  UNL     1      -3.633 -16.277  15.893  1.00  0.00    -0.320 OA
BRANCH  36  37
HETATM   37  C6  UNL     1      -2.796 -16.685  14.881  1.00  0.00     0.398 C 
HETATM   38  O4  UNL     1      -2.024 -17.658  15.095  1.00  0.00    -0.276 OA
ENDBRANCH  36  37
ENDBRANCH  27  36
BRANCH  30  39
HETATM   39  O2  UNL     1      -5.759 -17.345  15.881  1.00  0.00    -0.315 OA
BRANCH  39  40
HETATM   40  C2  UNL     1      -6.276 -18.174  14.904  1.00  0.00     0.255 C 
HETATM   41  C1  UNL     1      -7.691 -18.167  14.472  1.00  0.00     0.126 C 
HETATM   42  O1  UNL     1      -5.446 -18.983  14.367  1.00  0.00    -0.266 OA
ENDBRANCH  39  40
ENDBRANCH  30  39
ENDBRANCH  24  25
ENDBRANCH   1  24
BRANCH  14  43
HETATM   43  O7  UNL     1      -1.573  -7.972  26.109  1.00  0.00    -0.395 OA
ATOM     44  H7  UNL     1      -2.073  -7.486  25.465  1.00  0.00     0.210 HD
ENDBRANCH  14  43
TORSDOF 8
ENDMDL
MODEL 5
REMARK VINA RESULT: -8.913373354      1.895      9.689
REMARK  8 active torsions:
REMARK  status: ('A' for Active; 'I' for Inactive)
REMARK    1  A    between atoms: C2_2  and  O2_4 
REMARK    2  A    between atoms: O2_4  and  C3_5 
REMARK    3  A    between atoms: C5_7  and  O3_8 
REMARK    4  A    between atoms: O3_8  and  C6_9 
REMARK    5  A    between atoms: C7_11  and  O5_13 
REMARK    6  A    between atoms: C9_15  and  O6_16 
REMARK    7  A    between atoms: O6_16  and  C10_17 
REMARK    8  A    between atoms: C23_30  and  O7_31 
ROOT
HETATM    1  C10 UNL     1      -4.766 -14.846  21.964  1.00  0.00     0.131 C 
HETATM    2  C11 UNL     1      -6.265 -14.737  22.406  1.00  0.00     0.041 C 
HETATM    3  C12 UNL     1      -6.889 -16.076  22.343  1.00  0.00    -0.045 C 
HETATM    4  C13 UNL     1      -6.583 -16.831  23.656  1.00  0.00     0.015 C 
HETATM    5  C14 UNL     1      -8.413 -15.871  22.418  1.00  0.00     0.015 C 
HETATM    6  C15 UNL     1      -6.608 -16.949  21.198  1.00  0.00     0.014 C 
HETATM    7  C16 UNL     1      -5.306 -16.725  20.508  1.00  0.00     0.001 C 
HETATM    8  C17 UNL     1      -5.340 -17.098  19.049  1.00  0.00    -0.005 C 
HETATM    9  C18 UNL     1      -5.611 -18.580  18.848  1.00  0.00     0.006 C 
HETATM   10  C19 UNL     1      -5.083 -18.898  17.451  1.00  0.00     0.006 C 
HETATM   11  C20 UNL     1      -5.188 -17.706  16.516  1.00  0.00     0.000 C 
HETATM   12  C21 UNL     1      -5.151 -18.162  15.091  1.00  0.00     0.015 C 
HETATM   13  C22 UNL     1      -3.834 -17.799  14.393  1.00  0.00     0.013 C 
HETATM   14  C23 UNL     1      -6.263 -17.697  14.223  1.00  0.00     0.122 C 
HETATM   15  C24 UNL     1      -6.699 -16.290  14.438  1.00  0.00     0.033 C 
HETATM   16  C25 UNL     1      -6.417 -15.735  15.791  1.00  0.00     0.012 C 
HETATM   17  C26 UNL     1      -6.352 -16.813  16.839  1.00  0.00    -0.036 C 
HETATM   18  C27 UNL     1      -7.625 -17.666  16.761  1.00  0.00     0.016 C 
HETATM   19  C28 UNL     1      -6.251 -16.250  18.217  1.00  0.00    -0.002 C 
HETATM   20  C29 UNL     1      -5.756 -14.827  18.285  1.00  0.00     0.007 C 
HETATM   21  C30 UNL     1      -5.744 -14.399  19.715  1.00  0.00     0.012 C 
HETATM   22  C31 UNL     1      -4.823 -15.283  20.557  1.00  0.00    -0.014 C 
HETATM   23  C32 UNL     1      -3.444 -15.309  19.952  1.00  0.00     0.018 C 
ENDROOT
BRANCH   1  24
HETATM   24  O6  UNL     1      -4.147 -13.643  22.116  1.00  0.00    -0.376 OA
BRANCH  24  25
HETATM   25  C9  UNL     1      -4.601 -12.707  22.970  1.00  0.00     0.168 C 
HETATM   26  C7  UNL     1      -4.378 -11.342  22.356  1.00  0.00     0.107 C 
HETATM   27  C5  UNL     1      -4.958 -10.208  23.163  1.00  0.00     0.170 C 
HETATM   28  C8  UNL     1      -2.897 -11.095  22.063  1.00  0.00     0.051 C 
HETATM   29  C4  UNL     1      -5.629 -10.750  24.402  1.00  0.00     0.069 C 
HETATM   30  C3  UNL     1      -4.582 -11.517  25.147  1.00  0.00     0.144 C 
HETATM   31  C33 UNL     1      -4.068 -12.738  24.396  1.00  0.00     0.008 C 
HETATM   32  C34 UNL     1      -4.701 -13.917  25.104  1.00  0.00     0.020 C 
HETATM   33  C35 UNL     1      -2.603 -12.780  24.546  1.00  0.00     0.020 C 
BRANCH  26  34
HETATM   34  O5  UNL     1      -4.991 -11.297  21.115  1.00  0.00    -0.385 OA
ATOM     35  H5  UNL     1      -4.509 -11.893  20.554  1.00  0.00     0.210 HD
ENDBRANCH  26  34
BRANCH  27  36
HETATM   36  O3  UNL     1      -3.931  -9.330  23.554  1.00  0.00    -0.320 OA
BRANCH  36  37
HETATM   37  C6  UNL     1      -4.003  -7.958  23.482  1.00  0.00     0.398 C 
HETATM   38  O4  UNL     1      -3.233  -7.278  24.211  1.00  0.00    -0.276 OA
ENDBRANCH  36  37
ENDBRANCH  27  36
BRANCH  30  39
HETATM   39  O2  UNL     1      -3.544 -10.630  25.508  1.00  0.00    -0.315 OA
BRANCH  39  40
HETATM   40  C2  UNL     1      -3.643  -9.663  26.491  1.00  0.00     0.255 C 
HETATM   41  C1  UNL     1      -4.922  -9.102  26.978  1.00  0.00     0.126 C 
HETATM   42  O1  UNL     1      -2.537  -9.256  26.982  1.00  0.00    -0.266 OA
ENDBRANCH  39  40
ENDBRANCH  30  39
ENDBRANCH  24  25
ENDBRANCH   1  24
BRANCH  14  43
HETATM   43  O7  UNL     1      -5.806 -17.780  12.884  1.00  0.00    -0.395 OA
ATOM     44  H7  UNL     1      -5.066 -18.375  12.880  1.00  0.00     0.210 HD
ENDBRANCH  14  43
TORSDOF 8
ENDMDL
