MODEL 1
REMARK VINA RESULT: -9.570154775      0.000      0.000
REMARK  9 active torsions:
REMARK  status: ('A' for Active; 'I' for Inactive)
REMARK    1  A    between atoms: C2_2  and  C3_3 
REMARK    2  A    between atoms: C3_3  and  C4_4 
REMARK    3  A    between atoms: C4_4  and  O1_5 
REMARK    4  A    between atoms: O1_5  and  C5_6 
REMARK    5  A    between atoms: C5_6  and  C6_8 
REMARK    6  A    between atoms: C23_25  and  C24_26 
REMARK    7  A    between atoms: C24_26  and  O4_28 
REMARK    8  A    between atoms: C35_39  and  O5_40 
REMARK    9  A    between atoms: C36_42  and  O6_43 
ROOT
HETATM    1  C6  UNL     1      -2.585 -17.364  17.931  1.00  0.00     0.052 C 
HETATM    2  C7  UNL     1      -1.406 -18.272  17.845  1.00  0.00     0.021 C 
HETATM    3  C8  UNL     1      -0.623 -18.421  19.121  1.00  0.00     0.010 C 
HETATM    4  C9  UNL     1      -0.203 -17.006  19.471  1.00  0.00    -0.047 C 
HETATM    5  C10 UNL     1       0.580 -16.328  18.409  1.00  0.00     0.015 C 
HETATM    6  C11 UNL     1       0.702 -17.135  20.701  1.00  0.00     0.015 C 
HETATM    7  C12 UNL     1      -1.435 -16.293  19.917  1.00  0.00     0.015 C 
HETATM    8  C13 UNL     1      -2.631 -16.359  19.009  1.00  0.00     0.012 C 
HETATM    9  C14 UNL     1      -3.844 -16.367  19.893  1.00  0.00     0.038 C 
HETATM   10  C15 UNL     1      -5.112 -16.825  19.291  1.00  0.00    -0.027 C 
HETATM   11  C16 UNL     1      -5.887 -17.897  20.075  1.00  0.00     0.016 C 
HETATM   12  C17 UNL     1      -4.985 -17.315  17.876  1.00  0.00     0.012 C 
HETATM   13  C18 UNL     1      -3.809 -18.303  17.947  1.00  0.00     0.021 C 
HETATM   14  C19 UNL     1      -5.648 -15.439  19.496  1.00  0.00    -0.002 C 
HETATM   15  C20 UNL     1      -5.875 -14.788  18.124  1.00  0.00     0.019 C 
HETATM   16  C21 UNL     1      -6.939 -15.322  20.244  1.00  0.00     0.014 C 
HETATM   17  C22 UNL     1      -7.064 -13.875  20.655  1.00  0.00     0.021 C 
HETATM   18  C23 UNL     1      -6.772 -13.791  22.104  1.00  0.00     0.055 C 
HETATM   19  C26 UNL     1      -7.355 -12.482  22.655  1.00  0.00     0.020 C 
HETATM   20  C27 UNL     1      -6.739 -12.417  24.066  1.00  0.00     0.007 C 
HETATM   21  C28 UNL     1      -5.414 -11.808  23.874  1.00  0.00     0.003 A 
HETATM   22  C29 UNL     1      -4.110 -12.324  24.190  1.00  0.00    -0.035 A 
HETATM   23  C30 UNL     1      -4.020 -13.453  25.183  1.00  0.00     0.016 C 
HETATM   24  C31 UNL     1      -2.941 -11.359  24.282  1.00  0.00     0.016 C 
HETATM   25  C32 UNL     1      -4.672 -12.567  22.798  1.00  0.00    -0.025 A 
HETATM   26  C33 UNL     1      -4.122 -11.690  21.724  1.00  0.00     0.017 C 
HETATM   27  C34 UNL     1      -5.319 -13.902  22.461  1.00  0.00     0.045 C 
HETATM   28  C35 UNL     1      -4.499 -14.842  21.700  1.00  0.00     0.159 C 
HETATM   29  C36 UNL     1      -4.447 -14.990  20.248  1.00  0.00     0.097 C 
ENDROOT
BRANCH   1  30
HETATM   30  C5  UNL     1      -2.666 -16.730  16.555  1.00  0.00     0.268 C 
HETATM   31  O2  UNL     1      -2.875 -15.498  16.432  1.00  0.00    -0.264 OA
BRANCH  30  32
HETATM   32  O1  UNL     1      -2.516 -17.466  15.406  1.00  0.00    -0.321 OA
BRANCH  32  33
HETATM   33  C4  UNL     1      -3.102 -17.003  14.205  1.00  0.00     0.178 C 
BRANCH  33  34
HETATM   34  C3  UNL     1      -3.886 -18.163  13.625  1.00  0.00     0.026 C 
BRANCH  34  35
HETATM   35  C2  UNL     1      -5.178 -18.399  14.385  1.00  0.00    -0.002 C 
HETATM   36  C1  UNL     1      -5.943 -17.086  14.381  1.00  0.00     0.005 C 
ENDBRANCH  34  35
ENDBRANCH  33  34
ENDBRANCH  32  33
ENDBRANCH  30  32
ENDBRANCH   1  30
BRANCH  29  37
HETATM   37  O6  UNL     1      -3.837 -13.966  19.506  1.00  0.00    -0.386 OA
ATOM     38  H6  UNL     1      -3.192 -13.505  20.029  1.00  0.00     0.210 HD
ENDBRANCH  29  37
BRANCH  28  39
HETATM   39  O5  UNL     1      -3.155 -14.548  22.080  1.00  0.00    -0.392 OA
ATOM     40  H5  UNL     1      -2.965 -15.148  22.791  1.00  0.00     0.210 HD
ENDBRANCH  28  39
BRANCH  18  41
HETATM   41  C24 UNL     1      -7.612 -14.837  22.788  1.00  0.00     0.267 C 
HETATM   42  O3  UNL     1      -7.126 -15.865  23.323  1.00  0.00    -0.264 OA
BRANCH  41  43
HETATM   43  O4  UNL     1      -8.984 -14.671  22.837  1.00  0.00    -0.326 OA
HETATM   44  C25 UNL     1      -9.881 -15.554  22.168  1.00  0.00     0.213 C 
ENDBRANCH  41  43
ENDBRANCH  18  41
TORSDOF 9
ENDMDL
MODEL 2
REMARK VINA RESULT: -8.933093734      2.124      3.465
REMARK  9 active torsions:
REMARK  status: ('A' for Active; 'I' for Inactive)
REMARK    1  A    between atoms: C2_2  and  C3_3 
REMARK    2  A    between atoms: C3_3  and  C4_4 
REMARK    3  A    between atoms: C4_4  and  O1_5 
REMARK    4  A    between atoms: O1_5  and  C5_6 
REMARK    5  A    between atoms: C5_6  and  C6_8 
REMARK    6  A    between atoms: C23_25  and  C24_26 
REMARK    7  A    between atoms: C24_26  and  O4_28 
REMARK    8  A    between atoms: C35_39  and  O5_40 
REMARK    9  A    between atoms: C36_42  and  O6_43 
ROOT
HETATM    1  C6  UNL     1      -5.094 -15.856  19.368  1.00  0.00     0.052 C 
HETATM    2  C7  UNL     1      -4.396 -17.109  18.963  1.00  0.00     0.021 C 
HETATM    3  C8  UNL     1      -3.194 -17.465  19.794  1.00  0.00     0.010 C 
HETATM    4  C9  UNL     1      -2.280 -16.260  19.667  1.00  0.00    -0.047 C 
HETATM    5  C10 UNL     1      -1.915 -15.923  18.270  1.00  0.00     0.015 C 
HETATM    6  C11 UNL     1      -0.990 -16.640  20.403  1.00  0.00     0.015 C 
HETATM    7  C12 UNL     1      -2.914 -15.160  20.451  1.00  0.00     0.015 C 
HETATM    8  C13 UNL     1      -4.356 -14.855  20.160  1.00  0.00     0.012 C 
HETATM    9  C14 UNL     1      -4.976 -14.424  21.457  1.00  0.00     0.038 C 
HETATM   10  C15 UNL     1      -6.450 -14.453  21.540  1.00  0.00    -0.027 C 
HETATM   11  C16 UNL     1      -7.047 -15.174  22.760  1.00  0.00     0.016 C 
HETATM   12  C17 UNL     1      -7.129 -15.008  20.321  1.00  0.00     0.012 C 
HETATM   13  C18 UNL     1      -6.383 -16.329  20.071  1.00  0.00     0.021 C 
HETATM   14  C19 UNL     1      -6.417 -12.960  21.692  1.00  0.00    -0.002 C 
HETATM   15  C20 UNL     1      -7.053 -12.321  20.449  1.00  0.00     0.019 C 
HETATM   16  C21 UNL     1      -7.130 -12.390  22.879  1.00  0.00     0.014 C 
HETATM   17  C22 UNL     1      -6.639 -10.971  23.030  1.00  0.00     0.021 C 
HETATM   18  C23 UNL     1      -5.706 -10.937  24.179  1.00  0.00     0.055 C 
HETATM   19  C26 UNL     1      -5.576  -9.489  24.672  1.00  0.00     0.020 C 
HETATM   20  C27 UNL     1      -4.392  -9.583  25.655  1.00  0.00     0.007 C 
HETATM   21  C28 UNL     1      -3.191  -9.459  24.814  1.00  0.00     0.003 A 
HETATM   22  C29 UNL     1      -2.093 -10.371  24.641  1.00  0.00    -0.035 A 
HETATM   23  C30 UNL     1      -1.881 -11.428  25.694  1.00  0.00     0.016 C 
HETATM   24  C31 UNL     1      -0.792  -9.851  24.053  1.00  0.00     0.016 C 
HETATM   25  C32 UNL     1      -3.272 -10.462  23.686  1.00  0.00    -0.025 A 
HETATM   26  C33 UNL     1      -3.052  -9.861  22.339  1.00  0.00     0.017 C 
HETATM   27  C34 UNL     1      -4.348 -11.515  23.905  1.00  0.00     0.045 C 
HETATM   28  C35 UNL     1      -4.271 -12.702  23.057  1.00  0.00     0.159 C 
HETATM   29  C36 UNL     1      -4.934 -12.912  21.772  1.00  0.00     0.097 C 
ENDROOT
BRANCH   1  30
HETATM   30  C5  UNL     1      -5.614 -15.282  18.063  1.00  0.00     0.268 C 
HETATM   31  O2  UNL     1      -5.067 -14.277  17.546  1.00  0.00    -0.264 OA
BRANCH  30  32
HETATM   32  O1  UNL     1      -6.687 -15.831  17.405  1.00  0.00    -0.321 OA
BRANCH  32  33
HETATM   33  C4  UNL     1      -6.554 -16.192  16.043  1.00  0.00     0.178 C 
BRANCH  33  34
HETATM   34  C3  UNL     1      -7.800 -16.970  15.673  1.00  0.00     0.026 C 
BRANCH  34  35
HETATM   35  C2  UNL     1      -7.953 -17.094  14.168  1.00  0.00    -0.002 C 
HETATM   36  C1  UNL     1      -9.440 -17.218  13.882  1.00  0.00     0.005 C 
ENDBRANCH  34  35
ENDBRANCH  33  34
ENDBRANCH  32  33
ENDBRANCH  30  32
ENDBRANCH   1  30
BRANCH  29  37
HETATM   37  O6  UNL     1      -4.470 -12.180  20.669  1.00  0.00    -0.386 OA
ATOM     38  H6  UNL     1      -3.587 -11.863  20.816  1.00  0.00     0.210 HD
ENDBRANCH  29  37
BRANCH  28  39
HETATM   39  O5  UNL     1      -2.881 -12.862  22.774  1.00  0.00    -0.392 OA
ATOM     40  H5  UNL     1      -2.483 -13.063  23.612  1.00  0.00     0.210 HD
ENDBRANCH  28  39
BRANCH  18  41
HETATM   41  C24 UNL     1      -6.396 -11.615  25.332  1.00  0.00     0.267 C 
HETATM   42  O3  UNL     1      -5.775 -12.204  26.253  1.00  0.00    -0.264 OA
BRANCH  41  43
HETATM   43  O4  UNL     1      -7.778 -11.598  25.393  1.00  0.00    -0.326 OA
HETATM   44  C25 UNL     1      -8.504 -10.459  25.843  1.00  0.00     0.213 C 
ENDBRANCH  41  43
ENDBRANCH  18  41
TORSDOF 9
ENDMDL
MODEL 3
REMARK VINA RESULT: -8.563628606      1.032      1.714
REMARK  9 active torsions:
REMARK  status: ('A' for Active; 'I' for Inactive)
REMARK    1  A    between atoms: C2_2  and  C3_3 
REMARK    2  A    between atoms: C3_3  and  C4_4 
REMARK    3  A    between atoms: C4_4  and  O1_5 
REMARK    4  A    between atoms: O1_5  and  C5_6 
REMARK    5  A    between atoms: C5_6  and  C6_8 
REMARK    6  A    between atoms: C23_25  and  C24_26 
REMARK    7  A    between atoms: C24_26  and  O4_28 
REMARK    8  A    between atoms: C35_39  and  O5_40 
REMARK    9  A    between atoms: C36_42  and  O6_43 
ROOT
HETATM    1  C6  UNL     1      -2.646 -17.329  17.835  1.00  0.00     0.052 C 
HETATM    2  C7  UNL     1      -1.405 -18.148  17.733  1.00  0.00     0.021 C 
HETATM    3  C8  UNL     1      -0.545 -18.156  18.967  1.00  0.00     0.010 C 
HETATM    4  C9  UNL     1      -0.220 -16.694  19.208  1.00  0.00    -0.047 C 
HETATM    5  C10 UNL     1       0.448 -16.027  18.063  1.00  0.00     0.015 C 
HETATM    6  C11 UNL     1       0.758 -16.676  20.387  1.00  0.00     0.015 C 
HETATM    7  C12 UNL     1      -1.479 -16.049  19.683  1.00  0.00     0.015 C 
HETATM    8  C13 UNL     1      -2.713 -16.263  18.852  1.00  0.00     0.012 C 
HETATM    9  C14 UNL     1      -3.872 -16.307  19.806  1.00  0.00     0.038 C 
HETATM   10  C15 UNL     1      -5.130 -16.897  19.307  1.00  0.00    -0.027 C 
HETATM   11  C16 UNL     1      -5.775 -17.973  20.198  1.00  0.00     0.016 C 
HETATM   12  C17 UNL     1      -5.042 -17.465  17.919  1.00  0.00     0.012 C 
HETATM   13  C18 UNL     1      -3.789 -18.354  17.979  1.00  0.00     0.021 C 
HETATM   14  C19 UNL     1      -5.762 -15.545  19.461  1.00  0.00    -0.002 C 
HETATM   15  C20 UNL     1      -6.114 -15.002  18.069  1.00  0.00     0.019 C 
HETATM   16  C21 UNL     1      -7.016 -15.479  20.276  1.00  0.00     0.014 C 
HETATM   17  C22 UNL     1      -7.233 -14.022  20.608  1.00  0.00     0.021 C 
HETATM   18  C23 UNL     1      -6.871 -13.825  22.029  1.00  0.00     0.055 C 
HETATM   19  C26 UNL     1      -7.525 -12.532  22.535  1.00  0.00     0.020 C 
HETATM   20  C27 UNL     1      -6.840 -12.331  23.902  1.00  0.00     0.007 C 
HETATM   21  C28 UNL     1      -5.580 -11.636  23.595  1.00  0.00     0.003 A 
HETATM   22  C29 UNL     1      -4.224 -12.031  23.864  1.00  0.00    -0.035 A 
HETATM   23  C30 UNL     1      -3.991 -13.085  24.915  1.00  0.00     0.016 C 
HETATM   24  C31 UNL     1      -3.131 -10.977  23.830  1.00  0.00     0.016 C 
HETATM   25  C32 UNL     1      -4.840 -12.403  22.525  1.00  0.00    -0.025 A 
HETATM   26  C33 UNL     1      -4.419 -11.558  21.370  1.00  0.00     0.017 C 
HETATM   27  C34 UNL     1      -5.396 -13.802  22.306  1.00  0.00     0.045 C 
HETATM   28  C35 UNL     1      -4.547 -14.724  21.555  1.00  0.00     0.159 C 
HETATM   29  C36 UNL     1      -4.562 -14.960  20.113  1.00  0.00     0.097 C 
ENDROOT
BRANCH   1  30
HETATM   30  C5  UNL     1      -2.852 -16.791  16.431  1.00  0.00     0.268 C 
HETATM   31  O2  UNL     1      -2.936 -15.555  16.228  1.00  0.00    -0.264 OA
BRANCH  30  32
HETATM   32  O1  UNL     1      -2.952 -17.622  15.343  1.00  0.00    -0.321 OA
BRANCH  32  33
HETATM   33  C4  UNL     1      -2.072 -17.442  14.250  1.00  0.00     0.178 C 
BRANCH  33  34
HETATM   34  C3  UNL     1      -1.015 -18.521  14.355  1.00  0.00     0.026 C 
BRANCH  34  35
HETATM   35  C2  UNL     1       0.368 -17.930  14.556  1.00  0.00    -0.002 C 
HETATM   36  C1  UNL     1       1.194 -18.970  15.294  1.00  0.00     0.005 C 
ENDBRANCH  34  35
ENDBRANCH  33  34
ENDBRANCH  32  33
ENDBRANCH  30  32
ENDBRANCH   1  30
BRANCH  29  37
HETATM   37  O6  UNL     1      -4.076 -13.942  19.278  1.00  0.00    -0.386 OA
ATOM     38  H6  UNL     1      -3.774 -13.199  19.786  1.00  0.00     0.210 HD
ENDBRANCH  29  37
BRANCH  28  39
HETATM   39  O5  UNL     1      -3.212 -14.306  21.836  1.00  0.00    -0.392 OA
ATOM     40  H5  UNL     1      -2.930 -14.855  22.558  1.00  0.00     0.210 HD
ENDBRANCH  28  39
BRANCH  18  41
HETATM   41  C24 UNL     1      -7.586 -14.886  22.822  1.00  0.00     0.267 C 
HETATM   42  O3  UNL     1      -8.836 -15.015  22.823  1.00  0.00    -0.264 OA
BRANCH  41  43
HETATM   43  O4  UNL     1      -6.845 -15.767  23.589  1.00  0.00    -0.326 OA
HETATM   44  C25 UNL     1      -6.811 -17.165  23.320  1.00  0.00     0.213 C 
ENDBRANCH  41  43
ENDBRANCH  18  41
TORSDOF 9
ENDMDL
MODEL 4
REMARK VINA RESULT: -8.430363720      1.343      7.280
REMARK  9 active torsions:
REMARK  status: ('A' for Active; 'I' for Inactive)
REMARK    1  A    between atoms: C2_2  and  C3_3 
REMARK    2  A    between atoms: C3_3  and  C4_4 
REMARK    3  A    between atoms: C4_4  and  O1_5 
REMARK    4  A    between atoms: O1_5  and  C5_6 
REMARK    5  A    between atoms: C5_6  and  C6_8 
REMARK    6  A    between atoms: C23_25  and  C24_26 
REMARK    7  A    between atoms: C24_26  and  O4_28 
REMARK    8  A    between atoms: C35_39  and  O5_40 
REMARK    9  A    between atoms: C36_42  and  O6_43 
ROOT
HETATM    1  C6  UNL     1      -6.030 -13.778  21.656  1.00  0.00     0.052 C 
HETATM    2  C7  UNL     1      -6.350 -12.428  22.200  1.00  0.00     0.021 C 
HETATM    3  C8  UNL     1      -5.230 -11.427  22.118  1.00  0.00     0.010 C 
HETATM    4  C9  UNL     1      -4.091 -12.074  22.883  1.00  0.00    -0.047 C 
HETATM    5  C10 UNL     1      -4.427 -12.424  24.285  1.00  0.00     0.015 C 
HETATM    6  C11 UNL     1      -2.972 -11.027  22.924  1.00  0.00     0.015 C 
HETATM    7  C12 UNL     1      -3.595 -13.201  22.040  1.00  0.00     0.015 C 
HETATM    8  C13 UNL     1      -4.617 -14.181  21.539  1.00  0.00     0.012 C 
HETATM    9  C14 UNL     1      -4.152 -14.636  20.185  1.00  0.00     0.038 C 
HETATM   10  C15 UNL     1      -5.152 -15.280  19.311  1.00  0.00    -0.027 C 
HETATM   11  C16 UNL     1      -5.254 -14.732  17.878  1.00  0.00     0.016 C 
HETATM   12  C17 UNL     1      -6.543 -15.307  19.876  1.00  0.00     0.012 C 
HETATM   13  C18 UNL     1      -6.778 -13.850  20.309  1.00  0.00     0.021 C 
HETATM   14  C19 UNL     1      -4.344 -16.541  19.407  1.00  0.00    -0.002 C 
HETATM   15  C20 UNL     1      -5.156 -17.592  20.178  1.00  0.00     0.019 C 
HETATM   16  C21 UNL     1      -3.937 -17.177  18.114  1.00  0.00     0.014 C 
HETATM   17  C22 UNL     1      -2.843 -18.162  18.450  1.00  0.00     0.021 C 
HETATM   18  C23 UNL     1      -1.558 -17.575  18.011  1.00  0.00     0.055 C 
HETATM   19  C26 UNL     1      -0.520 -18.698  17.870  1.00  0.00     0.020 C 
HETATM   20  C27 UNL     1       0.792 -17.909  17.688  1.00  0.00     0.007 C 
HETATM   21  C28 UNL     1       1.239 -17.596  19.054  1.00  0.00     0.003 A 
HETATM   22  C29 UNL     1       1.486 -16.321  19.670  1.00  0.00    -0.035 A 
HETATM   23  C30 UNL     1       1.701 -15.132  18.770  1.00  0.00     0.016 C 
HETATM   24  C31 UNL     1       2.325 -16.266  20.935  1.00  0.00     0.016 C 
HETATM   25  C32 UNL     1       0.105 -16.941  19.807  1.00  0.00    -0.025 A 
HETATM   26  C33 UNL     1      -0.182 -17.580  21.124  1.00  0.00     0.017 C 
HETATM   27  C34 UNL     1      -1.027 -16.487  18.897  1.00  0.00     0.045 C 
HETATM   28  C35 UNL     1      -1.987 -15.552  19.479  1.00  0.00     0.159 C 
HETATM   29  C36 UNL     1      -3.240 -15.883  20.154  1.00  0.00     0.097 C 
ENDROOT
BRANCH   1  30
HETATM   30  C5  UNL     1      -6.825 -14.729  22.532  1.00  0.00     0.268 C 
HETATM   31  O2  UNL     1      -6.239 -15.589  23.234  1.00  0.00    -0.264 OA
BRANCH  30  32
HETATM   32  O1  UNL     1      -8.196 -14.688  22.591  1.00  0.00    -0.321 OA
BRANCH  32  33
HETATM   33  C4  UNL     1      -8.923 -15.899  22.667  1.00  0.00     0.178 C 
BRANCH  33  34
HETATM   34  C3  UNL     1      -9.696 -16.028  21.370  1.00  0.00     0.026 C 
BRANCH  34  35
HETATM   35  C2  UNL     1      -9.349 -17.311  20.638  1.00  0.00    -0.002 C 
HETATM   36  C1  UNL     1      -9.713 -17.102  19.178  1.00  0.00     0.005 C 
ENDBRANCH  34  35
ENDBRANCH  33  34
ENDBRANCH  32  33
ENDBRANCH  30  32
ENDBRANCH   1  30
BRANCH  29  37
HETATM   37  O6  UNL     1      -3.164 -16.484  21.420  1.00  0.00    -0.386 OA
ATOM     38  H6  UNL     1      -4.009 -16.825  21.687  1.00  0.00     0.210 HD
ENDBRANCH  29  37
BRANCH  28  39
HETATM   39  O5  UNL     1      -1.242 -14.815  20.447  1.00  0.00    -0.392 OA
ATOM     40  H5  UNL     1      -1.896 -14.440  21.026  1.00  0.00     0.210 HD
ENDBRANCH  28  39
BRANCH  18  41
HETATM   41  C24 UNL     1      -1.740 -17.118  16.588  1.00  0.00     0.267 C 
HETATM   42  O3  UNL     1      -1.967 -15.922  16.276  1.00  0.00    -0.264 OA
BRANCH  41  43
HETATM   43  O4  UNL     1      -1.658 -18.048  15.567  1.00  0.00    -0.326 OA
HETATM   44  C25 UNL     1      -2.289 -17.849  14.305  1.00  0.00     0.213 C 
ENDBRANCH  41  43
ENDBRANCH  18  41
TORSDOF 9
ENDMDL
MODEL 5
REMARK VINA RESULT: -8.271296004      1.502      7.454
REMARK  9 active torsions:
REMARK  status: ('A' for Active; 'I' for Inactive)
REMARK    1  A    between atoms: C2_2  and  C3_3 
REMARK    2  A    between atoms: C3_3  and  C4_4 
REMARK    3  A    between atoms: C4_4  and  O1_5 
REMARK    4  A    between atoms: O1_5  and  C5_6 
REMARK    5  A    between atoms: C5_6  and  C6_8 
REMARK    6  A    between atoms: C23_25  and  C24_26 
REMARK    7  A    between atoms: C24_26  and  O4_28 
REMARK    8  A    between atoms: C35_39  and  O5_40 
REMARK    9  A    between atoms: C36_42  and  O6_43 
ROOT
HETATM    1  C6  UNL     1      -6.244 -14.174  21.848  1.00  0.00     0.052 C 
HETATM    2  C7  UNL     1      -6.589 -12.885  22.510  1.00  0.00     0.021 C 
HETATM    3  C8  UNL     1      -5.576 -11.787  22.332  1.00  0.00     0.010 C 
HETATM    4  C9  UNL     1      -4.292 -12.367  22.894  1.00  0.00    -0.047 C 
HETATM    5  C10 UNL     1      -4.396 -12.810  24.306  1.00  0.00     0.015 C 
HETATM    6  C11 UNL     1      -3.266 -11.229  22.842  1.00  0.00     0.015 C 
HETATM    7  C12 UNL     1      -3.833 -13.405  21.926  1.00  0.00     0.015 C 
HETATM    8  C13 UNL     1      -4.834 -14.447  21.514  1.00  0.00     0.012 C 
HETATM    9  C14 UNL     1      -4.531 -14.795  20.085  1.00  0.00     0.038 C 
HETATM   10  C15 UNL     1      -5.591 -15.483  19.321  1.00  0.00    -0.027 C 
HETATM   11  C16 UNL     1      -5.939 -14.880  17.950  1.00  0.00     0.016 C 
HETATM   12  C17 UNL     1      -6.881 -15.657  20.070  1.00  0.00     0.012 C 
HETATM   13  C18 UNL     1      -7.167 -14.248  20.615  1.00  0.00     0.021 C 
HETATM   14  C19 UNL     1      -4.679 -16.671  19.230  1.00  0.00    -0.002 C 
HETATM   15  C20 UNL     1      -5.286 -17.824  20.043  1.00  0.00     0.019 C 
HETATM   16  C21 UNL     1      -4.411 -17.208  17.859  1.00  0.00     0.014 C 
HETATM   17  C22 UNL     1      -3.205 -18.109  17.982  1.00  0.00     0.021 C 
HETATM   18  C23 UNL     1      -2.046 -17.392  17.405  1.00  0.00     0.055 C 
HETATM   19  C26 UNL     1      -0.952 -18.411  17.057  1.00  0.00     0.020 C 
HETATM   20  C27 UNL     1       0.253 -17.504  16.742  1.00  0.00     0.007 C 
HETATM   21  C28 UNL     1       0.863 -17.217  18.050  1.00  0.00     0.003 A 
HETATM   22  C29 UNL     1       1.092 -15.955  18.699  1.00  0.00    -0.035 A 
HETATM   23  C30 UNL     1       1.082 -14.711  17.849  1.00  0.00     0.016 C 
HETATM   24  C31 UNL     1       2.096 -15.886  19.838  1.00  0.00     0.016 C 
HETATM   25  C32 UNL     1      -0.201 -16.699  18.989  1.00  0.00    -0.025 A 
HETATM   26  C33 UNL     1      -0.246 -17.422  20.293  1.00  0.00     0.017 C 
HETATM   27  C34 UNL     1      -1.484 -16.304  18.272  1.00  0.00     0.045 C 
HETATM   28  C35 UNL     1      -2.423 -15.485  19.035  1.00  0.00     0.159 C 
HETATM   29  C36 UNL     1      -3.536 -15.955  19.855  1.00  0.00     0.097 C 
ENDROOT
BRANCH   1  30
HETATM   30  C5  UNL     1      -6.826 -15.231  22.769  1.00  0.00     0.268 C 
HETATM   31  O2  UNL     1      -8.056 -15.486  22.749  1.00  0.00    -0.264 OA
BRANCH  30  32
HETATM   32  O1  UNL     1      -6.044 -15.941  23.646  1.00  0.00    -0.321 OA
BRANCH  32  33
HETATM   33  C4  UNL     1      -5.987 -17.350  23.539  1.00  0.00     0.178 C 
BRANCH  33  34
HETATM   34  C3  UNL     1      -4.600 -17.767  23.983  1.00  0.00     0.026 C 
BRANCH  34  35
HETATM   35  C2  UNL     1      -3.749 -16.568  24.358  1.00  0.00    -0.002 C 
HETATM   36  C1  UNL     1      -2.302 -17.028  24.345  1.00  0.00     0.005 C 
ENDBRANCH  34  35
ENDBRANCH  33  34
ENDBRANCH  32  33
ENDBRANCH  30  32
ENDBRANCH   1  30
BRANCH  29  37
HETATM   37  O6  UNL     1      -3.233 -16.605  21.061  1.00  0.00    -0.386 OA
ATOM     38  H6  UNL     1      -3.878 -17.273  21.260  1.00  0.00     0.210 HD
ENDBRANCH  29  37
BRANCH  28  39
HETATM   39  O5  UNL     1      -1.609 -14.731  19.932  1.00  0.00    -0.392 OA
ATOM     40  H5  UNL     1      -0.767 -15.171  19.927  1.00  0.00     0.210 HD
ENDBRANCH  28  39
BRANCH  18  41
HETATM   41  C24 UNL     1      -2.465 -16.886  16.051  1.00  0.00     0.267 C 
HETATM   42  O3  UNL     1      -2.891 -15.720  15.855  1.00  0.00    -0.264 OA
BRANCH  41  43
HETATM   43  O4  UNL     1      -2.383 -17.735  14.961  1.00  0.00    -0.326 OA
HETATM   44  C25 UNL     1      -3.340 -17.710  13.905  1.00  0.00     0.213 C 
ENDBRANCH  41  43
ENDBRANCH  18  41
TORSDOF 9
ENDMDL
