MODEL 1
REMARK VINA RESULT: -8.071347662      0.000      0.000
REMARK  1 active torsions:
REMARK  status: ('A' for Active; 'I' for Inactive)
REMARK    1  A    between atoms: C2_2  and  C3_3 
ROOT
HETATM    1  C3  UNL     1      53.079 -43.908  -9.505  1.00  0.00     0.261 C 
HETATM    2  O1  UNL     1      52.929 -43.453  -8.245  1.00  0.00    -0.350 OA
HETATM    3  C4  UNL     1      51.838 -43.850  -7.532  1.00  0.00     0.066 C 
HETATM    4  C5  UNL     1      51.898 -43.033  -6.220  1.00  0.00     0.046 C 
HETATM    5  C6  UNL     1      51.883 -45.271  -7.052  1.00  0.00     0.041 C 
HETATM    6  C7  UNL     1      51.410 -46.294  -7.986  1.00  0.00     0.038 C 
HETATM    7  C8  UNL     1      50.404 -45.884  -8.992  1.00  0.00     0.155 C 
HETATM    8  O2  UNL     1      49.233 -45.390  -8.475  1.00  0.00    -0.382 OA
HETATM    9  C9  UNL     1      49.404 -44.345  -7.593  1.00  0.00     0.176 C 
HETATM   10  C10 UNL     1      50.515 -43.457  -8.129  1.00  0.00     0.047 C 
HETATM   11  C11 UNL     1      50.477 -43.561  -9.626  1.00  0.00     0.050 C 
HETATM   12  C12 UNL     1      51.041 -44.908  -9.994  1.00  0.00     0.087 C 
HETATM   13  C13 UNL     1      50.599 -45.219 -11.408  1.00  0.00     0.049 C 
HETATM   14  O3  UNL     1      52.391 -45.016  -9.875  1.00  0.00    -0.348 OA
ENDROOT
BRANCH   1  15
HETATM   15  C2  UNL     1      54.573 -44.212  -9.713  1.00  0.00     0.056 C 
HETATM   16  C1  UNL     1      55.386 -42.961  -9.445  1.00  0.00     0.010 C 
ENDBRANCH   1  15
TORSDOF 1
ENDMDL
MODEL 2
REMARK VINA RESULT: -7.934468929      0.984      3.028
REMARK  1 active torsions:
REMARK  status: ('A' for Active; 'I' for Inactive)
REMARK    1  A    between atoms: C2_2  and  C3_3 
ROOT
HETATM    1  C3  UNL     1      53.484 -44.991  -9.118  1.00  0.00     0.261 C 
HETATM    2  O1  UNL     1      52.527 -44.919 -10.065  1.00  0.00    -0.350 OA
HETATM    3  C4  UNL     1      51.274 -44.529  -9.701  1.00  0.00     0.066 C 
HETATM    4  C5  UNL     1      50.412 -44.708 -10.973  1.00  0.00     0.046 C 
HETATM    5  C6  UNL     1      51.134 -43.066  -9.395  1.00  0.00     0.041 C 
HETATM    6  C7  UNL     1      51.458 -42.646  -8.031  1.00  0.00     0.038 C 
HETATM    7  C8  UNL     1      51.286 -43.647  -6.953  1.00  0.00     0.155 C 
HETATM    8  O2  UNL     1      50.015 -44.143  -6.818  1.00  0.00    -0.382 OA
HETATM    9  C9  UNL     1      49.490 -44.673  -7.977  1.00  0.00     0.176 C 
HETATM   10  C10 UNL     1      50.601 -45.421  -8.694  1.00  0.00     0.047 C 
HETATM   11  C11 UNL     1      51.532 -45.943  -7.638  1.00  0.00     0.050 C 
HETATM   12  C12 UNL     1      52.322 -44.770  -7.120  1.00  0.00     0.087 C 
HETATM   13  C13 UNL     1      52.909 -45.169  -5.783  1.00  0.00     0.049 C 
HETATM   14  O3  UNL     1      53.292 -44.318  -7.958  1.00  0.00    -0.348 OA
ENDROOT
BRANCH   1  15
HETATM   15  C2  UNL     1      54.790 -44.464  -9.737  1.00  0.00     0.056 C 
HETATM   16  C1  UNL     1      54.904 -42.973  -9.488  1.00  0.00     0.010 C 
ENDBRANCH   1  15
TORSDOF 1
ENDMDL
MODEL 3
REMARK VINA RESULT: -7.904968025      0.947      3.057
REMARK  1 active torsions:
REMARK  status: ('A' for Active; 'I' for Inactive)
REMARK    1  A    between atoms: C2_2  and  C3_3 
ROOT
HETATM    1  C3  UNL     1      53.300 -43.866  -8.729  1.00  0.00     0.261 C 
HETATM    2  O1  UNL     1      53.218 -44.669  -9.810  1.00  0.00    -0.350 OA
HETATM    3  C4  UNL     1      52.014 -45.222 -10.124  1.00  0.00     0.066 C 
HETATM    4  C5  UNL     1      52.310 -46.189 -11.295  1.00  0.00     0.046 C 
HETATM    5  C6  UNL     1      51.017 -44.266 -10.714  1.00  0.00     0.041 C 
HETATM    6  C7  UNL     1      50.206 -43.499  -9.768  1.00  0.00     0.038 C 
HETATM    7  C8  UNL     1      49.955 -44.103  -8.439  1.00  0.00     0.155 C 
HETATM    8  O2  UNL     1      49.315 -45.316  -8.464  1.00  0.00    -0.382 OA
HETATM    9  C9  UNL     1      49.933 -46.263  -9.253  1.00  0.00     0.176 C 
HETATM   10  C10 UNL     1      51.434 -46.120  -9.067  1.00  0.00     0.047 C 
HETATM   11  C11 UNL     1      51.658 -45.623  -7.668  1.00  0.00     0.050 C 
HETATM   12  C12 UNL     1      51.269 -44.168  -7.644  1.00  0.00     0.087 C 
HETATM   13  C13 UNL     1      51.047 -43.777  -6.199  1.00  0.00     0.049 C 
HETATM   14  O3  UNL     1      52.156 -43.328  -8.241  1.00  0.00    -0.348 OA
ENDROOT
BRANCH   1  15
HETATM   15  C2  UNL     1      54.233 -42.697  -9.089  1.00  0.00     0.056 C 
HETATM   16  C1  UNL     1      55.570 -43.241  -9.552  1.00  0.00     0.010 C 
ENDBRANCH   1  15
TORSDOF 1
ENDMDL
MODEL 4
REMARK VINA RESULT: -7.857354608      1.559      3.756
REMARK  1 active torsions:
REMARK  status: ('A' for Active; 'I' for Inactive)
REMARK    1  A    between atoms: C2_2  and  C3_3 
ROOT
HETATM    1  C3  UNL     1      50.785 -45.214  -7.976  1.00  0.00     0.261 C 
HETATM    2  O1  UNL     1      51.991 -44.701  -8.292  1.00  0.00    -0.350 OA
HETATM    3  C4  UNL     1      52.454 -44.853  -9.564  1.00  0.00     0.066 C 
HETATM    4  C5  UNL     1      53.898 -44.301  -9.534  1.00  0.00     0.046 C 
HETATM    5  C6  UNL     1      51.778 -43.988 -10.587  1.00  0.00     0.041 C 
HETATM    6  C7  UNL     1      50.543 -44.508 -11.175  1.00  0.00     0.038 C 
HETATM    7  C8  UNL     1      50.383 -45.980 -11.228  1.00  0.00     0.155 C 
HETATM    8  O2  UNL     1      51.352 -46.644 -11.936  1.00  0.00    -0.382 OA
HETATM    9  C9  UNL     1      52.638 -46.371 -11.523  1.00  0.00     0.176 C 
HETATM   10  C10 UNL     1      52.633 -46.279 -10.006  1.00  0.00     0.047 C 
HETATM   11  C11 UNL     1      51.555 -47.201  -9.514  1.00  0.00     0.050 C 
HETATM   12  C12 UNL     1      50.235 -46.537  -9.803  1.00  0.00     0.087 C 
HETATM   13  C13 UNL     1      49.163 -47.605  -9.748  1.00  0.00     0.049 C 
HETATM   14  O3  UNL     1      49.924 -45.498  -8.983  1.00  0.00    -0.348 OA
ENDROOT
BRANCH   1  15
HETATM   15  C2  UNL     1      50.082 -44.207  -7.049  1.00  0.00     0.056 C 
HETATM   16  C1  UNL     1      51.032 -43.785  -5.946  1.00  0.00     0.010 C 
ENDBRANCH   1  15
TORSDOF 1
ENDMDL
MODEL 5
REMARK VINA RESULT: -7.768525013      1.496      3.884
REMARK  1 active torsions:
REMARK  status: ('A' for Active; 'I' for Inactive)
REMARK    1  A    between atoms: C2_2  and  C3_3 
ROOT
HETATM    1  C3  UNL     1      50.169 -45.869  -8.765  1.00  0.00     0.261 C 
HETATM    2  O1  UNL     1      49.944 -44.788  -9.539  1.00  0.00    -0.350 OA
HETATM    3  C4  UNL     1      50.772 -43.713  -9.418  1.00  0.00     0.066 C 
HETATM    4  C5  UNL     1      50.144 -42.620 -10.314  1.00  0.00     0.046 C 
HETATM    5  C6  UNL     1      52.138 -43.900 -10.012  1.00  0.00     0.041 C 
HETATM    6  C7  UNL     1      53.144 -44.534  -9.158  1.00  0.00     0.038 C 
HETATM    7  C8  UNL     1      52.989 -44.377  -7.694  1.00  0.00     0.155 C 
HETATM    8  O2  UNL     1      52.992 -43.081  -7.245  1.00  0.00    -0.382 OA
HETATM    9  C9  UNL     1      52.062 -42.270  -7.860  1.00  0.00     0.176 C 
HETATM   10  C10 UNL     1      50.791 -43.079  -8.054  1.00  0.00     0.047 C 
HETATM   11  C11 UNL     1      50.725 -44.071  -6.930  1.00  0.00     0.050 C 
HETATM   12  C12 UNL     1      51.743 -45.142  -7.220  1.00  0.00     0.087 C 
HETATM   13  C13 UNL     1      52.019 -45.875  -5.924  1.00  0.00     0.049 C 
HETATM   14  O3  UNL     1      51.394 -46.014  -8.203  1.00  0.00    -0.348 OA
ENDROOT
BRANCH   1  15
HETATM   15  C2  UNL     1      49.915 -47.118  -9.626  1.00  0.00     0.056 C 
HETATM   16  C1  UNL     1      50.963 -48.168  -9.317  1.00  0.00     0.010 C 
ENDBRANCH   1  15
TORSDOF 1
ENDMDL
