MODEL 1
REMARK VINA RESULT: -8.013685717      0.000      0.000
REMARK  1 active torsions:
REMARK  status: ('A' for Active; 'I' for Inactive)
REMARK    1  A    between atoms: C6_6  and  C7_7 
ROOT
HETATM    1  C1  UNL     1      51.886 -49.205 -11.686  1.00  0.00     0.077 C 
HETATM    2  C2  UNL     1      51.668 -47.977 -10.846  1.00  0.00     0.054 A 
HETATM    3  C3  UNL     1      52.687 -47.073 -10.677  1.00  0.00     0.045 A 
HETATM    4  C4  UNL     1      52.483 -45.952  -9.908  1.00  0.00    -0.016 A 
HETATM    5  C5  UNL     1      53.483 -45.051  -9.744  1.00  0.00     0.027 A 
HETATM    6  C6  UNL     1      53.294 -43.897  -8.973  1.00  0.00     0.009 A 
HETATM    7  C8  UNL     1      52.038 -43.717  -8.385  1.00  0.00    -0.042 A 
HETATM    8  C9  UNL     1      51.812 -42.450  -7.609  1.00  0.00     0.049 C 
HETATM    9  C10 UNL     1      50.993 -44.606  -8.521  1.00  0.00    -0.038 A 
HETATM   10  C11 UNL     1      49.673 -44.475  -7.879  1.00  0.00     0.050 C 
HETATM   11  C12 UNL     1      51.259 -45.746  -9.314  1.00  0.00     0.056 A 
HETATM   12  C13 UNL     1      50.289 -46.673  -9.517  1.00  0.00     0.299 A 
HETATM   13  O2  UNL     1      49.152 -46.590  -9.036  1.00  0.00    -0.259 OA
HETATM   14  O3  UNL     1      50.525 -47.750 -10.271  1.00  0.00    -0.280 OA
ENDROOT
BRANCH   6  15
HETATM   15  C7  UNL     1      54.388 -42.990  -8.789  1.00  0.00     0.270 C 
HETATM   16  O1  UNL     1      55.068 -42.542  -9.708  1.00  0.00    -0.301 OA
ENDBRANCH   6  15
TORSDOF 1
ENDMDL
MODEL 2
REMARK VINA RESULT: -7.999163182      4.096      5.795
REMARK  1 active torsions:
REMARK  status: ('A' for Active; 'I' for Inactive)
REMARK    1  A    between atoms: C6_6  and  C7_7 
ROOT
HETATM    1  C1  UNL     1      50.148 -42.998  -9.333  1.00  0.00     0.077 C 
HETATM    2  C2  UNL     1      50.846 -43.659  -8.176  1.00  0.00     0.054 A 
HETATM    3  C3  UNL     1      50.212 -43.766  -6.964  1.00  0.00     0.045 A 
HETATM    4  C4  UNL     1      50.855 -44.371  -5.910  1.00  0.00    -0.016 A 
HETATM    5  C5  UNL     1      50.231 -44.487  -4.712  1.00  0.00     0.027 A 
HETATM    6  C6  UNL     1      50.863 -45.108  -3.627  1.00  0.00     0.009 A 
HETATM    7  C8  UNL     1      52.156 -45.599  -3.834  1.00  0.00    -0.042 A 
HETATM    8  C9  UNL     1      52.813 -46.321  -2.691  1.00  0.00     0.049 C 
HETATM    9  C10 UNL     1      52.831 -45.501  -5.032  1.00  0.00    -0.038 A 
HETATM   10  C11 UNL     1      54.210 -45.962  -5.274  1.00  0.00     0.050 C 
HETATM   11  C12 UNL     1      52.128 -44.862  -6.079  1.00  0.00     0.056 A 
HETATM   12  C13 UNL     1      52.705 -44.728  -7.301  1.00  0.00     0.299 A 
HETATM   13  O2  UNL     1      53.843 -45.135  -7.568  1.00  0.00    -0.259 OA
HETATM   14  O3  UNL     1      52.049 -44.135  -8.301  1.00  0.00    -0.280 OA
ENDROOT
BRANCH   6  15
HETATM   15  C7  UNL     1      50.187 -45.175  -2.366  1.00  0.00     0.270 C 
HETATM   16  O1  UNL     1      50.091 -44.228  -1.589  1.00  0.00    -0.301 OA
ENDBRANCH   6  15
TORSDOF 1
ENDMDL
MODEL 3
REMARK VINA RESULT: -7.870405779      1.132      1.417
REMARK  1 active torsions:
REMARK  status: ('A' for Active; 'I' for Inactive)
REMARK    1  A    between atoms: C6_6  and  C7_7 
ROOT
HETATM    1  C1  UNL     1      54.031 -49.679 -12.063  1.00  0.00     0.077 C 
HETATM    2  C2  UNL     1      53.407 -48.536 -11.312  1.00  0.00     0.054 A 
HETATM    3  C3  UNL     1      54.165 -47.443 -10.971  1.00  0.00     0.045 A 
HETATM    4  C4  UNL     1      53.589 -46.401 -10.285  1.00  0.00    -0.016 A 
HETATM    5  C5  UNL     1      54.331 -45.316  -9.953  1.00  0.00     0.027 A 
HETATM    6  C6  UNL     1      53.763 -44.238  -9.262  1.00  0.00     0.009 A 
HETATM    7  C8  UNL     1      52.406 -44.331  -8.933  1.00  0.00    -0.042 A 
HETATM    8  C9  UNL     1      51.778 -43.150  -8.247  1.00  0.00     0.049 C 
HETATM    9  C10 UNL     1      51.614 -45.415  -9.246  1.00  0.00    -0.038 A 
HETATM   10  C11 UNL     1      50.196 -45.570  -8.874  1.00  0.00     0.050 C 
HETATM   11  C12 UNL     1      52.258 -46.462  -9.944  1.00  0.00     0.056 A 
HETATM   12  C13 UNL     1      51.558 -47.567 -10.307  1.00  0.00     0.299 A 
HETATM   13  O2  UNL     1      50.356 -47.728 -10.057  1.00  0.00    -0.259 OA
HETATM   14  O3  UNL     1      52.151 -48.560 -10.974  1.00  0.00    -0.280 OA
ENDROOT
BRANCH   6  15
HETATM   15  C7  UNL     1      54.589 -43.127  -8.893  1.00  0.00     0.270 C 
HETATM   16  O1  UNL     1      55.149 -42.392  -9.702  1.00  0.00    -0.301 OA
ENDBRANCH   6  15
TORSDOF 1
ENDMDL
MODEL 4
REMARK VINA RESULT: -7.692513247      1.818      5.506
REMARK  1 active torsions:
REMARK  status: ('A' for Active; 'I' for Inactive)
REMARK    1  A    between atoms: C6_6  and  C7_7 
ROOT
HETATM    1  C1  UNL     1      54.948 -43.056  -9.391  1.00  0.00     0.077 C 
HETATM    2  C2  UNL     1      54.362 -44.385  -9.778  1.00  0.00     0.054 A 
HETATM    3  C3  UNL     1      53.001 -44.562  -9.774  1.00  0.00     0.045 A 
HETATM    4  C4  UNL     1      52.471 -45.780 -10.129  1.00  0.00    -0.016 A 
HETATM    5  C5  UNL     1      51.127 -45.958 -10.135  1.00  0.00     0.027 A 
HETATM    6  C6  UNL     1      50.565 -47.187 -10.502  1.00  0.00     0.009 A 
HETATM    7  C8  UNL     1      51.445 -48.214 -10.859  1.00  0.00    -0.042 A 
HETATM    8  C9  UNL     1      50.844 -49.515 -11.313  1.00  0.00     0.049 C 
HETATM    9  C10 UNL     1      52.817 -48.081 -10.865  1.00  0.00    -0.038 A 
HETATM   10  C11 UNL     1      53.777 -49.152 -11.188  1.00  0.00     0.050 C 
HETATM   11  C12 UNL     1      53.310 -46.811 -10.484  1.00  0.00     0.056 A 
HETATM   12  C13 UNL     1      54.647 -46.578 -10.469  1.00  0.00     0.299 A 
HETATM   13  O2  UNL     1      55.492 -47.429 -10.772  1.00  0.00    -0.259 OA
HETATM   14  O3  UNL     1      55.125 -45.381 -10.120  1.00  0.00    -0.280 OA
ENDROOT
BRANCH   6  15
HETATM   15  C7  UNL     1      49.142 -47.350 -10.456  1.00  0.00     0.270 C 
HETATM   16  O1  UNL     1      48.511 -47.568  -9.425  1.00  0.00    -0.301 OA
ENDBRANCH   6  15
TORSDOF 1
ENDMDL
MODEL 5
REMARK VINA RESULT: -7.651984506      1.803      2.418
REMARK  1 active torsions:
REMARK  status: ('A' for Active; 'I' for Inactive)
REMARK    1  A    between atoms: C6_6  and  C7_7 
ROOT
HETATM    1  C1  UNL     1      54.806 -49.916 -12.427  1.00  0.00     0.077 C 
HETATM    2  C2  UNL     1      54.004 -48.725 -11.984  1.00  0.00     0.054 A 
HETATM    3  C3  UNL     1      54.607 -47.718 -11.272  1.00  0.00     0.045 A 
HETATM    4  C4  UNL     1      53.869 -46.631 -10.869  1.00  0.00    -0.016 A 
HETATM    5  C5  UNL     1      54.461 -45.630 -10.172  1.00  0.00     0.027 A 
HETATM    6  C6  UNL     1      53.731 -44.508  -9.760  1.00  0.00     0.009 A 
HETATM    7  C8  UNL     1      52.374 -44.467 -10.097  1.00  0.00    -0.042 A 
HETATM    8  C9  UNL     1      51.601 -43.237  -9.711  1.00  0.00     0.049 C 
HETATM    9  C10 UNL     1      51.728 -45.462 -10.800  1.00  0.00    -0.038 A 
HETATM   10  C11 UNL     1      50.292 -45.478 -11.132  1.00  0.00     0.050 C 
HETATM   11  C12 UNL     1      52.531 -46.561 -11.183  1.00  0.00     0.056 A 
HETATM   12  C13 UNL     1      51.989 -47.585 -11.889  1.00  0.00     0.299 A 
HETATM   13  O2  UNL     1      50.800 -47.627 -12.229  1.00  0.00    -0.259 OA
HETATM   14  O3  UNL     1      52.738 -48.626 -12.264  1.00  0.00    -0.280 OA
ENDROOT
BRANCH   6  15
HETATM   15  C7  UNL     1      54.382 -43.491  -8.990  1.00  0.00     0.270 C 
HETATM   16  O1  UNL     1      55.015 -42.560  -9.482  1.00  0.00    -0.301 OA
ENDBRANCH   6  15
TORSDOF 1
ENDMDL
