MODEL 1
REMARK VINA RESULT: -8.777029593      0.000      0.000
REMARK  1 active torsions:
REMARK  status: ('A' for Active; 'I' for Inactive)
REMARK    1  A    between atoms: C2_2  and  C4_4 
ROOT
HETATM    1  C4  UNL     1      51.866 -43.589  -5.975  1.00  0.00     0.169 C 
HETATM    2  O1  UNL     1      50.799 -43.678  -5.052  1.00  0.00    -0.334 OA
HETATM    3  C5  UNL     1      51.106 -44.682  -4.131  1.00  0.00     0.152 A 
HETATM    4  C6  UNL     1      52.034 -45.521  -4.684  1.00  0.00    -0.005 A 
HETATM    5  C7  UNL     1      52.523 -46.622  -3.973  1.00  0.00     0.043 A 
HETATM    6  C8  UNL     1      52.017 -46.809  -2.695  1.00  0.00     0.054 A 
HETATM    7  C9  UNL     1      52.508 -47.970  -1.900  1.00  0.00     0.077 C 
HETATM    8  O2  UNL     1      51.133 -45.998  -2.189  1.00  0.00    -0.278 OA
HETATM    9  C10 UNL     1      50.666 -44.952  -2.857  1.00  0.00     0.322 A 
HETATM   10  O3  UNL     1      49.816 -44.226  -2.290  1.00  0.00    -0.257 OA
HETATM   11  C11 UNL     1      52.336 -45.012  -6.049  1.00  0.00     0.013 C 
HETATM   12  C12 UNL     1      51.529 -45.856  -7.004  1.00  0.00     0.023 C 
HETATM   13  C13 UNL     1      53.816 -45.144  -6.271  1.00  0.00     0.023 C 
ENDROOT
BRANCH   1  14
HETATM   14  C2  UNL     1      51.390 -43.061  -7.274  1.00  0.00    -0.063 C 
HETATM   15  C1  UNL     1      52.159 -42.186  -7.904  1.00  0.00     0.016 C 
HETATM   16  C3  UNL     1      50.116 -43.453  -7.903  1.00  0.00     0.045 C 
ENDBRANCH   1  14
TORSDOF 1
ENDMDL
MODEL 2
REMARK VINA RESULT: -8.602637653      1.890      2.983
REMARK  1 active torsions:
REMARK  status: ('A' for Active; 'I' for Inactive)
REMARK    1  A    between atoms: C2_2  and  C4_4 
ROOT
HETATM    1  C4  UNL     1      52.106 -45.108  -7.739  1.00  0.00     0.169 C 
HETATM    2  O1  UNL     1      53.098 -45.451  -6.792  1.00  0.00    -0.334 OA
HETATM    3  C5  UNL     1      52.512 -45.433  -5.525  1.00  0.00     0.152 A 
HETATM    4  C6  UNL     1      51.385 -44.658  -5.568  1.00  0.00    -0.005 A 
HETATM    5  C7  UNL     1      50.598 -44.466  -4.429  1.00  0.00     0.043 A 
HETATM    6  C8  UNL     1      51.023 -45.098  -3.269  1.00  0.00     0.054 A 
HETATM    7  C9  UNL     1      50.217 -44.920  -2.028  1.00  0.00     0.077 C 
HETATM    8  O2  UNL     1      52.100 -45.830  -3.249  1.00  0.00    -0.278 OA
HETATM    9  C10 UNL     1      52.850 -46.017  -4.327  1.00  0.00     0.322 A 
HETATM   10  O3  UNL     1      53.869 -46.738  -4.214  1.00  0.00    -0.257 OA
HETATM   11  C11 UNL     1      51.249 -44.152  -6.961  1.00  0.00     0.013 C 
HETATM   12  C12 UNL     1      51.786 -42.742  -6.954  1.00  0.00     0.023 C 
HETATM   13  C13 UNL     1      49.794 -44.214  -7.331  1.00  0.00     0.023 C 
ENDROOT
BRANCH   1  14
HETATM   14  C2  UNL     1      52.719 -44.499  -8.941  1.00  0.00    -0.063 C 
HETATM   15  C1  UNL     1      54.021 -44.255  -8.913  1.00  0.00     0.016 C 
HETATM   16  C3  UNL     1      51.968 -44.152 -10.161  1.00  0.00     0.045 C 
ENDBRANCH   1  14
TORSDOF 1
ENDMDL
MODEL 3
REMARK VINA RESULT: -8.190084081      1.984      5.273
REMARK  1 active torsions:
REMARK  status: ('A' for Active; 'I' for Inactive)
REMARK    1  A    between atoms: C2_2  and  C4_4 
ROOT
HETATM    1  C4  UNL     1      52.740 -45.821  -4.727  1.00  0.00     0.169 C 
HETATM    2  O1  UNL     1      52.122 -46.454  -5.829  1.00  0.00    -0.334 OA
HETATM    3  C5  UNL     1      51.715 -45.463  -6.725  1.00  0.00     0.152 A 
HETATM    4  C6  UNL     1      51.609 -44.275  -6.055  1.00  0.00    -0.005 A 
HETATM    5  C7  UNL     1      51.217 -43.108  -6.716  1.00  0.00     0.043 A 
HETATM    6  C8  UNL     1      50.945 -43.225  -8.072  1.00  0.00     0.054 A 
HETATM    7  C9  UNL     1      50.521 -42.006  -8.818  1.00  0.00     0.077 C 
HETATM    8  O2  UNL     1      51.051 -44.366  -8.690  1.00  0.00    -0.278 OA
HETATM    9  C10 UNL     1      51.423 -45.477  -8.069  1.00  0.00     0.322 A 
HETATM   10  O3  UNL     1      51.498 -46.530  -8.744  1.00  0.00    -0.257 OA
HETATM   11  C11 UNL     1      51.975 -44.533  -4.636  1.00  0.00     0.013 C 
HETATM   12  C12 UNL     1      50.675 -44.666  -3.881  1.00  0.00     0.023 C 
HETATM   13  C13 UNL     1      52.804 -43.375  -4.158  1.00  0.00     0.023 C 
ENDROOT
BRANCH   1  14
HETATM   14  C2  UNL     1      52.624 -46.658  -3.511  1.00  0.00    -0.063 C 
HETATM   15  C1  UNL     1      53.458 -46.414  -2.511  1.00  0.00     0.016 C 
HETATM   16  C3  UNL     1      51.638 -47.742  -3.350  1.00  0.00     0.045 C 
ENDBRANCH   1  14
TORSDOF 1
ENDMDL
MODEL 4
REMARK VINA RESULT: -8.137016467      1.853      2.801
REMARK  1 active torsions:
REMARK  status: ('A' for Active; 'I' for Inactive)
REMARK    1  A    between atoms: C2_2  and  C4_4 
ROOT
HETATM    1  C4  UNL     1      51.673 -43.473  -8.586  1.00  0.00     0.169 C 
HETATM    2  O1  UNL     1      51.696 -42.667  -7.425  1.00  0.00    -0.334 OA
HETATM    3  C5  UNL     1      52.017 -43.483  -6.338  1.00  0.00     0.152 A 
HETATM    4  C6  UNL     1      51.731 -44.782  -6.658  1.00  0.00    -0.005 A 
HETATM    5  C7  UNL     1      51.959 -45.815  -5.745  1.00  0.00     0.043 A 
HETATM    6  C8  UNL     1      52.482 -45.450  -4.513  1.00  0.00     0.054 A 
HETATM    7  C9  UNL     1      52.739 -46.519  -3.507  1.00  0.00     0.077 C 
HETATM    8  O2  UNL     1      52.746 -44.207  -4.229  1.00  0.00    -0.278 OA
HETATM    9  C10 UNL     1      52.533 -43.222  -5.090  1.00  0.00     0.322 A 
HETATM   10  O3  UNL     1      52.817 -42.056  -4.730  1.00  0.00    -0.257 OA
HETATM   11  C11 UNL     1      51.192 -44.788  -8.046  1.00  0.00     0.013 C 
HETATM   12  C12 UNL     1      49.691 -44.864  -7.916  1.00  0.00     0.023 C 
HETATM   13  C13 UNL     1      51.771 -45.977  -8.757  1.00  0.00     0.023 C 
ENDROOT
BRANCH   1  14
HETATM   14  C2  UNL     1      50.770 -42.894  -9.607  1.00  0.00    -0.063 C 
HETATM   15  C1  UNL     1      50.812 -43.403 -10.829  1.00  0.00     0.016 C 
HETATM   16  C3  UNL     1      49.831 -41.789  -9.341  1.00  0.00     0.045 C 
ENDBRANCH   1  14
TORSDOF 1
ENDMDL
MODEL 5
REMARK VINA RESULT: -7.858259932      2.887      5.518
REMARK  1 active torsions:
REMARK  status: ('A' for Active; 'I' for Inactive)
REMARK    1  A    between atoms: C2_2  and  C4_4 
ROOT
HETATM    1  C4  UNL     1      51.912 -43.119  -5.888  1.00  0.00     0.169 C 
HETATM    2  O1  UNL     1      53.136 -42.978  -6.582  1.00  0.00    -0.334 OA
HETATM    3  C5  UNL     1      52.966 -43.493  -7.868  1.00  0.00     0.152 A 
HETATM    4  C6  UNL     1      51.902 -44.353  -7.865  1.00  0.00    -0.005 A 
HETATM    5  C7  UNL     1      51.507 -45.015  -9.032  1.00  0.00     0.043 A 
HETATM    6  C8  UNL     1      52.249 -44.751 -10.175  1.00  0.00     0.054 A 
HETATM    7  C9  UNL     1      51.865 -45.435 -11.442  1.00  0.00     0.077 C 
HETATM    8  O2  UNL     1      53.258 -43.929 -10.155  1.00  0.00    -0.278 OA
HETATM    9  C10 UNL     1      53.637 -43.298  -9.053  1.00  0.00     0.322 A 
HETATM   10  O3  UNL     1      54.621 -42.525  -9.128  1.00  0.00    -0.257 OA
HETATM   11  C11 UNL     1      51.361 -44.383  -6.479  1.00  0.00     0.013 C 
HETATM   12  C12 UNL     1      51.915 -45.631  -5.836  1.00  0.00     0.023 C 
HETATM   13  C13 UNL     1      49.862 -44.399  -6.572  1.00  0.00     0.023 C 
ENDROOT
BRANCH   1  14
HETATM   14  C2  UNL     1      52.146 -43.208  -4.429  1.00  0.00    -0.063 C 
HETATM   15  C1  UNL     1      53.244 -42.649  -3.944  1.00  0.00     0.016 C 
HETATM   16  C3  UNL     1      51.230 -43.880  -3.489  1.00  0.00     0.045 C 
ENDBRANCH   1  14
TORSDOF 1
ENDMDL
