MODEL 1
REMARK VINA RESULT: -6.696079305      0.000      0.000
REMARK  5 active torsions:
REMARK  status: ('A' for Active; 'I' for Inactive)
REMARK    1  A    between atoms: C5_6  and  O2_7 
REMARK    2  A    between atoms: C8_13  and  N2_14 
REMARK    3  A    between atoms: C9_17  and  O3_18 
REMARK    4  A    between atoms: C12_23  and  C13_24 
REMARK    5  A    between atoms: N3_25  and  O4_27 
ROOT
HETATM    1  C1  UNL     1       8.316  24.027  23.858  1.00  0.00     0.036 C 
HETATM    2  C2  UNL     1       7.334  25.095  24.011  1.00  0.00    -0.020 C 
HETATM    3  C3  UNL     1       6.744  25.584  25.047  1.00  0.00    -0.017 C 
HETATM    4  C4  UNL     1       5.764  26.703  24.896  1.00  0.00     0.112 A 
HETATM    5  O1  UNL     1       4.806  26.856  24.027  1.00  0.00    -0.285 OA
HETATM    6  C5  UNL     1       4.121  27.975  24.259  1.00  0.00     0.197 A 
HETATM    7  C6  UNL     1       4.723  28.533  25.365  1.00  0.00     0.081 A 
HETATM    8  C7  UNL     1       5.751  27.795  25.774  1.00  0.00     0.081 A 
HETATM    9  N1  UNL     1       6.037  28.786  26.791  1.00  0.00    -0.354 N 
ATOM     10  H1  UNL     1       6.819  28.960  27.422  1.00  0.00     0.162 HD
HETATM   11  C8  UNL     1       4.777  29.421  26.550  1.00  0.00     0.170 C 
HETATM   12  C9  UNL     1       3.781  28.790  27.613  1.00  0.00     0.233 C 
HETATM   13  S1  UNL     1       3.772  27.016  27.504  1.00  0.00    -0.133 SA
HETATM   14  C10 UNL     1       5.191  26.111  28.153  1.00  0.00     0.077 C 
HETATM   15  C11 UNL     1       5.570  25.027  27.194  1.00  0.00     0.025 C 
HETATM   16  C12 UNL     1       6.902  25.120  26.480  1.00  0.00     0.062 C 
ENDROOT
BRANCH  16  17
HETATM   17  C13 UNL     1       7.711  23.945  26.675  1.00  0.00     0.096 C 
HETATM   18  N3  UNL     1       7.627  23.186  27.747  1.00  0.00    -0.284 N 
ATOM     19  H3  UNL     1       6.955  23.449  28.468  1.00  0.00     0.192 HD
BRANCH  18  20
HETATM   20  O4  UNL     1       8.377  22.079  27.951  1.00  0.00    -0.291 OA
ATOM     21  H4  UNL     1       8.074  21.311  28.421  1.00  0.00     0.244 HD
ENDBRANCH  18  20
ENDBRANCH  16  17
BRANCH   6  22
HETATM   22  O2  UNL     1       3.037  28.431  23.513  1.00  0.00    -0.340 OA
ATOM     23  H2  UNL     1       2.151  28.093  23.562  1.00  0.00     0.220 HD
ENDBRANCH   6  22
BRANCH  12  24
HETATM   24  O3  UNL     1       4.199  29.218  28.841  1.00  0.00    -0.380 OA
ATOM     25  H3  UNL     1       3.420  29.306  29.378  1.00  0.00     0.211 HD
ENDBRANCH  12  24
BRANCH  11  26
HETATM   26  N2  UNL     1       4.636  30.785  26.463  1.00  0.00    -0.399 N 
ATOM     27  H22 UNL     1       5.399  31.313  26.039  1.00  0.00     0.152 HD
ATOM     28  H21 UNL     1       3.809  31.277  26.802  1.00  0.00     0.152 HD
ENDBRANCH  11  26
TORSDOF 5
ENDMDL
MODEL 2
REMARK VINA RESULT: -6.350477152      2.553      5.452
REMARK  5 active torsions:
REMARK  status: ('A' for Active; 'I' for Inactive)
REMARK    1  A    between atoms: C5_6  and  O2_7 
REMARK    2  A    between atoms: C8_13  and  N2_14 
REMARK    3  A    between atoms: C9_17  and  O3_18 
REMARK    4  A    between atoms: C12_23  and  C13_24 
REMARK    5  A    between atoms: N3_25  and  O4_27 
ROOT
HETATM    1  C1  UNL     1       4.585  28.148  23.436  1.00  0.00     0.036 C 
HETATM    2  C2  UNL     1       4.927  27.284  24.559  1.00  0.00    -0.020 C 
HETATM    3  C3  UNL     1       5.059  27.516  25.821  1.00  0.00    -0.017 C 
HETATM    4  C4  UNL     1       5.424  26.408  26.756  1.00  0.00     0.112 A 
HETATM    5  O1  UNL     1       6.323  25.475  26.627  1.00  0.00    -0.285 OA
HETATM    6  C5  UNL     1       6.370  24.702  27.711  1.00  0.00     0.197 A 
HETATM    7  C6  UNL     1       5.417  25.223  28.558  1.00  0.00     0.081 A 
HETATM    8  C7  UNL     1       4.797  26.259  28.001  1.00  0.00     0.081 A 
HETATM    9  N1  UNL     1       3.935  26.346  29.161  1.00  0.00    -0.354 N 
ATOM     10  H1  UNL     1       3.075  26.849  29.378  1.00  0.00     0.162 HD
HETATM   11  C8  UNL     1       4.780  25.441  29.878  1.00  0.00     0.170 C 
HETATM   12  C9  UNL     1       5.780  26.362  30.698  1.00  0.00     0.233 C 
HETATM   13  S1  UNL     1       6.622  27.502  29.625  1.00  0.00    -0.133 SA
HETATM   14  C10 UNL     1       5.700  28.912  28.980  1.00  0.00     0.077 C 
HETATM   15  C11 UNL     1       6.015  29.088  27.528  1.00  0.00     0.025 C 
HETATM   16  C12 UNL     1       4.917  28.857  26.511  1.00  0.00     0.062 C 
ENDROOT
BRANCH  16  17
HETATM   17  C13 UNL     1       4.722  29.991  25.648  1.00  0.00     0.096 C 
HETATM   18  N3  UNL     1       3.683  30.794  25.742  1.00  0.00    -0.284 N 
ATOM     19  H3  UNL     1       2.988  30.596  26.462  1.00  0.00     0.192 HD
BRANCH  18  20
HETATM   20  O4  UNL     1       3.478  31.865  24.941  1.00  0.00    -0.291 OA
ATOM     21  H4  UNL     1       2.790  32.506  25.076  1.00  0.00     0.244 HD
ENDBRANCH  18  20
ENDBRANCH  16  17
BRANCH   6  22
HETATM   22  O2  UNL     1       7.221  23.614  27.894  1.00  0.00    -0.340 OA
ATOM     23  H2  UNL     1       7.285  23.088  28.682  1.00  0.00     0.220 HD
ENDBRANCH   6  22
BRANCH  12  24
HETATM   24  O3  UNL     1       5.030  27.013  31.636  1.00  0.00    -0.380 OA
ATOM     25  H3  UNL     1       5.205  27.941  31.528  1.00  0.00     0.211 HD
ENDBRANCH  12  24
BRANCH  11  26
HETATM   26  N2  UNL     1       4.288  24.411  30.643  1.00  0.00    -0.399 N 
ATOM     27  H22 UNL     1       4.850  24.101  31.436  1.00  0.00     0.152 HD
ATOM     28  H21 UNL     1       3.396  23.956  30.448  1.00  0.00     0.152 HD
ENDBRANCH  11  26
TORSDOF 5
ENDMDL
MODEL 3
REMARK VINA RESULT: -6.299532559      1.911      2.386
REMARK  5 active torsions:
REMARK  status: ('A' for Active; 'I' for Inactive)
REMARK    1  A    between atoms: C5_6  and  O2_7 
REMARK    2  A    between atoms: C8_13  and  N2_14 
REMARK    3  A    between atoms: C9_17  and  O3_18 
REMARK    4  A    between atoms: C12_23  and  C13_24 
REMARK    5  A    between atoms: N3_25  and  O4_27 
ROOT
HETATM    1  C1  UNL     1       6.504  25.335  24.353  1.00  0.00     0.036 C 
HETATM    2  C2  UNL     1       6.073  26.670  24.753  1.00  0.00    -0.020 C 
HETATM    3  C3  UNL     1       5.827  27.189  25.907  1.00  0.00    -0.017 C 
HETATM    4  C4  UNL     1       5.394  28.616  26.013  1.00  0.00     0.112 A 
HETATM    5  O1  UNL     1       4.519  29.272  25.306  1.00  0.00    -0.285 OA
HETATM    6  C5  UNL     1       4.384  30.522  25.749  1.00  0.00     0.197 A 
HETATM    7  C6  UNL     1       5.252  30.613  26.814  1.00  0.00     0.081 A 
HETATM    8  C7  UNL     1       5.908  29.471  26.997  1.00  0.00     0.081 A 
HETATM    9  N1  UNL     1       6.663  30.094  28.064  1.00  0.00    -0.354 N 
ATOM     10  H1  UNL     1       7.496  29.840  28.596  1.00  0.00     0.162 HD
HETATM   11  C8  UNL     1       5.768  31.210  28.068  1.00  0.00     0.170 C 
HETATM   12  C9  UNL     1       4.690  30.877  29.185  1.00  0.00     0.233 C 
HETATM   13  S1  UNL     1       3.934  29.295  28.890  1.00  0.00    -0.133 SA
HETATM   14  C10 UNL     1       4.894  27.808  29.236  1.00  0.00     0.077 C 
HETATM   15  C11 UNL     1       4.708  26.826  28.123  1.00  0.00     0.025 C 
HETATM   16  C12 UNL     1       5.894  26.485  27.247  1.00  0.00     0.062 C 
ENDROOT
BRANCH  16  17
HETATM   17  C13 UNL     1       6.153  25.070  27.201  1.00  0.00     0.096 C 
HETATM   18  N3  UNL     1       7.008  24.471  28.003  1.00  0.00    -0.284 N 
ATOM     19  H3  UNL     1       7.506  25.043  28.685  1.00  0.00     0.192 HD
BRANCH  18  20
HETATM   20  O4  UNL     1       7.268  23.144  27.977  1.00  0.00    -0.291 OA
ATOM     21  H4  UNL     1       7.373  22.608  28.754  1.00  0.00     0.244 HD
ENDBRANCH  18  20
ENDBRANCH  16  17
BRANCH   6  22
HETATM   22  O2  UNL     1       3.532  31.484  25.212  1.00  0.00    -0.340 OA
ATOM     23  H2  UNL     1       3.753  32.091  24.516  1.00  0.00     0.220 HD
ENDBRANCH   6  22
BRANCH  12  24
HETATM   24  O3  UNL     1       5.347  30.905  30.382  1.00  0.00    -0.380 OA
ATOM     25  H3  UNL     1       4.718  30.641  31.044  1.00  0.00     0.211 HD
ENDBRANCH  12  24
BRANCH  11  26
HETATM   26  N2  UNL     1       6.201  32.512  28.148  1.00  0.00    -0.399 N 
ATOM     27  H22 UNL     1       7.182  32.697  27.939  1.00  0.00     0.152 HD
ATOM     28  H21 UNL     1       5.585  33.284  28.404  1.00  0.00     0.152 HD
ENDBRANCH  11  26
TORSDOF 5
ENDMDL
MODEL 4
REMARK VINA RESULT: -6.217834191      2.415      3.410
REMARK  5 active torsions:
REMARK  status: ('A' for Active; 'I' for Inactive)
REMARK    1  A    between atoms: C5_6  and  O2_7 
REMARK    2  A    between atoms: C8_13  and  N2_14 
REMARK    3  A    between atoms: C9_17  and  O3_18 
REMARK    4  A    between atoms: C12_23  and  C13_24 
REMARK    5  A    between atoms: N3_25  and  O4_27 
ROOT
HETATM    1  C1  UNL     1       4.799  27.505  22.403  1.00  0.00     0.036 C 
HETATM    2  C2  UNL     1       4.502  28.423  23.497  1.00  0.00    -0.020 C 
HETATM    3  C3  UNL     1       4.916  28.476  24.717  1.00  0.00    -0.017 C 
HETATM    4  C4  UNL     1       4.430  29.556  25.629  1.00  0.00     0.112 A 
HETATM    5  O1  UNL     1       3.224  30.015  25.804  1.00  0.00    -0.285 OA
HETATM    6  C5  UNL     1       3.199  30.954  26.749  1.00  0.00     0.197 A 
HETATM    7  C6  UNL     1       4.505  31.060  27.174  1.00  0.00     0.081 A 
HETATM    8  C7  UNL     1       5.297  30.234  26.496  1.00  0.00     0.081 A 
HETATM    9  N1  UNL     1       6.438  30.769  27.209  1.00  0.00    -0.354 N 
ATOM     10  H1  UNL     1       7.450  30.701  27.097  1.00  0.00     0.162 HD
HETATM   11  C8  UNL     1       5.570  31.433  28.133  1.00  0.00     0.170 C 
HETATM   12  C9  UNL     1       5.423  30.434  29.359  1.00  0.00     0.233 C 
HETATM   13  S1  UNL     1       4.875  28.833  28.814  1.00  0.00    -0.133 SA
HETATM   14  C10 UNL     1       6.055  27.767  27.963  1.00  0.00     0.077 C 
HETATM   15  C11 UNL     1       5.390  27.132  26.783  1.00  0.00     0.025 C 
HETATM   16  C12 UNL     1       5.861  27.505  25.393  1.00  0.00     0.062 C 
ENDROOT
BRANCH  16  17
HETATM   17  C13 UNL     1       6.242  26.355  24.617  1.00  0.00     0.096 C 
HETATM   18  N3  UNL     1       6.993  25.385  25.094  1.00  0.00    -0.284 N 
ATOM     19  H3  UNL     1       7.316  25.459  26.059  1.00  0.00     0.192 HD
BRANCH  18  20
HETATM   20  O4  UNL     1       7.365  24.295  24.383  1.00  0.00    -0.291 OA
ATOM     21  H4  UNL     1       8.266  24.022  24.260  1.00  0.00     0.244 HD
ENDBRANCH  18  20
ENDBRANCH  16  17
BRANCH   6  22
HETATM   22  O2  UNL     1       2.068  31.646  27.175  1.00  0.00    -0.340 OA
ATOM     23  H2  UNL     1       1.204  31.270  27.298  1.00  0.00     0.220 HD
ENDBRANCH   6  22
BRANCH  12  24
HETATM   24  O3  UNL     1       6.648  30.370  29.959  1.00  0.00    -0.380 OA
ATOM     25  H3  UNL     1       6.500  30.068  30.848  1.00  0.00     0.211 HD
ENDBRANCH  12  24
BRANCH  11  26
HETATM   26  N2  UNL     1       5.775  32.726  28.550  1.00  0.00    -0.399 N 
ATOM     27  H22 UNL     1       5.438  32.984  29.477  1.00  0.00     0.152 HD
ATOM     28  H21 UNL     1       6.244  33.424  27.971  1.00  0.00     0.152 HD
ENDBRANCH  11  26
TORSDOF 5
ENDMDL
MODEL 5
REMARK VINA RESULT: -6.157314650      3.778      6.216
REMARK  5 active torsions:
REMARK  status: ('A' for Active; 'I' for Inactive)
REMARK    1  A    between atoms: C5_6  and  O2_7 
REMARK    2  A    between atoms: C8_13  and  N2_14 
REMARK    3  A    between atoms: C9_17  and  O3_18 
REMARK    4  A    between atoms: C12_23  and  C13_24 
REMARK    5  A    between atoms: N3_25  and  O4_27 
ROOT
HETATM    1  C1  UNL     1       3.529  28.057  24.921  1.00  0.00     0.036 C 
HETATM    2  C2  UNL     1       3.735  27.453  26.232  1.00  0.00    -0.020 C 
HETATM    3  C3  UNL     1       3.992  27.964  27.388  1.00  0.00    -0.017 C 
HETATM    4  C4  UNL     1       4.153  27.078  28.582  1.00  0.00     0.112 A 
HETATM    5  O1  UNL     1       4.809  25.960  28.704  1.00  0.00    -0.285 OA
HETATM    6  C5  UNL     1       4.747  25.500  29.953  1.00  0.00     0.197 A 
HETATM    7  C6  UNL     1       3.989  26.428  30.632  1.00  0.00     0.081 A 
HETATM    8  C7  UNL     1       3.586  27.403  29.822  1.00  0.00     0.081 A 
HETATM    9  N1  UNL     1       2.838  27.983  30.918  1.00  0.00    -0.354 N 
ATOM     10  H1  UNL     1       2.127  28.711  30.995  1.00  0.00     0.162 HD
HETATM   11  C8  UNL     1       3.499  27.119  31.848  1.00  0.00     0.170 C 
HETATM   12  C9  UNL     1       4.728  27.960  32.398  1.00  0.00     0.233 C 
HETATM   13  S1  UNL     1       5.739  28.559  31.064  1.00  0.00    -0.133 SA
HETATM   14  C10 UNL     1       5.121  29.931  30.070  1.00  0.00     0.077 C 
HETATM   15  C11 UNL     1       5.379  29.652  28.623  1.00  0.00     0.025 C 
HETATM   16  C12 UNL     1       4.197  29.431  27.702  1.00  0.00     0.062 C 
ENDROOT
BRANCH  16  17
HETATM   17  C13 UNL     1       4.211  30.320  26.571  1.00  0.00     0.096 C 
HETATM   18  N3  UNL     1       3.249  31.184  26.326  1.00  0.00    -0.284 N 
ATOM     19  H3  UNL     1       2.461  31.220  26.973  1.00  0.00     0.192 HD
BRANCH  18  20
HETATM   20  O4  UNL     1       3.240  32.028  25.269  1.00  0.00    -0.291 OA
ATOM     21  H4  UNL     1       2.805  32.873  25.267  1.00  0.00     0.244 HD
ENDBRANCH  18  20
ENDBRANCH  16  17
BRANCH   6  22
HETATM   22  O2  UNL     1       5.340  24.328  30.416  1.00  0.00    -0.340 OA
ATOM     23  H2  UNL     1       5.191  23.931  31.266  1.00  0.00     0.220 HD
ENDBRANCH   6  22
BRANCH  12  24
HETATM   24  O3  UNL     1       4.202  28.985  33.131  1.00  0.00    -0.380 OA
ATOM     25  H3  UNL     1       4.896  29.624  33.241  1.00  0.00     0.211 HD
ENDBRANCH  12  24
BRANCH  11  26
HETATM   26  N2  UNL     1       2.834  26.464  32.857  1.00  0.00    -0.399 N 
ATOM     27  H22 UNL     1       3.275  26.442  33.776  1.00  0.00     0.152 HD
ATOM     28  H21 UNL     1       1.932  26.008  32.718  1.00  0.00     0.152 HD
ENDBRANCH  11  26
TORSDOF 5
ENDMDL
