MODEL 1
REMARK VINA RESULT: -7.524072490      0.000      0.000
REMARK  4 active torsions:
REMARK  status: ('A' for Active; 'I' for Inactive)
REMARK    1  A    between atoms: C6_8  and  O2_9 
REMARK    2  A    between atoms: C10_14  and  N1_15 
REMARK    3  A    between atoms: N1_15  and  C11_17 
REMARK    4  A    between atoms: C12_24  and  N5_25 
ROOT
HETATM    1  C1  UNL     1       6.114  25.999  28.132  1.00  0.00     0.049 C 
HETATM    2  C2  UNL     1       5.792  26.331  26.726  1.00  0.00    -0.047 A 
HETATM    3  C3  UNL     1       4.897  27.262  26.424  1.00  0.00     0.024 A 
HETATM    4  C4  UNL     1       4.508  27.665  25.052  1.00  0.00     0.225 A 
HETATM    5  S1  UNL     1       4.903  29.449  24.913  1.00  0.00    -0.058 SA
HETATM    6  O1  UNL     1       5.164  26.998  24.031  1.00  0.00    -0.327 OA
HETATM    7  C5  UNL     1       6.111  26.015  24.282  1.00  0.00     0.117 A 
HETATM    8  C6  UNL     1       6.693  25.420  23.174  1.00  0.00     0.106 A 
HETATM    9  C7  UNL     1       7.637  24.441  23.404  1.00  0.00    -0.024 A 
HETATM   10  C8  UNL     1       8.274  23.791  22.229  1.00  0.00     0.051 C 
HETATM   11  C9  UNL     1       7.976  24.082  24.709  1.00  0.00     0.040 A 
HETATM   12  C10 UNL     1       7.382  24.688  25.800  1.00  0.00     0.063 A 
HETATM   13  C13 UNL     1       6.441  25.665  25.591  1.00  0.00     0.033 A 
ENDROOT
BRANCH  12  14
HETATM   14  N1  UNL     1       7.753  24.288  27.075  1.00  0.00    -0.189 N 
ATOM     15  H1  UNL     1       7.259  24.756  27.836  1.00  0.00     0.184 HD
BRANCH  14  16
HETATM   16  C11 UNL     1       8.612  23.429  27.441  1.00  0.00     0.713 A 
HETATM   17  N2  UNL     1       8.201  22.262  27.948  1.00  0.00    -0.116 N 
HETATM   18  N3  UNL     1       9.070  21.338  28.343  1.00  0.00    -0.214 N 
ATOM     19  H2  UNL     1       7.201  22.078  28.034  1.00  0.00     0.207 HD
HETATM   20  N4  UNL     1      10.376  21.524  28.253  1.00  0.00    -0.117 N 
ATOM     21  H3  UNL     1       8.721  20.459  28.725  1.00  0.00     0.209 HD
HETATM   22  C12 UNL     1      10.831  22.692  27.744  1.00  0.00     0.706 A 
ATOM     23  H4  UNL     1      11.028  20.802  28.561  1.00  0.00     0.207 HD
HETATM   24  N6  UNL     1       9.933  23.642  27.341  1.00  0.00    -0.020 N 
ATOM     25  H6  UNL     1      10.273  24.523  26.958  1.00  0.00     0.203 HD
BRANCH  22  26
HETATM   26  N5  UNL     1      12.101  22.889  27.651  1.00  0.00    -0.233 N 
ATOM     27  H52 UNL     1      12.769  22.150  27.866  1.00  0.00     0.174 HD
ATOM     28  H51 UNL     1      12.445  23.803  27.356  1.00  0.00     0.174 HD
ENDBRANCH  22  26
ENDBRANCH  14  16
ENDBRANCH  12  14
BRANCH   8  29
HETATM   29  O2  UNL     1       6.354  25.779  21.877  1.00  0.00    -0.357 OA
ATOM     30  H2  UNL     1       6.799  25.420  21.119  1.00  0.00     0.217 HD
ENDBRANCH   8  29
TORSDOF 4
ENDMDL
MODEL 2
REMARK VINA RESULT: -7.368125517      3.692      5.830
REMARK  4 active torsions:
REMARK  status: ('A' for Active; 'I' for Inactive)
REMARK    1  A    between atoms: C6_8  and  O2_9 
REMARK    2  A    between atoms: C10_14  and  N1_15 
REMARK    3  A    between atoms: N1_15  and  C11_17 
REMARK    4  A    between atoms: C12_24  and  N5_25 
ROOT
HETATM    1  C1  UNL     1       6.473  24.703  26.683  1.00  0.00     0.049 C 
HETATM    2  C2  UNL     1       6.116  25.833  25.796  1.00  0.00    -0.047 A 
HETATM    3  C3  UNL     1       6.477  25.850  24.520  1.00  0.00     0.024 A 
HETATM    4  C4  UNL     1       6.169  26.931  23.556  1.00  0.00     0.225 A 
HETATM    5  S1  UNL     1       5.193  26.154  22.212  1.00  0.00    -0.058 SA
HETATM    6  O1  UNL     1       5.432  27.987  24.067  1.00  0.00    -0.327 OA
HETATM    7  C5  UNL     1       5.023  28.028  25.392  1.00  0.00     0.117 A 
HETATM    8  C6  UNL     1       4.296  29.141  25.781  1.00  0.00     0.106 A 
HETATM    9  C7  UNL     1       3.881  29.199  27.095  1.00  0.00    -0.024 A 
HETATM   10  C8  UNL     1       3.098  30.384  27.532  1.00  0.00     0.051 C 
HETATM   11  C9  UNL     1       4.194  28.165  27.979  1.00  0.00     0.040 A 
HETATM   12  C10 UNL     1       4.922  27.064  27.569  1.00  0.00     0.063 A 
HETATM   13  C13 UNL     1       5.343  26.988  26.265  1.00  0.00     0.033 A 
ENDROOT
BRANCH  12  14
HETATM   14  N1  UNL     1       5.210  26.068  28.491  1.00  0.00    -0.189 N 
ATOM     15  H1  UNL     1       5.832  25.334  28.154  1.00  0.00     0.184 HD
BRANCH  14  16
HETATM   16  C11 UNL     1       4.817  25.931  29.690  1.00  0.00     0.713 A 
HETATM   17  N2  UNL     1       5.473  26.558  30.672  1.00  0.00    -0.116 N 
HETATM   18  N3  UNL     1       5.093  26.438  31.940  1.00  0.00    -0.214 N 
ATOM     19  H2  UNL     1       6.281  27.138  30.445  1.00  0.00     0.207 HD
HETATM   20  N4  UNL     1       4.053  25.700  32.290  1.00  0.00    -0.117 N 
ATOM     21  H3  UNL     1       5.617  26.930  32.664  1.00  0.00     0.209 HD
HETATM   22  C12 UNL     1       3.363  25.052  31.324  1.00  0.00     0.706 A 
ATOM     23  H4  UNL     1       3.776  25.622  33.269  1.00  0.00     0.207 HD
HETATM   24  N6  UNL     1       3.758  25.176  30.021  1.00  0.00    -0.020 N 
ATOM     25  H6  UNL     1       3.241  24.687  29.291  1.00  0.00     0.203 HD
BRANCH  22  26
HETATM   26  N5  UNL     1       2.348  24.328  31.650  1.00  0.00    -0.233 N 
ATOM     27  H52 UNL     1       2.258  23.932  32.585  1.00  0.00     0.174 HD
ATOM     28  H51 UNL     1       1.620  24.149  30.959  1.00  0.00     0.174 HD
ENDBRANCH  22  26
ENDBRANCH  14  16
ENDBRANCH  12  14
BRANCH   8  29
HETATM   29  O2  UNL     1       3.986  30.168  24.900  1.00  0.00    -0.357 OA
ATOM     30  H2  UNL     1       3.273  30.775  25.060  1.00  0.00     0.217 HD
ENDBRANCH   8  29
TORSDOF 4
ENDMDL
MODEL 3
REMARK VINA RESULT: -7.360081315      0.637      1.310
REMARK  4 active torsions:
REMARK  status: ('A' for Active; 'I' for Inactive)
REMARK    1  A    between atoms: C6_8  and  O2_9 
REMARK    2  A    between atoms: C10_14  and  N1_15 
REMARK    3  A    between atoms: N1_15  and  C11_17 
REMARK    4  A    between atoms: C12_24  and  N5_25 
ROOT
HETATM    1  C1  UNL     1       6.176  25.970  28.076  1.00  0.00     0.049 C 
HETATM    2  C2  UNL     1       5.826  26.312  26.679  1.00  0.00    -0.047 A 
HETATM    3  C3  UNL     1       4.927  27.246  26.402  1.00  0.00     0.024 A 
HETATM    4  C4  UNL     1       4.511  27.659  25.041  1.00  0.00     0.225 A 
HETATM    5  S1  UNL     1       4.906  29.444  24.905  1.00  0.00    -0.058 SA
HETATM    6  O1  UNL     1       5.145  26.998  24.002  1.00  0.00    -0.327 OA
HETATM    7  C5  UNL     1       6.095  26.012  24.227  1.00  0.00     0.117 A 
HETATM    8  C6  UNL     1       6.653  25.424  23.104  1.00  0.00     0.106 A 
HETATM    9  C7  UNL     1       7.600  24.442  23.308  1.00  0.00    -0.024 A 
HETATM   10  C8  UNL     1       8.212  23.798  22.116  1.00  0.00     0.051 C 
HETATM   11  C9  UNL     1       7.965  24.073  24.604  1.00  0.00     0.040 A 
HETATM   12  C10 UNL     1       7.394  24.673  25.710  1.00  0.00     0.063 A 
HETATM   13  C13 UNL     1       6.451  25.653  25.527  1.00  0.00     0.033 A 
ENDROOT
BRANCH  12  14
HETATM   14  N1  UNL     1       7.789  24.264  26.975  1.00  0.00    -0.189 N 
ATOM     15  H1  UNL     1       7.315  24.730  27.749  1.00  0.00     0.184 HD
BRANCH  14  16
HETATM   16  C11 UNL     1       8.650  23.397  27.317  1.00  0.00     0.713 A 
HETATM   17  N2  UNL     1       9.859  23.408  26.745  1.00  0.00    -0.116 N 
HETATM   18  N3  UNL     1      10.787  22.517  27.077  1.00  0.00    -0.214 N 
ATOM     19  H2  UNL     1      10.072  24.114  26.039  1.00  0.00     0.207 HD
HETATM   20  N4  UNL     1      10.564  21.582  27.985  1.00  0.00    -0.117 N 
ATOM     21  H3  UNL     1      11.698  22.555  26.619  1.00  0.00     0.209 HD
HETATM   22  C12 UNL     1       9.353  21.539  28.587  1.00  0.00     0.706 A 
ATOM     23  H4  UNL     1      11.289  20.906  28.226  1.00  0.00     0.207 HD
HETATM   24  N6  UNL     1       8.401  22.456  28.242  1.00  0.00    -0.020 N 
ATOM     25  H6  UNL     1       7.487  22.425  28.693  1.00  0.00     0.203 HD
BRANCH  22  26
HETATM   26  N5  UNL     1       9.120  20.632  29.473  1.00  0.00    -0.233 N 
ATOM     27  H52 UNL     1       9.806  19.909  29.683  1.00  0.00     0.174 HD
ATOM     28  H51 UNL     1       8.233  20.640  29.975  1.00  0.00     0.174 HD
ENDBRANCH  22  26
ENDBRANCH  14  16
ENDBRANCH  12  14
BRANCH   8  29
HETATM   29  O2  UNL     1       6.289  25.792  21.816  1.00  0.00    -0.357 OA
ATOM     30  H2  UNL     1       6.913  26.152  21.196  1.00  0.00     0.217 HD
ENDBRANCH   8  29
TORSDOF 4
ENDMDL
MODEL 4
REMARK VINA RESULT: -7.294168878      1.568      3.348
REMARK  4 active torsions:
REMARK  status: ('A' for Active; 'I' for Inactive)
REMARK    1  A    between atoms: C6_8  and  O2_9 
REMARK    2  A    between atoms: C10_14  and  N1_15 
REMARK    3  A    between atoms: N1_15  and  C11_17 
REMARK    4  A    between atoms: C12_24  and  N5_25 
ROOT
HETATM    1  C1  UNL     1       8.723  23.342  23.772  1.00  0.00     0.049 C 
HETATM    2  C2  UNL     1       7.758  24.463  23.829  1.00  0.00    -0.047 A 
HETATM    3  C3  UNL     1       7.347  25.076  22.727  1.00  0.00     0.024 A 
HETATM    4  C4  UNL     1       6.386  26.203  22.681  1.00  0.00     0.225 A 
HETATM    5  S1  UNL     1       4.973  25.629  21.664  1.00  0.00    -0.058 SA
HETATM    6  O1  UNL     1       5.894  26.612  23.910  1.00  0.00    -0.327 OA
HETATM    7  C5  UNL     1       6.284  26.010  25.097  1.00  0.00     0.117 A 
HETATM    8  C6  UNL     1       5.723  26.514  26.259  1.00  0.00     0.106 A 
HETATM    9  C7  UNL     1       6.099  25.928  27.450  1.00  0.00    -0.024 A 
HETATM   10  C8  UNL     1       5.508  26.453  28.708  1.00  0.00     0.051 C 
HETATM   11  C9  UNL     1       7.011  24.871  27.458  1.00  0.00     0.040 A 
HETATM   12  C10 UNL     1       7.560  24.385  26.286  1.00  0.00     0.063 A 
HETATM   13  C13 UNL     1       7.197  24.955  25.092  1.00  0.00     0.033 A 
ENDROOT
BRANCH  12  14
HETATM   14  N1  UNL     1       8.466  23.337  26.353  1.00  0.00    -0.189 N 
ATOM     15  H1  UNL     1       8.712  22.921  25.455  1.00  0.00     0.184 HD
BRANCH  14  16
HETATM   16  C11 UNL     1       9.036  22.818  27.360  1.00  0.00     0.713 A 
HETATM   17  N2  UNL     1       8.530  21.703  27.900  1.00  0.00    -0.116 N 
HETATM   18  N3  UNL     1       9.098  21.130  28.956  1.00  0.00    -0.214 N 
ATOM     19  H2  UNL     1       7.692  21.286  27.494  1.00  0.00     0.207 HD
HETATM   20  N4  UNL     1      10.185  21.628  29.520  1.00  0.00    -0.117 N 
ATOM     21  H3  UNL     1       8.684  20.281  29.341  1.00  0.00     0.209 HD
HETATM   22  C12 UNL     1      10.727  22.753  29.002  1.00  0.00     0.706 A 
ATOM     23  H4  UNL     1      10.606  21.172  30.330  1.00  0.00     0.207 HD
HETATM   24  N6  UNL     1      10.139  23.342  27.917  1.00  0.00    -0.020 N 
ATOM     25  H6  UNL     1      10.544  24.191  27.525  1.00  0.00     0.203 HD
BRANCH  22  26
HETATM   26  N5  UNL     1      11.786  23.251  29.542  1.00  0.00    -0.233 N 
ATOM     27  H52 UNL     1      11.865  23.359  30.552  1.00  0.00     0.174 HD
ATOM     28  H51 UNL     1      12.561  23.543  28.946  1.00  0.00     0.174 HD
ENDBRANCH  22  26
ENDBRANCH  14  16
ENDBRANCH  12  14
BRANCH   8  29
HETATM   29  O2  UNL     1       4.816  27.565  26.249  1.00  0.00    -0.357 OA
ATOM     30  H2  UNL     1       3.959  27.499  26.653  1.00  0.00     0.217 HD
ENDBRANCH   8  29
TORSDOF 4
ENDMDL
MODEL 5
REMARK VINA RESULT: -7.213686501      1.573      3.556
REMARK  4 active torsions:
REMARK  status: ('A' for Active; 'I' for Inactive)
REMARK    1  A    between atoms: C6_8  and  O2_9 
REMARK    2  A    between atoms: C10_14  and  N1_15 
REMARK    3  A    between atoms: N1_15  and  C11_17 
REMARK    4  A    between atoms: C12_24  and  N5_25 
ROOT
HETATM    1  C1  UNL     1       8.692  23.605  23.741  1.00  0.00     0.049 C 
HETATM    2  C2  UNL     1       7.681  24.683  23.813  1.00  0.00    -0.047 A 
HETATM    3  C3  UNL     1       7.253  25.301  22.720  1.00  0.00     0.024 A 
HETATM    4  C4  UNL     1       6.246  26.388  22.689  1.00  0.00     0.225 A 
HETATM    5  S1  UNL     1       4.866  25.776  21.649  1.00  0.00    -0.058 SA
HETATM    6  O1  UNL     1       5.728  26.750  23.921  1.00  0.00    -0.327 OA
HETATM    7  C5  UNL     1       6.134  26.141  25.099  1.00  0.00     0.117 A 
HETATM    8  C6  UNL     1       5.543  26.597  26.266  1.00  0.00     0.106 A 
HETATM    9  C7  UNL     1       5.934  26.003  27.448  1.00  0.00    -0.024 A 
HETATM   10  C8  UNL     1       5.312  26.477  28.712  1.00  0.00     0.051 C 
HETATM   11  C9  UNL     1       6.890  24.986  27.443  1.00  0.00     0.040 A 
HETATM   12  C10 UNL     1       7.467  24.547  26.266  1.00  0.00     0.063 A 
HETATM   13  C13 UNL     1       7.090  25.126  25.080  1.00  0.00     0.033 A 
ENDROOT
BRANCH  12  14
HETATM   14  N1  UNL     1       8.416  23.537  26.320  1.00  0.00    -0.189 N 
ATOM     15  H1  UNL     1       8.608  23.077  25.429  1.00  0.00     0.184 HD
BRANCH  14  16
HETATM   16  C11 UNL     1       9.081  23.097  27.306  1.00  0.00     0.713 A 
HETATM   17  N2  UNL     1      10.123  23.799  27.763  1.00  0.00    -0.116 N 
HETATM   18  N3  UNL     1      10.844  23.370  28.794  1.00  0.00    -0.214 N 
ATOM     19  H2  UNL     1      10.370  24.680  27.311  1.00  0.00     0.207 HD
HETATM   20  N4  UNL     1      10.569  22.237  29.415  1.00  0.00    -0.117 N 
ATOM     21  H3  UNL     1      11.633  23.932  29.115  1.00  0.00     0.209 HD
HETATM   22  C12 UNL     1       9.521  21.498  28.983  1.00  0.00     0.706 A 
ATOM     23  H4  UNL     1      11.134  21.925  30.205  1.00  0.00     0.207 HD
HETATM   24  N6  UNL     1       8.782  21.941  27.922  1.00  0.00    -0.020 N 
ATOM     25  H6  UNL     1       7.993  21.386  27.593  1.00  0.00     0.203 HD
BRANCH  22  26
HETATM   26  N5  UNL     1       9.240  20.390  29.578  1.00  0.00    -0.233 N 
ATOM     27  H52 UNL     1       8.277  20.136  29.797  1.00  0.00     0.174 HD
ATOM     28  H51 UNL     1       9.995  19.755  29.835  1.00  0.00     0.174 HD
ENDBRANCH  22  26
ENDBRANCH  14  16
ENDBRANCH  12  14
BRANCH   8  29
HETATM   29  O2  UNL     1       4.593  27.609  26.270  1.00  0.00    -0.357 OA
ATOM     30  H2  UNL     1       3.686  27.452  26.502  1.00  0.00     0.217 HD
ENDBRANCH   8  29
TORSDOF 4
ENDMDL
