MODEL 1
REMARK VINA RESULT: -7.588276609      0.000      0.000
REMARK  3 active torsions:
REMARK  status: ('A' for Active; 'I' for Inactive)
REMARK    1  A    between atoms: N1_1  and  C1_4 
REMARK    2  A    between atoms: C3_7  and  O2_8 
REMARK    3  A    between atoms: N4_16  and  C6_17 
ROOT
HETATM    1  C1  UNL     1       4.209  26.121  34.684  1.00  0.00     0.176 A 
HETATM    2  O1  UNL     1       3.612  25.456  33.717  1.00  0.00    -0.285 OA
HETATM    3  C2  UNL     1       4.023  25.555  32.477  1.00  0.00     0.157 A 
HETATM    4  C3  UNL     1       3.411  24.866  31.451  1.00  0.00     0.179 A 
HETATM    5  N2  UNL     1       3.870  25.001  30.194  1.00  0.00    -0.317 N 
ATOM      6  H2  UNL     1       3.412  24.487  29.441  1.00  0.00     0.169 HD
HETATM    7  C4  UNL     1       4.933  25.807  29.902  1.00  0.00     0.160 A 
HETATM    8  C5  UNL     1       5.520  26.471  30.905  1.00  0.00     0.124 A 
HETATM    9  N3  UNL     1       6.377  27.002  30.043  1.00  0.00    -0.286 N 
ATOM     10  H3  UNL     1       7.161  27.650  30.117  1.00  0.00     0.188 HD
HETATM   11  N4  UNL     1       5.807  26.356  29.060  1.00  0.00    -0.237 N 
HETATM   12  C12 UNL     1       5.098  26.381  32.241  1.00  0.00     0.104 A 
HETATM   13  N6  UNL     1       5.743  27.081  33.186  1.00  0.00    -0.342 N 
ATOM     14  H6  UNL     1       6.536  27.682  32.963  1.00  0.00     0.167 HD
HETATM   15  C13 UNL     1       5.280  26.947  34.460  1.00  0.00     0.133 A 
HETATM   16  S1  UNL     1       6.033  27.815  35.829  1.00  0.00    -0.028 SA
ENDROOT
BRANCH  11  17
HETATM   17  C6  UNL     1       5.978  26.225  27.634  1.00  0.00     0.058 A 
HETATM   18  C7  UNL     1       5.624  27.222  26.759  1.00  0.00     0.033 A 
HETATM   19  C8  UNL     1       5.772  27.133  25.393  1.00  0.00     0.029 A 
HETATM   20  C9  UNL     1       6.308  25.972  24.868  1.00  0.00     0.046 A 
HETATM   21  N5  UNL     1       6.468  25.862  23.461  1.00  0.00    -0.102 NA
HETATM   22  C10 UNL     1       6.671  24.958  25.721  1.00  0.00     0.029 A 
HETATM   23  C11 UNL     1       6.512  25.073  27.082  1.00  0.00     0.033 A 
ENDBRANCH  11  17
BRANCH   4  24
HETATM   24  O2  UNL     1       2.313  24.023  31.696  1.00  0.00    -0.344 OA
ATOM     25  H2  UNL     1       2.212  23.580  32.530  1.00  0.00     0.219 HD
ENDBRANCH   4  24
BRANCH   1  26
HETATM   26  N1  UNL     1       3.772  25.998  35.907  1.00  0.00    -0.377 N 
ATOM     27  H12 UNL     1       4.200  25.289  36.502  1.00  0.00     0.158 HD
ATOM     28  H11 UNL     1       3.023  26.609  36.233  1.00  0.00     0.158 HD
ENDBRANCH   1  26
TORSDOF 3
ENDMDL
MODEL 2
REMARK VINA RESULT: -7.565082303      0.072      1.009
REMARK  3 active torsions:
REMARK  status: ('A' for Active; 'I' for Inactive)
REMARK    1  A    between atoms: N1_1  and  C1_4 
REMARK    2  A    between atoms: C3_7  and  O2_8 
REMARK    3  A    between atoms: N4_16  and  C6_17 
ROOT
HETATM    1  C1  UNL     1       4.237  26.083  34.651  1.00  0.00     0.176 A 
HETATM    2  O1  UNL     1       3.623  25.435  33.682  1.00  0.00    -0.285 OA
HETATM    3  C2  UNL     1       4.024  25.543  32.440  1.00  0.00     0.157 A 
HETATM    4  C3  UNL     1       3.394  24.872  31.412  1.00  0.00     0.179 A 
HETATM    5  N2  UNL     1       3.844  25.014  30.153  1.00  0.00    -0.317 N 
ATOM      6  H2  UNL     1       3.374  24.514  29.398  1.00  0.00     0.169 HD
HETATM    7  C4  UNL     1       4.913  25.811  29.859  1.00  0.00     0.160 A 
HETATM    8  C5  UNL     1       5.518  26.458  30.864  1.00  0.00     0.124 A 
HETATM    9  N3  UNL     1       6.373  26.988  30.000  1.00  0.00    -0.286 N 
ATOM     10  H3  UNL     1       7.165  27.626  30.073  1.00  0.00     0.188 HD
HETATM   11  N4  UNL     1       5.787  26.358  29.016  1.00  0.00    -0.237 N 
HETATM   12  C12 UNL     1       5.107  26.358  32.203  1.00  0.00     0.104 A 
HETATM   13  N6  UNL     1       5.768  27.041  33.149  1.00  0.00    -0.342 N 
ATOM     14  H6  UNL     1       6.566  27.635  32.925  1.00  0.00     0.167 HD
HETATM   15  C13 UNL     1       5.315  26.899  34.426  1.00  0.00     0.133 A 
HETATM   16  S1  UNL     1       6.091  27.744  35.796  1.00  0.00    -0.028 SA
ENDROOT
BRANCH  11  17
HETATM   17  C6  UNL     1       5.943  26.241  27.586  1.00  0.00     0.058 A 
HETATM   18  C7  UNL     1       6.398  25.091  26.990  1.00  0.00     0.033 A 
HETATM   19  C8  UNL     1       6.560  24.944  25.631  1.00  0.00     0.029 A 
HETATM   20  C9  UNL     1       6.247  26.015  24.815  1.00  0.00     0.046 A 
HETATM   21  N5  UNL     1       6.407  25.880  23.410  1.00  0.00    -0.102 NA
HETATM   22  C10 UNL     1       5.789  27.178  25.385  1.00  0.00     0.029 A 
HETATM   23  C11 UNL     1       5.637  27.299  26.747  1.00  0.00     0.033 A 
ENDBRANCH  11  17
BRANCH   4  24
HETATM   24  O2  UNL     1       2.290  24.039  31.659  1.00  0.00    -0.344 OA
ATOM     25  H2  UNL     1       1.761  23.701  30.946  1.00  0.00     0.219 HD
ENDBRANCH   4  24
BRANCH   1  26
HETATM   26  N1  UNL     1       3.809  25.953  35.876  1.00  0.00    -0.377 N 
ATOM     27  H12 UNL     1       2.819  26.113  36.060  1.00  0.00     0.158 HD
ATOM     28  H11 UNL     1       4.469  25.696  36.611  1.00  0.00     0.158 HD
ENDBRANCH   1  26
TORSDOF 3
ENDMDL
MODEL 3
REMARK VINA RESULT: -7.338335537      1.109      1.588
REMARK  3 active torsions:
REMARK  status: ('A' for Active; 'I' for Inactive)
REMARK    1  A    between atoms: N1_1  and  C1_4 
REMARK    2  A    between atoms: C3_7  and  O2_8 
REMARK    3  A    between atoms: N4_16  and  C6_17 
ROOT
HETATM    1  C1  UNL     1       3.992  26.382  34.783  1.00  0.00     0.176 A 
HETATM    2  O1  UNL     1       3.467  25.650  33.821  1.00  0.00    -0.285 OA
HETATM    3  C2  UNL     1       3.690  25.931  32.562  1.00  0.00     0.157 A 
HETATM    4  C3  UNL     1       3.150  25.176  31.542  1.00  0.00     0.179 A 
HETATM    5  N2  UNL     1       3.409  25.505  30.264  1.00  0.00    -0.317 N 
ATOM      6  H2  UNL     1       3.007  24.941  29.515  1.00  0.00     0.169 HD
HETATM    7  C4  UNL     1       4.197  26.573  29.944  1.00  0.00     0.160 A 
HETATM    8  C5  UNL     1       4.717  27.300  30.942  1.00  0.00     0.124 A 
HETATM    9  N3  UNL     1       5.307  28.087  30.052  1.00  0.00    -0.286 N 
ATOM     10  H3  UNL     1       5.909  28.908  30.108  1.00  0.00     0.188 HD
HETATM   11  N4  UNL     1       4.802  27.381  29.075  1.00  0.00    -0.237 N 
HETATM   12  C12 UNL     1       4.492  27.018  32.298  1.00  0.00     0.104 A 
HETATM   13  N6  UNL     1       5.051  27.797  33.236  1.00  0.00    -0.342 N 
ATOM     14  H6  UNL     1       5.639  28.595  32.992  1.00  0.00     0.167 HD
HETATM   15  C13 UNL     1       4.791  27.467  34.532  1.00  0.00     0.133 A 
HETATM   16  S1  UNL     1       5.463  28.409  35.894  1.00  0.00    -0.028 SA
ENDROOT
BRANCH  11  17
HETATM   17  C6  UNL     1       4.829  27.392  27.632  1.00  0.00     0.058 A 
HETATM   18  C7  UNL     1       5.886  26.888  26.915  1.00  0.00     0.033 A 
HETATM   19  C8  UNL     1       5.946  26.882  25.540  1.00  0.00     0.029 A 
HETATM   20  C9  UNL     1       4.881  27.413  24.836  1.00  0.00     0.046 A 
HETATM   21  N5  UNL     1       4.926  27.414  23.417  1.00  0.00    -0.102 NA
HETATM   22  C10 UNL     1       3.810  27.923  25.529  1.00  0.00     0.029 A 
HETATM   23  C11 UNL     1       3.776  27.918  26.904  1.00  0.00     0.033 A 
ENDBRANCH  11  17
BRANCH   4  24
HETATM   24  O2  UNL     1       2.333  24.066  31.815  1.00  0.00    -0.344 OA
ATOM     25  H2  UNL     1       1.387  24.149  31.845  1.00  0.00     0.219 HD
ENDBRANCH   4  24
BRANCH   1  26
HETATM   26  N1  UNL     1       3.747  26.073  36.026  1.00  0.00    -0.377 N 
ATOM     27  H12 UNL     1       3.689  25.085  36.274  1.00  0.00     0.158 HD
ATOM     28  H11 UNL     1       3.623  26.818  36.711  1.00  0.00     0.158 HD
ENDBRANCH   1  26
TORSDOF 3
ENDMDL
MODEL 4
REMARK VINA RESULT: -7.026290841      5.032      6.569
REMARK  3 active torsions:
REMARK  status: ('A' for Active; 'I' for Inactive)
REMARK    1  A    between atoms: N1_1  and  C1_4 
REMARK    2  A    between atoms: C3_7  and  O2_8 
REMARK    3  A    between atoms: N4_16  and  C6_17 
ROOT
HETATM    1  C1  UNL     1       3.646  29.572  27.068  1.00  0.00     0.176 A 
HETATM    2  O1  UNL     1       3.629  29.278  25.783  1.00  0.00    -0.285 OA
HETATM    3  C2  UNL     1       4.391  28.330  25.298  1.00  0.00     0.157 A 
HETATM    4  C3  UNL     1       4.386  28.008  23.957  1.00  0.00     0.179 A 
HETATM    5  N2  UNL     1       5.185  27.026  23.507  1.00  0.00    -0.317 N 
ATOM      6  H2  UNL     1       5.176  26.793  22.513  1.00  0.00     0.169 HD
HETATM    7  C4  UNL     1       6.010  26.332  24.345  1.00  0.00     0.160 A 
HETATM    8  C5  UNL     1       6.007  26.651  25.646  1.00  0.00     0.124 A 
HETATM    9  N3  UNL     1       6.917  25.713  25.871  1.00  0.00    -0.286 N 
ATOM     10  H3  UNL     1       7.410  25.375  26.698  1.00  0.00     0.188 HD
HETATM   11  N4  UNL     1       6.923  25.397  24.604  1.00  0.00    -0.237 N 
HETATM   12  C12 UNL     1       5.200  27.663  26.189  1.00  0.00     0.104 A 
HETATM   13  N6  UNL     1       5.258  27.920  27.504  1.00  0.00    -0.342 N 
ATOM     14  H6  UNL     1       5.875  27.398  28.127  1.00  0.00     0.167 HD
HETATM   15  C13 UNL     1       4.449  28.914  27.963  1.00  0.00     0.133 A 
HETATM   16  S1  UNL     1       4.414  29.374  29.690  1.00  0.00    -0.028 SA
ENDROOT
BRANCH  11  17
HETATM   17  C6  UNL     1       7.598  24.452  23.747  1.00  0.00     0.058 A 
HETATM   18  C7  UNL     1       7.381  24.406  22.392  1.00  0.00     0.033 A 
HETATM   19  C8  UNL     1       8.006  23.519  21.545  1.00  0.00     0.029 A 
HETATM   20  C9  UNL     1       8.906  22.621  22.087  1.00  0.00     0.046 A 
HETATM   21  N5  UNL     1       9.560  21.698  21.228  1.00  0.00    -0.102 NA
HETATM   22  C10 UNL     1       9.142  22.645  23.440  1.00  0.00     0.029 A 
HETATM   23  C11 UNL     1       8.504  23.542  24.265  1.00  0.00     0.033 A 
ENDBRANCH  11  17
BRANCH   4  24
HETATM   24  O2  UNL     1       3.557  28.691  23.050  1.00  0.00    -0.344 OA
ATOM     25  H2  UNL     1       3.030  28.220  22.415  1.00  0.00     0.219 HD
ENDBRANCH   4  24
BRANCH   1  26
HETATM   26  N1  UNL     1       2.875  30.523  27.515  1.00  0.00    -0.377 N 
ATOM     27  H12 UNL     1       3.190  31.057  28.325  1.00  0.00     0.158 HD
ATOM     28  H11 UNL     1       1.987  30.707  27.048  1.00  0.00     0.158 HD
ENDBRANCH   1  26
TORSDOF 3
ENDMDL
MODEL 5
REMARK VINA RESULT: -6.912487876      6.606      7.214
REMARK  3 active torsions:
REMARK  status: ('A' for Active; 'I' for Inactive)
REMARK    1  A    between atoms: N1_1  and  C1_4 
REMARK    2  A    between atoms: C3_7  and  O2_8 
REMARK    3  A    between atoms: N4_16  and  C6_17 
ROOT
HETATM    1  C1  UNL     1       3.349  33.506  28.432  1.00  0.00     0.176 A 
HETATM    2  O1  UNL     1       4.508  32.882  28.390  1.00  0.00    -0.285 OA
HETATM    3  C2  UNL     1       4.708  31.886  27.564  1.00  0.00     0.157 A 
HETATM    4  C3  UNL     1       5.915  31.221  27.505  1.00  0.00     0.179 A 
HETATM    5  N2  UNL     1       6.072  30.204  26.639  1.00  0.00    -0.317 N 
ATOM      6  H2  UNL     1       6.968  29.718  26.601  1.00  0.00     0.169 HD
HETATM    7  C4  UNL     1       5.062  29.806  25.811  1.00  0.00     0.160 A 
HETATM    8  C5  UNL     1       3.893  30.458  25.876  1.00  0.00     0.124 A 
HETATM    9  N3  UNL     1       3.408  29.669  24.927  1.00  0.00    -0.286 N 
ATOM     10  H3  UNL     1       2.512  29.592  24.445  1.00  0.00     0.188 HD
HETATM   11  N4  UNL     1       4.546  29.030  24.859  1.00  0.00    -0.237 N 
HETATM   12  C12 UNL     1       3.656  31.528  26.752  1.00  0.00     0.104 A 
HETATM   13  N6  UNL     1       2.456  32.127  26.754  1.00  0.00    -0.342 N 
ATOM     14  H6  UNL     1       1.704  31.826  26.133  1.00  0.00     0.167 HD
HETATM   15  C13 UNL     1       2.294  33.157  27.629  1.00  0.00     0.133 A 
HETATM   16  S1  UNL     1       0.752  34.054  27.750  1.00  0.00    -0.028 SA
ENDROOT
BRANCH  11  17
HETATM   17  C6  UNL     1       5.106  27.934  24.107  1.00  0.00     0.058 A 
HETATM   18  C7  UNL     1       6.019  27.063  24.649  1.00  0.00     0.033 A 
HETATM   19  C8  UNL     1       6.575  26.008  23.962  1.00  0.00     0.029 A 
HETATM   20  C9  UNL     1       6.193  25.810  22.648  1.00  0.00     0.046 A 
HETATM   21  N5  UNL     1       6.756  24.725  21.923  1.00  0.00    -0.102 NA
HETATM   22  C10 UNL     1       5.281  26.666  22.080  1.00  0.00     0.029 A 
HETATM   23  C11 UNL     1       4.742  27.714  22.789  1.00  0.00     0.033 A 
ENDBRANCH  11  17
BRANCH   4  24
HETATM   24  O2  UNL     1       6.988  31.590  28.334  1.00  0.00    -0.344 OA
ATOM     25  H2  UNL     1       6.838  31.916  29.214  1.00  0.00     0.219 HD
ENDBRANCH   4  24
BRANCH   1  26
HETATM   26  N1  UNL     1       3.186  34.494  29.268  1.00  0.00    -0.377 N 
ATOM     27  H12 UNL     1       3.976  35.115  29.438  1.00  0.00     0.158 HD
ATOM     28  H11 UNL     1       2.282  34.618  29.724  1.00  0.00     0.158 HD
ENDBRANCH   1  26
TORSDOF 3
ENDMDL
