MODEL 1
REMARK VINA RESULT: -8.043523289      0.000      0.000
REMARK  2 active torsions:
REMARK  status: ('A' for Active; 'I' for Inactive)
REMARK    1  A    between atoms: C13_20  and  C14_21 
REMARK    2  A    between atoms: N5_22  and  O1_24 
ROOT
HETATM    1  N1  UNL     1       6.316  27.224  28.061  1.00  0.00    -0.080 NA
HETATM    2  C1  UNL     1       5.542  27.951  27.114  1.00  0.00     0.146 A 
HETATM    3  C2  UNL     1       5.616  27.558  25.853  1.00  0.00     0.101 A 
HETATM    4  N2  UNL     1       6.440  26.458  25.505  1.00  0.00    -0.349 N 
ATOM      5  H2  UNL     1       6.981  25.959  26.211  1.00  0.00     0.166 HD
HETATM    6  C3  UNL     1       6.483  26.076  24.139  1.00  0.00     0.078 A 
HETATM    7  C4  UNL     1       5.770  26.717  23.141  1.00  0.00     0.061 A 
HETATM    8  C5  UNL     1       5.932  26.212  21.869  1.00  0.00     0.033 A 
HETATM    9  C6  UNL     1       6.734  25.146  21.552  1.00  0.00     0.017 A 
HETATM   10  C7  UNL     1       7.458  24.496  22.567  1.00  0.00     0.008 A 
HETATM   11  C8  UNL     1       8.286  23.435  22.403  1.00  0.00     0.064 A 
HETATM   12  N3  UNL     1       8.578  22.767  21.127  1.00  0.00    -0.101 NA
HETATM   13  C9  UNL     1       8.899  22.948  23.529  1.00  0.00     0.077 A 
HETATM   14  S1  UNL     1       8.313  23.966  24.762  1.00  0.00    -0.097 SA
HETATM   15  C10 UNL     1       7.310  24.982  23.831  1.00  0.00     0.046 A 
HETATM   16  N4  UNL     1       4.938  27.817  23.449  1.00  0.00    -0.352 N 
ATOM     17  H4  UNL     1       4.412  28.291  22.715  1.00  0.00     0.166 HD
HETATM   18  C11 UNL     1       4.850  28.249  24.796  1.00  0.00     0.065 A 
HETATM   19  C12 UNL     1       4.094  29.266  25.147  1.00  0.00     0.063 A 
HETATM   20  C13 UNL     1       4.027  29.685  26.541  1.00  0.00     0.053 A 
HETATM   21  N6  UNL     1       4.723  29.040  27.438  1.00  0.00    -0.342 N 
ATOM     22  H6  UNL     1       4.668  29.341  28.411  1.00  0.00     0.167 HD
ENDROOT
BRANCH  20  23
HETATM   23  C14 UNL     1       3.184  30.817  26.921  1.00  0.00     0.143 C 
HETATM   24  N5  UNL     1       3.045  31.811  26.110  1.00  0.00    -0.278 N 
ATOM     25  H5  UNL     1       3.518  31.813  25.206  1.00  0.00     0.193 HD
BRANCH  24  26
HETATM   26  O1  UNL     1       2.250  32.865  26.483  1.00  0.00    -0.290 OA
ATOM     27  H1  UNL     1       2.456  33.733  26.158  1.00  0.00     0.244 HD
ENDBRANCH  24  26
ENDBRANCH  20  23
TORSDOF 2
ENDMDL
MODEL 2
REMARK VINA RESULT: -7.748479332      3.675      7.311
REMARK  2 active torsions:
REMARK  status: ('A' for Active; 'I' for Inactive)
REMARK    1  A    between atoms: C13_20  and  C14_21 
REMARK    2  A    between atoms: N5_22  and  O1_24 
ROOT
HETATM    1  N1  UNL     1       7.703  24.181  26.821  1.00  0.00    -0.080 NA
HETATM    2  C1  UNL     1       7.529  24.551  25.458  1.00  0.00     0.146 A 
HETATM    3  C2  UNL     1       6.812  25.636  25.219  1.00  0.00     0.101 A 
HETATM    4  N2  UNL     1       6.260  26.368  26.301  1.00  0.00    -0.349 N 
ATOM      5  H2  UNL     1       6.405  26.074  27.266  1.00  0.00     0.166 HD
HETATM    6  C3  UNL     1       5.499  27.526  25.990  1.00  0.00     0.078 A 
HETATM    7  C4  UNL     1       5.272  27.969  24.700  1.00  0.00     0.061 A 
HETATM    8  C5  UNL     1       4.509  29.112  24.584  1.00  0.00     0.033 A 
HETATM    9  C6  UNL     1       3.984  29.807  25.643  1.00  0.00     0.017 A 
HETATM   10  C7  UNL     1       4.216  29.354  26.954  1.00  0.00     0.008 A 
HETATM   11  C8  UNL     1       3.762  29.936  28.091  1.00  0.00     0.064 A 
HETATM   12  N3  UNL     1       2.941  31.152  28.161  1.00  0.00    -0.101 NA
HETATM   13  C9  UNL     1       4.105  29.331  29.274  1.00  0.00     0.077 A 
HETATM   14  S1  UNL     1       5.032  27.994  28.774  1.00  0.00    -0.097 SA
HETATM   15  C10 UNL     1       4.968  28.226  27.087  1.00  0.00     0.046 A 
HETATM   16  N4  UNL     1       5.805  27.267  23.596  1.00  0.00    -0.352 N 
ATOM     17  H4  UNL     1       5.638  27.592  22.644  1.00  0.00     0.166 HD
HETATM   18  C11 UNL     1       6.575  26.102  23.837  1.00  0.00     0.065 A 
HETATM   19  C12 UNL     1       7.098  25.404  22.853  1.00  0.00     0.063 A 
HETATM   20  C13 UNL     1       7.885  24.210  23.136  1.00  0.00     0.053 A 
HETATM   21  N6  UNL     1       8.066  23.841  24.376  1.00  0.00    -0.342 N 
ATOM     22  H6  UNL     1       8.619  23.005  24.563  1.00  0.00     0.167 HD
ENDROOT
BRANCH  20  23
HETATM   23  C14 UNL     1       8.463  23.441  22.036  1.00  0.00     0.143 C 
HETATM   24  N5  UNL     1       9.151  22.380  22.291  1.00  0.00    -0.278 N 
ATOM     25  H5  UNL     1       9.294  22.073  23.254  1.00  0.00     0.193 HD
BRANCH  24  26
HETATM   26  O1  UNL     1       9.687  21.670  21.246  1.00  0.00    -0.290 OA
ATOM     27  H1  UNL     1      10.562  21.885  20.946  1.00  0.00     0.244 HD
ENDBRANCH  24  26
ENDBRANCH  20  23
TORSDOF 2
ENDMDL
MODEL 3
REMARK VINA RESULT: -7.549236644      3.847      7.620
REMARK  2 active torsions:
REMARK  status: ('A' for Active; 'I' for Inactive)
REMARK    1  A    between atoms: C13_20  and  C14_21 
REMARK    2  A    between atoms: N5_22  and  O1_24 
ROOT
HETATM    1  N1  UNL     1       5.213  27.337  22.034  1.00  0.00    -0.080 NA
HETATM    2  C1  UNL     1       6.003  26.299  22.605  1.00  0.00     0.146 A 
HETATM    3  C2  UNL     1       6.082  26.265  23.925  1.00  0.00     0.101 A 
HETATM    4  N2  UNL     1       5.397  27.238  24.697  1.00  0.00    -0.349 N 
ATOM      5  H2  UNL     1       4.840  27.968  24.253  1.00  0.00     0.166 HD
HETATM    6  C3  UNL     1       5.514  27.157  26.109  1.00  0.00     0.078 A 
HETATM    7  C4  UNL     1       6.256  26.189  26.762  1.00  0.00     0.061 A 
HETATM    8  C5  UNL     1       6.259  26.261  28.139  1.00  0.00     0.033 A 
HETATM    9  C6  UNL     1       5.589  27.209  28.868  1.00  0.00     0.017 A 
HETATM   10  C7  UNL     1       4.836  28.194  28.203  1.00  0.00     0.008 A 
HETATM   11  C8  UNL     1       4.126  29.188  28.790  1.00  0.00     0.064 A 
HETATM   12  N3  UNL     1       4.013  29.420  30.237  1.00  0.00    -0.101 NA
HETATM   13  C9  UNL     1       3.457  30.047  27.955  1.00  0.00     0.077 A 
HETATM   14  S1  UNL     1       3.832  29.452  26.404  1.00  0.00    -0.097 SA
HETATM   15  C10 UNL     1       4.821  28.136  26.841  1.00  0.00     0.046 A 
HETATM   16  N4  UNL     1       6.952  25.203  26.028  1.00  0.00    -0.352 N 
ATOM     17  H4  UNL     1       7.500  24.488  26.506  1.00  0.00     0.166 HD
HETATM   18  C11 UNL     1       6.876  25.227  24.613  1.00  0.00     0.065 A 
HETATM   19  C12 UNL     1       7.502  24.338  23.872  1.00  0.00     0.063 A 
HETATM   20  C13 UNL     1       7.403  24.392  22.418  1.00  0.00     0.053 A 
HETATM   21  N6  UNL     1       6.687  25.330  21.860  1.00  0.00    -0.342 N 
ATOM     22  H6  UNL     1       6.623  25.358  20.842  1.00  0.00     0.167 HD
ENDROOT
BRANCH  20  23
HETATM   23  C14 UNL     1       8.101  23.400  21.604  1.00  0.00     0.143 C 
HETATM   24  N5  UNL     1       8.987  22.636  22.149  1.00  0.00    -0.278 N 
ATOM     25  H5  UNL     1       9.203  22.719  23.142  1.00  0.00     0.193 HD
BRANCH  24  26
HETATM   26  O1  UNL     1       9.633  21.710  21.369  1.00  0.00    -0.290 OA
ATOM     27  H1  UNL     1      10.541  21.504  21.558  1.00  0.00     0.244 HD
ENDBRANCH  24  26
ENDBRANCH  20  23
TORSDOF 2
ENDMDL
MODEL 4
REMARK VINA RESULT: -7.478914245      4.199      6.058
REMARK  2 active torsions:
REMARK  status: ('A' for Active; 'I' for Inactive)
REMARK    1  A    between atoms: C13_20  and  C14_21 
REMARK    2  A    between atoms: N5_22  and  O1_24 
ROOT
HETATM    1  N1  UNL     1       7.589  23.977  29.375  1.00  0.00    -0.080 NA
HETATM    2  C1  UNL     1       6.506  24.628  30.030  1.00  0.00     0.146 A 
HETATM    3  C2  UNL     1       5.741  25.412  29.288  1.00  0.00     0.101 A 
HETATM    4  N2  UNL     1       6.023  25.567  27.907  1.00  0.00    -0.349 N 
ATOM      5  H2  UNL     1       6.808  25.085  27.470  1.00  0.00     0.166 HD
HETATM    6  C3  UNL     1       5.171  26.418  27.155  1.00  0.00     0.078 A 
HETATM    7  C4  UNL     1       4.094  27.096  27.697  1.00  0.00     0.061 A 
HETATM    8  C5  UNL     1       3.375  27.880  26.820  1.00  0.00     0.033 A 
HETATM    9  C6  UNL     1       3.663  28.017  25.486  1.00  0.00     0.017 A 
HETATM   10  C7  UNL     1       4.759  27.328  24.937  1.00  0.00     0.008 A 
HETATM   11  C8  UNL     1       5.161  27.369  23.643  1.00  0.00     0.064 A 
HETATM   12  N3  UNL     1       4.520  28.144  22.572  1.00  0.00    -0.101 NA
HETATM   13  C9  UNL     1       6.260  26.618  23.313  1.00  0.00     0.077 A 
HETATM   14  S1  UNL     1       6.693  25.890  24.791  1.00  0.00    -0.097 SA
HETATM   15  C10 UNL     1       5.480  26.548  25.790  1.00  0.00     0.046 A 
HETATM   16  N4  UNL     1       3.781  26.966  29.069  1.00  0.00    -0.352 N 
ATOM     17  H4  UNL     1       2.987  27.464  29.470  1.00  0.00     0.166 HD
HETATM   18  C11 UNL     1       4.592  26.130  29.876  1.00  0.00     0.065 A 
HETATM   19  C12 UNL     1       4.355  25.967  31.159  1.00  0.00     0.063 A 
HETATM   20  C13 UNL     1       5.210  25.101  31.961  1.00  0.00     0.053 A 
HETATM   21  N6  UNL     1       6.212  24.487  31.393  1.00  0.00    -0.342 N 
ATOM     22  H6  UNL     1       6.803  23.882  31.963  1.00  0.00     0.167 HD
ENDROOT
BRANCH  20  23
HETATM   23  C14 UNL     1       4.937  24.926  33.386  1.00  0.00     0.143 C 
HETATM   24  N5  UNL     1       4.012  25.627  33.950  1.00  0.00    -0.278 N 
ATOM     25  H5  UNL     1       3.470  26.301  33.409  1.00  0.00     0.193 HD
BRANCH  24  26
HETATM   26  O1  UNL     1       3.770  25.450  35.289  1.00  0.00    -0.290 OA
ATOM     27  H1  UNL     1       3.315  26.134  35.767  1.00  0.00     0.244 HD
ENDBRANCH  24  26
ENDBRANCH  20  23
TORSDOF 2
ENDMDL
MODEL 5
REMARK VINA RESULT: -7.466296426      4.285      7.752
REMARK  2 active torsions:
REMARK  status: ('A' for Active; 'I' for Inactive)
REMARK    1  A    between atoms: C13_20  and  C14_21 
REMARK    2  A    between atoms: N5_22  and  O1_24 
ROOT
HETATM    1  N1  UNL     1       8.875  23.321  27.891  1.00  0.00    -0.080 NA
HETATM    2  C1  UNL     1       8.326  23.800  26.668  1.00  0.00     0.146 A 
HETATM    3  C2  UNL     1       7.345  24.683  26.758  1.00  0.00     0.101 A 
HETATM    4  N2  UNL     1       6.893  25.106  28.034  1.00  0.00    -0.349 N 
ATOM      5  H2  UNL     1       7.310  24.741  28.890  1.00  0.00     0.166 HD
HETATM    6  C3  UNL     1       5.839  26.056  28.075  1.00  0.00     0.078 A 
HETATM    7  C4  UNL     1       5.238  26.583  26.946  1.00  0.00     0.061 A 
HETATM    8  C5  UNL     1       4.229  27.494  27.173  1.00  0.00     0.033 A 
HETATM    9  C6  UNL     1       3.805  27.891  28.415  1.00  0.00     0.017 A 
HETATM   10  C7  UNL     1       4.417  27.354  29.562  1.00  0.00     0.008 A 
HETATM   11  C8  UNL     1       4.104  27.652  30.847  1.00  0.00     0.064 A 
HETATM   12  N3  UNL     1       3.063  28.595  31.278  1.00  0.00    -0.101 NA
HETATM   13  C9  UNL     1       4.826  27.013  31.823  1.00  0.00     0.077 A 
HETATM   14  S1  UNL     1       5.901  26.035  30.935  1.00  0.00    -0.097 SA
HETATM   15  C10 UNL     1       5.417  26.452  29.356  1.00  0.00     0.046 A 
HETATM   16  N4  UNL     1       5.661  26.187  25.657  1.00  0.00    -0.352 N 
ATOM     17  H4  UNL     1       5.220  26.574  24.824  1.00  0.00     0.166 HD
HETATM   18  C11 UNL     1       6.711  25.241  25.546  1.00  0.00     0.065 A 
HETATM   19  C12 UNL     1       7.150  24.831  24.376  1.00  0.00     0.063 A 
HETATM   20  C13 UNL     1       8.231  23.856  24.298  1.00  0.00     0.053 A 
HETATM   21  N6  UNL     1       8.759  23.395  25.399  1.00  0.00    -0.342 N 
ATOM     22  H6  UNL     1       9.515  22.714  25.333  1.00  0.00     0.167 HD
ENDROOT
BRANCH  20  23
HETATM   23  C14 UNL     1       8.713  23.407  22.993  1.00  0.00     0.143 C 
HETATM   24  N5  UNL     1       9.173  22.209  22.860  1.00  0.00    -0.278 N 
ATOM     25  H5  UNL     1       9.203  21.573  23.658  1.00  0.00     0.193 HD
BRANCH  24  26
HETATM   26  O1  UNL     1       9.621  21.804  21.628  1.00  0.00    -0.290 OA
ATOM     27  H1  UNL     1       9.023  21.346  21.050  1.00  0.00     0.244 HD
ENDBRANCH  24  26
ENDBRANCH  20  23
TORSDOF 2
ENDMDL
