MODEL 1
REMARK VINA RESULT: -7.065476664      0.000      0.000
REMARK  12 active torsions:
REMARK  status: ('A' for Active; 'I' for Inactive)
REMARK    1  A    between atoms: C2_2  and  C4_4 
REMARK    2  A    between atoms: C4_4  and  N1_5 
REMARK    3  A    between atoms: C7_9  and  C8_10 
REMARK    4  A    between atoms: C8_10  and  C9_11 
REMARK    5  A    between atoms: C9_11  and  C10_12 
REMARK    6  A    between atoms: C10_12  and  N2_13 
REMARK    7  A    between atoms: C14_20  and  N4_21 
REMARK       I    between atoms: N4_21  and  C15_23 
REMARK    8  A    between atoms: C15_23  and  O4_25 
REMARK    9  A    between atoms: O4_25  and  C16_26 
REMARK   10  A    between atoms: C16_26  and  C17_27 
REMARK   11  A    between atoms: C17_27  and  C18_28 
REMARK   12  A    between atoms: C18_28  and  N5_31 
ROOT
HETATM    1  N1  UNL     1      -3.343 -41.315  21.263  1.00  0.00    -0.347 N 
HETATM    2  C5  UNL     1      -3.822 -40.745  20.051  1.00  0.00     0.222 C 
HETATM    3  O1  UNL     1      -3.430 -39.587  19.694  1.00  0.00    -0.273 OA
HETATM    4  C6  UNL     1      -4.771 -41.415  19.142  1.00  0.00     0.128 C 
HETATM    5  C7  UNL     1      -4.798 -40.746  17.771  1.00  0.00     0.093 C 
HETATM    6  N3  UNL     1      -5.320 -41.693  16.807  1.00  0.00    -0.352 N 
ATOM      7  H3  UNL     1      -6.237 -42.092  17.007  1.00  0.00     0.163 HD
HETATM    8  C13 UNL     1      -4.691 -42.119  15.626  1.00  0.00     0.267 C 
HETATM    9  O2  UNL     1      -5.363 -42.074  14.537  1.00  0.00    -0.269 OA
HETATM   10  C14 UNL     1      -3.306 -42.629  15.493  1.00  0.00     0.318 C 
HETATM   11  O5  UNL     1      -2.750 -43.025  16.706  1.00  0.00    -0.358 OA
HETATM   12  C21 UNL     1      -1.360 -43.048  16.657  1.00  0.00     0.171 C 
HETATM   13  C22 UNL     1      -0.840 -42.840  18.054  1.00  0.00     0.026 C 
HETATM   14  C23 UNL     1      -0.149 -44.068  18.606  1.00  0.00     0.002 C 
HETATM   15  C24 UNL     1      -0.056 -43.920  20.113  1.00  0.00     0.000 C 
HETATM   16  C25 UNL     1      -1.345 -44.270  20.811  1.00  0.00     0.002 C 
HETATM   17  C26 UNL     1      -1.811 -43.183  21.760  1.00  0.00     0.025 C 
HETATM   18  C27 UNL     1      -3.226 -42.727  21.459  1.00  0.00     0.083 C 
HETATM   19  C28 UNL     1      -4.203 -43.270  22.478  1.00  0.00     0.032 C 
ENDROOT
BRANCH  10  20
HETATM   20  N4  UNL     1      -3.277 -43.702  14.516  1.00  0.00    -0.302 N 
HETATM   21  C15 UNL     1      -2.315 -43.811  13.485  1.00  0.00     0.362 C 
HETATM   22  O3  UNL     1      -1.403 -42.958  13.364  1.00  0.00    -0.238 OA
ATOM     23  H4  UNL     1      -3.996 -44.423  14.576  1.00  0.00     0.167 HD
BRANCH  21  24
HETATM   24  O4  UNL     1      -2.370 -44.855  12.601  1.00  0.00    -0.304 OA
BRANCH  24  25
HETATM   25  C16 UNL     1      -1.478 -45.098  11.543  1.00  0.00     0.183 C 
BRANCH  25  26
HETATM   26  C17 UNL     1      -0.604 -46.314  11.868  1.00  0.00     0.064 C 
BRANCH  26  27
HETATM   27  C18 UNL     1       0.683 -45.858  12.534  1.00  0.00     0.118 C 
HETATM   28  C19 UNL     1       1.816 -46.658  11.935  1.00  0.00     0.045 C 
HETATM   29  C20 UNL     1       0.608 -46.155  14.022  1.00  0.00     0.045 C 
BRANCH  27  30
HETATM   30  N5  UNL     1       0.897 -44.446  12.323  1.00  0.00    -0.071 N 
ATOM     31  H53 UNL     1       1.611 -44.275  11.615  1.00  0.00     0.275 HD
ATOM     32  H52 UNL     1       0.105 -44.010  11.851  1.00  0.00     0.275 HD
ATOM     33  H51 UNL     1       1.118 -43.978  13.202  1.00  0.00     0.275 HD
ENDBRANCH  27  30
ENDBRANCH  26  27
ENDBRANCH  25  26
ENDBRANCH  24  25
ENDBRANCH  21  24
ENDBRANCH  10  20
BRANCH   5  34
HETATM   34  C8  UNL     1      -5.921 -39.678  17.884  1.00  0.00     0.027 C 
BRANCH  34  35
HETATM   35  C9  UNL     1      -5.529 -38.432  17.189  1.00  0.00     0.032 C 
BRANCH  35  36
HETATM   36  C10 UNL     1      -4.233 -38.449  16.454  1.00  0.00     0.271 C 
BRANCH  36  37
HETATM   37  N2  UNL     1      -3.358 -37.339  16.616  1.00  0.00     0.080 N 
HETATM   38  C11 UNL     1      -2.010 -37.909  16.891  1.00  0.00     0.309 C 
HETATM   39  C12 UNL     1      -3.624 -36.551  17.830  1.00  0.00     0.309 C 
ENDBRANCH  36  37
ENDBRANCH  35  36
ENDBRANCH  34  35
ENDBRANCH   5  34
BRANCH   1  40
HETATM   40  C4  UNL     1      -2.969 -40.400  22.314  1.00  0.00     0.130 C 
BRANCH  40  41
HETATM   41  C2  UNL     1      -1.506 -40.163  22.467  1.00  0.00    -0.005 C 
HETATM   42  C1  UNL     1      -1.282 -38.673  22.169  1.00  0.00     0.011 C 
HETATM   43  C3  UNL     1      -1.021 -40.372  23.898  1.00  0.00     0.011 C 
ENDBRANCH  40  41
ENDBRANCH   1  40
TORSDOF 12
ENDMDL
MODEL 2
REMARK VINA RESULT: -7.018172492      2.498      7.875
REMARK  12 active torsions:
REMARK  status: ('A' for Active; 'I' for Inactive)
REMARK    1  A    between atoms: C2_2  and  C4_4 
REMARK    2  A    between atoms: C4_4  and  N1_5 
REMARK    3  A    between atoms: C7_9  and  C8_10 
REMARK    4  A    between atoms: C8_10  and  C9_11 
REMARK    5  A    between atoms: C9_11  and  C10_12 
REMARK    6  A    between atoms: C10_12  and  N2_13 
REMARK    7  A    between atoms: C14_20  and  N4_21 
REMARK       I    between atoms: N4_21  and  C15_23 
REMARK    8  A    between atoms: C15_23  and  O4_25 
REMARK    9  A    between atoms: O4_25  and  C16_26 
REMARK   10  A    between atoms: C16_26  and  C17_27 
REMARK   11  A    between atoms: C17_27  and  C18_28 
REMARK   12  A    between atoms: C18_28  and  N5_31 
ROOT
HETATM    1  N1  UNL     1       0.234 -45.799  17.475  1.00  0.00    -0.347 N 
HETATM    2  C5  UNL     1      -0.683 -45.355  16.482  1.00  0.00     0.222 C 
HETATM    3  O1  UNL     1      -1.784 -45.970  16.312  1.00  0.00    -0.273 OA
HETATM    4  C6  UNL     1      -0.448 -44.194  15.602  1.00  0.00     0.128 C 
HETATM    5  C7  UNL     1      -1.738 -43.737  14.927  1.00  0.00     0.093 C 
HETATM    6  N3  UNL     1      -1.572 -42.360  14.506  1.00  0.00    -0.352 N 
ATOM      7  H3  UNL     1      -0.781 -42.159  13.895  1.00  0.00     0.163 HD
HETATM    8  C13 UNL     1      -2.391 -41.273  14.854  1.00  0.00     0.267 C 
HETATM    9  O2  UNL     1      -2.827 -40.523  13.912  1.00  0.00    -0.269 OA
HETATM   10  C14 UNL     1      -2.818 -40.886  16.219  1.00  0.00     0.318 C 
HETATM   11  O5  UNL     1      -2.040 -41.462  17.219  1.00  0.00    -0.358 OA
HETATM   12  C21 UNL     1      -2.701 -41.485  18.443  1.00  0.00     0.171 C 
HETATM   13  C22 UNL     1      -2.141 -42.623  19.254  1.00  0.00     0.026 C 
HETATM   14  C23 UNL     1      -1.369 -42.148  20.466  1.00  0.00     0.002 C 
HETATM   15  C24 UNL     1      -0.504 -43.295  20.954  1.00  0.00     0.000 C 
HETATM   16  C25 UNL     1       0.759 -43.452  20.149  1.00  0.00     0.002 C 
HETATM   17  C26 UNL     1       0.959 -44.867  19.641  1.00  0.00     0.025 C 
HETATM   18  C27 UNL     1       1.144 -44.916  18.136  1.00  0.00     0.083 C 
HETATM   19  C28 UNL     1       2.590 -45.169  17.772  1.00  0.00     0.032 C 
ENDROOT
BRANCH  10  20
HETATM   20  N4  UNL     1      -2.842 -39.439  16.326  1.00  0.00    -0.302 N 
HETATM   21  C15 UNL     1      -4.014 -38.679  16.548  1.00  0.00     0.362 C 
HETATM   22  O3  UNL     1      -5.130 -39.239  16.672  1.00  0.00    -0.238 OA
ATOM     23  H4  UNL     1      -1.958 -38.938  16.236  1.00  0.00     0.167 HD
BRANCH  21  24
HETATM   24  O4  UNL     1      -3.943 -37.314  16.627  1.00  0.00    -0.304 OA
BRANCH  24  25
HETATM   25  C16 UNL     1      -2.807 -36.557  16.961  1.00  0.00     0.183 C 
BRANCH  25  26
HETATM   26  C17 UNL     1      -2.462 -36.763  18.439  1.00  0.00     0.064 C 
BRANCH  26  27
HETATM   27  C18 UNL     1      -0.980 -37.065  18.583  1.00  0.00     0.118 C 
HETATM   28  C19 UNL     1      -0.360 -36.981  17.207  1.00  0.00     0.045 C 
HETATM   29  C20 UNL     1      -0.806 -38.477  19.113  1.00  0.00     0.045 C 
BRANCH  27  30
HETATM   30  N5  UNL     1      -0.349 -36.121  19.476  1.00  0.00    -0.071 N 
ATOM     31  H53 UNL     1       0.662 -36.095  19.345  1.00  0.00     0.275 HD
ATOM     32  H52 UNL     1      -0.563 -35.158  19.219  1.00  0.00     0.275 HD
ATOM     33  H51 UNL     1      -0.599 -36.317  20.445  1.00  0.00     0.275 HD
ENDBRANCH  27  30
ENDBRANCH  26  27
ENDBRANCH  25  26
ENDBRANCH  24  25
ENDBRANCH  21  24
ENDBRANCH  10  20
BRANCH   5  34
HETATM   34  C8  UNL     1      -1.775 -44.528  13.590  1.00  0.00     0.027 C 
BRANCH  34  35
HETATM   35  C9  UNL     1      -0.425 -44.602  12.988  1.00  0.00     0.032 C 
BRANCH  35  36
HETATM   36  C10 UNL     1      -0.274 -45.457  11.777  1.00  0.00     0.271 C 
BRANCH  36  37
HETATM   37  N2  UNL     1       0.732 -46.462  11.791  1.00  0.00     0.080 N 
HETATM   38  C11 UNL     1       0.155 -47.637  11.079  1.00  0.00     0.309 C 
HETATM   39  C12 UNL     1       1.005 -47.005  13.131  1.00  0.00     0.309 C 
ENDBRANCH  36  37
ENDBRANCH  35  36
ENDBRANCH  34  35
ENDBRANCH   5  34
BRANCH   1  40
HETATM   40  C4  UNL     1       0.214 -47.204  17.803  1.00  0.00     0.130 C 
BRANCH  40  41
HETATM   41  C2  UNL     1       0.774 -48.114  16.765  1.00  0.00    -0.005 C 
HETATM   42  C1  UNL     1       1.945 -48.852  17.432  1.00  0.00     0.011 C 
HETATM   43  C3  UNL     1      -0.208 -49.200  16.341  1.00  0.00     0.011 C 
ENDBRANCH  40  41
ENDBRANCH   1  40
TORSDOF 12
ENDMDL
MODEL 3
REMARK VINA RESULT: -6.961552732      2.905      8.439
REMARK  12 active torsions:
REMARK  status: ('A' for Active; 'I' for Inactive)
REMARK    1  A    between atoms: C2_2  and  C4_4 
REMARK    2  A    between atoms: C4_4  and  N1_5 
REMARK    3  A    between atoms: C7_9  and  C8_10 
REMARK    4  A    between atoms: C8_10  and  C9_11 
REMARK    5  A    between atoms: C9_11  and  C10_12 
REMARK    6  A    between atoms: C10_12  and  N2_13 
REMARK    7  A    between atoms: C14_20  and  N4_21 
REMARK       I    between atoms: N4_21  and  C15_23 
REMARK    8  A    between atoms: C15_23  and  O4_25 
REMARK    9  A    between atoms: O4_25  and  C16_26 
REMARK   10  A    between atoms: C16_26  and  C17_27 
REMARK   11  A    between atoms: C17_27  and  C18_28 
REMARK   12  A    between atoms: C18_28  and  N5_31 
ROOT
HETATM    1  N1  UNL     1       3.390 -45.925  16.655  1.00  0.00    -0.347 N 
HETATM    2  C5  UNL     1       2.486 -45.423  15.678  1.00  0.00     0.222 C 
HETATM    3  O1  UNL     1       1.817 -46.231  14.957  1.00  0.00    -0.273 OA
HETATM    4  C6  UNL     1       2.255 -43.988  15.427  1.00  0.00     0.128 C 
HETATM    5  C7  UNL     1       0.982 -43.762  14.617  1.00  0.00     0.093 C 
HETATM    6  N3  UNL     1       0.540 -42.398  14.828  1.00  0.00    -0.352 N 
ATOM      7  H3  UNL     1       1.212 -41.661  14.614  1.00  0.00     0.163 HD
HETATM    8  C13 UNL     1      -0.719 -41.988  15.295  1.00  0.00     0.267 C 
HETATM    9  O2  UNL     1      -1.346 -41.092  14.627  1.00  0.00    -0.269 OA
HETATM   10  C14 UNL     1      -1.421 -42.482  16.502  1.00  0.00     0.318 C 
HETATM   11  O5  UNL     1      -0.580 -43.143  17.392  1.00  0.00    -0.358 OA
HETATM   12  C21 UNL     1      -1.285 -43.984  18.247  1.00  0.00     0.171 C 
HETATM   13  C22 UNL     1      -0.356 -45.082  18.691  1.00  0.00     0.026 C 
HETATM   14  C23 UNL     1      -0.026 -45.004  20.166  1.00  0.00     0.002 C 
HETATM   15  C24 UNL     1       1.211 -45.845  20.418  1.00  0.00     0.000 C 
HETATM   16  C25 UNL     1       2.484 -45.133  20.044  1.00  0.00     0.002 C 
HETATM   17  C26 UNL     1       3.365 -45.952  19.122  1.00  0.00     0.025 C 
HETATM   18  C27 UNL     1       3.715 -45.206  17.848  1.00  0.00     0.083 C 
HETATM   19  C28 UNL     1       5.146 -44.716  17.878  1.00  0.00     0.032 C 
ENDROOT
BRANCH  10  20
HETATM   20  N4  UNL     1      -2.120 -41.382  17.141  1.00  0.00    -0.302 N 
HETATM   21  C15 UNL     1      -3.528 -41.272  17.216  1.00  0.00     0.362 C 
HETATM   22  O3  UNL     1      -4.269 -42.155  16.720  1.00  0.00    -0.238 OA
ATOM     23  H4  UNL     1      -1.560 -40.641  17.563  1.00  0.00     0.167 HD
BRANCH  21  24
HETATM   24  O4  UNL     1      -4.101 -40.193  17.833  1.00  0.00    -0.304 OA
BRANCH  24  25
HETATM   25  C16 UNL     1      -4.312 -38.925  17.266  1.00  0.00     0.183 C 
BRANCH  25  26
HETATM   26  C17 UNL     1      -3.317 -37.920  17.855  1.00  0.00     0.064 C 
BRANCH  26  27
HETATM   27  C18 UNL     1      -2.228 -37.620  16.840  1.00  0.00     0.118 C 
HETATM   28  C19 UNL     1      -0.912 -38.067  17.435  1.00  0.00     0.045 C 
HETATM   29  C20 UNL     1      -2.171 -36.122  16.596  1.00  0.00     0.045 C 
BRANCH  27  30
HETATM   30  N5  UNL     1      -2.479 -38.313  15.598  1.00  0.00    -0.071 N 
ATOM     31  H53 UNL     1      -1.822 -39.080  15.455  1.00  0.00     0.275 HD
ATOM     32  H52 UNL     1      -3.342 -38.854  15.636  1.00  0.00     0.275 HD
ATOM     33  H51 UNL     1      -2.476 -37.662  14.813  1.00  0.00     0.275 HD
ENDBRANCH  27  30
ENDBRANCH  26  27
ENDBRANCH  25  26
ENDBRANCH  24  25
ENDBRANCH  21  24
ENDBRANCH  10  20
BRANCH   5  34
HETATM   34  C8  UNL     1       1.458 -43.771  13.138  1.00  0.00     0.027 C 
BRANCH  34  35
HETATM   35  C9  UNL     1       0.307 -43.927  12.220  1.00  0.00     0.032 C 
BRANCH  35  36
HETATM   36  C10 UNL     1      -0.423 -45.225  12.268  1.00  0.00     0.271 C 
BRANCH  36  37
HETATM   37  N2  UNL     1      -0.078 -46.221  11.312  1.00  0.00     0.080 N 
HETATM   38  C11 UNL     1      -1.337 -46.956  11.006  1.00  0.00     0.309 C 
HETATM   39  C12 UNL     1       0.787 -47.282  11.851  1.00  0.00     0.309 C 
ENDBRANCH  36  37
ENDBRANCH  35  36
ENDBRANCH  34  35
ENDBRANCH   5  34
BRANCH   1  40
HETATM   40  C4  UNL     1       3.983 -47.215  16.399  1.00  0.00     0.130 C 
BRANCH  40  41
HETATM   41  C2  UNL     1       5.015 -47.245  15.324  1.00  0.00    -0.005 C 
HETATM   42  C1  UNL     1       6.315 -47.716  15.994  1.00  0.00     0.011 C 
HETATM   43  C3  UNL     1       4.711 -48.280  14.245  1.00  0.00     0.011 C 
ENDBRANCH  40  41
ENDBRANCH   1  40
TORSDOF 12
ENDMDL
MODEL 4
REMARK VINA RESULT: -6.736076317      3.522      8.998
REMARK  12 active torsions:
REMARK  status: ('A' for Active; 'I' for Inactive)
REMARK    1  A    between atoms: C2_2  and  C4_4 
REMARK    2  A    between atoms: C4_4  and  N1_5 
REMARK    3  A    between atoms: C7_9  and  C8_10 
REMARK    4  A    between atoms: C8_10  and  C9_11 
REMARK    5  A    between atoms: C9_11  and  C10_12 
REMARK    6  A    between atoms: C10_12  and  N2_13 
REMARK    7  A    between atoms: C14_20  and  N4_21 
REMARK       I    between atoms: N4_21  and  C15_23 
REMARK    8  A    between atoms: C15_23  and  O4_25 
REMARK    9  A    between atoms: O4_25  and  C16_26 
REMARK   10  A    between atoms: C16_26  and  C17_27 
REMARK   11  A    between atoms: C17_27  and  C18_28 
REMARK   12  A    between atoms: C18_28  and  N5_31 
ROOT
HETATM    1  N1  UNL     1       3.708 -47.438  17.092  1.00  0.00    -0.347 N 
HETATM    2  C5  UNL     1       3.152 -47.042  15.844  1.00  0.00     0.222 C 
HETATM    3  O1  UNL     1       2.359 -47.822  15.224  1.00  0.00    -0.273 OA
HETATM    4  C6  UNL     1       3.434 -45.751  15.188  1.00  0.00     0.128 C 
HETATM    5  C7  UNL     1       2.421 -45.453  14.086  1.00  0.00     0.093 C 
HETATM    6  N3  UNL     1       2.422 -44.026  13.836  1.00  0.00    -0.352 N 
ATOM      7  H3  UNL     1       3.318 -43.603  13.595  1.00  0.00     0.163 HD
HETATM    8  C13 UNL     1       1.313 -43.166  13.891  1.00  0.00     0.267 C 
HETATM    9  O2  UNL     1       1.104 -42.389  12.894  1.00  0.00    -0.269 OA
HETATM   10  C14 UNL     1       0.335 -43.049  14.997  1.00  0.00     0.318 C 
HETATM   11  O5  UNL     1       0.792 -43.600  16.191  1.00  0.00    -0.358 OA
HETATM   12  C21 UNL     1      -0.254 -43.909  17.055  1.00  0.00     0.171 C 
HETATM   13  C22 UNL     1       0.201 -45.022  17.961  1.00  0.00     0.026 C 
HETATM   14  C23 UNL     1       0.341 -44.579  19.401  1.00  0.00     0.002 C 
HETATM   15  C24 UNL     1       1.194 -45.601  20.128  1.00  0.00     0.000 C 
HETATM   16  C25 UNL     1       2.667 -45.413  19.876  1.00  0.00     0.002 C 
HETATM   17  C26 UNL     1       3.349 -46.686  19.414  1.00  0.00     0.025 C 
HETATM   18  C27 UNL     1       4.087 -46.499  18.102  1.00  0.00     0.083 C 
HETATM   19  C28 UNL     1       5.582 -46.430  18.321  1.00  0.00     0.032 C 
ENDROOT
BRANCH  10  20
HETATM   20  N4  UNL     1      -0.048 -41.659  15.161  1.00  0.00    -0.302 N 
HETATM   21  C15 UNL     1      -1.383 -41.193  15.124  1.00  0.00     0.362 C 
HETATM   22  O3  UNL     1      -2.337 -41.989  14.945  1.00  0.00    -0.238 OA
ATOM     23  H4  UNL     1       0.693 -40.974  15.314  1.00  0.00     0.167 HD
BRANCH  21  24
HETATM   24  O4  UNL     1      -1.650 -39.860  15.280  1.00  0.00    -0.304 OA
BRANCH  24  25
HETATM   25  C16 UNL     1      -2.264 -39.259  16.392  1.00  0.00     0.183 C 
BRANCH  25  26
HETATM   26  C17 UNL     1      -1.195 -38.784  17.382  1.00  0.00     0.064 C 
BRANCH  26  27
HETATM   27  C18 UNL     1      -1.041 -37.275  17.288  1.00  0.00     0.118 C 
HETATM   28  C19 UNL     1       0.423 -36.952  17.477  1.00  0.00     0.045 C 
HETATM   29  C20 UNL     1      -1.835 -36.622  18.405  1.00  0.00     0.045 C 
BRANCH  27  30
HETATM   30  N5  UNL     1      -1.501 -36.792  16.007  1.00  0.00    -0.071 N 
ATOM     31  H53 UNL     1      -2.167 -37.434  15.579  1.00  0.00     0.275 HD
ATOM     32  H52 UNL     1      -2.111 -35.981  16.107  1.00  0.00     0.275 HD
ATOM     33  H51 UNL     1      -0.713 -36.598  15.389  1.00  0.00     0.275 HD
ENDBRANCH  27  30
ENDBRANCH  26  27
ENDBRANCH  25  26
ENDBRANCH  24  25
ENDBRANCH  21  24
ENDBRANCH  10  20
BRANCH   5  34
HETATM   34  C8  UNL     1       3.060 -46.052  12.802  1.00  0.00     0.027 C 
BRANCH  34  35
HETATM   35  C9  UNL     1       2.017 -46.594  11.903  1.00  0.00     0.032 C 
BRANCH  35  36
HETATM   36  C10 UNL     1       0.610 -46.537  12.393  1.00  0.00     0.271 C 
BRANCH  36  37
HETATM   37  N2  UNL     1      -0.370 -45.952  11.544  1.00  0.00     0.080 N 
HETATM   38  C11 UNL     1      -1.312 -45.222  12.438  1.00  0.00     0.309 C 
HETATM   39  C12 UNL     1      -1.248 -46.935  10.890  1.00  0.00     0.309 C 
ENDBRANCH  36  37
ENDBRANCH  35  36
ENDBRANCH  34  35
ENDBRANCH   5  34
BRANCH   1  40
HETATM   40  C4  UNL     1       3.879 -48.853  17.313  1.00  0.00     0.130 C 
BRANCH  40  41
HETATM   41  C2  UNL     1       5.013 -49.485  16.581  1.00  0.00    -0.005 C 
HETATM   42  C1  UNL     1       5.906 -50.130  17.652  1.00  0.00     0.011 C 
HETATM   43  C3  UNL     1       4.566 -50.628  15.676  1.00  0.00     0.011 C 
ENDBRANCH  40  41
ENDBRANCH   1  40
TORSDOF 12
ENDMDL
MODEL 5
REMARK VINA RESULT: -6.507396874      1.606      2.118
REMARK  12 active torsions:
REMARK  status: ('A' for Active; 'I' for Inactive)
REMARK    1  A    between atoms: C2_2  and  C4_4 
REMARK    2  A    between atoms: C4_4  and  N1_5 
REMARK    3  A    between atoms: C7_9  and  C8_10 
REMARK    4  A    between atoms: C8_10  and  C9_11 
REMARK    5  A    between atoms: C9_11  and  C10_12 
REMARK    6  A    between atoms: C10_12  and  N2_13 
REMARK    7  A    between atoms: C14_20  and  N4_21 
REMARK       I    between atoms: N4_21  and  C15_23 
REMARK    8  A    between atoms: C15_23  and  O4_25 
REMARK    9  A    between atoms: O4_25  and  C16_26 
REMARK   10  A    between atoms: C16_26  and  C17_27 
REMARK   11  A    between atoms: C17_27  and  C18_28 
REMARK   12  A    between atoms: C18_28  and  N5_31 
ROOT
HETATM    1  N1  UNL     1      -5.157 -41.832  21.751  1.00  0.00    -0.347 N 
HETATM    2  C5  UNL     1      -4.896 -40.884  20.724  1.00  0.00     0.222 C 
HETATM    3  O1  UNL     1      -4.138 -39.888  20.955  1.00  0.00    -0.273 OA
HETATM    4  C6  UNL     1      -5.457 -40.968  19.362  1.00  0.00     0.128 C 
HETATM    5  C7  UNL     1      -4.711 -40.053  18.395  1.00  0.00     0.093 C 
HETATM    6  N3  UNL     1      -4.940 -40.527  17.045  1.00  0.00    -0.352 N 
ATOM      7  H3  UNL     1      -5.912 -40.613  16.748  1.00  0.00     0.163 HD
HETATM    8  C13 UNL     1      -3.960 -40.880  16.103  1.00  0.00     0.267 C 
HETATM    9  O2  UNL     1      -4.039 -40.369  14.931  1.00  0.00    -0.269 OA
HETATM   10  C14 UNL     1      -2.818 -41.800  16.315  1.00  0.00     0.318 C 
HETATM   11  O5  UNL     1      -2.972 -42.616  17.432  1.00  0.00    -0.358 OA
HETATM   12  C21 UNL     1      -1.755 -43.112  17.886  1.00  0.00     0.171 C 
HETATM   13  C22 UNL     1      -1.889 -43.405  19.356  1.00  0.00     0.026 C 
HETATM   14  C23 UNL     1      -1.816 -44.885  19.663  1.00  0.00     0.002 C 
HETATM   15  C24 UNL     1      -2.382 -45.108  21.052  1.00  0.00     0.000 C 
HETATM   16  C25 UNL     1      -3.888 -45.128  21.070  1.00  0.00     0.002 C 
HETATM   17  C26 UNL     1      -4.476 -44.178  22.095  1.00  0.00     0.025 C 
HETATM   18  C27 UNL     1      -5.460 -43.203  21.479  1.00  0.00     0.083 C 
HETATM   19  C28 UNL     1      -6.885 -43.577  21.820  1.00  0.00     0.032 C 
ENDROOT
BRANCH  10  20
HETATM   20  N4  UNL     1      -2.593 -42.578  15.110  1.00  0.00    -0.302 N 
HETATM   21  C15 UNL     1      -1.386 -42.567  14.373  1.00  0.00     0.362 C 
HETATM   22  O3  UNL     1      -0.414 -41.864  14.740  1.00  0.00    -0.238 OA
ATOM     23  H4  UNL     1      -3.353 -43.169  14.775  1.00  0.00     0.167 HD
BRANCH  21  24
HETATM   24  O4  UNL     1      -1.266 -43.329  13.242  1.00  0.00    -0.304 OA
BRANCH  24  25
HETATM   25  C16 UNL     1      -1.958 -44.519  12.962  1.00  0.00     0.183 C 
BRANCH  25  26
HETATM   26  C17 UNL     1      -1.303 -45.234  11.775  1.00  0.00     0.064 C 
BRANCH  26  27
HETATM   27  C18 UNL     1      -0.248 -46.205  12.278  1.00  0.00     0.118 C 
HETATM   28  C19 UNL     1       1.106 -45.600  11.986  1.00  0.00     0.045 C 
HETATM   29  C20 UNL     1      -0.373 -47.515  11.520  1.00  0.00     0.045 C 
BRANCH  27  30
HETATM   30  N5  UNL     1      -0.400 -46.437  13.695  1.00  0.00    -0.071 N 
ATOM     31  H53 UNL     1       0.469 -46.763  14.119  1.00  0.00     0.275 HD
ATOM     32  H52 UNL     1      -0.505 -45.565  14.211  1.00  0.00     0.275 HD
ATOM     33  H51 UNL     1      -1.172 -47.079  13.876  1.00  0.00     0.275 HD
ENDBRANCH  27  30
ENDBRANCH  26  27
ENDBRANCH  25  26
ENDBRANCH  24  25
ENDBRANCH  21  24
ENDBRANCH  10  20
BRANCH   5  34
HETATM   34  C8  UNL     1      -5.494 -38.711  18.452  1.00  0.00     0.027 C 
BRANCH  34  35
HETATM   35  C9  UNL     1      -4.679 -37.607  17.898  1.00  0.00     0.032 C 
BRANCH  35  36
HETATM   36  C10 UNL     1      -3.414 -37.278  18.613  1.00  0.00     0.271 C 
BRANCH  36  37
HETATM   37  N2  UNL     1      -2.198 -37.320  17.875  1.00  0.00     0.080 N 
HETATM   38  C11 UNL     1      -2.587 -37.384  16.439  1.00  0.00     0.309 C 
HETATM   39  C12 UNL     1      -1.441 -38.569  18.055  1.00  0.00     0.309 C 
ENDBRANCH  36  37
ENDBRANCH  35  36
ENDBRANCH  34  35
ENDBRANCH   5  34
BRANCH   1  40
HETATM   40  C4  UNL     1      -5.102 -41.356  23.112  1.00  0.00     0.130 C 
BRANCH  40  41
HETATM   41  C2  UNL     1      -4.045 -41.969  23.965  1.00  0.00    -0.005 C 
HETATM   42  C1  UNL     1      -2.810 -41.065  23.832  1.00  0.00     0.011 C 
HETATM   43  C3  UNL     1      -4.404 -41.958  25.447  1.00  0.00     0.011 C 
ENDBRANCH  40  41
ENDBRANCH   1  40
TORSDOF 12
ENDMDL
