MODEL 1
REMARK VINA RESULT: -7.029105544      0.000      0.000
REMARK  13 active torsions:
REMARK  status: ('A' for Active; 'I' for Inactive)
REMARK    1  A    between atoms: C2_2  and  C3_3 
REMARK    2  A    between atoms: C3_3  and  C5_5 
REMARK    3  A    between atoms: C5_5  and  N1_6 
REMARK    4  A    between atoms: C5_5  and  C10_15 
REMARK       I    between atoms: N1_6  and  C6_8 
REMARK       I    between atoms: C6_8  and  N2_10 
REMARK    5  A    between atoms: C10_15  and  C11_17 
REMARK    6  A    between atoms: C12_18  and  N3_19 
REMARK    7  A    between atoms: N3_19  and  C13_22 
REMARK    8  A    between atoms: C13_22  and  C14_23 
REMARK    9  A    between atoms: C14_23  and  N4_24 
REMARK       I    between atoms: N4_24  and  C15_26 
REMARK   10  A    between atoms: C15_26  and  C16_28 
REMARK   11  A    between atoms: C22_34  and  C23_35 
REMARK   12  A    between atoms: C23_35  and  O5_37 
REMARK   13  A    between atoms: O5_37  and  C24_38 
ROOT
HETATM    1  C11 UNL     1      -3.168 -41.608  15.876  1.00  0.00     0.102 C 
HETATM    2  C12 UNL     1      -4.177 -41.713  14.715  1.00  0.00     0.199 C 
HETATM    3  C21 UNL     1      -3.461 -40.564  14.037  1.00  0.00     0.049 C 
HETATM    4  C22 UNL     1      -2.967 -40.172  15.429  1.00  0.00     0.101 C 
ENDROOT
BRANCH   1   5
HETATM    5  C10 UNL     1      -3.761 -41.801  17.184  1.00  0.00     0.156 C 
HETATM    6  O2  UNL     1      -4.945 -42.252  17.162  1.00  0.00    -0.295 OA
BRANCH   5   7
HETATM    7  C5  UNL     1      -3.129 -41.526  18.474  1.00  0.00     0.160 C 
BRANCH   7   8
HETATM    8  C3  UNL     1      -1.670 -41.772  18.634  1.00  0.00     0.011 C 
HETATM    9  C4  UNL     1      -1.074 -41.204  19.921  1.00  0.00     0.012 C 
BRANCH   8  10
HETATM   10  C2  UNL     1      -1.371 -43.270  18.748  1.00  0.00     0.002 C 
HETATM   11  C1  UNL     1      -0.550 -43.722  17.537  1.00  0.00     0.005 C 
ENDBRANCH   8  10
ENDBRANCH   7   8
BRANCH   7  12
HETATM   12  N1  UNL     1      -3.905 -42.160  19.550  1.00  0.00    -0.331 N 
HETATM   13  C6  UNL     1      -4.674 -41.553  20.530  1.00  0.00     0.319 C 
HETATM   14  O1  UNL     1      -4.860 -40.314  20.715  1.00  0.00    -0.247 OA
HETATM   15  N2  UNL     1      -5.382 -42.367  21.495  1.00  0.00    -0.325 N 
HETATM   16  C7  UNL     1      -5.408 -43.807  21.599  1.00  0.00     0.138 C 
HETATM   17  C9  UNL     1      -6.236 -41.866  22.586  1.00  0.00     0.201 C 
HETATM   18  C8  UNL     1      -6.856 -44.208  21.266  1.00  0.00     0.095 C 
HETATM   19  S1  UNL     1      -7.711 -42.927  22.278  1.00  0.00    -0.147 SA
ATOM     20  H1  UNL     1      -3.873 -43.179  19.578  1.00  0.00     0.165 HD
ENDBRANCH   7  12
ENDBRANCH   5   7
ENDBRANCH   1   5
BRANCH   2  21
HETATM   21  N3  UNL     1      -4.029 -42.915  13.917  1.00  0.00    -0.069 N 
ATOM     22  H32 UNL     1      -4.923 -43.392  13.799  1.00  0.00     0.277 HD
ATOM     23  H31 UNL     1      -3.835 -42.689  12.942  1.00  0.00     0.277 HD
BRANCH  21  24
HETATM   24  C13 UNL     1      -3.030 -43.804  14.454  1.00  0.00     0.252 C 
BRANCH  24  25
HETATM   25  C14 UNL     1      -2.061 -44.134  13.324  1.00  0.00     0.150 C 
BRANCH  25  26
HETATM   26  N4  UNL     1      -0.684 -44.095  13.728  1.00  0.00    -0.359 N 
HETATM   27  C15 UNL     1       0.378 -43.708  12.875  1.00  0.00     0.221 C 
HETATM   28  O3  UNL     1       0.156 -43.370  11.688  1.00  0.00    -0.273 OA
ATOM     29  H4  UNL     1      -0.457 -44.361  14.686  1.00  0.00     0.162 HD
BRANCH  27  30
HETATM   30  C16 UNL     1       1.787 -43.686  13.346  1.00  0.00     0.078 C 
HETATM   31  C17 UNL     1       1.900 -43.059  14.709  1.00  0.00     0.014 C 
HETATM   32  C18 UNL     1       3.250 -43.550  15.206  1.00  0.00     0.001 C 
HETATM   33  C19 UNL     1       3.436 -44.889  14.564  1.00  0.00     0.001 C 
HETATM   34  C20 UNL     1       2.322 -45.076  13.573  1.00  0.00     0.014 C 
ENDBRANCH  27  30
ENDBRANCH  25  26
ENDBRANCH  24  25
ENDBRANCH  21  24
ENDBRANCH   2  21
BRANCH   4  35
HETATM   35  C23 UNL     1      -3.802 -39.173  16.104  1.00  0.00     0.264 C 
HETATM   36  O4  UNL     1      -4.885 -38.826  15.581  1.00  0.00    -0.265 OA
BRANCH  35  37
HETATM   37  O5  UNL     1      -3.424 -38.618  17.282  1.00  0.00    -0.311 OA
BRANCH  37  38
HETATM   38  C24 UNL     1      -2.687 -37.448  17.464  1.00  0.00     0.060 C 
HETATM   39  C25 UNL     1      -1.499 -37.798  18.361  1.00  0.00     0.045 C 
HETATM   40  C26 UNL     1      -3.569 -36.465  18.220  1.00  0.00     0.045 C 
HETATM   41  C27 UNL     1      -2.157 -36.820  16.230  1.00  0.00     0.045 C 
ENDBRANCH  37  38
ENDBRANCH  35  37
ENDBRANCH   4  35
TORSDOF 13
ENDMDL
MODEL 2
REMARK VINA RESULT: -7.019458546      2.980      8.217
REMARK  13 active torsions:
REMARK  status: ('A' for Active; 'I' for Inactive)
REMARK    1  A    between atoms: C2_2  and  C3_3 
REMARK    2  A    between atoms: C3_3  and  C5_5 
REMARK    3  A    between atoms: C5_5  and  N1_6 
REMARK    4  A    between atoms: C5_5  and  C10_15 
REMARK       I    between atoms: N1_6  and  C6_8 
REMARK       I    between atoms: C6_8  and  N2_10 
REMARK    5  A    between atoms: C10_15  and  C11_17 
REMARK    6  A    between atoms: C12_18  and  N3_19 
REMARK    7  A    between atoms: N3_19  and  C13_22 
REMARK    8  A    between atoms: C13_22  and  C14_23 
REMARK    9  A    between atoms: C14_23  and  N4_24 
REMARK       I    between atoms: N4_24  and  C15_26 
REMARK   10  A    between atoms: C15_26  and  C16_28 
REMARK   11  A    between atoms: C22_34  and  C23_35 
REMARK   12  A    between atoms: C23_35  and  O5_37 
REMARK   13  A    between atoms: O5_37  and  C24_38 
ROOT
HETATM    1  C11 UNL     1       1.481 -43.371  15.353  1.00  0.00     0.102 C 
HETATM    2  C12 UNL     1       0.618 -44.199  16.328  1.00  0.00     0.199 C 
HETATM    3  C21 UNL     1       1.883 -44.574  17.070  1.00  0.00     0.049 C 
HETATM    4  C22 UNL     1       2.625 -44.276  15.768  1.00  0.00     0.101 C 
ENDROOT
BRANCH   1   5
HETATM    5  C10 UNL     1       1.052 -43.463  13.972  1.00  0.00     0.156 C 
HETATM    6  O2  UNL     1       1.849 -42.937  13.139  1.00  0.00    -0.295 OA
BRANCH   5   7
HETATM    7  C5  UNL     1      -0.178 -44.086  13.483  1.00  0.00     0.160 C 
BRANCH   7   8
HETATM    8  C3  UNL     1      -0.192 -44.696  12.125  1.00  0.00     0.011 C 
HETATM    9  C4  UNL     1       0.737 -45.899  11.967  1.00  0.00     0.012 C 
BRANCH   8  10
HETATM   10  C2  UNL     1      -1.569 -45.278  11.795  1.00  0.00     0.002 C 
HETATM   11  C1  UNL     1      -1.399 -46.600  11.041  1.00  0.00     0.005 C 
ENDBRANCH   8  10
ENDBRANCH   7   8
BRANCH   7  12
HETATM   12  N1  UNL     1      -1.307 -43.165  13.673  1.00  0.00    -0.331 N 
HETATM   13  C6  UNL     1      -2.387 -43.292  14.533  1.00  0.00     0.319 C 
HETATM   14  O1  UNL     1      -2.637 -44.243  15.330  1.00  0.00    -0.247 OA
HETATM   15  N2  UNL     1      -3.393 -42.252  14.582  1.00  0.00    -0.325 N 
HETATM   16  C7  UNL     1      -3.447 -41.026  13.821  1.00  0.00     0.138 C 
HETATM   17  C9  UNL     1      -4.589 -42.247  15.443  1.00  0.00     0.201 C 
HETATM   18  C8  UNL     1      -3.259 -39.902  14.856  1.00  0.00     0.095 C 
HETATM   19  S1  UNL     1      -4.404 -40.553  16.144  1.00  0.00    -0.147 SA
ATOM     20  H1  UNL     1      -1.294 -42.322  13.098  1.00  0.00     0.165 HD
ENDBRANCH   7  12
ENDBRANCH   5   7
ENDBRANCH   1   5
BRANCH   2  21
HETATM   21  N3  UNL     1      -0.229 -43.395  17.187  1.00  0.00    -0.069 N 
ATOM     22  H32 UNL     1       0.005 -42.405  17.114  1.00  0.00     0.277 HD
ATOM     23  H31 UNL     1      -1.186 -43.363  16.836  1.00  0.00     0.277 HD
BRANCH  21  24
HETATM   24  C13 UNL     1      -0.191 -43.839  18.558  1.00  0.00     0.252 C 
BRANCH  24  25
HETATM   25  C14 UNL     1      -1.331 -43.143  19.293  1.00  0.00     0.150 C 
BRANCH  25  26
HETATM   26  N4  UNL     1      -1.560 -41.800  18.841  1.00  0.00    -0.359 N 
HETATM   27  C15 UNL     1      -1.321 -40.649  19.631  1.00  0.00     0.221 C 
HETATM   28  O3  UNL     1      -0.880 -40.755  20.800  1.00  0.00    -0.273 OA
ATOM     29  H4  UNL     1      -1.917 -41.667  17.895  1.00  0.00     0.162 HD
BRANCH  27  30
HETATM   30  C16 UNL     1      -1.577 -39.280  19.112  1.00  0.00     0.078 C 
HETATM   31  C17 UNL     1      -0.700 -38.264  19.790  1.00  0.00     0.014 C 
HETATM   32  C18 UNL     1      -0.742 -37.079  18.838  1.00  0.00     0.001 C 
HETATM   33  C19 UNL     1      -0.925 -37.680  17.480  1.00  0.00     0.001 C 
HETATM   34  C20 UNL     1      -1.181 -39.148  17.664  1.00  0.00     0.014 C 
ENDBRANCH  27  30
ENDBRANCH  25  26
ENDBRANCH  24  25
ENDBRANCH  21  24
ENDBRANCH   2  21
BRANCH   4  35
HETATM   35  C23 UNL     1       2.848 -45.452  14.921  1.00  0.00     0.264 C 
HETATM   36  O4  UNL     1       3.787 -45.441  14.093  1.00  0.00    -0.265 OA
BRANCH  35  37
HETATM   37  O5  UNL     1       2.058 -46.550  15.017  1.00  0.00    -0.311 OA
BRANCH  37  38
HETATM   38  C24 UNL     1       2.390 -47.779  15.587  1.00  0.00     0.060 C 
HETATM   39  C25 UNL     1       2.690 -48.743  14.438  1.00  0.00     0.045 C 
HETATM   40  C26 UNL     1       1.158 -48.291  16.317  1.00  0.00     0.045 C 
HETATM   41  C27 UNL     1       3.562 -47.773  16.495  1.00  0.00     0.045 C 
ENDBRANCH  37  38
ENDBRANCH  35  37
ENDBRANCH   4  35
TORSDOF 13
ENDMDL
MODEL 3
REMARK VINA RESULT: -7.014114828      2.329      4.322
REMARK  13 active torsions:
REMARK  status: ('A' for Active; 'I' for Inactive)
REMARK    1  A    between atoms: C2_2  and  C3_3 
REMARK    2  A    between atoms: C3_3  and  C5_5 
REMARK    3  A    between atoms: C5_5  and  N1_6 
REMARK    4  A    between atoms: C5_5  and  C10_15 
REMARK       I    between atoms: N1_6  and  C6_8 
REMARK       I    between atoms: C6_8  and  N2_10 
REMARK    5  A    between atoms: C10_15  and  C11_17 
REMARK    6  A    between atoms: C12_18  and  N3_19 
REMARK    7  A    between atoms: N3_19  and  C13_22 
REMARK    8  A    between atoms: C13_22  and  C14_23 
REMARK    9  A    between atoms: C14_23  and  N4_24 
REMARK       I    between atoms: N4_24  and  C15_26 
REMARK   10  A    between atoms: C15_26  and  C16_28 
REMARK   11  A    between atoms: C22_34  and  C23_35 
REMARK   12  A    between atoms: C23_35  and  O5_37 
REMARK   13  A    between atoms: O5_37  and  C24_38 
ROOT
HETATM    1  C11 UNL     1      -1.245 -40.690  16.268  1.00  0.00     0.102 C 
HETATM    2  C12 UNL     1      -1.070 -42.062  15.587  1.00  0.00     0.199 C 
HETATM    3  C21 UNL     1      -1.421 -41.410  14.267  1.00  0.00     0.049 C 
HETATM    4  C22 UNL     1      -2.135 -40.340  15.091  1.00  0.00     0.101 C 
ENDROOT
BRANCH   1   5
HETATM    5  C10 UNL     1      -1.888 -40.760  17.566  1.00  0.00     0.156 C 
HETATM    6  O2  UNL     1      -2.005 -41.934  18.031  1.00  0.00    -0.295 OA
BRANCH   5   7
HETATM    7  C5  UNL     1      -2.394 -39.633  18.347  1.00  0.00     0.160 C 
BRANCH   7   8
HETATM    8  C3  UNL     1      -1.937 -38.256  18.014  1.00  0.00     0.011 C 
HETATM    9  C4  UNL     1      -2.933 -37.157  18.378  1.00  0.00     0.012 C 
BRANCH   8  10
HETATM   10  C2  UNL     1      -0.693 -37.876  18.822  1.00  0.00     0.002 C 
HETATM   11  C1  UNL     1       0.366 -37.286  17.886  1.00  0.00     0.005 C 
ENDBRANCH   8  10
ENDBRANCH   7   8
BRANCH   7  12
HETATM   12  N1  UNL     1      -2.245 -39.919  19.782  1.00  0.00    -0.331 N 
HETATM   13  C6  UNL     1      -3.238 -40.117  20.728  1.00  0.00     0.319 C 
HETATM   14  O1  UNL     1      -4.492 -40.078  20.557  1.00  0.00    -0.247 OA
HETATM   15  N2  UNL     1      -2.876 -40.409  22.099  1.00  0.00    -0.325 N 
HETATM   16  C7  UNL     1      -1.554 -40.530  22.666  1.00  0.00     0.138 C 
HETATM   17  C9  UNL     1      -3.816 -40.645  23.209  1.00  0.00     0.201 C 
HETATM   18  C8  UNL     1      -1.423 -42.010  23.068  1.00  0.00     0.095 C 
HETATM   19  S1  UNL     1      -3.077 -42.204  23.856  1.00  0.00    -0.147 SA
ATOM     20  H1  UNL     1      -1.286 -39.980  20.124  1.00  0.00     0.165 HD
ENDBRANCH   7  12
ENDBRANCH   5   7
ENDBRANCH   1   5
BRANCH   2  21
HETATM   21  N3  UNL     1       0.304 -42.526  15.549  1.00  0.00    -0.069 N 
ATOM     22  H32 UNL     1       0.642 -42.600  14.589  1.00  0.00     0.277 HD
ATOM     23  H31 UNL     1       0.944 -41.810  15.892  1.00  0.00     0.277 HD
BRANCH  21  24
HETATM   24  C13 UNL     1       0.480 -43.766  16.261  1.00  0.00     0.252 C 
BRANCH  24  25
HETATM   25  C14 UNL     1       1.528 -44.577  15.508  1.00  0.00     0.150 C 
BRANCH  25  26
HETATM   26  N4  UNL     1       1.001 -45.258  14.360  1.00  0.00    -0.359 N 
HETATM   27  C15 UNL     1       1.076 -44.754  13.039  1.00  0.00     0.221 C 
HETATM   28  O3  UNL     1       1.627 -43.653  12.804  1.00  0.00    -0.273 OA
ATOM     29  H4  UNL     1       0.544 -46.159  14.504  1.00  0.00     0.162 HD
BRANCH  27  30
HETATM   30  C16 UNL     1       0.512 -45.502  11.885  1.00  0.00     0.078 C 
HETATM   31  C17 UNL     1       0.839 -46.969  11.971  1.00  0.00     0.014 C 
HETATM   32  C18 UNL     1      -0.179 -47.606  11.038  1.00  0.00     0.001 C 
HETATM   33  C19 UNL     1      -1.379 -46.714  11.108  1.00  0.00     0.001 C 
HETATM   34  C20 UNL     1      -0.995 -45.496  11.898  1.00  0.00     0.014 C 
ENDBRANCH  27  30
ENDBRANCH  25  26
ENDBRANCH  24  25
ENDBRANCH  21  24
ENDBRANCH   2  21
BRANCH   4  35
HETATM   35  C23 UNL     1      -3.569 -40.584  15.280  1.00  0.00     0.264 C 
HETATM   36  O4  UNL     1      -4.344 -39.611  15.415  1.00  0.00    -0.265 OA
BRANCH  35  37
HETATM   37  O5  UNL     1      -4.071 -41.844  15.311  1.00  0.00    -0.311 OA
BRANCH  37  38
HETATM   38  C24 UNL     1      -4.754 -42.504  14.290  1.00  0.00     0.060 C 
HETATM   39  C25 UNL     1      -6.120 -42.906  14.848  1.00  0.00     0.045 C 
HETATM   40  C26 UNL     1      -3.985 -43.778  13.974  1.00  0.00     0.045 C 
HETATM   41  C27 UNL     1      -4.979 -41.719  13.053  1.00  0.00     0.045 C 
ENDBRANCH  37  38
ENDBRANCH  35  37
ENDBRANCH   4  35
TORSDOF 13
ENDMDL
MODEL 4
REMARK VINA RESULT: -7.009755390      4.285      8.665
REMARK  13 active torsions:
REMARK  status: ('A' for Active; 'I' for Inactive)
REMARK    1  A    between atoms: C2_2  and  C3_3 
REMARK    2  A    between atoms: C3_3  and  C5_5 
REMARK    3  A    between atoms: C5_5  and  N1_6 
REMARK    4  A    between atoms: C5_5  and  C10_15 
REMARK       I    between atoms: N1_6  and  C6_8 
REMARK       I    between atoms: C6_8  and  N2_10 
REMARK    5  A    between atoms: C10_15  and  C11_17 
REMARK    6  A    between atoms: C12_18  and  N3_19 
REMARK    7  A    between atoms: N3_19  and  C13_22 
REMARK    8  A    between atoms: C13_22  and  C14_23 
REMARK    9  A    between atoms: C14_23  and  N4_24 
REMARK       I    between atoms: N4_24  and  C15_26 
REMARK   10  A    between atoms: C15_26  and  C16_28 
REMARK   11  A    between atoms: C22_34  and  C23_35 
REMARK   12  A    between atoms: C23_35  and  O5_37 
REMARK   13  A    between atoms: O5_37  and  C24_38 
ROOT
HETATM    1  C11 UNL     1      -0.117 -43.767  13.789  1.00  0.00     0.102 C 
HETATM    2  C12 UNL     1      -1.169 -43.024  14.637  1.00  0.00     0.199 C 
HETATM    3  C21 UNL     1      -0.102 -42.019  15.014  1.00  0.00     0.049 C 
HETATM    4  C22 UNL     1       0.913 -43.114  14.691  1.00  0.00     0.101 C 
ENDROOT
BRANCH   1   5
HETATM    5  C10 UNL     1      -0.220 -45.211  13.864  1.00  0.00     0.156 C 
HETATM    6  O2  UNL     1      -1.018 -45.635  14.753  1.00  0.00    -0.295 OA
BRANCH   5   7
HETATM    7  C5  UNL     1       0.497 -46.177  13.033  1.00  0.00     0.160 C 
BRANCH   7   8
HETATM    8  C3  UNL     1      -0.280 -47.108  12.170  1.00  0.00     0.011 C 
HETATM    9  C4  UNL     1      -1.336 -46.427  11.301  1.00  0.00     0.012 C 
BRANCH   8  10
HETATM   10  C2  UNL     1       0.624 -47.793  11.141  1.00  0.00     0.002 C 
HETATM   11  C1  UNL     1      -0.239 -48.484  10.081  1.00  0.00     0.005 C 
ENDBRANCH   8  10
ENDBRANCH   7   8
BRANCH   7  12
HETATM   12  N1  UNL     1       1.484 -46.896  13.851  1.00  0.00    -0.331 N 
HETATM   13  C6  UNL     1       2.842 -47.051  13.623  1.00  0.00     0.319 C 
HETATM   14  O1  UNL     1       3.520 -46.615  12.647  1.00  0.00    -0.247 OA
HETATM   15  N2  UNL     1       3.651 -47.788  14.571  1.00  0.00    -0.325 N 
HETATM   16  C7  UNL     1       3.229 -48.428  15.795  1.00  0.00     0.138 C 
HETATM   17  C9  UNL     1       5.100 -48.031  14.466  1.00  0.00     0.201 C 
HETATM   18  C8  UNL     1       3.910 -47.630  16.922  1.00  0.00     0.095 C 
HETATM   19  S1  UNL     1       5.584 -47.501  16.163  1.00  0.00    -0.147 SA
ATOM     20  H1  UNL     1       1.122 -47.338  14.697  1.00  0.00     0.165 HD
ENDBRANCH   7  12
ENDBRANCH   5   7
ENDBRANCH   1   5
BRANCH   2  21
HETATM   21  N3  UNL     1      -2.197 -42.369  13.852  1.00  0.00    -0.069 N 
ATOM     22  H32 UNL     1      -2.301 -41.390  14.122  1.00  0.00     0.277 HD
ATOM     23  H31 UNL     1      -1.897 -42.239  12.886  1.00  0.00     0.277 HD
BRANCH  21  24
HETATM   24  C13 UNL     1      -3.458 -43.064  13.917  1.00  0.00     0.252 C 
BRANCH  24  25
HETATM   25  C14 UNL     1      -4.545 -42.015  14.119  1.00  0.00     0.150 C 
BRANCH  25  26
HETATM   26  N4  UNL     1      -4.133 -40.924  14.956  1.00  0.00    -0.359 N 
HETATM   27  C15 UNL     1      -3.642 -39.691  14.462  1.00  0.00     0.221 C 
HETATM   28  O3  UNL     1      -3.543 -39.489  13.229  1.00  0.00    -0.273 OA
ATOM     29  H4  UNL     1      -4.198 -41.045  15.967  1.00  0.00     0.162 HD
BRANCH  27  30
HETATM   30  C16 UNL     1      -3.228 -38.595  15.377  1.00  0.00     0.078 C 
HETATM   31  C17 UNL     1      -4.281 -38.323  16.417  1.00  0.00     0.014 C 
HETATM   32  C18 UNL     1      -3.516 -37.570  17.494  1.00  0.00     0.001 C 
HETATM   33  C19 UNL     1      -2.118 -38.098  17.419  1.00  0.00     0.001 C 
HETATM   34  C20 UNL     1      -2.031 -38.980  16.206  1.00  0.00     0.014 C 
ENDBRANCH  27  30
ENDBRANCH  25  26
ENDBRANCH  24  25
ENDBRANCH  21  24
ENDBRANCH   2  21
BRANCH   4  35
HETATM   35  C23 UNL     1       1.335 -43.904  15.853  1.00  0.00     0.264 C 
HETATM   36  O4  UNL     1       2.370 -44.602  15.777  1.00  0.00    -0.265 OA
BRANCH  35  37
HETATM   37  O5  UNL     1       0.624 -43.893  17.009  1.00  0.00    -0.311 OA
BRANCH  37  38
HETATM   38  C24 UNL     1       0.480 -44.939  17.919  1.00  0.00     0.060 C 
HETATM   39  C25 UNL     1      -0.888 -44.774  18.582  1.00  0.00     0.045 C 
HETATM   40  C26 UNL     1       1.544 -44.762  18.992  1.00  0.00     0.045 C 
HETATM   41  C27 UNL     1       0.548 -46.305  17.348  1.00  0.00     0.045 C 
ENDBRANCH  37  38
ENDBRANCH  35  37
ENDBRANCH   4  35
TORSDOF 13
ENDMDL
MODEL 5
REMARK VINA RESULT: -7.008844068      3.187      7.364
REMARK  13 active torsions:
REMARK  status: ('A' for Active; 'I' for Inactive)
REMARK    1  A    between atoms: C2_2  and  C3_3 
REMARK    2  A    between atoms: C3_3  and  C5_5 
REMARK    3  A    between atoms: C5_5  and  N1_6 
REMARK    4  A    between atoms: C5_5  and  C10_15 
REMARK       I    between atoms: N1_6  and  C6_8 
REMARK       I    between atoms: C6_8  and  N2_10 
REMARK    5  A    between atoms: C10_15  and  C11_17 
REMARK    6  A    between atoms: C12_18  and  N3_19 
REMARK    7  A    between atoms: N3_19  and  C13_22 
REMARK    8  A    between atoms: C13_22  and  C14_23 
REMARK    9  A    between atoms: C14_23  and  N4_24 
REMARK       I    between atoms: N4_24  and  C15_26 
REMARK   10  A    between atoms: C15_26  and  C16_28 
REMARK   11  A    between atoms: C22_34  and  C23_35 
REMARK   12  A    between atoms: C23_35  and  O5_37 
REMARK   13  A    between atoms: O5_37  and  C24_38 
ROOT
HETATM    1  C11 UNL     1      -1.852 -42.067  15.908  1.00  0.00     0.102 C 
HETATM    2  C12 UNL     1      -3.342 -42.113  16.303  1.00  0.00     0.199 C 
HETATM    3  C21 UNL     1      -2.989 -41.379  17.578  1.00  0.00     0.049 C 
HETATM    4  C22 UNL     1      -1.575 -41.926  17.392  1.00  0.00     0.101 C 
ENDROOT
BRANCH   1   5
HETATM    5  C10 UNL     1      -1.379 -43.281  15.274  1.00  0.00     0.156 C 
HETATM    6  O2  UNL     1      -2.152 -44.277  15.402  1.00  0.00    -0.295 OA
BRANCH   5   7
HETATM    7  C5  UNL     1      -0.129 -43.444  14.531  1.00  0.00     0.160 C 
BRANCH   7   8
HETATM    8  C3  UNL     1      -0.183 -43.842  13.098  1.00  0.00     0.011 C 
HETATM    9  C4  UNL     1       0.913 -43.223  12.233  1.00  0.00     0.012 C 
BRANCH   8  10
HETATM   10  C2  UNL     1       0.055 -45.346  12.933  1.00  0.00     0.002 C 
HETATM   11  C1  UNL     1      -0.722 -45.857  11.717  1.00  0.00     0.005 C 
ENDBRANCH   8  10
ENDBRANCH   7   8
BRANCH   7  12
HETATM   12  N1  UNL     1       0.792 -44.298  15.296  1.00  0.00    -0.331 N 
HETATM   13  C6  UNL     1       2.126 -44.073  15.598  1.00  0.00     0.319 C 
HETATM   14  O1  UNL     1       2.841 -43.082  15.264  1.00  0.00    -0.247 OA
HETATM   15  N2  UNL     1       2.858 -45.040  16.387  1.00  0.00    -0.325 N 
HETATM   16  C7  UNL     1       2.379 -46.285  16.940  1.00  0.00     0.138 C 
HETATM   17  C9  UNL     1       4.271 -44.936  16.788  1.00  0.00     0.201 C 
HETATM   18  C8  UNL     1       2.407 -46.084  18.466  1.00  0.00     0.095 C 
HETATM   19  S1  UNL     1       4.066 -45.290  18.584  1.00  0.00    -0.147 SA
ATOM     20  H1  UNL     1       0.398 -45.170  15.650  1.00  0.00     0.165 HD
ENDBRANCH   7  12
ENDBRANCH   5   7
ENDBRANCH   1   5
BRANCH   2  21
HETATM   21  N3  UNL     1      -4.192 -41.275  15.480  1.00  0.00    -0.069 N 
ATOM     22  H32 UNL     1      -5.003 -41.792  15.138  1.00  0.00     0.277 HD
ATOM     23  H31 UNL     1      -4.673 -40.572  16.042  1.00  0.00     0.277 HD
BRANCH  21  24
HETATM   24  C13 UNL     1      -3.467 -40.666  14.393  1.00  0.00     0.252 C 
BRANCH  24  25
HETATM   25  C14 UNL     1      -3.585 -39.155  14.558  1.00  0.00     0.150 C 
BRANCH  25  26
HETATM   26  N4  UNL     1      -2.639 -38.611  15.490  1.00  0.00    -0.359 N 
HETATM   27  C15 UNL     1      -2.987 -37.740  16.552  1.00  0.00     0.221 C 
HETATM   28  O3  UNL     1      -4.178 -37.395  16.733  1.00  0.00    -0.273 OA
ATOM     29  H4  UNL     1      -1.657 -38.866  15.381  1.00  0.00     0.162 HD
BRANCH  27  30
HETATM   30  C16 UNL     1      -1.964 -37.205  17.488  1.00  0.00     0.078 C 
HETATM   31  C17 UNL     1      -1.003 -38.279  17.921  1.00  0.00     0.014 C 
HETATM   32  C18 UNL     1       0.188 -37.488  18.440  1.00  0.00     0.001 C 
HETATM   33  C19 UNL     1       0.198 -36.227  17.634  1.00  0.00     0.001 C 
HETATM   34  C20 UNL     1      -1.062 -36.202  16.817  1.00  0.00     0.014 C 
ENDBRANCH  27  30
ENDBRANCH  25  26
ENDBRANCH  24  25
ENDBRANCH  21  24
ENDBRANCH   2  21
BRANCH   4  35
HETATM   35  C23 UNL     1      -1.314 -43.177  18.113  1.00  0.00     0.264 C 
HETATM   36  O4  UNL     1      -0.152 -43.638  18.140  1.00  0.00    -0.265 OA
BRANCH  35  37
HETATM   37  O5  UNL     1      -2.309 -43.842  18.753  1.00  0.00    -0.311 OA
BRANCH  37  38
HETATM   38  C24 UNL     1      -2.540 -43.893  20.127  1.00  0.00     0.060 C 
HETATM   39  C25 UNL     1      -2.146 -45.294  20.598  1.00  0.00     0.045 C 
HETATM   40  C26 UNL     1      -4.037 -43.730  20.345  1.00  0.00     0.045 C 
HETATM   41  C27 UNL     1      -1.791 -42.909  20.945  1.00  0.00     0.045 C 
ENDBRANCH  37  38
ENDBRANCH  35  37
ENDBRANCH   4  35
TORSDOF 13
ENDMDL
