MODEL 1
REMARK VINA RESULT: -7.279483977      0.000      0.000
REMARK  18 active torsions:
REMARK  status: ('A' for Active; 'I' for Inactive)
REMARK    1  A    between atoms: O1_2  and  C2_3 
REMARK    2  A    between atoms: C2_3  and  C3_5 
REMARK    3  A    between atoms: C3_5  and  N1_6 
REMARK       I    between atoms: N1_6  and  C4_8 
REMARK    4  A    between atoms: C4_8  and  C5_10 
REMARK    5  A    between atoms: C5_10  and  C6_11 
REMARK    6  A    between atoms: C6_11  and  C7_12 
REMARK    7  A    between atoms: C6_11  and  N3_28 
REMARK    8  A    between atoms: C7_12  and  C8_13 
REMARK    9  A    between atoms: C8_13  and  C9_14 
REMARK   10  A    between atoms: C9_14  and  C10_15 
REMARK   11  A    between atoms: C10_15  and  C11_16 
REMARK   12  A    between atoms: C11_16  and  C12_17 
REMARK       I    between atoms: C12_17  and  N2_19 
REMARK       I    between atoms: N3_28  and  C21_30 
REMARK   13  A    between atoms: C21_30  and  C22_32 
REMARK   14  A    between atoms: C22_32  and  N4_33 
REMARK   15  A    between atoms: C22_32  and  C28_42 
REMARK       I    between atoms: N4_33  and  C23_35 
REMARK   16  A    between atoms: C23_35  and  O7_37 
REMARK   17  A    between atoms: O7_37  and  C24_38 
REMARK   18  A    between atoms: C28_42  and  N5_43 
ROOT
HETATM    1  C6  UNL     1      -2.112 -42.342  17.145  1.00  0.00    -0.002 C 
ENDROOT
BRANCH   1   2
HETATM    2  C5  UNL     1      -1.285 -42.391  15.917  1.00  0.00     0.155 C 
BRANCH   2   3
HETATM    3  C4  UNL     1      -1.856 -43.137  14.770  1.00  0.00     0.223 C 
HETATM    4  N1  UNL     1      -1.129 -44.189  14.133  1.00  0.00    -0.351 N 
ATOM      5  H1  UNL     1      -0.199 -44.388  14.502  1.00  0.00     0.162 HD
HETATM    6  O3  UNL     1      -2.995 -42.849  14.341  1.00  0.00    -0.273 OA
BRANCH   4   7
HETATM    7  C3  UNL     1      -1.562 -44.984  13.041  1.00  0.00     0.233 C 
BRANCH   7   8
HETATM    8  C2  UNL     1      -0.694 -44.843  11.831  1.00  0.00     0.276 C 
HETATM    9  O2  UNL     1      -0.039 -43.816  11.646  1.00  0.00    -0.263 OA
BRANCH   8  10
HETATM   10  O1  UNL     1      -0.651 -45.910  10.922  1.00  0.00    -0.325 OA
HETATM   11  C1  UNL     1      -0.099 -47.178  11.274  1.00  0.00     0.213 C 
ENDBRANCH   8  10
ENDBRANCH   7   8
ENDBRANCH   4   7
ENDBRANCH   2   3
ENDBRANCH   1   2
BRANCH   1  12
HETATM   12  C7  UNL     1      -2.072 -43.410  18.129  1.00  0.00     0.053 C 
BRANCH  12  13
HETATM   13  C8  UNL     1      -0.805 -43.800  18.781  1.00  0.00     0.006 C 
BRANCH  13  14
HETATM   14  C9  UNL     1      -0.350 -45.208  18.581  1.00  0.00     0.001 C 
BRANCH  14  15
HETATM   15  C10 UNL     1       0.297 -45.455  17.221  1.00  0.00     0.009 C 
BRANCH  15  16
HETATM   16  C11 UNL     1       1.575 -44.607  17.075  1.00  0.00     0.103 C 
BRANCH  16  17
HETATM   17  C12 UNL     1       2.254 -44.927  15.810  1.00  0.00     0.220 C 
HETATM   18  O4  UNL     1       1.655 -44.718  14.691  1.00  0.00    -0.273 OA
HETATM   19  N2  UNL     1       3.575 -45.474  15.717  1.00  0.00    -0.344 N 
HETATM   20  C13 UNL     1       4.026 -45.699  14.350  1.00  0.00     0.127 C 
HETATM   21  C18 UNL     1       4.420 -45.763  16.824  1.00  0.00     0.028 C 
HETATM   22  C14 UNL     1       5.009 -46.805  14.209  1.00  0.00     0.024 C 
HETATM   23  C15 UNL     1       6.147 -46.504  15.166  1.00  0.00    -0.015 C 
HETATM   24  C16 UNL     1       7.274 -47.455  14.940  1.00  0.00     0.010 C 
HETATM   25  C17 UNL     1       5.660 -46.553  16.568  1.00  0.00     0.034 C 
HETATM   26  C19 UNL     1       4.841 -44.434  17.477  1.00  0.00     0.038 C 
HETATM   27  C20 UNL     1       3.668 -46.551  17.918  1.00  0.00     0.038 C 
ENDBRANCH  16  17
ENDBRANCH  15  16
ENDBRANCH  14  15
ENDBRANCH  13  14
ENDBRANCH  12  13
ENDBRANCH   1  12
BRANCH   1  28
HETATM   28  N3  UNL     1      -2.124 -41.005  17.702  1.00  0.00    -0.332 N 
HETATM   29  C21 UNL     1      -3.120 -40.039  17.374  1.00  0.00     0.247 C 
HETATM   30  O5  UNL     1      -4.006 -40.349  16.567  1.00  0.00    -0.271 OA
ATOM     31  H3  UNL     1      -1.387 -40.743  18.357  1.00  0.00     0.168 HD
BRANCH  29  32
HETATM   32  C22 UNL     1      -3.110 -38.682  17.976  1.00  0.00     0.215 C 
BRANCH  32  33
HETATM   33  N4  UNL     1      -2.535 -38.731  19.277  1.00  0.00    -0.321 N 
HETATM   34  C23 UNL     1      -3.305 -39.007  20.451  1.00  0.00     0.362 C 
HETATM   35  O6  UNL     1      -4.565 -39.214  20.323  1.00  0.00    -0.238 OA
ATOM     36  H4  UNL     1      -1.534 -38.563  19.377  1.00  0.00     0.165 HD
BRANCH  34  37
HETATM   37  O7  UNL     1      -2.840 -39.081  21.737  1.00  0.00    -0.294 OA
BRANCH  37  38
HETATM   38  C24 UNL     1      -2.488 -40.283  22.378  1.00  0.00     0.061 C 
HETATM   39  C25 UNL     1      -1.276 -40.050  23.276  1.00  0.00     0.046 C 
HETATM   40  C26 UNL     1      -3.608 -40.695  23.344  1.00  0.00     0.046 C 
HETATM   41  C27 UNL     1      -2.215 -41.430  21.485  1.00  0.00     0.046 C 
ENDBRANCH  37  38
ENDBRANCH  34  37
ENDBRANCH  32  33
BRANCH  32  42
HETATM   42  C28 UNL     1      -2.256 -37.812  17.067  1.00  0.00     0.152 C 
HETATM   43  C29 UNL     1      -2.737 -36.391  17.039  1.00  0.00     0.041 C 
HETATM   44  C30 UNL     1      -1.517 -35.660  16.469  1.00  0.00     0.003 C 
HETATM   45  C31 UNL     1      -0.442 -36.238  17.395  1.00  0.00     0.003 C 
HETATM   46  C32 UNL     1      -0.846 -37.710  17.541  1.00  0.00     0.041 C 
BRANCH  42  47
HETATM   47  N5  UNL     1      -2.231 -38.299  15.700  1.00  0.00    -0.068 N 
ATOM     48  H53 UNL     1      -1.283 -38.538  15.411  1.00  0.00     0.275 HD
ATOM     49  H52 UNL     1      -2.660 -39.222  15.631  1.00  0.00     0.275 HD
ATOM     50  H51 UNL     1      -2.660 -37.644  15.047  1.00  0.00     0.275 HD
ENDBRANCH  42  47
ENDBRANCH  32  42
ENDBRANCH  29  32
ENDBRANCH   1  28
TORSDOF 18
ENDMDL
MODEL 2
REMARK VINA RESULT: -7.277606928      2.239      8.550
REMARK  18 active torsions:
REMARK  status: ('A' for Active; 'I' for Inactive)
REMARK    1  A    between atoms: O1_2  and  C2_3 
REMARK    2  A    between atoms: C2_3  and  C3_5 
REMARK    3  A    between atoms: C3_5  and  N1_6 
REMARK       I    between atoms: N1_6  and  C4_8 
REMARK    4  A    between atoms: C4_8  and  C5_10 
REMARK    5  A    between atoms: C5_10  and  C6_11 
REMARK    6  A    between atoms: C6_11  and  C7_12 
REMARK    7  A    between atoms: C6_11  and  N3_28 
REMARK    8  A    between atoms: C7_12  and  C8_13 
REMARK    9  A    between atoms: C8_13  and  C9_14 
REMARK   10  A    between atoms: C9_14  and  C10_15 
REMARK   11  A    between atoms: C10_15  and  C11_16 
REMARK   12  A    between atoms: C11_16  and  C12_17 
REMARK       I    between atoms: C12_17  and  N2_19 
REMARK       I    between atoms: N3_28  and  C21_30 
REMARK   13  A    between atoms: C21_30  and  C22_32 
REMARK   14  A    between atoms: C22_32  and  N4_33 
REMARK   15  A    between atoms: C22_32  and  C28_42 
REMARK       I    between atoms: N4_33  and  C23_35 
REMARK   16  A    between atoms: C23_35  and  O7_37 
REMARK   17  A    between atoms: O7_37  and  C24_38 
REMARK   18  A    between atoms: C28_42  and  N5_43 
ROOT
HETATM    1  C6  UNL     1       0.634 -42.490  13.904  1.00  0.00    -0.002 C 
ENDROOT
BRANCH   1   2
HETATM    2  C5  UNL     1       0.483 -42.939  12.500  1.00  0.00     0.155 C 
BRANCH   2   3
HETATM    3  C4  UNL     1       0.269 -44.390  12.293  1.00  0.00     0.223 C 
HETATM    4  N1  UNL     1      -1.032 -44.972  12.400  1.00  0.00    -0.351 N 
ATOM      5  H1  UNL     1      -1.796 -44.337  12.634  1.00  0.00     0.162 HD
HETATM    6  O3  UNL     1       1.238 -45.133  12.022  1.00  0.00    -0.273 OA
BRANCH   4   7
HETATM    7  C3  UNL     1      -1.374 -46.336  12.216  1.00  0.00     0.233 C 
BRANCH   7   8
HETATM    8  C2  UNL     1      -1.315 -47.132  13.481  1.00  0.00     0.276 C 
HETATM    9  O2  UNL     1      -0.234 -47.371  14.021  1.00  0.00    -0.263 OA
BRANCH   8  10
HETATM   10  O1  UNL     1      -2.521 -47.592  14.028  1.00  0.00    -0.325 OA
HETATM   11  C1  UNL     1      -3.577 -46.700  14.383  1.00  0.00     0.213 C 
ENDBRANCH   8  10
ENDBRANCH   7   8
ENDBRANCH   4   7
ENDBRANCH   2   3
ENDBRANCH   1   2
BRANCH   1  12
HETATM   12  C7  UNL     1      -0.373 -41.664  14.548  1.00  0.00     0.053 C 
BRANCH  12  13
HETATM   13  C8  UNL     1      -1.812 -41.972  14.416  1.00  0.00     0.006 C 
BRANCH  13  14
HETATM   14  C9  UNL     1      -2.676 -40.909  13.820  1.00  0.00     0.001 C 
BRANCH  14  15
HETATM   15  C10 UNL     1      -3.734 -40.371  14.778  1.00  0.00     0.009 C 
BRANCH  15  16
HETATM   16  C11 UNL     1      -3.389 -38.930  15.200  1.00  0.00     0.103 C 
BRANCH  16  17
HETATM   17  C12 UNL     1      -4.064 -38.596  16.464  1.00  0.00     0.220 C 
HETATM   18  O4  UNL     1      -5.309 -38.273  16.459  1.00  0.00    -0.273 OA
HETATM   19  N2  UNL     1      -3.427 -38.600  17.747  1.00  0.00    -0.344 N 
HETATM   20  C13 UNL     1      -4.311 -38.238  18.847  1.00  0.00     0.127 C 
HETATM   21  C18 UNL     1      -2.067 -38.945  17.984  1.00  0.00     0.028 C 
HETATM   22  C14 UNL     1      -3.618 -37.602  19.998  1.00  0.00     0.024 C 
HETATM   23  C15 UNL     1      -2.508 -38.548  20.418  1.00  0.00    -0.015 C 
HETATM   24  C16 UNL     1      -1.895 -38.085  21.697  1.00  0.00     0.010 C 
HETATM   25  C17 UNL     1      -1.499 -38.662  19.334  1.00  0.00     0.034 C 
HETATM   26  C19 UNL     1      -1.890 -40.450  17.710  1.00  0.00     0.038 C 
HETATM   27  C20 UNL     1      -1.122 -38.224  16.998  1.00  0.00     0.038 C 
ENDBRANCH  16  17
ENDBRANCH  15  16
ENDBRANCH  14  15
ENDBRANCH  13  14
ENDBRANCH  12  13
ENDBRANCH   1  12
BRANCH   1  28
HETATM   28  N3  UNL     1       1.162 -43.556  14.729  1.00  0.00    -0.332 N 
HETATM   29  C21 UNL     1       2.544 -43.666  15.062  1.00  0.00     0.247 C 
HETATM   30  O5  UNL     1       3.332 -42.822  14.614  1.00  0.00    -0.271 OA
ATOM     31  H3  UNL     1       0.517 -44.260  15.088  1.00  0.00     0.168 HD
BRANCH  29  32
HETATM   32  C22 UNL     1       3.048 -44.764  15.923  1.00  0.00     0.215 C 
BRANCH  32  33
HETATM   33  N4  UNL     1       1.956 -45.444  16.534  1.00  0.00    -0.321 N 
HETATM   34  C23 UNL     1       1.674 -45.347  17.934  1.00  0.00     0.362 C 
HETATM   35  O6  UNL     1       2.439 -44.621  18.665  1.00  0.00    -0.238 OA
ATOM     36  H4  UNL     1       1.352 -46.022  15.951  1.00  0.00     0.165 HD
BRANCH  34  37
HETATM   37  O7  UNL     1       0.646 -45.955  18.605  1.00  0.00    -0.294 OA
BRANCH  37  38
HETATM   38  C24 UNL     1      -0.715 -45.699  18.360  1.00  0.00     0.061 C 
HETATM   39  C25 UNL     1      -1.508 -45.858  19.654  1.00  0.00     0.046 C 
HETATM   40  C26 UNL     1      -0.898 -44.224  17.977  1.00  0.00     0.046 C 
HETATM   41  C27 UNL     1      -1.342 -46.522  17.304  1.00  0.00     0.046 C 
ENDBRANCH  37  38
ENDBRANCH  34  37
ENDBRANCH  32  33
BRANCH  32  42
HETATM   42  C28 UNL     1       3.803 -45.718  15.010  1.00  0.00     0.152 C 
HETATM   43  C29 UNL     1       5.282 -45.681  15.265  1.00  0.00     0.041 C 
HETATM   44  C30 UNL     1       5.745 -46.982  14.601  1.00  0.00     0.003 C 
HETATM   45  C31 UNL     1       4.735 -47.944  15.237  1.00  0.00     0.003 C 
HETATM   46  C32 UNL     1       3.429 -47.142  15.244  1.00  0.00     0.041 C 
BRANCH  42  47
HETATM   47  N5  UNL     1       3.588 -45.425  13.606  1.00  0.00    -0.068 N 
ATOM     48  H53 UNL     1       2.641 -45.673  13.319  1.00  0.00     0.275 HD
ATOM     49  H52 UNL     1       3.549 -44.419  13.442  1.00  0.00     0.275 HD
ATOM     50  H51 UNL     1       4.282 -45.869  13.006  1.00  0.00     0.275 HD
ENDBRANCH  42  47
ENDBRANCH  32  42
ENDBRANCH  29  32
ENDBRANCH   1  28
TORSDOF 18
ENDMDL
MODEL 3
REMARK VINA RESULT: -7.235622392      2.005      5.467
REMARK  18 active torsions:
REMARK  status: ('A' for Active; 'I' for Inactive)
REMARK    1  A    between atoms: O1_2  and  C2_3 
REMARK    2  A    between atoms: C2_3  and  C3_5 
REMARK    3  A    between atoms: C3_5  and  N1_6 
REMARK       I    between atoms: N1_6  and  C4_8 
REMARK    4  A    between atoms: C4_8  and  C5_10 
REMARK    5  A    between atoms: C5_10  and  C6_11 
REMARK    6  A    between atoms: C6_11  and  C7_12 
REMARK    7  A    between atoms: C6_11  and  N3_28 
REMARK    8  A    between atoms: C7_12  and  C8_13 
REMARK    9  A    between atoms: C8_13  and  C9_14 
REMARK   10  A    between atoms: C9_14  and  C10_15 
REMARK   11  A    between atoms: C10_15  and  C11_16 
REMARK   12  A    between atoms: C11_16  and  C12_17 
REMARK       I    between atoms: C12_17  and  N2_19 
REMARK       I    between atoms: N3_28  and  C21_30 
REMARK   13  A    between atoms: C21_30  and  C22_32 
REMARK   14  A    between atoms: C22_32  and  N4_33 
REMARK   15  A    between atoms: C22_32  and  C28_42 
REMARK       I    between atoms: N4_33  and  C23_35 
REMARK   16  A    between atoms: C23_35  and  O7_37 
REMARK   17  A    between atoms: O7_37  and  C24_38 
REMARK   18  A    between atoms: C28_42  and  N5_43 
ROOT
HETATM    1  C6  UNL     1      -2.277 -44.439  14.918  1.00  0.00    -0.002 C 
ENDROOT
BRANCH   1   2
HETATM    2  C5  UNL     1      -2.688 -43.516  13.834  1.00  0.00     0.155 C 
BRANCH   2   3
HETATM    3  C4  UNL     1      -2.477 -42.071  14.087  1.00  0.00     0.223 C 
HETATM    4  N1  UNL     1      -3.576 -41.193  14.338  1.00  0.00    -0.351 N 
ATOM      5  H1  UNL     1      -4.506 -41.612  14.325  1.00  0.00     0.162 HD
HETATM    6  O3  UNL     1      -1.319 -41.598  14.080  1.00  0.00    -0.273 OA
BRANCH   4   7
HETATM    7  C3  UNL     1      -3.510 -39.801  14.604  1.00  0.00     0.233 C 
BRANCH   7   8
HETATM    8  C2  UNL     1      -4.337 -39.388  15.781  1.00  0.00     0.276 C 
HETATM    9  O2  UNL     1      -5.021 -40.215  16.386  1.00  0.00    -0.263 OA
BRANCH   8  10
HETATM   10  O1  UNL     1      -4.305 -38.042  16.169  1.00  0.00    -0.325 OA
HETATM   11  C1  UNL     1      -3.108 -37.417  16.628  1.00  0.00     0.213 C 
ENDBRANCH   8  10
ENDBRANCH   7   8
ENDBRANCH   4   7
ENDBRANCH   2   3
ENDBRANCH   1   2
BRANCH   1  12
HETATM   12  C7  UNL     1      -1.872 -45.806  14.637  1.00  0.00     0.053 C 
BRANCH  12  13
HETATM   13  C8  UNL     1      -2.227 -46.460  13.361  1.00  0.00     0.006 C 
BRANCH  13  14
HETATM   14  C9  UNL     1      -1.163 -47.275  12.702  1.00  0.00     0.001 C 
BRANCH  14  15
HETATM   15  C10 UNL     1      -0.486 -46.569  11.531  1.00  0.00     0.009 C 
BRANCH  15  16
HETATM   16  C11 UNL     1       1.006 -46.336  11.837  1.00  0.00     0.103 C 
BRANCH  16  17
HETATM   17  C12 UNL     1       1.170 -45.153  12.694  1.00  0.00     0.220 C 
HETATM   18  O4  UNL     1       0.577 -44.053  12.387  1.00  0.00    -0.273 OA
HETATM   19  N2  UNL     1       1.965 -45.120  13.885  1.00  0.00    -0.344 N 
HETATM   20  C13 UNL     1       1.963 -43.830  14.562  1.00  0.00     0.127 C 
HETATM   21  C18 UNL     1       2.687 -46.224  14.417  1.00  0.00     0.028 C 
HETATM   22  C14 UNL     1       3.200 -43.549  15.337  1.00  0.00     0.024 C 
HETATM   23  C15 UNL     1       3.395 -44.715  16.288  1.00  0.00    -0.015 C 
HETATM   24  C16 UNL     1       4.498 -44.417  17.247  1.00  0.00     0.010 C 
HETATM   25  C17 UNL     1       3.656 -45.959  15.520  1.00  0.00     0.034 C 
HETATM   26  C19 UNL     1       1.677 -47.269  14.925  1.00  0.00     0.038 C 
HETATM   27  C20 UNL     1       3.516 -46.935  13.325  1.00  0.00     0.038 C 
ENDBRANCH  16  17
ENDBRANCH  15  16
ENDBRANCH  14  15
ENDBRANCH  13  14
ENDBRANCH  12  13
ENDBRANCH   1  12
BRANCH   1  28
HETATM   28  N3  UNL     1      -1.457 -43.752  15.893  1.00  0.00    -0.332 N 
HETATM   29  C21 UNL     1      -1.808 -43.659  17.273  1.00  0.00     0.247 C 
HETATM   30  O5  UNL     1      -2.867 -44.175  17.652  1.00  0.00    -0.271 OA
ATOM     31  H3  UNL     1      -0.591 -43.314  15.580  1.00  0.00     0.168 HD
BRANCH  29  32
HETATM   32  C22 UNL     1      -0.935 -42.959  18.247  1.00  0.00     0.215 C 
BRANCH  32  33
HETATM   33  N4  UNL     1      -1.707 -42.057  19.033  1.00  0.00    -0.321 N 
HETATM   34  C23 UNL     1      -1.987 -40.717  18.616  1.00  0.00     0.362 C 
HETATM   35  O6  UNL     1      -1.519 -40.314  17.491  1.00  0.00    -0.238 OA
ATOM     36  H4  UNL     1      -2.075 -42.379  19.928  1.00  0.00     0.165 HD
BRANCH  34  37
HETATM   37  O7  UNL     1      -2.723 -39.785  19.298  1.00  0.00    -0.294 OA
BRANCH  37  38
HETATM   38  C24 UNL     1      -2.197 -38.939  20.291  1.00  0.00     0.061 C 
HETATM   39  C25 UNL     1      -1.035 -38.133  19.717  1.00  0.00     0.046 C 
HETATM   40  C26 UNL     1      -3.245 -37.883  20.672  1.00  0.00     0.046 C 
HETATM   41  C27 UNL     1      -1.756 -39.607  21.534  1.00  0.00     0.046 C 
ENDBRANCH  37  38
ENDBRANCH  34  37
ENDBRANCH  32  33
BRANCH  32  42
HETATM   42  C28 UNL     1      -0.334 -44.035  19.139  1.00  0.00     0.152 C 
HETATM   43  C29 UNL     1       0.409 -45.069  18.344  1.00  0.00     0.041 C 
HETATM   44  C30 UNL     1       1.266 -45.736  19.425  1.00  0.00     0.003 C 
HETATM   45  C31 UNL     1       1.864 -44.477  20.063  1.00  0.00     0.003 C 
HETATM   46  C32 UNL     1       0.692 -43.489  20.073  1.00  0.00     0.041 C 
BRANCH  42  47
HETATM   47  N5  UNL     1      -1.338 -44.720  19.931  1.00  0.00    -0.068 N 
ATOM     48  H53 UNL     1      -2.251 -44.278  19.830  1.00  0.00     0.275 HD
ATOM     49  H52 UNL     1      -1.555 -45.636  19.536  1.00  0.00     0.275 HD
ATOM     50  H51 UNL     1      -1.073 -44.796  20.913  1.00  0.00     0.275 HD
ENDBRANCH  42  47
ENDBRANCH  32  42
ENDBRANCH  29  32
ENDBRANCH   1  28
TORSDOF 18
ENDMDL
MODEL 4
REMARK VINA RESULT: -7.205895529      1.355      1.811
REMARK  18 active torsions:
REMARK  status: ('A' for Active; 'I' for Inactive)
REMARK    1  A    between atoms: O1_2  and  C2_3 
REMARK    2  A    between atoms: C2_3  and  C3_5 
REMARK    3  A    between atoms: C3_5  and  N1_6 
REMARK       I    between atoms: N1_6  and  C4_8 
REMARK    4  A    between atoms: C4_8  and  C5_10 
REMARK    5  A    between atoms: C5_10  and  C6_11 
REMARK    6  A    between atoms: C6_11  and  C7_12 
REMARK    7  A    between atoms: C6_11  and  N3_28 
REMARK    8  A    between atoms: C7_12  and  C8_13 
REMARK    9  A    between atoms: C8_13  and  C9_14 
REMARK   10  A    between atoms: C9_14  and  C10_15 
REMARK   11  A    between atoms: C10_15  and  C11_16 
REMARK   12  A    between atoms: C11_16  and  C12_17 
REMARK       I    between atoms: C12_17  and  N2_19 
REMARK       I    between atoms: N3_28  and  C21_30 
REMARK   13  A    between atoms: C21_30  and  C22_32 
REMARK   14  A    between atoms: C22_32  and  N4_33 
REMARK   15  A    between atoms: C22_32  and  C28_42 
REMARK       I    between atoms: N4_33  and  C23_35 
REMARK   16  A    between atoms: C23_35  and  O7_37 
REMARK   17  A    between atoms: O7_37  and  C24_38 
REMARK   18  A    between atoms: C28_42  and  N5_43 
ROOT
HETATM    1  C6  UNL     1      -2.009 -42.125  16.865  1.00  0.00    -0.002 C 
ENDROOT
BRANCH   1   2
HETATM    2  C5  UNL     1      -1.430 -42.067  15.502  1.00  0.00     0.155 C 
BRANCH   2   3
HETATM    3  C4  UNL     1      -2.139 -42.838  14.454  1.00  0.00     0.223 C 
HETATM    4  N1  UNL     1      -1.521 -43.950  13.805  1.00  0.00    -0.351 N 
ATOM      5  H1  UNL     1      -0.569 -44.176  14.095  1.00  0.00     0.162 HD
HETATM    6  O3  UNL     1      -3.301 -42.517  14.119  1.00  0.00    -0.273 OA
BRANCH   4   7
HETATM    7  C3  UNL     1      -2.089 -44.774  12.800  1.00  0.00     0.233 C 
BRANCH   7   8
HETATM    8  C2  UNL     1      -1.109 -45.170  11.741  1.00  0.00     0.276 C 
HETATM    9  O2  UNL     1      -0.037 -44.575  11.626  1.00  0.00    -0.263 OA
BRANCH   8  10
HETATM   10  O1  UNL     1      -1.449 -46.232  10.891  1.00  0.00    -0.325 OA
HETATM   11  C1  UNL     1      -0.707 -47.450  10.872  1.00  0.00     0.213 C 
ENDBRANCH   8  10
ENDBRANCH   7   8
ENDBRANCH   4   7
ENDBRANCH   2   3
ENDBRANCH   1   2
BRANCH   1  12
HETATM   12  C7  UNL     1      -1.686 -43.206  17.780  1.00  0.00     0.053 C 
BRANCH  12  13
HETATM   13  C8  UNL     1      -2.746 -43.920  18.522  1.00  0.00     0.006 C 
BRANCH  13  14
HETATM   14  C9  UNL     1      -2.969 -45.353  18.165  1.00  0.00     0.001 C 
BRANCH  14  15
HETATM   15  C10 UNL     1      -2.393 -45.744  16.808  1.00  0.00     0.009 C 
BRANCH  15  16
HETATM   16  C11 UNL     1      -1.315 -46.831  16.977  1.00  0.00     0.103 C 
BRANCH  16  17
HETATM   17  C12 UNL     1      -0.664 -47.106  15.687  1.00  0.00     0.220 C 
HETATM   18  O4  UNL     1      -1.343 -47.625  14.726  1.00  0.00    -0.273 OA
HETATM   19  N2  UNL     1       0.713 -46.834  15.401  1.00  0.00    -0.344 N 
HETATM   20  C13 UNL     1       1.117 -47.192  14.048  1.00  0.00     0.127 C 
HETATM   21  C18 UNL     1       1.636 -46.245  16.309  1.00  0.00     0.028 C 
HETATM   22  C14 UNL     1       2.553 -47.553  13.919  1.00  0.00     0.024 C 
HETATM   23  C15 UNL     1       3.350 -46.394  14.487  1.00  0.00    -0.015 C 
HETATM   24  C16 UNL     1       4.803 -46.584  14.209  1.00  0.00     0.010 C 
HETATM   25  C17 UNL     1       3.082 -46.257  15.942  1.00  0.00     0.034 C 
HETATM   26  C19 UNL     1       1.226 -44.779  16.540  1.00  0.00     0.038 C 
HETATM   27  C20 UNL     1       1.575 -46.922  17.695  1.00  0.00     0.038 C 
ENDBRANCH  16  17
ENDBRANCH  15  16
ENDBRANCH  14  15
ENDBRANCH  13  14
ENDBRANCH  12  13
ENDBRANCH   1  12
BRANCH   1  28
HETATM   28  N3  UNL     1      -2.037 -40.809  17.467  1.00  0.00    -0.332 N 
HETATM   29  C21 UNL     1      -3.120 -39.898  17.288  1.00  0.00     0.247 C 
HETATM   30  O5  UNL     1      -4.072 -40.240  16.575  1.00  0.00    -0.271 OA
ATOM     31  H3  UNL     1      -1.248 -40.520  18.045  1.00  0.00     0.168 HD
BRANCH  29  32
HETATM   32  C22 UNL     1      -3.122 -38.562  17.934  1.00  0.00     0.215 C 
BRANCH  32  33
HETATM   33  N4  UNL     1      -2.535 -38.645  19.228  1.00  0.00    -0.321 N 
HETATM   34  C23 UNL     1      -3.296 -38.939  20.403  1.00  0.00     0.362 C 
HETATM   35  O6  UNL     1      -4.559 -39.131  20.283  1.00  0.00    -0.238 OA
ATOM     36  H4  UNL     1      -1.531 -38.490  19.320  1.00  0.00     0.165 HD
BRANCH  34  37
HETATM   37  O7  UNL     1      -2.818 -39.047  21.682  1.00  0.00    -0.294 OA
BRANCH  37  38
HETATM   38  C24 UNL     1      -2.473 -40.266  22.293  1.00  0.00     0.061 C 
HETATM   39  C25 UNL     1      -1.281 -40.055  23.223  1.00  0.00     0.046 C 
HETATM   40  C26 UNL     1      -3.610 -40.712  23.223  1.00  0.00     0.046 C 
HETATM   41  C27 UNL     1      -2.177 -41.383  21.372  1.00  0.00     0.046 C 
ENDBRANCH  37  38
ENDBRANCH  34  37
ENDBRANCH  32  33
BRANCH  32  42
HETATM   42  C28 UNL     1      -2.288 -37.652  17.046  1.00  0.00     0.152 C 
HETATM   43  C29 UNL     1      -2.768 -36.231  17.094  1.00  0.00     0.041 C 
HETATM   44  C30 UNL     1      -1.560 -35.475  16.531  1.00  0.00     0.003 C 
HETATM   45  C31 UNL     1      -0.465 -36.095  17.405  1.00  0.00     0.003 C 
HETATM   46  C32 UNL     1      -0.868 -37.571  17.492  1.00  0.00     0.041 C 
BRANCH  42  47
HETATM   47  N5  UNL     1      -2.295 -38.076  15.658  1.00  0.00    -0.068 N 
ATOM     48  H53 UNL     1      -2.443 -39.083  15.582  1.00  0.00     0.275 HD
ATOM     49  H52 UNL     1      -3.134 -37.751  15.179  1.00  0.00     0.275 HD
ATOM     50  H51 UNL     1      -1.452 -37.790  15.160  1.00  0.00     0.275 HD
ENDBRANCH  42  47
ENDBRANCH  32  42
ENDBRANCH  29  32
ENDBRANCH   1  28
TORSDOF 18
ENDMDL
MODEL 5
REMARK VINA RESULT: -7.195572387      1.609      2.069
REMARK  18 active torsions:
REMARK  status: ('A' for Active; 'I' for Inactive)
REMARK    1  A    between atoms: O1_2  and  C2_3 
REMARK    2  A    between atoms: C2_3  and  C3_5 
REMARK    3  A    between atoms: C3_5  and  N1_6 
REMARK       I    between atoms: N1_6  and  C4_8 
REMARK    4  A    between atoms: C4_8  and  C5_10 
REMARK    5  A    between atoms: C5_10  and  C6_11 
REMARK    6  A    between atoms: C6_11  and  C7_12 
REMARK    7  A    between atoms: C6_11  and  N3_28 
REMARK    8  A    between atoms: C7_12  and  C8_13 
REMARK    9  A    between atoms: C8_13  and  C9_14 
REMARK   10  A    between atoms: C9_14  and  C10_15 
REMARK   11  A    between atoms: C10_15  and  C11_16 
REMARK   12  A    between atoms: C11_16  and  C12_17 
REMARK       I    between atoms: C12_17  and  N2_19 
REMARK       I    between atoms: N3_28  and  C21_30 
REMARK   13  A    between atoms: C21_30  and  C22_32 
REMARK   14  A    between atoms: C22_32  and  N4_33 
REMARK   15  A    between atoms: C22_32  and  C28_42 
REMARK       I    between atoms: N4_33  and  C23_35 
REMARK   16  A    between atoms: C23_35  and  O7_37 
REMARK   17  A    between atoms: O7_37  and  C24_38 
REMARK   18  A    between atoms: C28_42  and  N5_43 
ROOT
HETATM    1  C6  UNL     1      -2.086 -42.560  17.105  1.00  0.00    -0.002 C 
ENDROOT
BRANCH   1   2
HETATM    2  C5  UNL     1      -1.294 -42.604  15.853  1.00  0.00     0.155 C 
BRANCH   2   3
HETATM    3  C4  UNL     1      -1.923 -43.292  14.701  1.00  0.00     0.223 C 
HETATM    4  N1  UNL     1      -1.316 -44.436  14.098  1.00  0.00    -0.351 N 
ATOM      5  H1  UNL     1      -0.428 -44.744  14.495  1.00  0.00     0.162 HD
HETATM    6  O3  UNL     1      -3.006 -42.871  14.237  1.00  0.00    -0.273 OA
BRANCH   4   7
HETATM    7  C3  UNL     1      -1.816 -45.189  13.005  1.00  0.00     0.233 C 
BRANCH   7   8
HETATM    8  C2  UNL     1      -0.994 -45.042  11.764  1.00  0.00     0.276 C 
HETATM    9  O2  UNL     1      -0.289 -44.046  11.595  1.00  0.00    -0.263 OA
BRANCH   8  10
HETATM   10  O1  UNL     1      -1.051 -46.067  10.809  1.00  0.00    -0.325 OA
HETATM   11  C1  UNL     1      -0.690 -47.411  11.123  1.00  0.00     0.213 C 
ENDBRANCH   8  10
ENDBRANCH   7   8
ENDBRANCH   4   7
ENDBRANCH   2   3
ENDBRANCH   1   2
BRANCH   1  12
HETATM   12  C7  UNL     1      -1.990 -43.612  18.101  1.00  0.00     0.053 C 
BRANCH  12  13
HETATM   13  C8  UNL     1      -2.650 -44.918  17.898  1.00  0.00     0.006 C 
BRANCH  13  14
HETATM   14  C9  UNL     1      -2.040 -46.096  18.584  1.00  0.00     0.001 C 
BRANCH  14  15
HETATM   15  C10 UNL     1      -0.640 -45.830  19.130  1.00  0.00     0.009 C 
BRANCH  15  16
HETATM   16  C11 UNL     1       0.414 -46.563  18.277  1.00  0.00     0.103 C 
BRANCH  16  17
HETATM   17  C12 UNL     1       1.163 -45.599  17.458  1.00  0.00     0.220 C 
HETATM   18  O4  UNL     1       1.483 -44.454  17.948  1.00  0.00    -0.273 OA
HETATM   19  N2  UNL     1       1.581 -45.837  16.108  1.00  0.00    -0.344 N 
HETATM   20  C13 UNL     1       2.314 -44.728  15.512  1.00  0.00     0.127 C 
HETATM   21  C18 UNL     1       1.352 -47.038  15.380  1.00  0.00     0.028 C 
HETATM   22  C14 UNL     1       2.180 -44.636  14.035  1.00  0.00     0.024 C 
HETATM   23  C15 UNL     1       2.589 -45.985  13.473  1.00  0.00    -0.015 C 
HETATM   24  C16 UNL     1       2.682 -45.915  11.985  1.00  0.00     0.010 C 
HETATM   25  C17 UNL     1       1.632 -47.031  13.915  1.00  0.00     0.034 C 
HETATM   26  C19 UNL     1       2.196 -48.160  16.012  1.00  0.00     0.038 C 
HETATM   27  C20 UNL     1      -0.118 -47.498  15.499  1.00  0.00     0.038 C 
ENDBRANCH  16  17
ENDBRANCH  15  16
ENDBRANCH  14  15
ENDBRANCH  13  14
ENDBRANCH  12  13
ENDBRANCH   1  12
BRANCH   1  28
HETATM   28  N3  UNL     1      -2.118 -41.216  17.643  1.00  0.00    -0.332 N 
HETATM   29  C21 UNL     1      -3.126 -40.267  17.297  1.00  0.00     0.247 C 
HETATM   30  O5  UNL     1      -4.002 -40.599  16.489  1.00  0.00    -0.271 OA
ATOM     31  H3  UNL     1      -1.389 -40.935  18.298  1.00  0.00     0.168 HD
BRANCH  29  32
HETATM   32  C22 UNL     1      -3.136 -38.903  17.881  1.00  0.00     0.215 C 
BRANCH  32  33
HETATM   33  N4  UNL     1      -2.568 -38.927  19.186  1.00  0.00    -0.321 N 
HETATM   34  C23 UNL     1      -3.354 -39.119  20.366  1.00  0.00     0.362 C 
HETATM   35  O6  UNL     1      -4.622 -39.272  20.240  1.00  0.00    -0.238 OA
ATOM     36  H4  UNL     1      -1.560 -38.802  19.283  1.00  0.00     0.165 HD
BRANCH  34  37
HETATM   37  O7  UNL     1      -2.896 -39.165  21.656  1.00  0.00    -0.294 OA
BRANCH  37  38
HETATM   38  C24 UNL     1      -2.577 -40.354  22.336  1.00  0.00     0.061 C 
HETATM   39  C25 UNL     1      -1.355 -40.127  23.221  1.00  0.00     0.046 C 
HETATM   40  C26 UNL     1      -3.704 -40.698  23.321  1.00  0.00     0.046 C 
HETATM   41  C27 UNL     1      -2.345 -41.538  21.483  1.00  0.00     0.046 C 
ENDBRANCH  37  38
ENDBRANCH  34  37
ENDBRANCH  32  33
BRANCH  32  42
HETATM   42  C28 UNL     1      -2.288 -38.034  16.965  1.00  0.00     0.152 C 
HETATM   43  C29 UNL     1      -2.784 -36.618  16.920  1.00  0.00     0.041 C 
HETATM   44  C30 UNL     1      -1.569 -35.881  16.346  1.00  0.00     0.003 C 
HETATM   45  C31 UNL     1      -0.491 -36.438  17.282  1.00  0.00     0.003 C 
HETATM   46  C32 UNL     1      -0.881 -37.912  17.442  1.00  0.00     0.041 C 
BRANCH  42  47
HETATM   47  N5  UNL     1      -2.254 -38.535  15.604  1.00  0.00    -0.068 N 
ATOM     48  H53 UNL     1      -2.038 -39.532  15.584  1.00  0.00     0.275 HD
ATOM     49  H52 UNL     1      -3.190 -38.563  15.199  1.00  0.00     0.275 HD
ATOM     50  H51 UNL     1      -1.612 -38.009  15.012  1.00  0.00     0.275 HD
ENDBRANCH  42  47
ENDBRANCH  32  42
ENDBRANCH  29  32
ENDBRANCH   1  28
TORSDOF 18
ENDMDL
