MODEL 1
REMARK VINA RESULT: -8.607450042      0.000      0.000
REMARK  16 active torsions:
REMARK  status: ('A' for Active; 'I' for Inactive)
REMARK    1  A    between atoms: O1_2  and  C2_3 
REMARK    2  A    between atoms: C2_3  and  C3_4 
REMARK       I    between atoms: C3_4  and  N1_6 
REMARK    3  A    between atoms: N1_6  and  C4_8 
REMARK    4  A    between atoms: C4_8  and  C5_9 
REMARK    5  A    between atoms: C5_9  and  C6_10 
REMARK    6  A    between atoms: C5_9  and  C28_44 
REMARK       I    between atoms: C6_10  and  N2_12 
REMARK    7  A    between atoms: N2_12  and  C7_14 
REMARK    8  A    between atoms: C7_14  and  C8_15 
REMARK    9  A    between atoms: C7_14  and  C9_18 
REMARK   10  A    between atoms: C9_18  and  C10_19 
REMARK   11  A    between atoms: C9_18  and  N3_26 
REMARK   12  A    between atoms: C10_19  and  C11_20 
REMARK       I    between atoms: N3_26  and  C17_28 
REMARK   13  A    between atoms: C17_28  and  O7_30 
REMARK   14  A    between atoms: O7_30  and  C18_31 
REMARK       I    between atoms: N4_33  and  C20_34 
REMARK   15  A    between atoms: C20_34  and  O9_36 
REMARK   16  A    between atoms: O9_36  and  C21_37 
ROOT
HETATM    1  C9  UNL     1      -2.847 -39.178  16.486  1.00  0.00     0.120 C 
ENDROOT
BRANCH   1   2
HETATM    2  C7  UNL     1      -2.663 -39.843  15.141  1.00  0.00     0.208 C 
BRANCH   2   3
HETATM    3  N2  UNL     1      -2.715 -41.311  15.210  1.00  0.00    -0.344 N 
HETATM    4  C6  UNL     1      -1.513 -42.058  14.981  1.00  0.00     0.224 C 
HETATM    5  O3  UNL     1      -0.475 -41.411  14.762  1.00  0.00    -0.273 OA
ATOM      6  H2  UNL     1      -3.591 -41.790  15.418  1.00  0.00     0.163 HD
BRANCH   4   7
HETATM    7  C5  UNL     1      -1.557 -43.527  15.005  1.00  0.00     0.099 C 
BRANCH   7   8
HETATM    8  C4  UNL     1      -2.175 -44.099  13.804  1.00  0.00     0.137 C 
BRANCH   8   9
HETATM    9  N1  UNL     1      -1.510 -45.225  13.183  1.00  0.00    -0.358 N 
HETATM   10  C3  UNL     1      -0.596 -45.115  12.116  1.00  0.00     0.241 C 
HETATM   11  O2  UNL     1      -0.352 -43.941  11.680  1.00  0.00    -0.271 OA
ATOM     12  H1  UNL     1      -1.715 -46.158  13.542  1.00  0.00     0.162 HD
BRANCH  10  13
HETATM   13  C2  UNL     1       0.057 -46.292  11.532  1.00  0.00     0.269 C 
BRANCH  13  14
HETATM   14  O1  UNL     1      -0.745 -46.924  10.619  1.00  0.00    -0.387 OA
HETATM   15  C1  UNL     1      -0.359 -48.236  10.418  1.00  0.00     0.202 C 
ENDBRANCH  13  14
ENDBRANCH  10  13
ENDBRANCH   8   9
ENDBRANCH   7   8
BRANCH   7  16
HETATM   16  C28 UNL     1      -2.125 -43.966  16.334  1.00  0.00    -0.008 C 
HETATM   17  C29 UNL     1      -2.614 -45.369  16.385  1.00  0.00     0.010 C 
HETATM   18  C30 UNL     1      -1.327 -43.549  17.540  1.00  0.00     0.010 C 
ENDBRANCH   7  16
ENDBRANCH   4   7
ENDBRANCH   2   3
BRANCH   2  19
HETATM   19  C8  UNL     1      -3.721 -39.502  14.142  1.00  0.00     0.198 C 
HETATM   20  O4  UNL     1      -4.810 -38.978  14.520  1.00  0.00    -0.646 OA
HETATM   21  O5  UNL     1      -3.527 -39.761  12.811  1.00  0.00    -0.646 OA
ENDBRANCH   2  19
ENDBRANCH   1   2
BRANCH   1  22
HETATM   22  C10 UNL     1      -1.492 -38.775  17.031  1.00  0.00     0.032 C 
BRANCH  22  23
HETATM   23  C11 UNL     1      -1.524 -37.569  17.934  1.00  0.00    -0.013 C 
HETATM   24  C12 UNL     1      -0.147 -36.921  17.902  1.00  0.00     0.005 C 
HETATM   25  C13 UNL     1      -0.115 -35.451  17.982  1.00  0.00     0.000 C 
HETATM   26  C14 UNL     1      -1.031 -34.891  16.911  1.00  0.00     0.000 C 
HETATM   27  C15 UNL     1      -2.420 -35.239  17.397  1.00  0.00     0.000 C 
HETATM   28  C16 UNL     1      -2.657 -36.671  17.669  1.00  0.00     0.005 C 
ENDBRANCH  22  23
ENDBRANCH   1  22
BRANCH   1  29
HETATM   29  N3  UNL     1      -3.509 -40.000  17.458  1.00  0.00    -0.330 N 
HETATM   30  C17 UNL     1      -4.782 -40.370  17.821  1.00  0.00     0.361 C 
HETATM   31  O6  UNL     1      -5.869 -40.038  17.308  1.00  0.00    -0.238 OA
ATOM     32  H3  UNL     1      -2.824 -40.448  18.067  1.00  0.00     0.165 HD
BRANCH  30  33
HETATM   33  O7  UNL     1      -5.016 -41.257  18.924  1.00  0.00    -0.296 OA
BRANCH  33  34
HETATM   34  C18 UNL     1      -5.313 -40.794  20.220  1.00  0.00     0.161 C 
HETATM   35  C19 UNL     1      -6.524 -41.428  20.802  1.00  0.00     0.161 C 
HETATM   36  N4  UNL     1      -6.203 -41.666  22.187  1.00  0.00    -0.325 N 
HETATM   37  C20 UNL     1      -7.106 -41.925  23.266  1.00  0.00     0.363 C 
HETATM   38  C24 UNL     1      -4.775 -41.604  22.408  1.00  0.00     0.139 C 
HETATM   39  O8  UNL     1      -8.333 -41.928  22.996  1.00  0.00    -0.238 OA
HETATM   40  C25 UNL     1      -4.184 -41.148  21.123  1.00  0.00    -0.003 C 
HETATM   41  C26 UNL     1      -3.313 -39.915  21.286  1.00  0.00     0.019 C 
HETATM   42  C27 UNL     1      -3.400 -42.293  20.514  1.00  0.00     0.019 C 
BRANCH  37  43
HETATM   43  O9  UNL     1      -6.729 -42.169  24.570  1.00  0.00    -0.299 OA
BRANCH  43  44
HETATM   44  C21 UNL     1      -6.974 -41.235  25.615  1.00  0.00     0.125 C 
HETATM   45  C22 UNL     1      -5.676 -40.906  26.298  1.00  0.00     0.040 C 
HETATM   46  C23 UNL     1      -7.964 -41.725  26.637  1.00  0.00     0.040 C 
ENDBRANCH  43  44
ENDBRANCH  37  43
ENDBRANCH  33  34
ENDBRANCH  30  33
ENDBRANCH   1  29
TORSDOF 16
ENDMDL
MODEL 2
REMARK VINA RESULT: -8.495543408      1.728      2.138
REMARK  16 active torsions:
REMARK  status: ('A' for Active; 'I' for Inactive)
REMARK    1  A    between atoms: O1_2  and  C2_3 
REMARK    2  A    between atoms: C2_3  and  C3_4 
REMARK       I    between atoms: C3_4  and  N1_6 
REMARK    3  A    between atoms: N1_6  and  C4_8 
REMARK    4  A    between atoms: C4_8  and  C5_9 
REMARK    5  A    between atoms: C5_9  and  C6_10 
REMARK    6  A    between atoms: C5_9  and  C28_44 
REMARK       I    between atoms: C6_10  and  N2_12 
REMARK    7  A    between atoms: N2_12  and  C7_14 
REMARK    8  A    between atoms: C7_14  and  C8_15 
REMARK    9  A    between atoms: C7_14  and  C9_18 
REMARK   10  A    between atoms: C9_18  and  C10_19 
REMARK   11  A    between atoms: C9_18  and  N3_26 
REMARK   12  A    between atoms: C10_19  and  C11_20 
REMARK       I    between atoms: N3_26  and  C17_28 
REMARK   13  A    between atoms: C17_28  and  O7_30 
REMARK   14  A    between atoms: O7_30  and  C18_31 
REMARK       I    between atoms: N4_33  and  C20_34 
REMARK   15  A    between atoms: C20_34  and  O9_36 
REMARK   16  A    between atoms: O9_36  and  C21_37 
ROOT
HETATM    1  C9  UNL     1      -2.981 -39.453  16.335  1.00  0.00     0.120 C 
ENDROOT
BRANCH   1   2
HETATM    2  C7  UNL     1      -2.711 -40.251  15.079  1.00  0.00     0.208 C 
BRANCH   2   3
HETATM    3  N2  UNL     1      -2.545 -41.690  15.334  1.00  0.00    -0.344 N 
HETATM    4  C6  UNL     1      -1.605 -42.430  14.544  1.00  0.00     0.224 C 
HETATM    5  O3  UNL     1      -0.954 -41.797  13.695  1.00  0.00    -0.273 OA
ATOM      6  H2  UNL     1      -3.090 -42.154  16.061  1.00  0.00     0.163 HD
BRANCH   4   7
HETATM    7  C5  UNL     1      -1.459 -43.877  14.757  1.00  0.00     0.099 C 
BRANCH   7   8
HETATM    8  C4  UNL     1      -0.302 -44.443  14.056  1.00  0.00     0.137 C 
BRANCH   8   9
HETATM    9  N1  UNL     1       0.991 -44.314  14.693  1.00  0.00    -0.358 N 
HETATM   10  C3  UNL     1       2.085 -43.624  14.132  1.00  0.00     0.241 C 
HETATM   11  O2  UNL     1       1.907 -43.087  12.989  1.00  0.00    -0.271 OA
ATOM     12  H1  UNL     1       1.119 -44.750  15.606  1.00  0.00     0.162 HD
BRANCH  10  13
HETATM   13  C2  UNL     1       3.372 -43.517  14.829  1.00  0.00     0.269 C 
BRANCH  13  14
HETATM   14  O1  UNL     1       3.758 -44.710  15.381  1.00  0.00    -0.387 OA
HETATM   15  C1  UNL     1       4.464 -45.487  14.483  1.00  0.00     0.202 C 
ENDBRANCH  13  14
ENDBRANCH  10  13
ENDBRANCH   8   9
ENDBRANCH   7   8
BRANCH   7  16
HETATM   16  C28 UNL     1      -2.795 -44.534  14.501  1.00  0.00    -0.008 C 
HETATM   17  C29 UNL     1      -3.286 -44.450  13.100  1.00  0.00     0.010 C 
HETATM   18  C30 UNL     1      -2.976 -45.885  15.136  1.00  0.00     0.010 C 
ENDBRANCH   7  16
ENDBRANCH   4   7
ENDBRANCH   2   3
BRANCH   2  19
HETATM   19  C8  UNL     1      -3.814 -40.198  14.073  1.00  0.00     0.198 C 
HETATM   20  O4  UNL     1      -4.938 -40.721  14.332  1.00  0.00    -0.646 OA
HETATM   21  O5  UNL     1      -3.619 -39.592  12.861  1.00  0.00    -0.646 OA
ENDBRANCH   2  19
ENDBRANCH   1   2
BRANCH   1  22
HETATM   22  C10 UNL     1      -1.677 -38.871  16.843  1.00  0.00     0.032 C 
BRANCH  22  23
HETATM   23  C11 UNL     1      -1.844 -37.659  17.723  1.00  0.00    -0.013 C 
HETATM   24  C12 UNL     1      -0.471 -37.037  17.932  1.00  0.00     0.005 C 
HETATM   25  C13 UNL     1      -0.425 -35.567  18.013  1.00  0.00     0.000 C 
HETATM   26  C14 UNL     1      -1.127 -34.997  16.795  1.00  0.00     0.000 C 
HETATM   27  C15 UNL     1      -2.586 -35.316  17.029  1.00  0.00     0.000 C 
HETATM   28  C16 UNL     1      -2.896 -36.742  17.260  1.00  0.00     0.005 C 
ENDBRANCH  22  23
ENDBRANCH   1  22
BRANCH   1  29
HETATM   29  N3  UNL     1      -3.589 -40.211  17.389  1.00  0.00    -0.330 N 
HETATM   30  C17 UNL     1      -4.838 -40.480  17.896  1.00  0.00     0.361 C 
HETATM   31  O6  UNL     1      -5.947 -40.074  17.499  1.00  0.00    -0.238 OA
ATOM     32  H3  UNL     1      -2.876 -40.702  17.928  1.00  0.00     0.165 HD
BRANCH  30  33
HETATM   33  O7  UNL     1      -5.013 -41.334  19.036  1.00  0.00    -0.296 OA
BRANCH  33  34
HETATM   34  C18 UNL     1      -5.347 -40.838  20.311  1.00  0.00     0.161 C 
HETATM   35  C19 UNL     1      -6.544 -41.495  20.896  1.00  0.00     0.161 C 
HETATM   36  N4  UNL     1      -6.238 -41.674  22.292  1.00  0.00    -0.325 N 
HETATM   37  C20 UNL     1      -7.149 -41.928  23.366  1.00  0.00     0.363 C 
HETATM   38  C24 UNL     1      -4.816 -41.556  22.533  1.00  0.00     0.139 C 
HETATM   39  O8  UNL     1      -8.371 -41.984  23.078  1.00  0.00    -0.238 OA
HETATM   40  C25 UNL     1      -4.222 -41.123  21.241  1.00  0.00    -0.003 C 
HETATM   41  C26 UNL     1      -3.396 -39.855  21.376  1.00  0.00     0.019 C 
HETATM   42  C27 UNL     1      -3.388 -42.259  20.684  1.00  0.00     0.019 C 
BRANCH  37  43
HETATM   43  O9  UNL     1      -6.785 -42.116  24.683  1.00  0.00    -0.299 OA
BRANCH  43  44
HETATM   44  C21 UNL     1      -7.168 -41.208  25.710  1.00  0.00     0.125 C 
HETATM   45  C22 UNL     1      -5.934 -40.604  26.320  1.00  0.00     0.040 C 
HETATM   46  C23 UNL     1      -7.999 -41.841  26.792  1.00  0.00     0.040 C 
ENDBRANCH  43  44
ENDBRANCH  37  43
ENDBRANCH  33  34
ENDBRANCH  30  33
ENDBRANCH   1  29
TORSDOF 16
ENDMDL
MODEL 3
REMARK VINA RESULT: -8.484574274      0.836      1.031
REMARK  16 active torsions:
REMARK  status: ('A' for Active; 'I' for Inactive)
REMARK    1  A    between atoms: O1_2  and  C2_3 
REMARK    2  A    between atoms: C2_3  and  C3_4 
REMARK       I    between atoms: C3_4  and  N1_6 
REMARK    3  A    between atoms: N1_6  and  C4_8 
REMARK    4  A    between atoms: C4_8  and  C5_9 
REMARK    5  A    between atoms: C5_9  and  C6_10 
REMARK    6  A    between atoms: C5_9  and  C28_44 
REMARK       I    between atoms: C6_10  and  N2_12 
REMARK    7  A    between atoms: N2_12  and  C7_14 
REMARK    8  A    between atoms: C7_14  and  C8_15 
REMARK    9  A    between atoms: C7_14  and  C9_18 
REMARK   10  A    between atoms: C9_18  and  C10_19 
REMARK   11  A    between atoms: C9_18  and  N3_26 
REMARK   12  A    between atoms: C10_19  and  C11_20 
REMARK       I    between atoms: N3_26  and  C17_28 
REMARK   13  A    between atoms: C17_28  and  O7_30 
REMARK   14  A    between atoms: O7_30  and  C18_31 
REMARK       I    between atoms: N4_33  and  C20_34 
REMARK   15  A    between atoms: C20_34  and  O9_36 
REMARK   16  A    between atoms: O9_36  and  C21_37 
ROOT
HETATM    1  C9  UNL     1      -2.973 -39.194  16.489  1.00  0.00     0.120 C 
ENDROOT
BRANCH   1   2
HETATM    2  C7  UNL     1      -2.709 -39.827  15.142  1.00  0.00     0.208 C 
BRANCH   2   3
HETATM    3  N2  UNL     1      -2.738 -41.297  15.179  1.00  0.00    -0.344 N 
HETATM    4  C6  UNL     1      -1.519 -42.020  14.968  1.00  0.00     0.224 C 
HETATM    5  O3  UNL     1      -0.486 -41.352  14.792  1.00  0.00    -0.273 OA
ATOM      6  H2  UNL     1      -3.612 -41.794  15.351  1.00  0.00     0.163 HD
BRANCH   4   7
HETATM    7  C5  UNL     1      -1.540 -43.490  14.959  1.00  0.00     0.099 C 
BRANCH   7   8
HETATM    8  C4  UNL     1      -2.146 -44.045  13.744  1.00  0.00     0.137 C 
BRANCH   8   9
HETATM    9  N1  UNL     1      -1.495 -45.186  13.136  1.00  0.00    -0.358 N 
HETATM   10  C3  UNL     1      -0.558 -45.096  12.088  1.00  0.00     0.241 C 
HETATM   11  O2  UNL     1      -0.277 -43.929  11.659  1.00  0.00    -0.271 OA
ATOM     12  H1  UNL     1      -1.731 -46.113  13.489  1.00  0.00     0.162 HD
BRANCH  10  13
HETATM   13  C2  UNL     1       0.079 -46.289  11.515  1.00  0.00     0.269 C 
BRANCH  13  14
HETATM   14  O1  UNL     1      -0.724 -46.908  10.594  1.00  0.00    -0.387 OA
HETATM   15  C1  UNL     1      -0.376 -48.233  10.418  1.00  0.00     0.202 C 
ENDBRANCH  13  14
ENDBRANCH  10  13
ENDBRANCH   8   9
ENDBRANCH   7   8
BRANCH   7  16
HETATM   16  C28 UNL     1      -2.104 -43.966  16.276  1.00  0.00    -0.008 C 
HETATM   17  C29 UNL     1      -2.668 -45.342  16.267  1.00  0.00     0.010 C 
HETATM   18  C30 UNL     1      -1.262 -43.655  17.483  1.00  0.00     0.010 C 
ENDBRANCH   7  16
ENDBRANCH   4   7
ENDBRANCH   2   3
BRANCH   2  19
HETATM   19  C8  UNL     1      -3.719 -39.482  14.097  1.00  0.00     0.198 C 
HETATM   20  O4  UNL     1      -4.827 -38.964  14.427  1.00  0.00    -0.646 OA
HETATM   21  O5  UNL     1      -3.462 -39.730  12.775  1.00  0.00    -0.646 OA
ENDBRANCH   2  19
ENDBRANCH   1   2
BRANCH   1  22
HETATM   22  C10 UNL     1      -1.650 -38.855  17.147  1.00  0.00     0.032 C 
BRANCH  22  23
HETATM   23  C11 UNL     1      -1.687 -37.617  18.005  1.00  0.00    -0.013 C 
HETATM   24  C12 UNL     1      -0.292 -37.010  18.014  1.00  0.00     0.005 C 
HETATM   25  C13 UNL     1      -0.220 -35.539  18.045  1.00  0.00     0.000 C 
HETATM   26  C14 UNL     1      -1.071 -34.992  16.914  1.00  0.00     0.000 C 
HETATM   27  C15 UNL     1      -2.490 -35.284  17.347  1.00  0.00     0.000 C 
HETATM   28  C16 UNL     1      -2.781 -36.698  17.658  1.00  0.00     0.005 C 
ENDBRANCH  22  23
ENDBRANCH   1  22
BRANCH   1  29
HETATM   29  N3  UNL     1      -3.734 -40.018  17.382  1.00  0.00    -0.330 N 
HETATM   30  C17 UNL     1      -5.023 -40.147  17.842  1.00  0.00     0.361 C 
HETATM   31  O6  UNL     1      -6.030 -39.476  17.545  1.00  0.00    -0.238 OA
ATOM     32  H3  UNL     1      -3.136 -40.726  17.807  1.00  0.00     0.165 HD
BRANCH  30  33
HETATM   33  O7  UNL     1      -5.378 -41.160  18.795  1.00  0.00    -0.296 OA
BRANCH  33  34
HETATM   34  C18 UNL     1      -5.349 -40.937  20.185  1.00  0.00     0.161 C 
HETATM   35  C19 UNL     1      -6.637 -41.253  20.853  1.00  0.00     0.161 C 
HETATM   36  N4  UNL     1      -6.278 -41.896  22.092  1.00  0.00    -0.325 N 
HETATM   37  C20 UNL     1      -7.094 -42.084  23.253  1.00  0.00     0.363 C 
HETATM   38  C24 UNL     1      -4.909 -42.361  22.059  1.00  0.00     0.139 C 
HETATM   39  O8  UNL     1      -8.261 -41.621  23.212  1.00  0.00    -0.238 OA
HETATM   40  C25 UNL     1      -4.334 -41.841  20.791  1.00  0.00    -0.003 C 
HETATM   41  C26 UNL     1      -3.065 -41.037  21.012  1.00  0.00     0.019 C 
HETATM   42  C27 UNL     1      -4.084 -43.008  19.856  1.00  0.00     0.019 C 
BRANCH  37  43
HETATM   43  O9  UNL     1      -6.693 -42.733  24.402  1.00  0.00    -0.299 OA
BRANCH  43  44
HETATM   44  C21 UNL     1      -7.247 -43.984  24.794  1.00  0.00     0.125 C 
HETATM   45  C22 UNL     1      -7.612 -43.926  26.251  1.00  0.00     0.040 C 
HETATM   46  C23 UNL     1      -6.325 -45.149  24.559  1.00  0.00     0.040 C 
ENDBRANCH  43  44
ENDBRANCH  37  43
ENDBRANCH  33  34
ENDBRANCH  30  33
ENDBRANCH   1  29
TORSDOF 16
ENDMDL
MODEL 4
REMARK VINA RESULT: -8.255118343      3.716      6.283
REMARK  16 active torsions:
REMARK  status: ('A' for Active; 'I' for Inactive)
REMARK    1  A    between atoms: O1_2  and  C2_3 
REMARK    2  A    between atoms: C2_3  and  C3_4 
REMARK       I    between atoms: C3_4  and  N1_6 
REMARK    3  A    between atoms: N1_6  and  C4_8 
REMARK    4  A    between atoms: C4_8  and  C5_9 
REMARK    5  A    between atoms: C5_9  and  C6_10 
REMARK    6  A    between atoms: C5_9  and  C28_44 
REMARK       I    between atoms: C6_10  and  N2_12 
REMARK    7  A    between atoms: N2_12  and  C7_14 
REMARK    8  A    between atoms: C7_14  and  C8_15 
REMARK    9  A    between atoms: C7_14  and  C9_18 
REMARK   10  A    between atoms: C9_18  and  C10_19 
REMARK   11  A    between atoms: C9_18  and  N3_26 
REMARK   12  A    between atoms: C10_19  and  C11_20 
REMARK       I    between atoms: N3_26  and  C17_28 
REMARK   13  A    between atoms: C17_28  and  O7_30 
REMARK   14  A    between atoms: O7_30  and  C18_31 
REMARK       I    between atoms: N4_33  and  C20_34 
REMARK   15  A    between atoms: C20_34  and  O9_36 
REMARK   16  A    between atoms: O9_36  and  C21_37 
ROOT
HETATM    1  C9  UNL     1      -2.426 -40.214  16.244  1.00  0.00     0.120 C 
ENDROOT
BRANCH   1   2
HETATM    2  C7  UNL     1      -2.478 -40.726  14.823  1.00  0.00     0.208 C 
BRANCH   2   3
HETATM    3  N2  UNL     1      -2.502 -42.195  14.739  1.00  0.00    -0.344 N 
HETATM    4  C6  UNL     1      -1.491 -42.861  13.973  1.00  0.00     0.224 C 
HETATM    5  O3  UNL     1      -0.622 -42.151  13.439  1.00  0.00    -0.273 OA
ATOM      6  H2  UNL     1      -3.227 -42.730  15.218  1.00  0.00     0.163 HD
BRANCH   4   7
HETATM    7  C5  UNL     1      -1.526 -44.325  13.844  1.00  0.00     0.099 C 
BRANCH   7   8
HETATM    8  C4  UNL     1      -1.054 -44.795  12.537  1.00  0.00     0.137 C 
BRANCH   8   9
HETATM    9  N1  UNL     1       0.366 -45.027  12.384  1.00  0.00    -0.358 N 
HETATM   10  C3  UNL     1       0.924 -46.221  11.884  1.00  0.00     0.241 C 
HETATM   11  O2  UNL     1       0.112 -47.145  11.551  1.00  0.00    -0.271 OA
ATOM     12  H1  UNL     1       1.004 -44.279  12.657  1.00  0.00     0.162 HD
BRANCH  10  13
HETATM   13  C2  UNL     1       2.374 -46.397  11.743  1.00  0.00     0.269 C 
BRANCH  13  14
HETATM   14  O1  UNL     1       3.016 -46.365  12.952  1.00  0.00    -0.387 OA
HETATM   15  C1  UNL     1       2.872 -47.554  13.641  1.00  0.00     0.202 C 
ENDBRANCH  13  14
ENDBRANCH  10  13
ENDBRANCH   8   9
ENDBRANCH   7   8
BRANCH   7  16
HETATM   16  C28 UNL     1      -2.886 -44.810  14.288  1.00  0.00    -0.008 C 
HETATM   17  C29 UNL     1      -3.789 -45.258  13.196  1.00  0.00     0.010 C 
HETATM   18  C30 UNL     1      -2.881 -45.714  15.491  1.00  0.00     0.010 C 
ENDBRANCH   7  16
ENDBRANCH   4   7
ENDBRANCH   2   3
BRANCH   2  19
HETATM   19  C8  UNL     1      -3.700 -40.313  14.070  1.00  0.00     0.198 C 
HETATM   20  O4  UNL     1      -4.851 -40.599  14.515  1.00  0.00    -0.646 OA
HETATM   21  O5  UNL     1      -3.589 -39.628  12.889  1.00  0.00    -0.646 OA
ENDBRANCH   2  19
ENDBRANCH   1   2
BRANCH   1  22
HETATM   22  C10 UNL     1      -1.523 -38.998  16.301  1.00  0.00     0.032 C 
BRANCH  22  23
HETATM   23  C11 UNL     1      -1.919 -37.984  17.343  1.00  0.00    -0.013 C 
HETATM   24  C12 UNL     1      -0.647 -37.442  17.978  1.00  0.00     0.005 C 
HETATM   25  C13 UNL     1      -0.662 -36.018  18.358  1.00  0.00     0.000 C 
HETATM   26  C14 UNL     1      -1.085 -35.204  17.150  1.00  0.00     0.000 C 
HETATM   27  C15 UNL     1      -2.550 -35.536  16.978  1.00  0.00     0.000 C 
HETATM   28  C16 UNL     1      -2.864 -36.974  16.844  1.00  0.00     0.005 C 
ENDBRANCH  22  23
ENDBRANCH   1  22
BRANCH   1  29
HETATM   29  N3  UNL     1      -1.959 -41.180  17.196  1.00  0.00    -0.330 N 
HETATM   30  C17 UNL     1      -2.451 -41.981  18.199  1.00  0.00     0.361 C 
HETATM   31  O6  UNL     1      -3.625 -42.100  18.600  1.00  0.00    -0.238 OA
ATOM     32  H3  UNL     1      -0.953 -41.314  17.099  1.00  0.00     0.165 HD
BRANCH  30  33
HETATM   33  O7  UNL     1      -1.589 -42.843  18.957  1.00  0.00    -0.296 OA
BRANCH  33  34
HETATM   34  C18 UNL     1      -0.960 -43.970  18.395  1.00  0.00     0.161 C 
HETATM   35  C19 UNL     1      -0.192 -43.655  17.162  1.00  0.00     0.161 C 
HETATM   36  N4  UNL     1       1.015 -44.436  17.254  1.00  0.00    -0.325 N 
HETATM   37  C20 UNL     1       1.923 -44.777  16.201  1.00  0.00     0.363 C 
HETATM   38  C24 UNL     1       1.242 -44.888  18.609  1.00  0.00     0.139 C 
HETATM   39  O8  UNL     1       1.637 -44.373  15.046  1.00  0.00    -0.238 OA
HETATM   40  C25 UNL     1       0.027 -44.501  19.374  1.00  0.00    -0.003 C 
HETATM   41  C26 UNL     1      -0.612 -45.680  20.088  1.00  0.00     0.019 C 
HETATM   42  C27 UNL     1       0.397 -43.406  20.353  1.00  0.00     0.019 C 
BRANCH  37  43
HETATM   43  O9  UNL     1       3.080 -45.510  16.363  1.00  0.00    -0.299 OA
BRANCH  43  44
HETATM   44  C21 UNL     1       4.368 -44.907  16.326  1.00  0.00     0.125 C 
HETATM   45  C22 UNL     1       5.352 -45.879  15.739  1.00  0.00     0.040 C 
HETATM   46  C23 UNL     1       4.858 -44.457  17.675  1.00  0.00     0.040 C 
ENDBRANCH  43  44
ENDBRANCH  37  43
ENDBRANCH  33  34
ENDBRANCH  30  33
ENDBRANCH   1  29
TORSDOF 16
ENDMDL
MODEL 5
REMARK VINA RESULT: -8.180029476      1.481      3.145
REMARK  16 active torsions:
REMARK  status: ('A' for Active; 'I' for Inactive)
REMARK    1  A    between atoms: O1_2  and  C2_3 
REMARK    2  A    between atoms: C2_3  and  C3_4 
REMARK       I    between atoms: C3_4  and  N1_6 
REMARK    3  A    between atoms: N1_6  and  C4_8 
REMARK    4  A    between atoms: C4_8  and  C5_9 
REMARK    5  A    between atoms: C5_9  and  C6_10 
REMARK    6  A    between atoms: C5_9  and  C28_44 
REMARK       I    between atoms: C6_10  and  N2_12 
REMARK    7  A    between atoms: N2_12  and  C7_14 
REMARK    8  A    between atoms: C7_14  and  C8_15 
REMARK    9  A    between atoms: C7_14  and  C9_18 
REMARK   10  A    between atoms: C9_18  and  C10_19 
REMARK   11  A    between atoms: C9_18  and  N3_26 
REMARK   12  A    between atoms: C10_19  and  C11_20 
REMARK       I    between atoms: N3_26  and  C17_28 
REMARK   13  A    between atoms: C17_28  and  O7_30 
REMARK   14  A    between atoms: O7_30  and  C18_31 
REMARK       I    between atoms: N4_33  and  C20_34 
REMARK   15  A    between atoms: C20_34  and  O9_36 
REMARK   16  A    between atoms: O9_36  and  C21_37 
ROOT
HETATM    1  C9  UNL     1      -2.847 -39.424  16.295  1.00  0.00     0.120 C 
ENDROOT
BRANCH   1   2
HETATM    2  C7  UNL     1      -2.647 -40.215  15.023  1.00  0.00     0.208 C 
BRANCH   2   3
HETATM    3  N2  UNL     1      -2.490 -41.659  15.260  1.00  0.00    -0.344 N 
HETATM    4  C6  UNL     1      -1.691 -42.427  14.351  1.00  0.00     0.224 C 
HETATM    5  O3  UNL     1      -1.145 -41.815  13.417  1.00  0.00    -0.273 OA
ATOM      6  H2  UNL     1      -2.943 -42.105  16.057  1.00  0.00     0.163 HD
BRANCH   4   7
HETATM    7  C5  UNL     1      -1.560 -43.878  14.549  1.00  0.00     0.099 C 
BRANCH   7   8
HETATM    8  C4  UNL     1      -0.830 -44.222  15.774  1.00  0.00     0.137 C 
BRANCH   8   9
HETATM    9  N1  UNL     1      -1.554 -44.938  16.803  1.00  0.00    -0.358 N 
HETATM   10  C3  UNL     1      -2.338 -44.318  17.796  1.00  0.00     0.241 C 
HETATM   11  O2  UNL     1      -2.402 -43.045  17.774  1.00  0.00    -0.271 OA
ATOM     12  H1  UNL     1      -1.494 -45.956  16.808  1.00  0.00     0.162 HD
BRANCH  10  13
HETATM   13  C2  UNL     1      -3.060 -45.096  18.810  1.00  0.00     0.269 C 
BRANCH  13  14
HETATM   14  O1  UNL     1      -4.397 -45.191  18.528  1.00  0.00    -0.387 OA
HETATM   15  C1  UNL     1      -5.175 -44.975  19.650  1.00  0.00     0.202 C 
ENDBRANCH  13  14
ENDBRANCH  10  13
ENDBRANCH   8   9
ENDBRANCH   7   8
BRANCH   7  16
HETATM   16  C28 UNL     1      -1.055 -44.491  13.264  1.00  0.00    -0.008 C 
HETATM   17  C29 UNL     1       0.310 -45.076  13.332  1.00  0.00     0.010 C 
HETATM   18  C30 UNL     1      -2.053 -45.341  12.526  1.00  0.00     0.010 C 
ENDBRANCH   7  16
ENDBRANCH   4   7
ENDBRANCH   2   3
BRANCH   2  19
HETATM   19  C8  UNL     1      -3.795 -40.139  14.070  1.00  0.00     0.198 C 
HETATM   20  O4  UNL     1      -4.910 -40.657  14.373  1.00  0.00    -0.646 OA
HETATM   21  O5  UNL     1      -3.650 -39.519  12.858  1.00  0.00    -0.646 OA
ENDBRANCH   2  19
ENDBRANCH   1   2
BRANCH   1  22
HETATM   22  C10 UNL     1      -1.510 -38.878  16.756  1.00  0.00     0.032 C 
BRANCH  22  23
HETATM   23  C11 UNL     1      -1.614 -37.722  17.717  1.00  0.00    -0.013 C 
HETATM   24  C12 UNL     1      -0.242 -37.068  17.815  1.00  0.00     0.005 C 
HETATM   25  C13 UNL     1      -0.227 -35.604  17.975  1.00  0.00     0.000 C 
HETATM   26  C14 UNL     1      -1.071 -34.992  16.873  1.00  0.00     0.000 C 
HETATM   27  C15 UNL     1      -2.488 -35.370  17.241  1.00  0.00     0.000 C 
HETATM   28  C16 UNL     1      -2.733 -36.816  17.421  1.00  0.00     0.005 C 
ENDBRANCH  22  23
ENDBRANCH   1  22
BRANCH   1  29
HETATM   29  N3  UNL     1      -3.432 -40.177  17.366  1.00  0.00    -0.330 N 
HETATM   30  C17 UNL     1      -4.670 -40.455  17.893  1.00  0.00     0.361 C 
HETATM   31  O6  UNL     1      -5.790 -40.066  17.507  1.00  0.00    -0.238 OA
ATOM     32  H3  UNL     1      -2.706 -40.653  17.901  1.00  0.00     0.165 HD
BRANCH  30  33
HETATM   33  O7  UNL     1      -4.819 -41.298  19.045  1.00  0.00    -0.296 OA
BRANCH  33  34
HETATM   34  C18 UNL     1      -5.248 -40.808  20.293  1.00  0.00     0.161 C 
HETATM   35  C19 UNL     1      -6.392 -41.569  20.857  1.00  0.00     0.161 C 
HETATM   36  N4  UNL     1      -6.119 -41.681  22.268  1.00  0.00    -0.325 N 
HETATM   37  C20 UNL     1      -7.037 -42.001  23.318  1.00  0.00     0.363 C 
HETATM   38  C24 UNL     1      -4.726 -41.410  22.551  1.00  0.00     0.139 C 
HETATM   39  O8  UNL     1      -8.235 -42.190  22.991  1.00  0.00    -0.238 OA
HETATM   40  C25 UNL     1      -4.133 -40.950  21.268  1.00  0.00    -0.003 C 
HETATM   41  C26 UNL     1      -3.447 -39.601  21.394  1.00  0.00     0.019 C 
HETATM   42  C27 UNL     1      -3.168 -42.008  20.771  1.00  0.00     0.019 C 
BRANCH  37  43
HETATM   43  O9  UNL     1      -6.702 -42.117  24.651  1.00  0.00    -0.299 OA
BRANCH  43  44
HETATM   44  C21 UNL     1      -7.158 -41.187  25.627  1.00  0.00     0.125 C 
HETATM   45  C22 UNL     1      -5.971 -40.560  26.302  1.00  0.00     0.040 C 
HETATM   46  C23 UNL     1      -8.054 -41.801  26.668  1.00  0.00     0.040 C 
ENDBRANCH  43  44
ENDBRANCH  37  43
ENDBRANCH  33  34
ENDBRANCH  30  33
ENDBRANCH   1  29
TORSDOF 16
ENDMDL
