MODEL 1
REMARK VINA RESULT: -7.350407991      0.000      0.000
REMARK  17 active torsions:
REMARK  status: ('A' for Active; 'I' for Inactive)
REMARK    1  A    between atoms: C2_2  and  C3_3 
REMARK    2  A    between atoms: C3_3  and  C4_4 
REMARK    3  A    between atoms: C3_3  and  C26_36 
REMARK    4  A    between atoms: C4_4  and  N1_5 
REMARK       I    between atoms: N1_5  and  C5_7 
REMARK       I    between atoms: C5_7  and  N2_9 
REMARK    5  A    between atoms: N3_14  and  C10_15 
REMARK    6  A    between atoms: C10_15  and  C11_16 
REMARK    7  A    between atoms: C11_16  and  C12_17 
REMARK    8  A    between atoms: C13_20  and  C14_21 
REMARK    9  A    between atoms: C17_24  and  C18_25 
REMARK       I    between atoms: C18_25  and  N5_27 
REMARK   10  A    between atoms: N5_27  and  C20_29 
REMARK   11  A    between atoms: C26_36  and  O3_37 
REMARK   12  A    between atoms: C26_36  and  C27_39 
REMARK   13  A    between atoms: C27_39  and  O4_40 
REMARK   14  A    between atoms: C27_39  and  C28_42 
REMARK   15  A    between atoms: C28_42  and  O5_43 
REMARK   16  A    between atoms: C28_42  and  C29_45 
REMARK   17  A    between atoms: C29_45  and  C30_46 
ROOT
HETATM    1  N1  UNL     1       2.116 -47.059  12.985  1.00  0.00    -0.318 N 
ATOM      2  H1  UNL     1       1.544 -47.812  13.369  1.00  0.00     0.170 HD
HETATM    3  C5  UNL     1       1.389 -45.981  12.552  1.00  0.00     0.323 C 
HETATM    4  O1  UNL     1       2.019 -44.989  12.068  1.00  0.00    -0.247 OA
HETATM    5  N2  UNL     1      -0.043 -45.900  12.611  1.00  0.00    -0.324 N 
HETATM    6  C6  UNL     1      -0.765 -46.997  13.191  1.00  0.00     0.086 C 
HETATM    7  C7  UNL     1      -1.253 -47.956  12.087  1.00  0.00     0.032 C 
HETATM    8  C8  UNL     1      -1.941 -46.570  14.046  1.00  0.00     0.044 C 
HETATM    9  C9  UNL     1      -1.658 -45.205  14.630  1.00  0.00     0.119 C 
HETATM   10  N3  UNL     1      -2.338 -44.267  13.772  1.00  0.00    -0.410 N 
HETATM   11  C23 UNL     1      -2.080 -44.497  12.383  1.00  0.00     0.141 C 
HETATM   12  C24 UNL     1      -0.655 -44.724  12.039  1.00  0.00     0.102 C 
HETATM   13  C25 UNL     1       0.078 -43.441  12.185  1.00  0.00     0.034 C 
ENDROOT
BRANCH   1  14
HETATM   14  C4  UNL     1       3.505 -47.331  13.004  1.00  0.00     0.102 C 
BRANCH  14  15
HETATM   15  C3  UNL     1       4.191 -47.849  14.175  1.00  0.00    -0.011 C 
BRANCH  15  16
HETATM   16  C2  UNL     1       3.817 -49.301  14.541  1.00  0.00     0.038 C 
HETATM   17  C1  UNL     1       3.061 -49.355  15.842  1.00  0.00     0.010 C 
ENDBRANCH  15  16
BRANCH  15  18
HETATM   18  C26 UNL     1       5.550 -47.558  14.606  1.00  0.00     0.082 C 
BRANCH  18  19
HETATM   19  O3  UNL     1       6.608 -48.015  13.844  1.00  0.00    -0.362 OA
ATOM     20  H3  UNL     1       7.495 -47.826  14.125  1.00  0.00     0.217 HD
ENDBRANCH  18  19
BRANCH  18  21
HETATM   21  C27 UNL     1       5.790 -46.193  15.216  1.00  0.00     0.203 C 
BRANCH  21  22
HETATM   22  O4  UNL     1       7.137 -46.044  15.475  1.00  0.00    -0.386 OA
ATOM     23  H4  UNL     1       7.623 -46.153  14.666  1.00  0.00     0.210 HD
ENDBRANCH  21  22
BRANCH  21  24
HETATM   24  C28 UNL     1       5.041 -45.941  16.484  1.00  0.00     0.153 C 
BRANCH  24  25
HETATM   25  O5  UNL     1       5.970 -45.974  17.525  1.00  0.00    -0.393 OA
ATOM     26  H5  UNL     1       5.823 -46.780  18.005  1.00  0.00     0.210 HD
ENDBRANCH  24  25
BRANCH  24  27
HETATM   27  C29 UNL     1       4.270 -44.676  16.534  1.00  0.00     0.038 C 
BRANCH  27  28
HETATM   28  C30 UNL     1       3.212 -44.563  15.465  1.00  0.00    -0.020 C 
HETATM   29  C31 UNL     1       3.035 -43.183  14.920  1.00  0.00     0.009 C 
HETATM   30  C32 UNL     1       1.903 -45.025  16.068  1.00  0.00     0.009 C 
ENDBRANCH  27  28
ENDBRANCH  24  27
ENDBRANCH  21  24
ENDBRANCH  18  21
ENDBRANCH  15  18
ENDBRANCH  14  15
ENDBRANCH   1  14
BRANCH  10  31
HETATM   31  C10 UNL     1      -2.382 -42.926  14.212  1.00  0.00     0.123 C 
BRANCH  31  32
HETATM   32  C11 UNL     1      -1.556 -42.701  15.467  1.00  0.00     0.084 C 
BRANCH  32  33
HETATM   33  C12 UNL     1      -2.017 -41.459  16.192  1.00  0.00     0.053 A 
HETATM   34  N4  UNL     1      -2.316 -41.316  17.463  1.00  0.00    -0.356 N 
HETATM   35  C13 UNL     1      -2.704 -40.180  17.950  1.00  0.00     0.036 A 
ATOM     36  H4  UNL     1      -2.240 -42.121  18.084  1.00  0.00     0.166 HD
HETATM   37  C17 UNL     1      -2.785 -39.114  17.048  1.00  0.00     0.097 A 
HETATM   38  S1  UNL     1      -2.290 -39.888  15.607  1.00  0.00    -0.069 SA
BRANCH  35  39
HETATM   39  C14 UNL     1      -3.013 -40.015  19.428  1.00  0.00     0.029 C 
HETATM   40  C15 UNL     1      -3.785 -41.255  19.927  1.00  0.00     0.016 C 
HETATM   41  C16 UNL     1      -1.738 -39.877  20.239  1.00  0.00     0.016 C 
ENDBRANCH  35  39
BRANCH  37  42
HETATM   42  C18 UNL     1      -3.208 -37.751  17.313  1.00  0.00     0.262 C 
HETATM   43  O2  UNL     1      -4.395 -37.368  17.001  1.00  0.00    -0.267 OA
HETATM   44  N5  UNL     1      -2.416 -36.762  17.902  1.00  0.00    -0.347 N 
HETATM   45  C19 UNL     1      -3.081 -35.437  18.088  1.00  0.00     0.153 C 
BRANCH  44  46
HETATM   46  C20 UNL     1      -1.052 -36.820  18.341  1.00  0.00     0.087 A 
HETATM   47  C21 UNL     1       0.062 -36.621  17.342  1.00  0.00     0.027 A 
HETATM   48  C22 UNL     1      -0.261 -35.559  18.325  1.00  0.00     0.027 A 
ENDBRANCH  44  46
ENDBRANCH  37  42
ENDBRANCH  32  33
ENDBRANCH  31  32
ENDBRANCH  10  31
TORSDOF 17
ENDMDL
MODEL 2
REMARK VINA RESULT: -7.347216776      3.246     10.049
REMARK  17 active torsions:
REMARK  status: ('A' for Active; 'I' for Inactive)
REMARK    1  A    between atoms: C2_2  and  C3_3 
REMARK    2  A    between atoms: C3_3  and  C4_4 
REMARK    3  A    between atoms: C3_3  and  C26_36 
REMARK    4  A    between atoms: C4_4  and  N1_5 
REMARK       I    between atoms: N1_5  and  C5_7 
REMARK       I    between atoms: C5_7  and  N2_9 
REMARK    5  A    between atoms: N3_14  and  C10_15 
REMARK    6  A    between atoms: C10_15  and  C11_16 
REMARK    7  A    between atoms: C11_16  and  C12_17 
REMARK    8  A    between atoms: C13_20  and  C14_21 
REMARK    9  A    between atoms: C17_24  and  C18_25 
REMARK       I    between atoms: C18_25  and  N5_27 
REMARK   10  A    between atoms: N5_27  and  C20_29 
REMARK   11  A    between atoms: C26_36  and  O3_37 
REMARK   12  A    between atoms: C26_36  and  C27_39 
REMARK   13  A    between atoms: C27_39  and  O4_40 
REMARK   14  A    between atoms: C27_39  and  C28_42 
REMARK   15  A    between atoms: C28_42  and  O5_43 
REMARK   16  A    between atoms: C28_42  and  C29_45 
REMARK   17  A    between atoms: C29_45  and  C30_46 
ROOT
HETATM    1  N1  UNL     1      -2.250 -38.765  20.164  1.00  0.00    -0.318 N 
ATOM      2  H1  UNL     1      -3.182 -38.748  20.578  1.00  0.00     0.170 HD
HETATM    3  C5  UNL     1      -1.585 -39.949  20.352  1.00  0.00     0.323 C 
HETATM    4  O1  UNL     1      -0.419 -40.065  19.860  1.00  0.00    -0.247 OA
HETATM    5  N2  UNL     1      -2.123 -41.068  21.071  1.00  0.00    -0.324 N 
HETATM    6  C6  UNL     1      -3.454 -40.965  21.599  1.00  0.00     0.086 C 
HETATM    7  C7  UNL     1      -3.408 -40.533  23.078  1.00  0.00     0.032 C 
HETATM    8  C8  UNL     1      -4.264 -42.238  21.468  1.00  0.00     0.044 C 
HETATM    9  C9  UNL     1      -3.778 -43.013  20.264  1.00  0.00     0.119 C 
HETATM   10  N3  UNL     1      -2.872 -44.008  20.782  1.00  0.00    -0.410 N 
HETATM   11  C23 UNL     1      -1.913 -43.464  21.694  1.00  0.00     0.141 C 
HETATM   12  C24 UNL     1      -1.258 -42.211  21.243  1.00  0.00     0.102 C 
HETATM   13  C25 UNL     1      -0.334 -42.535  20.126  1.00  0.00     0.034 C 
ENDROOT
BRANCH   1  14
HETATM   14  C4  UNL     1      -1.896 -37.562  19.507  1.00  0.00     0.102 C 
BRANCH  14  15
HETATM   15  C3  UNL     1      -2.524 -37.123  18.273  1.00  0.00    -0.011 C 
BRANCH  15  16
HETATM   16  C2  UNL     1      -1.612 -37.202  17.031  1.00  0.00     0.038 C 
HETATM   17  C1  UNL     1      -1.360 -35.834  16.455  1.00  0.00     0.010 C 
ENDBRANCH  15  16
BRANCH  15  18
HETATM   18  C26 UNL     1      -3.918 -37.285  17.883  1.00  0.00     0.082 C 
BRANCH  18  19
HETATM   19  O3  UNL     1      -4.716 -36.163  17.774  1.00  0.00    -0.362 OA
ATOM     20  H3  UNL     1      -5.549 -36.144  18.232  1.00  0.00     0.217 HD
ENDBRANCH  18  19
BRANCH  18  21
HETATM   21  C27 UNL     1      -4.211 -38.340  16.838  1.00  0.00     0.203 C 
BRANCH  21  22
HETATM   22  O4  UNL     1      -5.411 -38.045  16.223  1.00  0.00    -0.386 OA
ATOM     23  H4  UNL     1      -5.782 -37.267  16.622  1.00  0.00     0.210 HD
ENDBRANCH  21  22
BRANCH  21  24
HETATM   24  C28 UNL     1      -4.289 -39.733  17.370  1.00  0.00     0.153 C 
BRANCH  24  25
HETATM   25  O5  UNL     1      -5.531 -40.248  16.996  1.00  0.00    -0.393 OA
ATOM     26  H5  UNL     1      -5.369 -41.054  16.521  1.00  0.00     0.210 HD
ENDBRANCH  24  25
BRANCH  24  27
HETATM   27  C29 UNL     1      -3.210 -40.650  16.932  1.00  0.00     0.038 C 
BRANCH  27  28
HETATM   28  C30 UNL     1      -2.672 -40.347  15.555  1.00  0.00    -0.020 C 
HETATM   29  C31 UNL     1      -3.295 -41.154  14.463  1.00  0.00     0.009 C 
HETATM   30  C32 UNL     1      -1.183 -40.616  15.579  1.00  0.00     0.009 C 
ENDBRANCH  27  28
ENDBRANCH  24  27
ENDBRANCH  21  24
ENDBRANCH  18  21
ENDBRANCH  15  18
ENDBRANCH  14  15
ENDBRANCH   1  14
BRANCH  10  31
HETATM   31  C10 UNL     1      -2.422 -44.987  19.870  1.00  0.00     0.123 C 
BRANCH  31  32
HETATM   32  C11 UNL     1      -3.424 -45.248  18.759  1.00  0.00     0.084 C 
BRANCH  32  33
HETATM   33  C12 UNL     1      -2.764 -45.124  17.406  1.00  0.00     0.053 A 
HETATM   34  N4  UNL     1      -3.009 -45.802  16.309  1.00  0.00    -0.356 N 
HETATM   35  C13 UNL     1      -2.355 -45.587  15.212  1.00  0.00     0.036 A 
ATOM     36  H4  UNL     1      -3.735 -46.520  16.321  1.00  0.00     0.166 HD
HETATM   37  C17 UNL     1      -1.375 -44.592  15.259  1.00  0.00     0.097 A 
HETATM   38  S1  UNL     1      -1.521 -44.090  16.886  1.00  0.00    -0.069 SA
BRANCH  35  39
HETATM   39  C14 UNL     1      -2.671 -46.353  13.938  1.00  0.00     0.029 C 
HETATM   40  C15 UNL     1      -2.126 -47.791  14.062  1.00  0.00     0.016 C 
HETATM   41  C16 UNL     1      -4.169 -46.418  13.699  1.00  0.00     0.016 C 
ENDBRANCH  35  39
BRANCH  37  42
HETATM   42  C18 UNL     1      -0.486 -44.162  14.195  1.00  0.00     0.262 C 
HETATM   43  O2  UNL     1      -0.912 -43.373  13.274  1.00  0.00    -0.267 OA
HETATM   44  N5  UNL     1       0.853 -44.537  14.064  1.00  0.00    -0.347 N 
HETATM   45  C19 UNL     1       1.570 -43.949  12.893  1.00  0.00     0.153 C 
BRANCH  44  46
HETATM   46  C20 UNL     1       1.643 -45.419  14.874  1.00  0.00     0.087 A 
HETATM   47  C21 UNL     1       1.354 -46.899  14.865  1.00  0.00     0.027 A 
HETATM   48  C22 UNL     1       2.558 -46.367  14.183  1.00  0.00     0.027 A 
ENDBRANCH  44  46
ENDBRANCH  37  42
ENDBRANCH  32  33
ENDBRANCH  31  32
ENDBRANCH  10  31
TORSDOF 17
ENDMDL
MODEL 3
REMARK VINA RESULT: -7.312085928      3.028     10.231
REMARK  17 active torsions:
REMARK  status: ('A' for Active; 'I' for Inactive)
REMARK    1  A    between atoms: C2_2  and  C3_3 
REMARK    2  A    between atoms: C3_3  and  C4_4 
REMARK    3  A    between atoms: C3_3  and  C26_36 
REMARK    4  A    between atoms: C4_4  and  N1_5 
REMARK       I    between atoms: N1_5  and  C5_7 
REMARK       I    between atoms: C5_7  and  N2_9 
REMARK    5  A    between atoms: N3_14  and  C10_15 
REMARK    6  A    between atoms: C10_15  and  C11_16 
REMARK    7  A    between atoms: C11_16  and  C12_17 
REMARK    8  A    between atoms: C13_20  and  C14_21 
REMARK    9  A    between atoms: C17_24  and  C18_25 
REMARK       I    between atoms: C18_25  and  N5_27 
REMARK   10  A    between atoms: N5_27  and  C20_29 
REMARK   11  A    between atoms: C26_36  and  O3_37 
REMARK   12  A    between atoms: C26_36  and  C27_39 
REMARK   13  A    between atoms: C27_39  and  O4_40 
REMARK   14  A    between atoms: C27_39  and  C28_42 
REMARK   15  A    between atoms: C28_42  and  O5_43 
REMARK   16  A    between atoms: C28_42  and  C29_45 
REMARK   17  A    between atoms: C29_45  and  C30_46 
ROOT
HETATM    1  N1  UNL     1      -2.836 -39.039  20.869  1.00  0.00    -0.318 N 
ATOM      2  H1  UNL     1      -1.885 -38.713  20.692  1.00  0.00     0.170 HD
HETATM    3  C5  UNL     1      -3.638 -39.030  19.758  1.00  0.00     0.323 C 
HETATM    4  O1  UNL     1      -4.838 -39.430  19.883  1.00  0.00    -0.247 OA
HETATM    5  N2  UNL     1      -3.208 -38.597  18.459  1.00  0.00    -0.324 N 
HETATM    6  C6  UNL     1      -1.845 -38.179  18.296  1.00  0.00     0.086 C 
HETATM    7  C7  UNL     1      -1.740 -36.645  18.414  1.00  0.00     0.032 C 
HETATM    8  C8  UNL     1      -1.220 -38.629  16.991  1.00  0.00     0.044 C 
HETATM    9  C9  UNL     1      -1.878 -39.915  16.544  1.00  0.00     0.119 C 
HETATM   10  N3  UNL     1      -2.873 -39.525  15.576  1.00  0.00    -0.410 N 
HETATM   11  C23 UNL     1      -3.693 -38.442  16.028  1.00  0.00     0.141 C 
HETATM   12  C24 UNL     1      -4.205 -38.577  17.414  1.00  0.00     0.102 C 
HETATM   13  C25 UNL     1      -5.231 -39.650  17.438  1.00  0.00     0.034 C 
ENDROOT
BRANCH   1  14
HETATM   14  C4  UNL     1      -3.069 -39.412  22.215  1.00  0.00     0.102 C 
BRANCH  14  15
HETATM   15  C3  UNL     1      -3.180 -40.795  22.641  1.00  0.00    -0.011 C 
BRANCH  15  16
HETATM   16  C2  UNL     1      -2.692 -41.059  24.081  1.00  0.00     0.038 C 
HETATM   17  C1  UNL     1      -1.200 -40.880  24.190  1.00  0.00     0.010 C 
ENDBRANCH  15  16
BRANCH  15  18
HETATM   18  C26 UNL     1      -4.215 -41.753  22.280  1.00  0.00     0.082 C 
BRANCH  18  19
HETATM   19  O3  UNL     1      -5.514 -41.309  22.127  1.00  0.00    -0.362 OA
ATOM     20  H3  UNL     1      -5.976 -40.966  22.883  1.00  0.00     0.217 HD
ENDBRANCH  18  19
BRANCH  18  21
HETATM   21  C27 UNL     1      -3.825 -42.833  21.294  1.00  0.00     0.203 C 
BRANCH  21  22
HETATM   22  O4  UNL     1      -2.821 -42.355  20.475  1.00  0.00    -0.386 OA
ATOM     23  H4  UNL     1      -1.985 -42.459  20.914  1.00  0.00     0.210 HD
ENDBRANCH  21  22
BRANCH  21  24
HETATM   24  C28 UNL     1      -4.942 -43.317  20.429  1.00  0.00     0.153 C 
BRANCH  24  25
HETATM   25  O5  UNL     1      -5.163 -42.340  19.457  1.00  0.00    -0.393 OA
ATOM     26  H5  UNL     1      -6.038 -42.479  19.114  1.00  0.00     0.210 HD
ENDBRANCH  24  25
BRANCH  24  27
HETATM   27  C29 UNL     1      -4.731 -44.634  19.784  1.00  0.00     0.038 C 
BRANCH  27  28
HETATM   28  C30 UNL     1      -5.670 -45.710  20.272  1.00  0.00    -0.020 C 
HETATM   29  C31 UNL     1      -6.671 -45.240  21.277  1.00  0.00     0.009 C 
HETATM   30  C32 UNL     1      -4.826 -46.803  20.892  1.00  0.00     0.009 C 
ENDBRANCH  27  28
ENDBRANCH  24  27
ENDBRANCH  21  24
ENDBRANCH  18  21
ENDBRANCH  15  18
ENDBRANCH  14  15
ENDBRANCH   1  14
BRANCH  10  31
HETATM   31  C10 UNL     1      -3.506 -40.569  14.867  1.00  0.00     0.123 C 
BRANCH  31  32
HETATM   32  C11 UNL     1      -2.732 -40.977  13.625  1.00  0.00     0.084 C 
BRANCH  32  33
HETATM   33  C12 UNL     1      -2.069 -42.319  13.828  1.00  0.00     0.053 A 
HETATM   34  N4  UNL     1      -2.592 -43.429  14.296  1.00  0.00    -0.356 N 
HETATM   35  C13 UNL     1      -1.896 -44.515  14.418  1.00  0.00     0.036 A 
ATOM     36  H4  UNL     1      -3.575 -43.437  14.570  1.00  0.00     0.166 HD
HETATM   37  C17 UNL     1      -0.557 -44.440  14.024  1.00  0.00     0.097 A 
HETATM   38  S1  UNL     1      -0.471 -42.807  13.524  1.00  0.00    -0.069 SA
BRANCH  35  39
HETATM   39  C14 UNL     1      -2.520 -45.803  14.926  1.00  0.00     0.029 C 
HETATM   40  C15 UNL     1      -2.944 -45.617  16.398  1.00  0.00     0.016 C 
HETATM   41  C16 UNL     1      -3.743 -46.176  14.109  1.00  0.00     0.016 C 
ENDBRANCH  35  39
BRANCH  37  42
HETATM   42  C18 UNL     1       0.449 -45.485  14.073  1.00  0.00     0.262 C 
HETATM   43  O2  UNL     1       1.086 -45.722  15.164  1.00  0.00    -0.267 OA
HETATM   44  N5  UNL     1       0.813 -46.303  13.000  1.00  0.00    -0.347 N 
HETATM   45  C19 UNL     1       1.863 -47.322  13.301  1.00  0.00     0.153 C 
BRANCH  44  46
HETATM   46  C20 UNL     1       0.345 -46.301  11.644  1.00  0.00     0.087 A 
HETATM   47  C21 UNL     1      -0.155 -47.584  11.026  1.00  0.00     0.027 A 
HETATM   48  C22 UNL     1      -1.109 -46.515  11.409  1.00  0.00     0.027 A 
ENDBRANCH  44  46
ENDBRANCH  37  42
ENDBRANCH  32  33
ENDBRANCH  31  32
ENDBRANCH  10  31
TORSDOF 17
ENDMDL
MODEL 4
REMARK VINA RESULT: -7.251926171      3.127      9.530
REMARK  17 active torsions:
REMARK  status: ('A' for Active; 'I' for Inactive)
REMARK    1  A    between atoms: C2_2  and  C3_3 
REMARK    2  A    between atoms: C3_3  and  C4_4 
REMARK    3  A    between atoms: C3_3  and  C26_36 
REMARK    4  A    between atoms: C4_4  and  N1_5 
REMARK       I    between atoms: N1_5  and  C5_7 
REMARK       I    between atoms: C5_7  and  N2_9 
REMARK    5  A    between atoms: N3_14  and  C10_15 
REMARK    6  A    between atoms: C10_15  and  C11_16 
REMARK    7  A    between atoms: C11_16  and  C12_17 
REMARK    8  A    between atoms: C13_20  and  C14_21 
REMARK    9  A    between atoms: C17_24  and  C18_25 
REMARK       I    between atoms: C18_25  and  N5_27 
REMARK   10  A    between atoms: N5_27  and  C20_29 
REMARK   11  A    between atoms: C26_36  and  O3_37 
REMARK   12  A    between atoms: C26_36  and  C27_39 
REMARK   13  A    between atoms: C27_39  and  O4_40 
REMARK   14  A    between atoms: C27_39  and  C28_42 
REMARK   15  A    between atoms: C28_42  and  O5_43 
REMARK   16  A    between atoms: C28_42  and  C29_45 
REMARK   17  A    between atoms: C29_45  and  C30_46 
ROOT
HETATM    1  N1  UNL     1      -2.792 -39.418  21.159  1.00  0.00    -0.318 N 
ATOM      2  H1  UNL     1      -1.840 -39.084  21.003  1.00  0.00     0.170 HD
HETATM    3  C5  UNL     1      -3.596 -39.327  20.053  1.00  0.00     0.323 C 
HETATM    4  O1  UNL     1      -4.798 -39.731  20.153  1.00  0.00    -0.247 OA
HETATM    5  N2  UNL     1      -3.168 -38.804  18.788  1.00  0.00    -0.324 N 
HETATM    6  C6  UNL     1      -1.804 -38.380  18.651  1.00  0.00     0.086 C 
HETATM    7  C7  UNL     1      -1.693 -36.860  18.878  1.00  0.00     0.032 C 
HETATM    8  C8  UNL     1      -1.184 -38.739  17.316  1.00  0.00     0.044 C 
HETATM    9  C9  UNL     1      -1.848 -39.987  16.781  1.00  0.00     0.119 C 
HETATM   10  N3  UNL     1      -2.844 -39.526  15.845  1.00  0.00    -0.410 N 
HETATM   11  C23 UNL     1      -3.659 -38.475  16.375  1.00  0.00     0.141 C 
HETATM   12  C24 UNL     1      -4.167 -38.707  17.749  1.00  0.00     0.102 C 
HETATM   13  C25 UNL     1      -5.198 -39.775  17.699  1.00  0.00     0.034 C 
ENDROOT
BRANCH   1  14
HETATM   14  C4  UNL     1      -3.023 -39.885  22.476  1.00  0.00     0.102 C 
BRANCH  14  15
HETATM   15  C3  UNL     1      -2.718 -41.241  22.896  1.00  0.00    -0.011 C 
BRANCH  15  16
HETATM   16  C2  UNL     1      -3.249 -41.608  24.297  1.00  0.00     0.038 C 
HETATM   17  C1  UNL     1      -4.551 -40.908  24.585  1.00  0.00     0.010 C 
ENDBRANCH  15  16
BRANCH  15  18
HETATM   18  C26 UNL     1      -2.642 -42.432  22.061  1.00  0.00     0.082 C 
BRANCH  18  19
HETATM   19  O3  UNL     1      -3.535 -42.574  21.017  1.00  0.00    -0.362 OA
ATOM     20  H3  UNL     1      -3.740 -43.447  20.702  1.00  0.00     0.217 HD
ENDBRANCH  18  19
BRANCH  18  21
HETATM   21  C27 UNL     1      -1.256 -42.953  21.749  1.00  0.00     0.203 C 
BRANCH  21  22
HETATM   22  O4  UNL     1      -0.350 -42.373  22.613  1.00  0.00    -0.386 OA
ATOM     23  H4  UNL     1      -0.733 -42.329  23.482  1.00  0.00     0.210 HD
ENDBRANCH  21  22
BRANCH  21  24
HETATM   24  C28 UNL     1      -0.797 -42.695  20.351  1.00  0.00     0.153 C 
BRANCH  24  25
HETATM   25  O5  UNL     1      -0.615 -41.317  20.224  1.00  0.00    -0.393 OA
ATOM     26  H5  UNL     1      -1.404 -40.900  20.550  1.00  0.00     0.210 HD
ENDBRANCH  24  25
BRANCH  24  27
HETATM   27  C29 UNL     1       0.434 -43.408  19.936  1.00  0.00     0.038 C 
BRANCH  27  28
HETATM   28  C30 UNL     1       0.273 -44.222  18.676  1.00  0.00    -0.020 C 
HETATM   29  C31 UNL     1      -0.514 -43.541  17.603  1.00  0.00     0.009 C 
HETATM   30  C32 UNL     1      -0.422 -45.512  19.053  1.00  0.00     0.009 C 
ENDBRANCH  27  28
ENDBRANCH  24  27
ENDBRANCH  21  24
ENDBRANCH  18  21
ENDBRANCH  15  18
ENDBRANCH  14  15
ENDBRANCH   1  14
BRANCH  10  31
HETATM   31  C10 UNL     1      -3.482 -40.514  15.065  1.00  0.00     0.123 C 
BRANCH  31  32
HETATM   32  C11 UNL     1      -2.690 -40.868  13.817  1.00  0.00     0.084 C 
BRANCH  32  33
HETATM   33  C12 UNL     1      -2.059 -42.233  13.956  1.00  0.00     0.053 A 
HETATM   34  N4  UNL     1      -2.626 -43.368  14.293  1.00  0.00    -0.356 N 
HETATM   35  C13 UNL     1      -1.952 -44.471  14.375  1.00  0.00     0.036 A 
ATOM     36  H4  UNL     1      -3.626 -43.382  14.496  1.00  0.00     0.166 HD
HETATM   37  C17 UNL     1      -0.587 -44.387  14.084  1.00  0.00     0.097 A 
HETATM   38  S1  UNL     1      -0.449 -42.721  13.727  1.00  0.00    -0.069 SA
BRANCH  35  39
HETATM   39  C14 UNL     1      -2.625 -45.786  14.731  1.00  0.00     0.029 C 
HETATM   40  C15 UNL     1      -3.013 -45.771  16.224  1.00  0.00     0.016 C 
HETATM   41  C16 UNL     1      -3.880 -45.997  13.904  1.00  0.00     0.016 C 
ENDBRANCH  35  39
BRANCH  37  42
HETATM   42  C18 UNL     1       0.400 -45.449  14.118  1.00  0.00     0.262 C 
HETATM   43  O2  UNL     1       1.012 -45.731  15.213  1.00  0.00    -0.267 OA
HETATM   44  N5  UNL     1       0.772 -46.238  13.026  1.00  0.00    -0.347 N 
HETATM   45  C19 UNL     1       1.800 -47.284  13.314  1.00  0.00     0.153 C 
BRANCH  44  46
HETATM   46  C20 UNL     1       0.331 -46.185  11.663  1.00  0.00     0.087 A 
HETATM   47  C21 UNL     1      -0.298 -47.404  11.035  1.00  0.00     0.027 A 
HETATM   48  C22 UNL     1      -1.133 -46.235  11.402  1.00  0.00     0.027 A 
ENDBRANCH  44  46
ENDBRANCH  37  42
ENDBRANCH  32  33
ENDBRANCH  31  32
ENDBRANCH  10  31
TORSDOF 17
ENDMDL
MODEL 5
REMARK VINA RESULT: -7.210276792      1.222      1.891
REMARK  17 active torsions:
REMARK  status: ('A' for Active; 'I' for Inactive)
REMARK    1  A    between atoms: C2_2  and  C3_3 
REMARK    2  A    between atoms: C3_3  and  C4_4 
REMARK    3  A    between atoms: C3_3  and  C26_36 
REMARK    4  A    between atoms: C4_4  and  N1_5 
REMARK       I    between atoms: N1_5  and  C5_7 
REMARK       I    between atoms: C5_7  and  N2_9 
REMARK    5  A    between atoms: N3_14  and  C10_15 
REMARK    6  A    between atoms: C10_15  and  C11_16 
REMARK    7  A    between atoms: C11_16  and  C12_17 
REMARK    8  A    between atoms: C13_20  and  C14_21 
REMARK    9  A    between atoms: C17_24  and  C18_25 
REMARK       I    between atoms: C18_25  and  N5_27 
REMARK   10  A    between atoms: N5_27  and  C20_29 
REMARK   11  A    between atoms: C26_36  and  O3_37 
REMARK   12  A    between atoms: C26_36  and  C27_39 
REMARK   13  A    between atoms: C27_39  and  O4_40 
REMARK   14  A    between atoms: C27_39  and  C28_42 
REMARK   15  A    between atoms: C28_42  and  O5_43 
REMARK   16  A    between atoms: C28_42  and  C29_45 
REMARK   17  A    between atoms: C29_45  and  C30_46 
ROOT
HETATM    1  N1  UNL     1       2.875 -47.422  13.552  1.00  0.00    -0.318 N 
ATOM      2  H1  UNL     1       2.140 -48.120  13.667  1.00  0.00     0.170 HD
HETATM    3  C5  UNL     1       2.425 -46.221  13.067  1.00  0.00     0.323 C 
HETATM    4  O1  UNL     1       3.271 -45.287  12.902  1.00  0.00    -0.247 OA
HETATM    5  N2  UNL     1       1.057 -45.952  12.731  1.00  0.00    -0.324 N 
HETATM    6  C6  UNL     1       0.085 -46.986  12.947  1.00  0.00     0.086 C 
HETATM    7  C7  UNL     1      -0.156 -47.773  11.644  1.00  0.00     0.032 C 
HETATM    8  C8  UNL     1      -1.238 -46.477  13.483  1.00  0.00     0.044 C 
HETATM    9  C9  UNL     1      -0.997 -45.218  14.284  1.00  0.00     0.119 C 
HETATM   10  N3  UNL     1      -1.293 -44.127  13.390  1.00  0.00    -0.410 N 
HETATM   11  C23 UNL     1      -0.664 -44.271  12.111  1.00  0.00     0.141 C 
HETATM   12  C24 UNL     1       0.767 -44.659  12.156  1.00  0.00     0.102 C 
HETATM   13  C25 UNL     1       1.556 -43.505  12.656  1.00  0.00     0.034 C 
ENDROOT
BRANCH   1  14
HETATM   14  C4  UNL     1       4.161 -47.881  13.927  1.00  0.00     0.102 C 
BRANCH  14  15
HETATM   15  C3  UNL     1       4.913 -47.306  15.029  1.00  0.00    -0.011 C 
BRANCH  15  16
HETATM   16  C2  UNL     1       6.253 -46.662  14.617  1.00  0.00     0.038 C 
HETATM   17  C1  UNL     1       7.361 -47.683  14.591  1.00  0.00     0.010 C 
ENDBRANCH  15  16
BRANCH  15  18
HETATM   18  C26 UNL     1       4.384 -46.647  16.214  1.00  0.00     0.082 C 
BRANCH  18  19
HETATM   19  O3  UNL     1       4.340 -47.346  17.405  1.00  0.00    -0.362 OA
ATOM     20  H3  UNL     1       3.894 -46.960  18.150  1.00  0.00     0.217 HD
ENDBRANCH  18  19
BRANCH  18  21
HETATM   21  C27 UNL     1       4.724 -45.182  16.384  1.00  0.00     0.203 C 
BRANCH  21  22
HETATM   22  O4  UNL     1       5.425 -45.015  17.562  1.00  0.00    -0.386 OA
ATOM     23  H4  UNL     1       5.885 -45.821  17.767  1.00  0.00     0.210 HD
ENDBRANCH  21  22
BRANCH  21  24
HETATM   24  C28 UNL     1       3.542 -44.270  16.411  1.00  0.00     0.153 C 
BRANCH  24  25
HETATM   25  O5  UNL     1       3.660 -43.410  15.318  1.00  0.00    -0.393 OA
ATOM     26  H5  UNL     1       2.813 -43.000  15.192  1.00  0.00     0.210 HD
ENDBRANCH  24  25
BRANCH  24  27
HETATM   27  C29 UNL     1       2.217 -44.934  16.391  1.00  0.00     0.038 C 
BRANCH  27  28
HETATM   28  C30 UNL     1       1.408 -44.720  17.646  1.00  0.00    -0.020 C 
HETATM   29  C31 UNL     1       2.191 -44.860  18.911  1.00  0.00     0.009 C 
HETATM   30  C32 UNL     1       0.288 -45.737  17.645  1.00  0.00     0.009 C 
ENDBRANCH  27  28
ENDBRANCH  24  27
ENDBRANCH  21  24
ENDBRANCH  18  21
ENDBRANCH  15  18
ENDBRANCH  14  15
ENDBRANCH   1  14
BRANCH  10  31
HETATM   31  C10 UNL     1      -1.322 -42.835  13.958  1.00  0.00     0.123 C 
BRANCH  31  32
HETATM   32  C11 UNL     1      -1.010 -42.850  15.445  1.00  0.00     0.084 C 
BRANCH  32  33
HETATM   33  C12 UNL     1      -1.593 -41.632  16.123  1.00  0.00     0.053 A 
HETATM   34  N4  UNL     1      -1.904 -41.469  17.388  1.00  0.00    -0.356 N 
HETATM   35  C13 UNL     1      -2.403 -40.359  17.832  1.00  0.00     0.036 A 
ATOM     36  H4  UNL     1      -1.748 -42.238  18.041  1.00  0.00     0.166 HD
HETATM   37  C17 UNL     1      -2.591 -39.344  16.890  1.00  0.00     0.097 A 
HETATM   38  S1  UNL     1      -2.022 -40.121  15.478  1.00  0.00    -0.069 SA
BRANCH  35  39
HETATM   39  C14 UNL     1      -2.726 -40.168  19.304  1.00  0.00     0.029 C 
HETATM   40  C15 UNL     1      -3.611 -41.336  19.786  1.00  0.00     0.016 C 
HETATM   41  C16 UNL     1      -1.460 -40.139  20.141  1.00  0.00     0.016 C 
ENDBRANCH  35  39
BRANCH  37  42
HETATM   42  C18 UNL     1      -3.148 -38.020  17.102  1.00  0.00     0.262 C 
HETATM   43  O2  UNL     1      -4.333 -37.741  16.690  1.00  0.00    -0.267 OA
HETATM   44  N5  UNL     1      -2.494 -36.964  17.742  1.00  0.00    -0.347 N 
HETATM   45  C19 UNL     1      -3.281 -35.700  17.856  1.00  0.00     0.153 C 
BRANCH  44  46
HETATM   46  C20 UNL     1      -1.170 -36.903  18.291  1.00  0.00     0.087 A 
HETATM   47  C21 UNL     1       0.007 -36.670  17.375  1.00  0.00     0.027 A 
HETATM   48  C22 UNL     1      -0.469 -35.590  18.274  1.00  0.00     0.027 A 
ENDBRANCH  44  46
ENDBRANCH  37  42
ENDBRANCH  32  33
ENDBRANCH  31  32
ENDBRANCH  10  31
TORSDOF 17
ENDMDL
