MODEL 1
REMARK VINA RESULT: -8.121120106      0.000      0.000
REMARK  16 active torsions:
REMARK  status: ('A' for Active; 'I' for Inactive)
REMARK    1  A    between atoms: C2_2  and  O1_3 
REMARK    2  A    between atoms: O1_3  and  C3_4 
REMARK    3  A    between atoms: C6_7  and  O2_8 
REMARK    4  A    between atoms: O2_8  and  C7_9 
REMARK       I    between atoms: C7_9  and  N1_11 
REMARK    5  A    between atoms: N1_11  and  C8_13 
REMARK    6  A    between atoms: C8_13  and  C9_14 
REMARK    7  A    between atoms: C8_13  and  C13_18 
REMARK    8  A    between atoms: C9_14  and  C10_15 
REMARK       I    between atoms: C13_18  and  N2_20 
REMARK    9  A    between atoms: N2_20  and  C14_22 
REMARK   10  A    between atoms: C14_22  and  C15_23 
REMARK   11  A    between atoms: C14_22  and  C27_40 
REMARK       I    between atoms: C15_23  and  N3_25 
REMARK   12  A    between atoms: N3_25  and  C16_27 
REMARK   13  A    between atoms: C16_27  and  C17_28 
REMARK   14  A    between atoms: C16_27  and  C21_34 
REMARK   15  A    between atoms: C17_28  and  C18_30 
REMARK   16  A    between atoms: C30_43  and  N4_44 
ROOT
HETATM    1  C13 UNL     1      -2.168 -43.375  14.249  1.00  0.00     0.241 C 
HETATM    2  O4  UNL     1      -2.668 -44.013  15.232  1.00  0.00    -0.271 OA
HETATM    3  N2  UNL     1      -2.270 -41.966  14.178  1.00  0.00    -0.346 N 
ATOM      4  H2  UNL     1      -1.873 -41.463  13.384  1.00  0.00     0.163 HD
ENDROOT
BRANCH   1   5
HETATM    5  C8  UNL     1      -1.489 -44.224  13.211  1.00  0.00     0.179 C 
BRANCH   5   6
HETATM    6  N1  UNL     1      -0.110 -44.434  13.552  1.00  0.00    -0.324 N 
HETATM    7  C7  UNL     1       0.999 -43.902  12.819  1.00  0.00     0.361 C 
HETATM    8  O3  UNL     1       0.808 -43.212  11.814  1.00  0.00    -0.238 OA
ATOM      9  H1  UNL     1       0.094 -45.000  14.376  1.00  0.00     0.165 HD
BRANCH   7  10
HETATM   10  O2  UNL     1       2.269 -44.172  13.248  1.00  0.00    -0.296 OA
BRANCH  10  11
HETATM   11  C6  UNL     1       2.681 -45.300  14.012  1.00  0.00     0.164 C 
HETATM   12  C5  UNL     1       3.186 -46.395  13.106  1.00  0.00     0.037 C 
HETATM   13  C4  UNL     1       4.019 -47.350  13.912  1.00  0.00     0.034 C 
HETATM   14  C3  UNL     1       5.265 -46.665  14.362  1.00  0.00     0.123 C 
HETATM   15  C32 UNL     1       5.068 -45.232  14.793  1.00  0.00     0.067 C 
HETATM   16  C30 UNL     1       3.646 -44.891  15.094  1.00  0.00     0.217 C 
BRANCH  14  17
HETATM   17  O1  UNL     1       5.937 -47.419  15.298  1.00  0.00    -0.386 OA
BRANCH  17  18
HETATM   18  C2  UNL     1       7.251 -47.680  15.026  1.00  0.00     0.163 C 
HETATM   19  C1  UNL     1       7.533 -48.863  14.164  1.00  0.00     0.033 C 
ENDBRANCH  17  18
ENDBRANCH  14  17
BRANCH  16  20
HETATM   20  N4  UNL     1       3.255 -45.284  16.418  1.00  0.00    -0.072 N 
HETATM   21  C31 UNL     1       1.837 -45.170  16.659  1.00  0.00     0.267 C 
ATOM     22  H42 UNL     1       3.581 -46.228  16.625  1.00  0.00     0.277 HD
ATOM     23  H41 UNL     1       3.783 -44.764  17.119  1.00  0.00     0.277 HD
ENDBRANCH  16  20
ENDBRANCH  10  11
ENDBRANCH   7  10
ENDBRANCH   5   6
BRANCH   5  24
HETATM   24  C9  UNL     1      -2.226 -45.464  12.866  1.00  0.00     0.038 C 
BRANCH  24  25
HETATM   25  C10 UNL     1      -1.434 -46.700  13.263  1.00  0.00    -0.020 C 
HETATM   26  C11 UNL     1      -0.993 -47.534  12.107  1.00  0.00     0.009 C 
HETATM   27  C12 UNL     1      -2.286 -47.541  14.206  1.00  0.00     0.009 C 
ENDBRANCH  24  25
ENDBRANCH   5  24
ENDBRANCH   1   5
BRANCH   3  28
HETATM   28  C14 UNL     1      -2.938 -41.246  15.230  1.00  0.00     0.180 C 
BRANCH  28  29
HETATM   29  C15 UNL     1      -2.005 -40.428  16.030  1.00  0.00     0.241 C 
HETATM   30  O5  UNL     1      -0.850 -40.108  15.583  1.00  0.00    -0.271 OA
HETATM   31  N3  UNL     1      -2.388 -39.992  17.315  1.00  0.00    -0.347 N 
ATOM     32  H3  UNL     1      -3.312 -40.260  17.653  1.00  0.00     0.163 HD
BRANCH  31  33
HETATM   33  C16 UNL     1      -1.541 -39.176  18.200  1.00  0.00     0.161 C 
BRANCH  33  34
HETATM   34  C17 UNL     1      -1.444 -39.841  19.507  1.00  0.00     0.185 C 
HETATM   35  O6  UNL     1      -0.809 -40.915  19.502  1.00  0.00    -0.292 OA
BRANCH  34  36
HETATM   36  C18 UNL     1      -1.968 -39.443  20.811  1.00  0.00     0.141 A 
HETATM   37  C19 UNL     1      -3.456 -39.577  21.045  1.00  0.00     0.057 C 
HETATM   38  C20 UNL     1      -1.397 -38.192  21.463  1.00  0.00     0.215 A 
HETATM   39  O7  UNL     1      -1.149 -39.456  21.934  1.00  0.00    -0.367 OA
ENDBRANCH  34  36
ENDBRANCH  33  34
BRANCH  33  40
HETATM   40  C21 UNL     1      -2.098 -37.784  18.240  1.00  0.00     0.016 C 
HETATM   41  C22 UNL     1      -3.611 -37.885  18.022  1.00  0.00     0.007 C 
HETATM   42  C23 UNL     1      -4.232 -36.508  18.209  1.00  0.00     0.000 C 
HETATM   43  C24 UNL     1      -3.180 -35.433  18.254  1.00  0.00     0.000 C 
HETATM   44  C25 UNL     1      -2.294 -35.598  17.033  1.00  0.00     0.000 C 
HETATM   45  C26 UNL     1      -1.589 -36.947  17.109  1.00  0.00     0.007 C 
ENDBRANCH  33  40
ENDBRANCH  31  33
ENDBRANCH  28  29
BRANCH  28  46
HETATM   46  C27 UNL     1      -4.086 -40.398  14.663  1.00  0.00     0.009 C 
HETATM   47  C28 UNL     1      -3.813 -38.933  14.691  1.00  0.00     0.012 C 
HETATM   48  C29 UNL     1      -4.513 -40.895  13.309  1.00  0.00     0.012 C 
ENDBRANCH  28  46
ENDBRANCH   3  28
TORSDOF 16
ENDMDL
MODEL 2
REMARK VINA RESULT: -8.118652805      3.472      5.954
REMARK  16 active torsions:
REMARK  status: ('A' for Active; 'I' for Inactive)
REMARK    1  A    between atoms: C2_2  and  O1_3 
REMARK    2  A    between atoms: O1_3  and  C3_4 
REMARK    3  A    between atoms: C6_7  and  O2_8 
REMARK    4  A    between atoms: O2_8  and  C7_9 
REMARK       I    between atoms: C7_9  and  N1_11 
REMARK    5  A    between atoms: N1_11  and  C8_13 
REMARK    6  A    between atoms: C8_13  and  C9_14 
REMARK    7  A    between atoms: C8_13  and  C13_18 
REMARK    8  A    between atoms: C9_14  and  C10_15 
REMARK       I    between atoms: C13_18  and  N2_20 
REMARK    9  A    between atoms: N2_20  and  C14_22 
REMARK   10  A    between atoms: C14_22  and  C15_23 
REMARK   11  A    between atoms: C14_22  and  C27_40 
REMARK       I    between atoms: C15_23  and  N3_25 
REMARK   12  A    between atoms: N3_25  and  C16_27 
REMARK   13  A    between atoms: C16_27  and  C17_28 
REMARK   14  A    between atoms: C16_27  and  C21_34 
REMARK   15  A    between atoms: C17_28  and  C18_30 
REMARK   16  A    between atoms: C30_43  and  N4_44 
ROOT
HETATM    1  C13 UNL     1      -1.665 -42.047  19.889  1.00  0.00     0.241 C 
HETATM    2  O4  UNL     1      -0.467 -41.646  20.055  1.00  0.00    -0.271 OA
HETATM    3  N2  UNL     1      -2.754 -41.276  20.356  1.00  0.00    -0.346 N 
ATOM      4  H2  UNL     1      -3.710 -41.608  20.225  1.00  0.00     0.163 HD
ENDROOT
BRANCH   1   5
HETATM    5  C8  UNL     1      -1.807 -43.368  19.183  1.00  0.00     0.179 C 
BRANCH   5   6
HETATM    6  N1  UNL     1      -0.974 -43.407  18.015  1.00  0.00    -0.324 N 
HETATM    7  C7  UNL     1      -1.372 -42.953  16.716  1.00  0.00     0.361 C 
HETATM    8  O3  UNL     1      -2.502 -42.489  16.539  1.00  0.00    -0.238 OA
ATOM      9  H1  UNL     1      -0.031 -43.785  18.116  1.00  0.00     0.165 HD
BRANCH   7  10
HETATM   10  O2  UNL     1      -0.484 -43.042  15.681  1.00  0.00    -0.296 OA
BRANCH  10  11
HETATM   11  C6  UNL     1      -0.804 -43.200  14.303  1.00  0.00     0.164 C 
HETATM   12  C5  UNL     1       0.426 -43.013  13.451  1.00  0.00     0.037 C 
HETATM   13  C4  UNL     1       0.180 -43.621  12.100  1.00  0.00     0.034 C 
HETATM   14  C3  UNL     1       0.068 -45.102  12.233  1.00  0.00     0.123 C 
HETATM   15  C32 UNL     1      -0.689 -45.562  13.455  1.00  0.00     0.067 C 
HETATM   16  C30 UNL     1      -1.536 -44.495  14.068  1.00  0.00     0.217 C 
BRANCH  14  17
HETATM   17  O1  UNL     1      -0.395 -45.673  11.069  1.00  0.00    -0.386 OA
BRANCH  17  18
HETATM   18  C2  UNL     1      -0.981 -46.901  11.195  1.00  0.00     0.163 C 
HETATM   19  C1  UNL     1      -0.233 -48.061  10.634  1.00  0.00     0.033 C 
ENDBRANCH  17  18
ENDBRANCH  14  17
BRANCH  16  20
HETATM   20  N4  UNL     1      -2.802 -44.351  13.406  1.00  0.00    -0.072 N 
HETATM   21  C31 UNL     1      -3.641 -45.520  13.504  1.00  0.00     0.267 C 
ATOM     22  H42 UNL     1      -3.294 -43.525  13.746  1.00  0.00     0.277 HD
ATOM     23  H41 UNL     1      -2.670 -44.081  12.431  1.00  0.00     0.277 HD
ENDBRANCH  16  20
ENDBRANCH  10  11
ENDBRANCH   7  10
ENDBRANCH   5   6
BRANCH   5  24
HETATM   24  C9  UNL     1      -1.667 -44.547  20.071  1.00  0.00     0.038 C 
BRANCH  24  25
HETATM   25  C10 UNL     1      -3.010 -45.227  20.293  1.00  0.00    -0.020 C 
HETATM   26  C11 UNL     1      -3.985 -45.018  19.182  1.00  0.00     0.009 C 
HETATM   27  C12 UNL     1      -3.604 -44.714  21.598  1.00  0.00     0.009 C 
ENDBRANCH  24  25
ENDBRANCH   5  24
ENDBRANCH   1   5
BRANCH   3  28
HETATM   28  C14 UNL     1      -2.508 -40.021  21.016  1.00  0.00     0.180 C 
BRANCH  28  29
HETATM   29  C15 UNL     1      -3.239 -38.903  20.388  1.00  0.00     0.241 C 
HETATM   30  O5  UNL     1      -3.809 -38.002  21.096  1.00  0.00    -0.271 OA
HETATM   31  N3  UNL     1      -3.319 -38.824  18.984  1.00  0.00    -0.347 N 
ATOM     32  H3  UNL     1      -2.859 -39.553  18.438  1.00  0.00     0.163 HD
BRANCH  31  33
HETATM   33  C16 UNL     1      -4.022 -37.758  18.251  1.00  0.00     0.161 C 
BRANCH  33  34
HETATM   34  C17 UNL     1      -5.099 -38.362  17.455  1.00  0.00     0.185 C 
HETATM   35  O6  UNL     1      -4.929 -38.311  16.220  1.00  0.00    -0.292 OA
BRANCH  34  36
HETATM   36  C18 UNL     1      -6.334 -39.016  17.879  1.00  0.00     0.141 A 
HETATM   37  C19 UNL     1      -7.585 -38.171  17.974  1.00  0.00     0.057 C 
HETATM   38  C20 UNL     1      -6.254 -40.047  18.995  1.00  0.00     0.215 A 
HETATM   39  O7  UNL     1      -6.509 -40.383  17.690  1.00  0.00    -0.367 OA
ENDBRANCH  34  36
ENDBRANCH  33  34
BRANCH  33  40
HETATM   40  C21 UNL     1      -3.013 -36.980  17.459  1.00  0.00     0.016 C 
HETATM   41  C22 UNL     1      -1.632 -37.273  18.055  1.00  0.00     0.007 C 
HETATM   42  C23 UNL     1      -0.567 -36.622  17.184  1.00  0.00     0.000 C 
HETATM   43  C24 UNL     1      -1.177 -35.663  16.197  1.00  0.00     0.000 C 
HETATM   44  C25 UNL     1      -2.074 -34.711  16.966  1.00  0.00     0.000 C 
HETATM   45  C26 UNL     1      -3.205 -35.503  17.610  1.00  0.00     0.007 C 
ENDBRANCH  33  40
ENDBRANCH  31  33
ENDBRANCH  28  29
BRANCH  28  46
HETATM   46  C27 UNL     1      -2.820 -40.127  22.516  1.00  0.00     0.009 C 
HETATM   47  C28 UNL     1      -3.974 -41.021  22.820  1.00  0.00     0.012 C 
HETATM   48  C29 UNL     1      -1.587 -40.463  23.307  1.00  0.00     0.012 C 
ENDBRANCH  28  46
ENDBRANCH   3  28
TORSDOF 16
ENDMDL
MODEL 3
REMARK VINA RESULT: -8.107605674      3.111      6.118
REMARK  16 active torsions:
REMARK  status: ('A' for Active; 'I' for Inactive)
REMARK    1  A    between atoms: C2_2  and  O1_3 
REMARK    2  A    between atoms: O1_3  and  C3_4 
REMARK    3  A    between atoms: C6_7  and  O2_8 
REMARK    4  A    between atoms: O2_8  and  C7_9 
REMARK       I    between atoms: C7_9  and  N1_11 
REMARK    5  A    between atoms: N1_11  and  C8_13 
REMARK    6  A    between atoms: C8_13  and  C9_14 
REMARK    7  A    between atoms: C8_13  and  C13_18 
REMARK    8  A    between atoms: C9_14  and  C10_15 
REMARK       I    between atoms: C13_18  and  N2_20 
REMARK    9  A    between atoms: N2_20  and  C14_22 
REMARK   10  A    between atoms: C14_22  and  C15_23 
REMARK   11  A    between atoms: C14_22  and  C27_40 
REMARK       I    between atoms: C15_23  and  N3_25 
REMARK   12  A    between atoms: N3_25  and  C16_27 
REMARK   13  A    between atoms: C16_27  and  C17_28 
REMARK   14  A    between atoms: C16_27  and  C21_34 
REMARK   15  A    between atoms: C17_28  and  C18_30 
REMARK   16  A    between atoms: C30_43  and  N4_44 
ROOT
HETATM    1  C13 UNL     1      -1.049 -42.620  20.134  1.00  0.00     0.241 C 
HETATM    2  O4  UNL     1       0.009 -41.920  20.253  1.00  0.00    -0.271 OA
HETATM    3  N2  UNL     1      -2.314 -42.072  20.449  1.00  0.00    -0.346 N 
ATOM      4  H2  UNL     1      -3.156 -42.642  20.358  1.00  0.00     0.163 HD
ENDROOT
BRANCH   1   5
HETATM    5  C8  UNL     1      -0.836 -44.028  19.651  1.00  0.00     0.179 C 
BRANCH   5   6
HETATM    6  N1  UNL     1      -1.196 -44.147  18.266  1.00  0.00    -0.324 N 
HETATM    7  C7  UNL     1      -2.528 -44.375  17.789  1.00  0.00     0.361 C 
HETATM    8  O3  UNL     1      -3.464 -44.487  18.586  1.00  0.00    -0.238 OA
ATOM      9  H1  UNL     1      -0.453 -44.062  17.573  1.00  0.00     0.165 HD
BRANCH   7  10
HETATM   10  O2  UNL     1      -2.743 -44.467  16.442  1.00  0.00    -0.296 OA
BRANCH  10  11
HETATM   11  C6  UNL     1      -2.029 -45.290  15.527  1.00  0.00     0.164 C 
HETATM   12  C5  UNL     1      -2.927 -46.370  14.977  1.00  0.00     0.037 C 
HETATM   13  C4  UNL     1      -2.321 -46.914  13.716  1.00  0.00     0.034 C 
HETATM   14  C3  UNL     1      -2.348 -45.864  12.657  1.00  0.00     0.123 C 
HETATM   15  C32 UNL     1      -2.029 -44.473  13.150  1.00  0.00     0.067 C 
HETATM   16  C30 UNL     1      -1.344 -44.455  14.477  1.00  0.00     0.217 C 
BRANCH  14  17
HETATM   17  O1  UNL     1      -1.590 -46.234  11.569  1.00  0.00    -0.386 OA
BRANCH  17  18
HETATM   18  C2  UNL     1      -0.650 -47.200  11.794  1.00  0.00     0.163 C 
HETATM   19  C1  UNL     1      -0.438 -48.194  10.704  1.00  0.00     0.033 C 
ENDBRANCH  17  18
ENDBRANCH  14  17
BRANCH  16  20
HETATM   20  N4  UNL     1       0.070 -44.680  14.368  1.00  0.00    -0.072 N 
HETATM   21  C31 UNL     1       0.853 -43.890  15.287  1.00  0.00     0.267 C 
ATOM     22  H42 UNL     1       0.286 -45.671  14.471  1.00  0.00     0.277 HD
ATOM     23  H41 UNL     1       0.385 -44.536  13.409  1.00  0.00     0.277 HD
ENDBRANCH  16  20
ENDBRANCH  10  11
ENDBRANCH   7  10
ENDBRANCH   5   6
BRANCH   5  24
HETATM   24  C9  UNL     1       0.496 -44.587  19.984  1.00  0.00     0.038 C 
BRANCH  24  25
HETATM   25  C10 UNL     1       1.012 -45.476  18.863  1.00  0.00    -0.020 C 
HETATM   26  C11 UNL     1       1.000 -46.933  19.191  1.00  0.00     0.009 C 
HETATM   27  C12 UNL     1       2.429 -45.043  18.512  1.00  0.00     0.009 C 
ENDBRANCH  24  25
ENDBRANCH   5  24
ENDBRANCH   1   5
BRANCH   3  28
HETATM   28  C14 UNL     1      -2.409 -40.709  20.899  1.00  0.00     0.180 C 
BRANCH  28  29
HETATM   29  C15 UNL     1      -3.314 -39.901  20.058  1.00  0.00     0.241 C 
HETATM   30  O5  UNL     1      -4.434 -39.475  20.507  1.00  0.00    -0.271 OA
HETATM   31  N3  UNL     1      -2.945 -39.594  18.733  1.00  0.00    -0.347 N 
ATOM     32  H3  UNL     1      -2.049 -39.944  18.394  1.00  0.00     0.163 HD
BRANCH  31  33
HETATM   33  C16 UNL     1      -3.768 -38.800  17.806  1.00  0.00     0.161 C 
BRANCH  33  34
HETATM   34  C17 UNL     1      -4.340 -39.698  16.793  1.00  0.00     0.185 C 
HETATM   35  O6  UNL     1      -5.512 -40.064  17.020  1.00  0.00    -0.292 OA
BRANCH  34  36
HETATM   36  C18 UNL     1      -3.759 -40.227  15.562  1.00  0.00     0.141 A 
HETATM   37  C19 UNL     1      -2.390 -40.865  15.645  1.00  0.00     0.057 C 
HETATM   38  C20 UNL     1      -3.942 -39.427  14.281  1.00  0.00     0.215 A 
HETATM   39  O7  UNL     1      -4.577 -40.621  14.509  1.00  0.00    -0.367 OA
ENDBRANCH  34  36
ENDBRANCH  33  34
BRANCH  33  40
HETATM   40  C21 UNL     1      -2.926 -37.686  17.257  1.00  0.00     0.016 C 
HETATM   41  C22 UNL     1      -1.516 -37.845  17.835  1.00  0.00     0.007 C 
HETATM   42  C23 UNL     1      -0.595 -36.824  17.183  1.00  0.00     0.000 C 
HETATM   43  C24 UNL     1      -1.376 -35.796  16.410  1.00  0.00     0.000 C 
HETATM   44  C25 UNL     1      -2.440 -35.230  17.332  1.00  0.00     0.000 C 
HETATM   45  C26 UNL     1      -3.399 -36.346  17.728  1.00  0.00     0.007 C 
ENDBRANCH  33  40
ENDBRANCH  31  33
ENDBRANCH  28  29
BRANCH  28  46
HETATM   46  C27 UNL     1      -2.815 -40.654  22.379  1.00  0.00     0.009 C 
HETATM   47  C28 UNL     1      -3.540 -41.872  22.841  1.00  0.00     0.012 C 
HETATM   48  C29 UNL     1      -1.646 -40.294  23.253  1.00  0.00     0.012 C 
ENDBRANCH  28  46
ENDBRANCH   3  28
TORSDOF 16
ENDMDL
MODEL 4
REMARK VINA RESULT: -8.095847503      3.148      6.176
REMARK  16 active torsions:
REMARK  status: ('A' for Active; 'I' for Inactive)
REMARK    1  A    between atoms: C2_2  and  O1_3 
REMARK    2  A    between atoms: O1_3  and  C3_4 
REMARK    3  A    between atoms: C6_7  and  O2_8 
REMARK    4  A    between atoms: O2_8  and  C7_9 
REMARK       I    between atoms: C7_9  and  N1_11 
REMARK    5  A    between atoms: N1_11  and  C8_13 
REMARK    6  A    between atoms: C8_13  and  C9_14 
REMARK    7  A    between atoms: C8_13  and  C13_18 
REMARK    8  A    between atoms: C9_14  and  C10_15 
REMARK       I    between atoms: C13_18  and  N2_20 
REMARK    9  A    between atoms: N2_20  and  C14_22 
REMARK   10  A    between atoms: C14_22  and  C15_23 
REMARK   11  A    between atoms: C14_22  and  C27_40 
REMARK       I    between atoms: C15_23  and  N3_25 
REMARK   12  A    between atoms: N3_25  and  C16_27 
REMARK   13  A    between atoms: C16_27  and  C17_28 
REMARK   14  A    between atoms: C16_27  and  C21_34 
REMARK   15  A    between atoms: C17_28  and  C18_30 
REMARK   16  A    between atoms: C30_43  and  N4_44 
ROOT
HETATM    1  C13 UNL     1      -1.398 -42.296  19.569  1.00  0.00     0.241 C 
HETATM    2  O4  UNL     1      -0.830 -41.660  18.622  1.00  0.00    -0.271 OA
HETATM    3  N2  UNL     1      -1.974 -41.603  20.658  1.00  0.00    -0.346 N 
ATOM      4  H2  UNL     1      -2.421 -42.121  21.416  1.00  0.00     0.163 HD
ENDROOT
BRANCH   1   5
HETATM    5  C8  UNL     1      -1.392 -43.793  19.429  1.00  0.00     0.179 C 
BRANCH   5   6
HETATM    6  N1  UNL     1      -1.674 -44.174  18.073  1.00  0.00    -0.324 N 
HETATM    7  C7  UNL     1      -2.886 -44.803  17.640  1.00  0.00     0.361 C 
HETATM    8  O3  UNL     1      -3.780 -45.057  18.452  1.00  0.00    -0.238 OA
ATOM      9  H1  UNL     1      -0.962 -43.982  17.368  1.00  0.00     0.165 HD
BRANCH   7  10
HETATM   10  O2  UNL     1      -3.036 -45.115  16.317  1.00  0.00    -0.296 OA
BRANCH  10  11
HETATM   11  C6  UNL     1      -2.064 -45.730  15.479  1.00  0.00     0.164 C 
HETATM   12  C5  UNL     1      -2.659 -46.917  14.765  1.00  0.00     0.037 C 
HETATM   13  C4  UNL     1      -1.800 -47.255  13.580  1.00  0.00     0.034 C 
HETATM   14  C3  UNL     1      -1.889 -46.160  12.572  1.00  0.00     0.123 C 
HETATM   15  C32 UNL     1      -1.909 -44.770  13.162  1.00  0.00     0.067 C 
HETATM   16  C30 UNL     1      -1.420 -44.715  14.572  1.00  0.00     0.217 C 
BRANCH  14  17
HETATM   17  O1  UNL     1      -0.938 -46.311  11.588  1.00  0.00    -0.386 OA
BRANCH  17  18
HETATM   18  C2  UNL     1      -0.230 -47.480  11.612  1.00  0.00     0.163 C 
HETATM   19  C1  UNL     1      -0.271 -48.312  10.376  1.00  0.00     0.033 C 
ENDBRANCH  17  18
ENDBRANCH  14  17
BRANCH  16  20
HETATM   20  N4  UNL     1       0.013 -44.669  14.655  1.00  0.00    -0.072 N 
HETATM   21  C31 UNL     1       0.528 -43.375  15.032  1.00  0.00     0.267 C 
ATOM     22  H42 UNL     1       0.361 -45.393  15.283  1.00  0.00     0.277 HD
ATOM     23  H41 UNL     1       0.435 -44.985  13.781  1.00  0.00     0.277 HD
ENDBRANCH  16  20
ENDBRANCH  10  11
ENDBRANCH   7  10
ENDBRANCH   5   6
BRANCH   5  24
HETATM   24  C9  UNL     1      -0.199 -44.452  20.010  1.00  0.00     0.038 C 
BRANCH  24  25
HETATM   25  C10 UNL     1      -0.429 -44.812  21.470  1.00  0.00    -0.020 C 
HETATM   26  C11 UNL     1       0.300 -43.935  22.433  1.00  0.00     0.009 C 
HETATM   27  C12 UNL     1      -0.014 -46.262  21.683  1.00  0.00     0.009 C 
ENDBRANCH  24  25
ENDBRANCH   5  24
ENDBRANCH   1   5
BRANCH   3  28
HETATM   28  C14 UNL     1      -1.929 -40.165  20.693  1.00  0.00     0.180 C 
BRANCH  28  29
HETATM   29  C15 UNL     1      -3.032 -39.549  19.929  1.00  0.00     0.241 C 
HETATM   30  O5  UNL     1      -4.152 -39.275  20.484  1.00  0.00    -0.271 OA
HETATM   31  N3  UNL     1      -2.855 -39.260  18.562  1.00  0.00    -0.347 N 
ATOM     32  H3  UNL     1      -1.956 -39.488  18.138  1.00  0.00     0.163 HD
BRANCH  31  33
HETATM   33  C16 UNL     1      -3.884 -38.650  17.703  1.00  0.00     0.161 C 
BRANCH  33  34
HETATM   34  C17 UNL     1      -4.134 -39.539  16.560  1.00  0.00     0.185 C 
HETATM   35  O6  UNL     1      -5.282 -40.027  16.517  1.00  0.00    -0.292 OA
BRANCH  34  36
HETATM   36  C18 UNL     1      -3.256 -39.939  15.463  1.00  0.00     0.141 A 
HETATM   37  C19 UNL     1      -3.723 -39.672  14.050  1.00  0.00     0.057 C 
HETATM   38  C20 UNL     1      -2.518 -41.265  15.581  1.00  0.00     0.215 A 
HETATM   39  O7  UNL     1      -1.884 -40.051  15.665  1.00  0.00    -0.367 OA
ENDBRANCH  34  36
ENDBRANCH  33  34
BRANCH  33  40
HETATM   40  C21 UNL     1      -3.439 -37.265  17.339  1.00  0.00     0.016 C 
HETATM   41  C22 UNL     1      -1.922 -37.199  17.538  1.00  0.00     0.007 C 
HETATM   42  C23 UNL     1      -1.412 -35.856  17.034  1.00  0.00     0.000 C 
HETATM   43  C24 UNL     1      -2.547 -34.902  16.774  1.00  0.00     0.000 C 
HETATM   44  C25 UNL     1      -3.410 -34.855  18.022  1.00  0.00     0.000 C 
HETATM   45  C26 UNL     1      -4.005 -36.236  18.267  1.00  0.00     0.007 C 
ENDBRANCH  33  40
ENDBRANCH  31  33
ENDBRANCH  28  29
BRANCH  28  46
HETATM   46  C27 UNL     1      -1.897 -39.659  22.143  1.00  0.00     0.009 C 
HETATM   47  C28 UNL     1      -1.484 -40.701  23.126  1.00  0.00     0.012 C 
HETATM   48  C29 UNL     1      -1.102 -38.388  22.259  1.00  0.00     0.012 C 
ENDBRANCH  28  46
ENDBRANCH   3  28
TORSDOF 16
ENDMDL
MODEL 5
REMARK VINA RESULT: -8.071633467      2.001      2.772
REMARK  16 active torsions:
REMARK  status: ('A' for Active; 'I' for Inactive)
REMARK    1  A    between atoms: C2_2  and  O1_3 
REMARK    2  A    between atoms: O1_3  and  C3_4 
REMARK    3  A    between atoms: C6_7  and  O2_8 
REMARK    4  A    between atoms: O2_8  and  C7_9 
REMARK       I    between atoms: C7_9  and  N1_11 
REMARK    5  A    between atoms: N1_11  and  C8_13 
REMARK    6  A    between atoms: C8_13  and  C9_14 
REMARK    7  A    between atoms: C8_13  and  C13_18 
REMARK    8  A    between atoms: C9_14  and  C10_15 
REMARK       I    between atoms: C13_18  and  N2_20 
REMARK    9  A    between atoms: N2_20  and  C14_22 
REMARK   10  A    between atoms: C14_22  and  C15_23 
REMARK   11  A    between atoms: C14_22  and  C27_40 
REMARK       I    between atoms: C15_23  and  N3_25 
REMARK   12  A    between atoms: N3_25  and  C16_27 
REMARK   13  A    between atoms: C16_27  and  C17_28 
REMARK   14  A    between atoms: C16_27  and  C21_34 
REMARK   15  A    between atoms: C17_28  and  C18_30 
REMARK   16  A    between atoms: C30_43  and  N4_44 
ROOT
HETATM    1  C13 UNL     1      -2.037 -43.978  15.385  1.00  0.00     0.241 C 
HETATM    2  O4  UNL     1      -2.983 -43.795  14.552  1.00  0.00    -0.271 OA
HETATM    3  N2  UNL     1      -1.587 -42.920  16.209  1.00  0.00    -0.346 N 
ATOM      4  H2  UNL     1      -0.825 -43.074  16.869  1.00  0.00     0.163 HD
ENDROOT
BRANCH   1   5
HETATM    5  C8  UNL     1      -1.462 -45.368  15.408  1.00  0.00     0.179 C 
BRANCH   5   6
HETATM    6  N1  UNL     1      -0.263 -45.404  16.196  1.00  0.00    -0.324 N 
HETATM    7  C7  UNL     1       1.047 -45.106  15.699  1.00  0.00     0.361 C 
HETATM    8  O3  UNL     1       1.207 -44.791  14.516  1.00  0.00    -0.238 OA
ATOM      9  H1  UNL     1      -0.349 -45.661  17.180  1.00  0.00     0.165 HD
BRANCH   7  10
HETATM   10  O2  UNL     1       2.112 -45.174  16.553  1.00  0.00    -0.296 OA
BRANCH  10  11
HETATM   11  C6  UNL     1       3.205 -46.082  16.470  1.00  0.00     0.164 C 
HETATM   12  C5  UNL     1       2.788 -47.345  15.759  1.00  0.00     0.037 C 
HETATM   13  C4  UNL     1       4.017 -48.065  15.282  1.00  0.00     0.034 C 
HETATM   14  C3  UNL     1       4.680 -47.263  14.213  1.00  0.00     0.123 C 
HETATM   15  C32 UNL     1       4.684 -45.775  14.462  1.00  0.00     0.067 C 
HETATM   16  C30 UNL     1       4.419 -45.408  15.886  1.00  0.00     0.217 C 
BRANCH  14  17
HETATM   17  O1  UNL     1       5.930 -47.761  13.921  1.00  0.00    -0.386 OA
BRANCH  17  18
HETATM   18  C2  UNL     1       6.436 -48.671  14.807  1.00  0.00     0.163 C 
HETATM   19  C1  UNL     1       7.534 -49.549  14.312  1.00  0.00     0.033 C 
ENDBRANCH  17  18
ENDBRANCH  14  17
BRANCH  16  20
HETATM   20  N4  UNL     1       5.596 -45.491  16.703  1.00  0.00    -0.072 N 
HETATM   21  C31 UNL     1       5.338 -45.969  18.040  1.00  0.00     0.267 C 
ATOM     22  H42 UNL     1       6.310 -46.060  16.249  1.00  0.00     0.277 HD
ATOM     23  H41 UNL     1       6.082 -44.595  16.728  1.00  0.00     0.277 HD
ENDBRANCH  16  20
ENDBRANCH  10  11
ENDBRANCH   7  10
ENDBRANCH   5   6
BRANCH   5  24
HETATM   24  C9  UNL     1      -2.445 -46.425  15.745  1.00  0.00     0.038 C 
BRANCH  24  25
HETATM   25  C10 UNL     1      -2.757 -47.288  14.533  1.00  0.00    -0.020 C 
HETATM   26  C11 UNL     1      -1.660 -47.333  13.522  1.00  0.00     0.009 C 
HETATM   27  C12 UNL     1      -4.033 -46.768  13.882  1.00  0.00     0.009 C 
ENDBRANCH  24  25
ENDBRANCH   5  24
ENDBRANCH   1   5
BRANCH   3  28
HETATM   28  C14 UNL     1      -2.211 -41.627  16.112  1.00  0.00     0.180 C 
BRANCH  28  29
HETATM   29  C15 UNL     1      -2.161 -40.882  17.385  1.00  0.00     0.241 C 
HETATM   30  O5  UNL     1      -1.696 -41.417  18.450  1.00  0.00    -0.271 OA
HETATM   31  N3  UNL     1      -2.639 -39.557  17.435  1.00  0.00    -0.347 N 
ATOM     32  H3  UNL     1      -3.008 -39.150  16.575  1.00  0.00     0.163 HD
BRANCH  31  33
HETATM   33  C16 UNL     1      -2.641 -38.722  18.647  1.00  0.00     0.161 C 
BRANCH  33  34
HETATM   34  C17 UNL     1      -4.032 -38.503  19.069  1.00  0.00     0.185 C 
HETATM   35  O6  UNL     1      -4.162 -37.864  20.133  1.00  0.00    -0.292 OA
BRANCH  34  36
HETATM   36  C18 UNL     1      -5.286 -38.909  18.439  1.00  0.00     0.141 A 
HETATM   37  C19 UNL     1      -6.224 -37.822  17.967  1.00  0.00     0.057 C 
HETATM   38  C20 UNL     1      -6.035 -40.095  19.031  1.00  0.00     0.215 A 
HETATM   39  O7  UNL     1      -5.393 -40.150  17.820  1.00  0.00    -0.367 OA
ENDBRANCH  34  36
ENDBRANCH  33  34
BRANCH  33  40
HETATM   40  C21 UNL     1      -1.864 -37.470  18.363  1.00  0.00     0.016 C 
HETATM   41  C22 UNL     1      -2.131 -37.081  16.906  1.00  0.00     0.007 C 
HETATM   42  C23 UNL     1      -1.481 -35.733  16.626  1.00  0.00     0.000 C 
HETATM   43  C24 UNL     1      -0.546 -35.334  17.735  1.00  0.00     0.000 C 
HETATM   44  C25 UNL     1       0.408 -36.489  17.978  1.00  0.00     0.000 C 
HETATM   45  C26 UNL     1      -0.388 -37.700  18.449  1.00  0.00     0.007 C 
ENDBRANCH  33  40
ENDBRANCH  31  33
ENDBRANCH  28  29
BRANCH  28  46
HETATM   46  C27 UNL     1      -1.599 -40.816  14.960  1.00  0.00     0.009 C 
HETATM   47  C28 UNL     1      -0.353 -41.419  14.405  1.00  0.00     0.012 C 
HETATM   48  C29 UNL     1      -2.626 -40.505  13.906  1.00  0.00     0.012 C 
ENDBRANCH  28  46
ENDBRANCH   3  28
TORSDOF 16
ENDMDL
