MODEL 1
REMARK VINA RESULT: -7.377760579      0.000      0.000
REMARK  21 active torsions:
REMARK  status: ('A' for Active; 'I' for Inactive)
REMARK    1  A    between atoms: C2_2  and  C4_4 
REMARK    2  A    between atoms: C4_4  and  C5_5 
REMARK    3  A    between atoms: C5_5  and  N1_6 
REMARK    4  A    between atoms: C5_5  and  C15_22 
REMARK    5  A    between atoms: N1_6  and  C6_8 
REMARK    6  A    between atoms: C6_8  and  O1_9 
REMARK    7  A    between atoms: C6_8  and  C7_11 
REMARK    8  A    between atoms: C7_11  and  C8_12 
REMARK    9  A    between atoms: C7_11  and  C10_15 
REMARK   10  A    between atoms: C10_15  and  O3_17 
REMARK   11  A    between atoms: O3_17  and  C11_18 
REMARK   12  A    between atoms: C15_22  and  O4_23 
REMARK   13  A    between atoms: C15_22  and  N3_25 
REMARK   14  A    between atoms: C19_29  and  C20_30 
REMARK       I    between atoms: C20_30  and  N4_32 
REMARK   15  A    between atoms: N4_32  and  C21_34 
REMARK   16  A    between atoms: C21_34  and  C22_35 
REMARK   17  A    between atoms: C21_34  and  C29_42 
REMARK   18  A    between atoms: C22_35  and  C23_36 
REMARK   19  A    between atoms: C29_42  and  O6_43 
REMARK   20  A    between atoms: C29_42  and  C30_45 
REMARK       I    between atoms: C30_45  and  N5_47 
REMARK   21  A    between atoms: N5_47  and  C31_49 
ROOT
HETATM    1  C8  UNL     1      -3.769 -40.735  15.044  1.00  0.00     0.147 C 
HETATM    2  C9  UNL     1      -3.777 -40.079  13.751  1.00  0.00     0.060 C 
HETATM    3  N2  UNL     1      -3.820 -39.552  12.704  1.00  0.00    -0.197 NA
ENDROOT
BRANCH   1   4
HETATM    4  C7  UNL     1      -3.136 -39.973  16.155  1.00  0.00     0.173 C 
BRANCH   4   5
HETATM    5  C6  UNL     1      -2.824 -40.665  17.393  1.00  0.00     0.131 C 
BRANCH   5   6
HETATM    6  N1  UNL     1      -1.611 -40.855  18.054  1.00  0.00    -0.337 N 
ATOM      7  H1  UNL     1      -0.767 -40.417  17.685  1.00  0.00     0.168 HD
BRANCH   6   8
HETATM    8  C5  UNL     1      -1.520 -41.700  19.311  1.00  0.00     0.081 C 
BRANCH   8   9
HETATM    9  C4  UNL     1      -1.289 -40.823  20.425  1.00  0.00     0.011 C 
BRANCH   9  10
HETATM   10  C2  UNL     1      -2.144 -40.761  21.620  1.00  0.00     0.002 C 
HETATM   11  C1  UNL     1      -3.551 -40.251  21.319  1.00  0.00     0.013 C 
HETATM   12  C3  UNL     1      -1.540 -39.602  22.486  1.00  0.00     0.013 C 
ENDBRANCH   9  10
ENDBRANCH   8   9
BRANCH   8  13
HETATM   13  C15 UNL     1      -0.901 -42.939  18.942  1.00  0.00     0.166 C 
BRANCH  13  14
HETATM   14  O4  UNL     1       0.224 -43.087  19.673  1.00  0.00    -0.344 OA
ATOM     15  H4  UNL     1       0.599 -43.937  19.478  1.00  0.00     0.219 HD
ENDBRANCH  13  14
BRANCH  13  16
HETATM   16  N3  UNL     1      -1.104 -44.003  18.088  1.00  0.00    -0.347 N 
HETATM   17  C16 UNL     1      -1.637 -45.317  18.513  1.00  0.00     0.126 C 
HETATM   18  C17 UNL     1      -2.873 -45.337  17.642  1.00  0.00     0.022 C 
HETATM   19  C18 UNL     1      -2.454 -44.588  16.366  1.00  0.00     0.037 C 
HETATM   20  C19 UNL     1      -0.987 -44.267  16.700  1.00  0.00     0.178 C 
BRANCH  20  21
HETATM   21  C20 UNL     1      -0.364 -43.421  15.740  1.00  0.00     0.241 C 
HETATM   22  O5  UNL     1      -0.517 -42.233  15.426  1.00  0.00    -0.271 OA
HETATM   23  N4  UNL     1       0.690 -44.045  14.924  1.00  0.00    -0.352 N 
ATOM     24  H4  UNL     1       0.917 -45.027  15.080  1.00  0.00     0.163 HD
BRANCH  23  25
HETATM   25  C21 UNL     1       1.409 -43.318  13.918  1.00  0.00     0.122 C 
BRANCH  25  26
HETATM   26  C22 UNL     1       1.157 -43.822  12.529  1.00  0.00     0.033 C 
BRANCH  26  27
HETATM   27  C23 UNL     1       0.397 -45.095  12.436  1.00  0.00    -0.013 C 
HETATM   28  C24 UNL     1      -0.903 -45.029  11.702  1.00  0.00     0.005 C 
HETATM   29  C25 UNL     1      -1.541 -46.411  11.825  1.00  0.00     0.000 C 
HETATM   30  C26 UNL     1      -0.690 -47.462  11.156  1.00  0.00     0.000 C 
HETATM   31  C27 UNL     1       0.631 -47.520  11.886  1.00  0.00     0.000 C 
HETATM   32  C28 UNL     1       1.276 -46.164  11.804  1.00  0.00     0.005 C 
ENDBRANCH  26  27
ENDBRANCH  25  26
BRANCH  25  33
HETATM   33  C29 UNL     1       2.931 -43.454  14.147  1.00  0.00     0.232 C 
BRANCH  33  34
HETATM   34  O6  UNL     1       3.419 -42.390  14.862  1.00  0.00    -0.384 OA
ATOM     35  H6  UNL     1       3.274 -41.573  14.399  1.00  0.00     0.210 HD
ENDBRANCH  33  34
BRANCH  33  36
HETATM   36  C30 UNL     1       3.239 -44.701  14.873  1.00  0.00     0.248 C 
HETATM   37  O7  UNL     1       3.139 -44.706  16.109  1.00  0.00    -0.271 OA
HETATM   38  N5  UNL     1       3.649 -45.913  14.234  1.00  0.00    -0.354 N 
ATOM     39  H5  UNL     1       3.735 -45.923  13.217  1.00  0.00     0.162 HD
BRANCH  38  40
HETATM   40  C31 UNL     1       3.943 -47.112  14.958  1.00  0.00     0.084 A 
HETATM   41  C32 UNL     1       4.271 -48.343  14.139  1.00  0.00     0.027 A 
HETATM   42  C33 UNL     1       3.067 -48.293  14.988  1.00  0.00     0.027 A 
ENDBRANCH  38  40
ENDBRANCH  33  36
ENDBRANCH  25  33
ENDBRANCH  23  25
ENDBRANCH  20  21
ENDBRANCH  13  16
ENDBRANCH   8  13
ENDBRANCH   6   8
ENDBRANCH   5   6
BRANCH   5  43
HETATM   43  O1  UNL     1      -3.864 -41.201  17.997  1.00  0.00    -0.349 OA
ATOM     44  H1  UNL     1      -3.646 -41.795  18.706  1.00  0.00     0.219 HD
ENDBRANCH   5  43
ENDBRANCH   4   5
BRANCH   4  45
HETATM   45  C10 UNL     1      -4.104 -38.868  16.493  1.00  0.00     0.272 C 
HETATM   46  O2  UNL     1      -5.278 -39.141  16.796  1.00  0.00    -0.264 OA
BRANCH  45  47
HETATM   47  O3  UNL     1      -3.688 -37.567  16.466  1.00  0.00    -0.311 OA
BRANCH  47  48
HETATM   48  C11 UNL     1      -2.892 -36.951  17.456  1.00  0.00     0.060 C 
HETATM   49  C12 UNL     1      -3.165 -35.462  17.395  1.00  0.00     0.045 C 
HETATM   50  C13 UNL     1      -3.202 -37.441  18.836  1.00  0.00     0.045 C 
HETATM   51  C14 UNL     1      -1.408 -37.184  17.193  1.00  0.00     0.045 C 
ENDBRANCH  47  48
ENDBRANCH  45  47
ENDBRANCH   4  45
ENDBRANCH   1   4
TORSDOF 21
ENDMDL
MODEL 2
REMARK VINA RESULT: -7.331789364      1.363      1.627
REMARK  21 active torsions:
REMARK  status: ('A' for Active; 'I' for Inactive)
REMARK    1  A    between atoms: C2_2  and  C4_4 
REMARK    2  A    between atoms: C4_4  and  C5_5 
REMARK    3  A    between atoms: C5_5  and  N1_6 
REMARK    4  A    between atoms: C5_5  and  C15_22 
REMARK    5  A    between atoms: N1_6  and  C6_8 
REMARK    6  A    between atoms: C6_8  and  O1_9 
REMARK    7  A    between atoms: C6_8  and  C7_11 
REMARK    8  A    between atoms: C7_11  and  C8_12 
REMARK    9  A    between atoms: C7_11  and  C10_15 
REMARK   10  A    between atoms: C10_15  and  O3_17 
REMARK   11  A    between atoms: O3_17  and  C11_18 
REMARK   12  A    between atoms: C15_22  and  O4_23 
REMARK   13  A    between atoms: C15_22  and  N3_25 
REMARK   14  A    between atoms: C19_29  and  C20_30 
REMARK       I    between atoms: C20_30  and  N4_32 
REMARK   15  A    between atoms: N4_32  and  C21_34 
REMARK   16  A    between atoms: C21_34  and  C22_35 
REMARK   17  A    between atoms: C21_34  and  C29_42 
REMARK   18  A    between atoms: C22_35  and  C23_36 
REMARK   19  A    between atoms: C29_42  and  O6_43 
REMARK   20  A    between atoms: C29_42  and  C30_45 
REMARK       I    between atoms: C30_45  and  N5_47 
REMARK   21  A    between atoms: N5_47  and  C31_49 
ROOT
HETATM    1  C8  UNL     1      -3.890 -39.032  15.269  1.00  0.00     0.147 C 
HETATM    2  C9  UNL     1      -3.984 -39.434  13.879  1.00  0.00     0.060 C 
HETATM    3  N2  UNL     1      -4.065 -39.724  12.745  1.00  0.00    -0.197 NA
ENDROOT
BRANCH   1   4
HETATM    4  C7  UNL     1      -2.618 -39.377  15.961  1.00  0.00     0.173 C 
BRANCH   4   5
HETATM    5  C6  UNL     1      -2.652 -40.323  17.062  1.00  0.00     0.131 C 
BRANCH   5   6
HETATM    6  N1  UNL     1      -1.620 -40.923  17.784  1.00  0.00    -0.337 N 
ATOM      7  H1  UNL     1      -0.656 -40.797  17.476  1.00  0.00     0.168 HD
BRANCH   6   8
HETATM    8  C5  UNL     1      -1.902 -41.758  19.019  1.00  0.00     0.081 C 
BRANCH   8   9
HETATM    9  C4  UNL     1      -1.400 -41.050  20.163  1.00  0.00     0.011 C 
BRANCH   9  10
HETATM   10  C2  UNL     1      -2.202 -40.720  21.351  1.00  0.00     0.002 C 
HETATM   11  C1  UNL     1      -3.611 -40.247  21.003  1.00  0.00     0.013 C 
HETATM   12  C3  UNL     1      -1.542 -39.424  21.935  1.00  0.00     0.013 C 
ENDBRANCH   9  10
ENDBRANCH   8   9
BRANCH   8  13
HETATM   13  C15 UNL     1      -1.782 -43.134  18.634  1.00  0.00     0.166 C 
BRANCH  13  14
HETATM   14  O4  UNL     1      -2.987 -43.559  18.199  1.00  0.00    -0.344 OA
ATOM     15  H4  UNL     1      -3.145 -43.184  17.342  1.00  0.00     0.219 HD
ENDBRANCH  13  14
BRANCH  13  16
HETATM   16  N3  UNL     1      -0.830 -44.129  18.572  1.00  0.00    -0.347 N 
HETATM   17  C16 UNL     1      -0.491 -45.023  19.702  1.00  0.00     0.126 C 
HETATM   18  C17 UNL     1      -0.840 -46.339  19.044  1.00  0.00     0.022 C 
HETATM   19  C18 UNL     1      -0.497 -46.127  17.561  1.00  0.00     0.037 C 
HETATM   20  C19 UNL     1       0.039 -44.686  17.601  1.00  0.00     0.178 C 
BRANCH  20  21
HETATM   21  C20 UNL     1       0.302 -44.147  16.309  1.00  0.00     0.241 C 
HETATM   22  O5  UNL     1      -0.171 -43.197  15.672  1.00  0.00    -0.271 OA
HETATM   23  N4  UNL     1       1.347 -44.830  15.531  1.00  0.00    -0.352 N 
ATOM     24  H4  UNL     1       1.820 -45.636  15.940  1.00  0.00     0.163 HD
BRANCH  23  25
HETATM   25  C21 UNL     1       1.724 -44.400  14.215  1.00  0.00     0.122 C 
BRANCH  25  26
HETATM   26  C22 UNL     1       1.798 -45.523  13.223  1.00  0.00     0.033 C 
BRANCH  26  27
HETATM   27  C23 UNL     1       0.494 -45.993  12.687  1.00  0.00    -0.013 C 
HETATM   28  C24 UNL     1      -0.364 -44.950  12.049  1.00  0.00     0.005 C 
HETATM   29  C25 UNL     1      -1.674 -45.638  11.672  1.00  0.00     0.000 C 
HETATM   30  C26 UNL     1      -1.441 -46.727  10.653  1.00  0.00     0.000 C 
HETATM   31  C27 UNL     1      -0.559 -47.775  11.290  1.00  0.00     0.000 C 
HETATM   32  C28 UNL     1       0.734 -47.122  11.695  1.00  0.00     0.005 C 
ENDBRANCH  26  27
ENDBRANCH  25  26
BRANCH  25  33
HETATM   33  C29 UNL     1       3.133 -43.768  14.243  1.00  0.00     0.232 C 
BRANCH  33  34
HETATM   34  O6  UNL     1       3.082 -42.471  14.685  1.00  0.00    -0.384 OA
ATOM     35  H6  UNL     1       2.869 -42.433  15.611  1.00  0.00     0.210 HD
ENDBRANCH  33  34
BRANCH  33  36
HETATM   36  C30 UNL     1       4.033 -44.540  15.121  1.00  0.00     0.248 C 
HETATM   37  O7  UNL     1       3.984 -44.336  16.343  1.00  0.00    -0.271 OA
HETATM   38  N5  UNL     1       4.964 -45.515  14.646  1.00  0.00    -0.354 N 
ATOM     39  H5  UNL     1       5.014 -45.694  13.643  1.00  0.00     0.162 HD
BRANCH  38  40
HETATM   40  C31 UNL     1       5.827 -46.253  15.516  1.00  0.00     0.084 A 
HETATM   41  C32 UNL     1       7.071 -46.855  14.897  1.00  0.00     0.027 A 
HETATM   42  C33 UNL     1       6.010 -47.711  15.457  1.00  0.00     0.027 A 
ENDBRANCH  38  40
ENDBRANCH  33  36
ENDBRANCH  25  33
ENDBRANCH  23  25
ENDBRANCH  20  21
ENDBRANCH  13  16
ENDBRANCH   8  13
ENDBRANCH   6   8
ENDBRANCH   5   6
BRANCH   5  43
HETATM   43  O1  UNL     1      -3.862 -40.672  17.447  1.00  0.00    -0.349 OA
ATOM     44  H1  UNL     1      -4.510 -39.980  17.384  1.00  0.00     0.219 HD
ENDBRANCH   5  43
ENDBRANCH   4   5
BRANCH   4  45
HETATM   45  C10 UNL     1      -2.088 -38.075  16.508  1.00  0.00     0.272 C 
HETATM   46  O2  UNL     1      -0.871 -37.940  16.719  1.00  0.00    -0.264 OA
BRANCH  45  47
HETATM   47  O3  UNL     1      -2.947 -37.046  16.769  1.00  0.00    -0.311 OA
BRANCH  47  48
HETATM   48  C11 UNL     1      -3.443 -36.710  18.047  1.00  0.00     0.060 C 
HETATM   49  C12 UNL     1      -3.488 -35.198  18.133  1.00  0.00     0.045 C 
HETATM   50  C13 UNL     1      -4.819 -37.246  18.295  1.00  0.00     0.045 C 
HETATM   51  C14 UNL     1      -2.526 -37.232  19.148  1.00  0.00     0.045 C 
ENDBRANCH  47  48
ENDBRANCH  45  47
ENDBRANCH   4  45
ENDBRANCH   1   4
TORSDOF 21
ENDMDL
MODEL 3
REMARK VINA RESULT: -7.246093966      1.883      2.659
REMARK  21 active torsions:
REMARK  status: ('A' for Active; 'I' for Inactive)
REMARK    1  A    between atoms: C2_2  and  C4_4 
REMARK    2  A    between atoms: C4_4  and  C5_5 
REMARK    3  A    between atoms: C5_5  and  N1_6 
REMARK    4  A    between atoms: C5_5  and  C15_22 
REMARK    5  A    between atoms: N1_6  and  C6_8 
REMARK    6  A    between atoms: C6_8  and  O1_9 
REMARK    7  A    between atoms: C6_8  and  C7_11 
REMARK    8  A    between atoms: C7_11  and  C8_12 
REMARK    9  A    between atoms: C7_11  and  C10_15 
REMARK   10  A    between atoms: C10_15  and  O3_17 
REMARK   11  A    between atoms: O3_17  and  C11_18 
REMARK   12  A    between atoms: C15_22  and  O4_23 
REMARK   13  A    between atoms: C15_22  and  N3_25 
REMARK   14  A    between atoms: C19_29  and  C20_30 
REMARK       I    between atoms: C20_30  and  N4_32 
REMARK   15  A    between atoms: N4_32  and  C21_34 
REMARK   16  A    between atoms: C21_34  and  C22_35 
REMARK   17  A    between atoms: C21_34  and  C29_42 
REMARK   18  A    between atoms: C22_35  and  C23_36 
REMARK   19  A    between atoms: C29_42  and  O6_43 
REMARK   20  A    between atoms: C29_42  and  C30_45 
REMARK       I    between atoms: C30_45  and  N5_47 
REMARK   21  A    between atoms: N5_47  and  C31_49 
ROOT
HETATM    1  C8  UNL     1      -4.124 -38.423  17.705  1.00  0.00     0.147 C 
HETATM    2  C9  UNL     1      -5.531 -38.178  17.449  1.00  0.00     0.060 C 
HETATM    3  N2  UNL     1      -6.663 -37.946  17.253  1.00  0.00    -0.197 NA
ENDROOT
BRANCH   1   4
HETATM    4  C7  UNL     1      -3.334 -38.938  16.554  1.00  0.00     0.173 C 
BRANCH   4   5
HETATM    5  C6  UNL     1      -2.800 -40.287  16.615  1.00  0.00     0.131 C 
BRANCH   5   6
HETATM    6  N1  UNL     1      -1.884 -40.869  17.489  1.00  0.00    -0.337 N 
ATOM      7  H1  UNL     1      -0.888 -40.691  17.360  1.00  0.00     0.168 HD
BRANCH   6   8
HETATM    8  C5  UNL     1      -2.336 -41.762  18.629  1.00  0.00     0.081 C 
BRANCH   8   9
HETATM    9  C4  UNL     1      -2.233 -41.016  19.851  1.00  0.00     0.011 C 
BRANCH   9  10
HETATM   10  C2  UNL     1      -3.277 -40.972  20.885  1.00  0.00     0.002 C 
HETATM   11  C1  UNL     1      -4.687 -41.077  20.311  1.00  0.00     0.013 C 
HETATM   12  C3  UNL     1      -3.240 -39.503  21.432  1.00  0.00     0.013 C 
ENDBRANCH   9  10
ENDBRANCH   8   9
BRANCH   8  13
HETATM   13  C15 UNL     1      -1.933 -43.099  18.302  1.00  0.00     0.166 C 
BRANCH  13  14
HETATM   14  O4  UNL     1      -3.040 -43.866  18.212  1.00  0.00    -0.344 OA
ATOM     15  H4  UNL     1      -2.967 -44.572  18.844  1.00  0.00     0.219 HD
ENDBRANCH  13  14
BRANCH  13  16
HETATM   16  N3  UNL     1      -0.784 -43.820  18.055  1.00  0.00    -0.347 N 
HETATM   17  C16 UNL     1       0.018 -44.487  19.106  1.00  0.00     0.126 C 
HETATM   18  C17 UNL     1      -0.096 -45.905  18.592  1.00  0.00     0.022 C 
HETATM   19  C18 UNL     1      -0.150 -45.754  17.063  1.00  0.00     0.037 C 
HETATM   20  C19 UNL     1      -0.027 -44.227  16.928  1.00  0.00     0.178 C 
BRANCH  20  21
HETATM   21  C20 UNL     1      -0.203 -43.764  15.594  1.00  0.00     0.241 C 
HETATM   22  O5  UNL     1      -0.755 -42.770  15.104  1.00  0.00    -0.271 OA
HETATM   23  N4  UNL     1       0.377 -44.613  14.540  1.00  0.00    -0.352 N 
ATOM     24  H4  UNL     1       0.862 -45.469  14.807  1.00  0.00     0.163 HD
BRANCH  23  25
HETATM   25  C21 UNL     1       0.282 -44.275  13.149  1.00  0.00     0.122 C 
BRANCH  25  26
HETATM   26  C22 UNL     1      -0.202 -45.409  12.295  1.00  0.00     0.033 C 
BRANCH  26  27
HETATM   27  C23 UNL     1      -1.465 -46.053  12.739  1.00  0.00    -0.013 C 
HETATM   28  C24 UNL     1      -1.343 -47.019  13.872  1.00  0.00     0.005 C 
HETATM   29  C25 UNL     1      -2.731 -47.621  14.079  1.00  0.00     0.000 C 
HETATM   30  C26 UNL     1      -3.726 -46.562  14.485  1.00  0.00     0.000 C 
HETATM   31  C27 UNL     1      -3.838 -45.574  13.348  1.00  0.00     0.000 C 
HETATM   32  C28 UNL     1      -2.479 -44.979  13.103  1.00  0.00     0.005 C 
ENDBRANCH  26  27
ENDBRANCH  25  26
BRANCH  25  33
HETATM   33  C29 UNL     1       1.673 -43.893  12.597  1.00  0.00     0.232 C 
BRANCH  33  34
HETATM   34  O6  UNL     1       1.654 -42.643  12.034  1.00  0.00    -0.384 OA
ATOM     35  H6  UNL     1       1.872 -41.976  12.674  1.00  0.00     0.210 HD
ENDBRANCH  33  34
BRANCH  33  36
HETATM   36  C30 UNL     1       2.685 -43.922  13.670  1.00  0.00     0.248 C 
HETATM   37  O7  UNL     1       2.858 -42.897  14.347  1.00  0.00    -0.271 OA
HETATM   38  N5  UNL     1       3.484 -45.066  13.980  1.00  0.00    -0.354 N 
ATOM     39  H5  UNL     1       3.352 -45.917  13.432  1.00  0.00     0.162 HD
BRANCH  38  40
HETATM   40  C31 UNL     1       4.460 -45.071  15.027  1.00  0.00     0.084 A 
HETATM   41  C32 UNL     1       5.612 -46.043  14.883  1.00  0.00     0.027 A 
HETATM   42  C33 UNL     1       4.640 -46.174  15.982  1.00  0.00     0.027 A 
ENDBRANCH  38  40
ENDBRANCH  33  36
ENDBRANCH  25  33
ENDBRANCH  23  25
ENDBRANCH  20  21
ENDBRANCH  13  16
ENDBRANCH   8  13
ENDBRANCH   6   8
ENDBRANCH   5   6
BRANCH   5  43
HETATM   43  O1  UNL     1      -3.264 -41.100  15.689  1.00  0.00    -0.349 OA
ATOM     44  H1  UNL     1      -3.531 -40.670  14.884  1.00  0.00     0.219 HD
ENDBRANCH   5  43
ENDBRANCH   4   5
BRANCH   4  45
HETATM   45  C10 UNL     1      -2.161 -38.000  16.415  1.00  0.00     0.272 C 
HETATM   46  O2  UNL     1      -2.117 -37.196  15.468  1.00  0.00    -0.264 OA
BRANCH  45  47
HETATM   47  O3  UNL     1      -1.150 -38.035  17.333  1.00  0.00    -0.311 OA
BRANCH  47  48
HETATM   48  C11 UNL     1      -0.778 -36.960  18.170  1.00  0.00     0.060 C 
HETATM   49  C12 UNL     1       0.591 -36.491  17.723  1.00  0.00     0.045 C 
HETATM   50  C13 UNL     1      -1.731 -35.808  18.092  1.00  0.00     0.045 C 
HETATM   51  C14 UNL     1      -0.688 -37.403  19.626  1.00  0.00     0.045 C 
ENDBRANCH  47  48
ENDBRANCH  45  47
ENDBRANCH   4  45
ENDBRANCH   1   4
TORSDOF 21
ENDMDL
MODEL 4
REMARK VINA RESULT: -7.207985482      1.951      2.656
REMARK  21 active torsions:
REMARK  status: ('A' for Active; 'I' for Inactive)
REMARK    1  A    between atoms: C2_2  and  C4_4 
REMARK    2  A    between atoms: C4_4  and  C5_5 
REMARK    3  A    between atoms: C5_5  and  N1_6 
REMARK    4  A    between atoms: C5_5  and  C15_22 
REMARK    5  A    between atoms: N1_6  and  C6_8 
REMARK    6  A    between atoms: C6_8  and  O1_9 
REMARK    7  A    between atoms: C6_8  and  C7_11 
REMARK    8  A    between atoms: C7_11  and  C8_12 
REMARK    9  A    between atoms: C7_11  and  C10_15 
REMARK   10  A    between atoms: C10_15  and  O3_17 
REMARK   11  A    between atoms: O3_17  and  C11_18 
REMARK   12  A    between atoms: C15_22  and  O4_23 
REMARK   13  A    between atoms: C15_22  and  N3_25 
REMARK   14  A    between atoms: C19_29  and  C20_30 
REMARK       I    between atoms: C20_30  and  N4_32 
REMARK   15  A    between atoms: N4_32  and  C21_34 
REMARK   16  A    between atoms: C21_34  and  C22_35 
REMARK   17  A    between atoms: C21_34  and  C29_42 
REMARK   18  A    between atoms: C22_35  and  C23_36 
REMARK   19  A    between atoms: C29_42  and  O6_43 
REMARK   20  A    between atoms: C29_42  and  C30_45 
REMARK       I    between atoms: C30_45  and  N5_47 
REMARK   21  A    between atoms: N5_47  and  C31_49 
ROOT
HETATM    1  C8  UNL     1      -3.905 -39.801  15.236  1.00  0.00     0.147 C 
HETATM    2  C9  UNL     1      -4.412 -39.996  13.891  1.00  0.00     0.060 C 
HETATM    3  N2  UNL     1      -4.846 -40.127  12.810  1.00  0.00    -0.197 NA
ENDROOT
BRANCH   1   4
HETATM    4  C7  UNL     1      -2.453 -39.494  15.344  1.00  0.00     0.173 C 
BRANCH   4   5
HETATM    5  C6  UNL     1      -1.567 -40.486  15.927  1.00  0.00     0.131 C 
BRANCH   5   6
HETATM    6  N1  UNL     1      -1.452 -40.953  17.236  1.00  0.00    -0.337 N 
ATOM      7  H1  UNL     1      -0.798 -40.499  17.873  1.00  0.00     0.168 HD
BRANCH   6   8
HETATM    8  C5  UNL     1      -2.280 -42.123  17.733  1.00  0.00     0.081 C 
BRANCH   8   9
HETATM    9  C4  UNL     1      -2.950 -41.719  18.937  1.00  0.00     0.011 C 
BRANCH   9  10
HETATM   10  C2  UNL     1      -2.637 -42.245  20.275  1.00  0.00     0.002 C 
HETATM   11  C1  UNL     1      -3.762 -42.017  21.281  1.00  0.00     0.013 C 
HETATM   12  C3  UNL     1      -1.500 -41.312  20.818  1.00  0.00     0.013 C 
ENDBRANCH   9  10
ENDBRANCH   8   9
BRANCH   8  13
HETATM   13  C15 UNL     1      -1.556 -43.318  17.412  1.00  0.00     0.166 C 
BRANCH  13  14
HETATM   14  O4  UNL     1      -2.331 -44.082  16.612  1.00  0.00    -0.344 OA
ATOM     15  H4  UNL     1      -2.067 -43.935  15.712  1.00  0.00     0.219 HD
ENDBRANCH  13  14
BRANCH  13  16
HETATM   16  N3  UNL     1      -0.336 -43.908  17.664  1.00  0.00    -0.347 N 
HETATM   17  C16 UNL     1       0.196 -44.165  19.022  1.00  0.00     0.126 C 
HETATM   18  C17 UNL     1       0.325 -45.669  18.918  1.00  0.00     0.022 C 
HETATM   19  C18 UNL     1       0.678 -45.921  17.444  1.00  0.00     0.037 C 
HETATM   20  C19 UNL     1       0.726 -44.477  16.916  1.00  0.00     0.178 C 
BRANCH  20  21
HETATM   21  C20 UNL     1       0.887 -44.399  15.504  1.00  0.00     0.241 C 
HETATM   22  O5  UNL     1       0.882 -43.459  14.698  1.00  0.00    -0.271 OA
HETATM   23  N4  UNL     1       1.107 -45.680  14.813  1.00  0.00    -0.352 N 
ATOM     24  H4  UNL     1       1.131 -46.539  15.362  1.00  0.00     0.163 HD
BRANCH  23  25
HETATM   25  C21 UNL     1       1.288 -45.759  13.392  1.00  0.00     0.122 C 
BRANCH  25  26
HETATM   26  C22 UNL     1       0.082 -46.278  12.669  1.00  0.00     0.033 C 
BRANCH  26  27
HETATM   27  C23 UNL     1      -1.228 -45.953  13.289  1.00  0.00    -0.013 C 
HETATM   28  C24 UNL     1      -2.194 -45.209  12.425  1.00  0.00     0.005 C 
HETATM   29  C25 UNL     1      -3.408 -44.902  13.298  1.00  0.00     0.000 C 
HETATM   30  C26 UNL     1      -4.084 -46.172  13.754  1.00  0.00     0.000 C 
HETATM   31  C27 UNL     1      -3.103 -46.934  14.614  1.00  0.00     0.000 C 
HETATM   32  C28 UNL     1      -1.883 -47.233  13.788  1.00  0.00     0.005 C 
ENDBRANCH  26  27
ENDBRANCH  25  26
BRANCH  25  33
HETATM   33  C29 UNL     1       2.436 -46.737  13.055  1.00  0.00     0.232 C 
BRANCH  33  34
HETATM   34  O6  UNL     1       2.666 -46.781  11.704  1.00  0.00    -0.384 OA
ATOM     35  H6  UNL     1       3.527 -46.442  11.492  1.00  0.00     0.210 HD
ENDBRANCH  33  34
BRANCH  33  36
HETATM   36  C30 UNL     1       3.680 -46.336  13.741  1.00  0.00     0.248 C 
HETATM   37  O7  UNL     1       3.855 -45.134  13.991  1.00  0.00    -0.271 OA
HETATM   38  N5  UNL     1       4.702 -47.254  14.137  1.00  0.00    -0.354 N 
ATOM     39  H5  UNL     1       4.570 -48.246  13.938  1.00  0.00     0.162 HD
BRANCH  38  40
HETATM   40  C31 UNL     1       5.900 -46.842  14.801  1.00  0.00     0.084 A 
HETATM   41  C32 UNL     1       7.164 -47.607  14.468  1.00  0.00     0.027 A 
HETATM   42  C33 UNL     1       6.592 -47.639  15.826  1.00  0.00     0.027 A 
ENDBRANCH  38  40
ENDBRANCH  33  36
ENDBRANCH  25  33
ENDBRANCH  23  25
ENDBRANCH  20  21
ENDBRANCH  13  16
ENDBRANCH   8  13
ENDBRANCH   6   8
ENDBRANCH   5   6
BRANCH   5  43
HETATM   43  O1  UNL     1      -0.732 -41.042  15.074  1.00  0.00    -0.349 OA
ATOM     44  H1  UNL     1       0.138 -40.659  15.067  1.00  0.00     0.219 HD
ENDBRANCH   5  43
ENDBRANCH   4   5
BRANCH   4  45
HETATM   45  C10 UNL     1      -2.362 -38.256  16.201  1.00  0.00     0.272 C 
HETATM   46  O2  UNL     1      -1.251 -37.808  16.531  1.00  0.00    -0.264 OA
BRANCH  45  47
HETATM   47  O3  UNL     1      -3.504 -37.629  16.613  1.00  0.00    -0.311 OA
BRANCH  47  48
HETATM   48  C11 UNL     1      -3.818 -37.317  17.954  1.00  0.00     0.060 C 
HETATM   49  C12 UNL     1      -5.297 -37.582  18.146  1.00  0.00     0.045 C 
HETATM   50  C13 UNL     1      -3.049 -38.145  18.937  1.00  0.00     0.045 C 
HETATM   51  C14 UNL     1      -3.544 -35.848  18.256  1.00  0.00     0.045 C 
ENDBRANCH  47  48
ENDBRANCH  45  47
ENDBRANCH   4  45
ENDBRANCH   1   4
TORSDOF 21
ENDMDL
MODEL 5
REMARK VINA RESULT: -7.161622421      1.865      3.032
REMARK  21 active torsions:
REMARK  status: ('A' for Active; 'I' for Inactive)
REMARK    1  A    between atoms: C2_2  and  C4_4 
REMARK    2  A    between atoms: C4_4  and  C5_5 
REMARK    3  A    between atoms: C5_5  and  N1_6 
REMARK    4  A    between atoms: C5_5  and  C15_22 
REMARK    5  A    between atoms: N1_6  and  C6_8 
REMARK    6  A    between atoms: C6_8  and  O1_9 
REMARK    7  A    between atoms: C6_8  and  C7_11 
REMARK    8  A    between atoms: C7_11  and  C8_12 
REMARK    9  A    between atoms: C7_11  and  C10_15 
REMARK   10  A    between atoms: C10_15  and  O3_17 
REMARK   11  A    between atoms: O3_17  and  C11_18 
REMARK   12  A    between atoms: C15_22  and  O4_23 
REMARK   13  A    between atoms: C15_22  and  N3_25 
REMARK   14  A    between atoms: C19_29  and  C20_30 
REMARK       I    between atoms: C20_30  and  N4_32 
REMARK   15  A    between atoms: N4_32  and  C21_34 
REMARK   16  A    between atoms: C21_34  and  C22_35 
REMARK   17  A    between atoms: C21_34  and  C29_42 
REMARK   18  A    between atoms: C22_35  and  C23_36 
REMARK   19  A    between atoms: C29_42  and  O6_43 
REMARK   20  A    between atoms: C29_42  and  C30_45 
REMARK       I    between atoms: C30_45  and  N5_47 
REMARK   21  A    between atoms: N5_47  and  C31_49 
ROOT
HETATM    1  C8  UNL     1      -4.028 -39.564  15.387  1.00  0.00     0.147 C 
HETATM    2  C9  UNL     1      -3.981 -39.645  13.940  1.00  0.00     0.060 C 
HETATM    3  N2  UNL     1      -3.978 -39.699  12.768  1.00  0.00    -0.197 NA
ENDROOT
BRANCH   1   4
HETATM    4  C7  UNL     1      -2.968 -38.737  16.025  1.00  0.00     0.173 C 
BRANCH   4   5
HETATM    5  C6  UNL     1      -1.952 -39.394  16.829  1.00  0.00     0.131 C 
BRANCH   5   6
HETATM    6  N1  UNL     1      -2.027 -40.505  17.667  1.00  0.00    -0.337 N 
ATOM      7  H1  UNL     1      -1.611 -41.386  17.367  1.00  0.00     0.168 HD
BRANCH   6   8
HETATM    8  C5  UNL     1      -2.715 -40.432  19.017  1.00  0.00     0.081 C 
BRANCH   8   9
HETATM    9  C4  UNL     1      -1.820 -39.799  19.944  1.00  0.00     0.011 C 
BRANCH   9  10
HETATM   10  C2  UNL     1      -2.248 -39.109  21.170  1.00  0.00     0.002 C 
HETATM   11  C1  UNL     1      -1.290 -37.999  21.593  1.00  0.00     0.013 C 
HETATM   12  C3  UNL     1      -2.068 -40.168  22.312  1.00  0.00     0.013 C 
ENDBRANCH   9  10
ENDBRANCH   8   9
BRANCH   8  13
HETATM   13  C15 UNL     1      -3.524 -41.609  19.142  1.00  0.00     0.166 C 
BRANCH  13  14
HETATM   14  O4  UNL     1      -4.780 -41.305  18.752  1.00  0.00    -0.344 OA
ATOM     15  H4  UNL     1      -4.948 -41.736  17.922  1.00  0.00     0.219 HD
ENDBRANCH  13  14
BRANCH  13  16
HETATM   16  N3  UNL     1      -3.409 -42.928  19.529  1.00  0.00    -0.347 N 
HETATM   17  C16 UNL     1      -3.817 -43.441  20.856  1.00  0.00     0.126 C 
HETATM   18  C17 UNL     1      -4.851 -44.441  20.388  1.00  0.00     0.022 C 
HETATM   19  C18 UNL     1      -4.312 -44.946  19.041  1.00  0.00     0.037 C 
HETATM   20  C19 UNL     1      -2.996 -44.155  18.952  1.00  0.00     0.178 C 
BRANCH  20  21
HETATM   21  C20 UNL     1      -2.332 -44.306  17.702  1.00  0.00     0.241 C 
HETATM   22  O5  UNL     1      -2.240 -43.592  16.695  1.00  0.00    -0.271 OA
HETATM   23  N4  UNL     1      -1.583 -45.561  17.523  1.00  0.00    -0.352 N 
ATOM     24  H4  UNL     1      -1.576 -46.244  18.280  1.00  0.00     0.163 HD
BRANCH  23  25
HETATM   25  C21 UNL     1      -0.861 -45.855  16.318  1.00  0.00     0.122 C 
BRANCH  25  26
HETATM   26  C22 UNL     1      -1.377 -47.064  15.598  1.00  0.00     0.033 C 
BRANCH  26  27
HETATM   27  C23 UNL     1      -1.685 -46.871  14.158  1.00  0.00    -0.013 C 
HETATM   28  C24 UNL     1      -1.960 -45.467  13.730  1.00  0.00     0.005 C 
HETATM   29  C25 UNL     1      -2.346 -45.531  12.254  1.00  0.00     0.000 C 
HETATM   30  C26 UNL     1      -1.202 -46.049  11.417  1.00  0.00     0.000 C 
HETATM   31  C27 UNL     1      -0.910 -47.464  11.859  1.00  0.00     0.000 C 
HETATM   32  C28 UNL     1      -0.549 -47.438  13.318  1.00  0.00     0.005 C 
ENDBRANCH  26  27
ENDBRANCH  25  26
BRANCH  25  33
HETATM   33  C29 UNL     1       0.619 -46.156  16.643  1.00  0.00     0.232 C 
BRANCH  33  34
HETATM   34  O6  UNL     1       0.823 -47.501  16.810  1.00  0.00    -0.384 OA
ATOM     35  H6  UNL     1       1.731 -47.686  17.018  1.00  0.00     0.210 HD
ENDBRANCH  33  34
BRANCH  33  36
HETATM   36  C30 UNL     1       1.499 -45.666  15.564  1.00  0.00     0.248 C 
HETATM   37  O7  UNL     1       2.580 -46.243  15.377  1.00  0.00    -0.271 OA
HETATM   38  N5  UNL     1       1.178 -44.560  14.717  1.00  0.00    -0.354 N 
ATOM     39  H5  UNL     1       0.291 -44.077  14.860  1.00  0.00     0.162 HD
BRANCH  38  40
HETATM   40  C31 UNL     1       2.048 -44.102  13.676  1.00  0.00     0.084 A 
HETATM   41  C32 UNL     1       1.393 -43.455  12.473  1.00  0.00     0.027 A 
HETATM   42  C33 UNL     1       2.138 -44.720  12.345  1.00  0.00     0.027 A 
ENDBRANCH  38  40
ENDBRANCH  33  36
ENDBRANCH  25  33
ENDBRANCH  23  25
ENDBRANCH  20  21
ENDBRANCH  13  16
ENDBRANCH   8  13
ENDBRANCH   6   8
ENDBRANCH   5   6
BRANCH   5  43
HETATM   43  O1  UNL     1      -0.756 -38.849  16.751  1.00  0.00    -0.349 OA
ATOM     44  H1  UNL     1      -0.438 -38.476  17.565  1.00  0.00     0.219 HD
ENDBRANCH   5  43
ENDBRANCH   4   5
BRANCH   4  45
HETATM   45  C10 UNL     1      -3.695 -37.771  16.927  1.00  0.00     0.272 C 
HETATM   46  O2  UNL     1      -4.919 -37.602  16.799  1.00  0.00    -0.264 OA
BRANCH  45  47
HETATM   47  O3  UNL     1      -3.005 -37.083  17.885  1.00  0.00    -0.311 OA
BRANCH  47  48
HETATM   48  C11 UNL     1      -2.407 -35.817  17.700  1.00  0.00     0.060 C 
HETATM   49  C12 UNL     1      -1.183 -35.760  18.591  1.00  0.00     0.045 C 
HETATM   50  C13 UNL     1      -1.983 -35.578  16.285  1.00  0.00     0.045 C 
HETATM   51  C14 UNL     1      -3.357 -34.696  18.107  1.00  0.00     0.045 C 
ENDBRANCH  47  48
ENDBRANCH  45  47
ENDBRANCH   4  45
ENDBRANCH   1   4
TORSDOF 21
ENDMDL
