MODEL 1
REMARK VINA RESULT: -8.696837360      0.000      0.000
REMARK  16 active torsions:
REMARK  status: ('A' for Active; 'I' for Inactive)
REMARK    1  A    between atoms: O1_2  and  C2_3 
REMARK    2  A    between atoms: C4_5  and  C5_6 
REMARK    3  A    between atoms: C5_6  and  O2_7 
REMARK    4  A    between atoms: C5_6  and  C6_9 
REMARK    5  A    between atoms: C6_9  and  C7_10 
REMARK    6  A    between atoms: N1_14  and  C11_15 
REMARK    7  A    between atoms: C11_15  and  C13_17 
REMARK    8  A    between atoms: C11_15  and  C17_27 
REMARK    9  A    between atoms: C13_17  and  C14_18 
REMARK   10  A    between atoms: C14_18  and  C15_19 
REMARK   11  A    between atoms: C15_19  and  N2_20 
REMARK       I    between atoms: N2_20  and  C16_22 
REMARK   12  A    between atoms: C17_27  and  C18_28 
REMARK   13  A    between atoms: C18_28  and  S1_29 
REMARK   14  A    between atoms: S1_29  and  C19_30 
REMARK   15  A    between atoms: C25_40  and  C26_41 
REMARK   16  A    between atoms: C26_41  and  N6_43 
ROOT
HETATM    1  C7  UNL     1      -1.658 -42.714  13.742  1.00  0.00     0.080 C 
HETATM    2  C8  UNL     1      -0.370 -42.009  14.009  1.00  0.00     0.015 C 
HETATM    3  C9  UNL     1       0.574 -42.849  14.810  1.00  0.00     0.021 C 
HETATM    4  C10 UNL     1       0.524 -44.339  14.496  1.00  0.00     0.127 C 
HETATM    5  N1  UNL     1      -0.832 -44.829  14.797  1.00  0.00    -0.343 N 
HETATM    6  C22 UNL     1      -1.786 -43.764  14.802  1.00  0.00     0.224 C 
HETATM    7  O4  UNL     1      -2.669 -43.745  15.673  1.00  0.00    -0.273 OA
ENDROOT
BRANCH   5   8
HETATM    8  C11 UNL     1      -1.196 -46.214  15.048  1.00  0.00     0.032 C 
HETATM    9  C12 UNL     1      -1.571 -46.515  16.460  1.00  0.00     0.039 C 
BRANCH   8  10
HETATM   10  C13 UNL     1      -2.119 -46.780  14.058  1.00  0.00     0.032 C 
BRANCH  10  11
HETATM   11  C14 UNL     1      -2.403 -46.133  12.767  1.00  0.00     0.022 C 
BRANCH  11  12
HETATM   12  C15 UNL     1      -1.566 -46.477  11.583  1.00  0.00     0.122 C 
BRANCH  12  13
HETATM   13  N2  UNL     1      -1.010 -47.819  11.623  1.00  0.00    -0.365 N 
HETATM   14  C16 UNL     1       0.117 -48.054  10.809  1.00  0.00     0.181 C 
HETATM   15  N3  UNL     1       1.293 -47.725  11.216  1.00  0.00    -0.374 N 
HETATM   16  N4  UNL     1       0.001 -48.657   9.515  1.00  0.00    -0.064 NA
ATOM     17  H32 UNL     1       1.376 -47.295  12.137  1.00  0.00     0.158 HD
ATOM     18  H31 UNL     1       2.108 -47.895  10.627  1.00  0.00     0.158 HD
ATOM     19  H2  UNL     1      -1.412 -48.551  12.208  1.00  0.00     0.162 HD
ENDBRANCH  12  13
ENDBRANCH  11  12
ENDBRANCH  10  11
ENDBRANCH   8  10
BRANCH   8  20
HETATM   20  C17 UNL     1       0.175 -46.911  14.790  1.00  0.00     0.041 C 
BRANCH  20  21
HETATM   21  C18 UNL     1       0.589 -47.972  15.697  1.00  0.00     0.085 C 
BRANCH  21  22
HETATM   22  S1  UNL     1       2.319 -48.156  16.117  1.00  0.00    -0.086 SA
BRANCH  22  23
HETATM   23  C19 UNL     1       3.147 -46.594  15.785  1.00  0.00     0.186 A 
HETATM   24  N5  UNL     1       3.218 -45.577  16.693  1.00  0.00    -0.339 N 
HETATM   25  C20 UNL     1       3.887 -44.577  16.146  1.00  0.00     0.115 A 
ATOM     26  H5  UNL     1       2.822 -45.588  17.634  1.00  0.00     0.167 HD
HETATM   27  C21 UNL     1       4.239 -44.981  14.869  1.00  0.00     0.162 A 
HETATM   28  O3  UNL     1       3.769 -46.188  14.719  1.00  0.00    -0.299 OA
ENDBRANCH  22  23
ENDBRANCH  21  22
ENDBRANCH  20  21
ENDBRANCH   8  20
ENDBRANCH   5   8
BRANCH   1  29
HETATM   29  C6  UNL     1      -2.907 -41.911  13.719  1.00  0.00     0.046 C 
BRANCH  29  30
HETATM   30  C5  UNL     1      -2.885 -40.532  14.206  1.00  0.00     0.123 C 
BRANCH  30  31
HETATM   31  C4  UNL     1      -3.440 -40.200  15.540  1.00  0.00     0.017 C 
HETATM   32  C3  UNL     1      -4.306 -38.924  15.450  1.00  0.00     0.039 C 
HETATM   33  C2  UNL     1      -4.851 -38.691  16.844  1.00  0.00     0.127 C 
HETATM   34  C25 UNL     1      -3.780 -38.343  17.823  1.00  0.00     0.037 C 
HETATM   35  C24 UNL     1      -2.660 -39.359  17.788  1.00  0.00     0.010 C 
HETATM   36  C23 UNL     1      -2.237 -39.720  16.388  1.00  0.00     0.008 C 
BRANCH  33  37
HETATM   37  O1  UNL     1      -5.891 -37.807  16.832  1.00  0.00    -0.390 OA
HETATM   38  C1  UNL     1      -6.889 -38.038  17.764  1.00  0.00     0.202 C 
ENDBRANCH  33  37
BRANCH  34  39
HETATM   39  C26 UNL     1      -3.254 -36.933  17.640  1.00  0.00     0.089 C 
HETATM   40  C27 UNL     1      -3.941 -35.941  18.548  1.00  0.00     0.033 C 
BRANCH  39  41
HETATM   41  N6  UNL     1      -1.841 -36.835  17.883  1.00  0.00    -0.347 N 
HETATM   42  C28 UNL     1      -1.191 -37.115  19.137  1.00  0.00     0.127 C 
HETATM   43  C29 UNL     1       0.269 -37.236  18.788  1.00  0.00     0.029 C 
HETATM   44  C30 UNL     1       0.434 -36.273  17.639  1.00  0.00     0.104 C 
HETATM   45  C31 UNL     1      -0.875 -36.431  16.932  1.00  0.00     0.220 C 
HETATM   46  O5  UNL     1      -1.007 -36.218  15.702  1.00  0.00    -0.273 OA
ENDBRANCH  39  41
ENDBRANCH  34  39
ENDBRANCH  30  31
BRANCH  30  47
HETATM   47  O2  UNL     1      -3.404 -39.611  13.274  1.00  0.00    -0.395 OA
ATOM     48  H2  UNL     1      -3.841 -40.101  12.587  1.00  0.00     0.210 HD
ENDBRANCH  30  47
ENDBRANCH  29  30
ENDBRANCH   1  29
TORSDOF 16
ENDMDL
MODEL 2
REMARK VINA RESULT: -8.602534050      2.652      4.352
REMARK  16 active torsions:
REMARK  status: ('A' for Active; 'I' for Inactive)
REMARK    1  A    between atoms: O1_2  and  C2_3 
REMARK    2  A    between atoms: C4_5  and  C5_6 
REMARK    3  A    between atoms: C5_6  and  O2_7 
REMARK    4  A    between atoms: C5_6  and  C6_9 
REMARK    5  A    between atoms: C6_9  and  C7_10 
REMARK    6  A    between atoms: N1_14  and  C11_15 
REMARK    7  A    between atoms: C11_15  and  C13_17 
REMARK    8  A    between atoms: C11_15  and  C17_27 
REMARK    9  A    between atoms: C13_17  and  C14_18 
REMARK   10  A    between atoms: C14_18  and  C15_19 
REMARK   11  A    between atoms: C15_19  and  N2_20 
REMARK       I    between atoms: N2_20  and  C16_22 
REMARK   12  A    between atoms: C17_27  and  C18_28 
REMARK   13  A    between atoms: C18_28  and  S1_29 
REMARK   14  A    between atoms: S1_29  and  C19_30 
REMARK   15  A    between atoms: C25_40  and  C26_41 
REMARK   16  A    between atoms: C26_41  and  N6_43 
ROOT
HETATM    1  C7  UNL     1      -1.077 -45.044  17.830  1.00  0.00     0.080 C 
HETATM    2  C8  UNL     1      -0.510 -46.226  18.544  1.00  0.00     0.015 C 
HETATM    3  C9  UNL     1      -0.723 -47.496  17.783  1.00  0.00     0.021 C 
HETATM    4  C10 UNL     1      -0.635 -47.354  16.269  1.00  0.00     0.127 C 
HETATM    5  N1  UNL     1      -1.688 -46.421  15.831  1.00  0.00    -0.343 N 
HETATM    6  C22 UNL     1      -2.123 -45.580  16.902  1.00  0.00     0.224 C 
HETATM    7  O4  UNL     1      -3.332 -45.333  17.025  1.00  0.00    -0.273 OA
ENDROOT
BRANCH   5   8
HETATM    8  C11 UNL     1      -2.231 -46.329  14.486  1.00  0.00     0.032 C 
HETATM    9  C12 UNL     1      -3.636 -46.810  14.344  1.00  0.00     0.039 C 
BRANCH   8  10
HETATM   10  C13 UNL     1      -1.977 -45.044  13.824  1.00  0.00     0.032 C 
BRANCH  10  11
HETATM   11  C14 UNL     1      -2.966 -43.954  13.785  1.00  0.00     0.022 C 
BRANCH  11  12
HETATM   12  C15 UNL     1      -2.489 -42.546  13.674  1.00  0.00     0.122 C 
BRANCH  12  13
HETATM   13  N2  UNL     1      -3.400 -41.568  14.243  1.00  0.00    -0.365 N 
HETATM   14  C16 UNL     1      -4.185 -40.837  13.328  1.00  0.00     0.181 C 
HETATM   15  N3  UNL     1      -5.271 -41.341  12.856  1.00  0.00    -0.374 N 
HETATM   16  N4  UNL     1      -3.811 -39.526  12.891  1.00  0.00    -0.064 NA
ATOM     17  H32 UNL     1      -5.538 -42.275  13.167  1.00  0.00     0.158 HD
ATOM     18  H31 UNL     1      -5.839 -40.813  12.194  1.00  0.00     0.158 HD
ATOM     19  H2  UNL     1      -3.468 -41.419  15.250  1.00  0.00     0.162 HD
ENDBRANCH  12  13
ENDBRANCH  11  12
ENDBRANCH  10  11
ENDBRANCH   8  10
BRANCH   8  20
HETATM   20  C17 UNL     1      -1.327 -47.365  13.750  1.00  0.00     0.041 C 
BRANCH  20  21
HETATM   21  C18 UNL     1      -1.082 -47.176  12.327  1.00  0.00     0.085 C 
BRANCH  21  22
HETATM   22  S1  UNL     1       0.572 -46.805  11.752  1.00  0.00    -0.086 SA
BRANCH  22  23
HETATM   23  C19 UNL     1       0.969 -45.118  12.235  1.00  0.00     0.186 A 
HETATM   24  N5  UNL     1       1.788 -44.814  13.285  1.00  0.00    -0.339 N 
HETATM   25  C20 UNL     1       1.874 -43.497  13.376  1.00  0.00     0.115 A 
ATOM     26  H5  UNL     1       2.253 -45.487  13.894  1.00  0.00     0.167 HD
HETATM   27  C21 UNL     1       1.091 -42.972  12.361  1.00  0.00     0.162 A 
HETATM   28  O3  UNL     1       0.582 -43.989  11.722  1.00  0.00    -0.299 OA
ENDBRANCH  22  23
ENDBRANCH  21  22
ENDBRANCH  20  21
ENDBRANCH   8  20
ENDBRANCH   5   8
BRANCH   1  29
HETATM   29  C6  UNL     1      -1.679 -43.956  18.642  1.00  0.00     0.046 C 
BRANCH  29  30
HETATM   30  C5  UNL     1      -1.663 -42.585  18.133  1.00  0.00     0.123 C 
BRANCH  30  31
HETATM   31  C4  UNL     1      -1.929 -41.445  19.042  1.00  0.00     0.017 C 
HETATM   32  C3  UNL     1      -3.420 -41.045  18.969  1.00  0.00     0.039 C 
HETATM   33  C2  UNL     1      -3.595 -39.906  19.951  1.00  0.00     0.127 C 
HETATM   34  C25 UNL     1      -2.861 -38.676  19.533  1.00  0.00     0.037 C 
HETATM   35  C24 UNL     1      -1.410 -38.983  19.236  1.00  0.00     0.010 C 
HETATM   36  C23 UNL     1      -1.231 -40.222  18.399  1.00  0.00     0.008 C 
BRANCH  33  37
HETATM   37  O1  UNL     1      -4.912 -39.689  20.233  1.00  0.00    -0.390 OA
HETATM   38  C1  UNL     1      -5.713 -40.819  20.282  1.00  0.00     0.202 C 
ENDBRANCH  33  37
BRANCH  34  39
HETATM   39  C26 UNL     1      -3.525 -37.964  18.372  1.00  0.00     0.089 C 
HETATM   40  C27 UNL     1      -4.771 -37.220  18.790  1.00  0.00     0.033 C 
BRANCH  39  41
HETATM   41  N6  UNL     1      -2.652 -37.018  17.733  1.00  0.00    -0.347 N 
HETATM   42  C28 UNL     1      -2.161 -35.803  18.329  1.00  0.00     0.127 C 
HETATM   43  C29 UNL     1      -1.025 -35.375  17.437  1.00  0.00     0.029 C 
HETATM   44  C30 UNL     1      -1.455 -35.850  16.072  1.00  0.00     0.104 C 
HETATM   45  C31 UNL     1      -2.156 -37.128  16.412  1.00  0.00     0.220 C 
HETATM   46  O5  UNL     1      -2.245 -38.084  15.603  1.00  0.00    -0.273 OA
ENDBRANCH  39  41
ENDBRANCH  34  39
ENDBRANCH  30  31
BRANCH  30  47
HETATM   47  O2  UNL     1      -2.454 -42.418  16.978  1.00  0.00    -0.395 OA
ATOM     48  H2  UNL     1      -3.336 -42.704  17.181  1.00  0.00     0.210 HD
ENDBRANCH  30  47
ENDBRANCH  29  30
ENDBRANCH   1  29
TORSDOF 16
ENDMDL
MODEL 3
REMARK VINA RESULT: -8.421779604      2.921     10.090
REMARK  16 active torsions:
REMARK  status: ('A' for Active; 'I' for Inactive)
REMARK    1  A    between atoms: O1_2  and  C2_3 
REMARK    2  A    between atoms: C4_5  and  C5_6 
REMARK    3  A    between atoms: C5_6  and  O2_7 
REMARK    4  A    between atoms: C5_6  and  C6_9 
REMARK    5  A    between atoms: C6_9  and  C7_10 
REMARK    6  A    between atoms: N1_14  and  C11_15 
REMARK    7  A    between atoms: C11_15  and  C13_17 
REMARK    8  A    between atoms: C11_15  and  C17_27 
REMARK    9  A    between atoms: C13_17  and  C14_18 
REMARK   10  A    between atoms: C14_18  and  C15_19 
REMARK   11  A    between atoms: C15_19  and  N2_20 
REMARK       I    between atoms: N2_20  and  C16_22 
REMARK   12  A    between atoms: C17_27  and  C18_28 
REMARK   13  A    between atoms: C18_28  and  S1_29 
REMARK   14  A    between atoms: S1_29  and  C19_30 
REMARK   15  A    between atoms: C25_40  and  C26_41 
REMARK   16  A    between atoms: C26_41  and  N6_43 
ROOT
HETATM    1  C7  UNL     1      -2.049 -42.125  15.112  1.00  0.00     0.080 C 
HETATM    2  C8  UNL     1      -3.008 -42.174  13.969  1.00  0.00     0.015 C 
HETATM    3  C9  UNL     1      -3.913 -40.983  13.945  1.00  0.00     0.021 C 
HETATM    4  C10 UNL     1      -3.263 -39.680  14.392  1.00  0.00     0.127 C 
HETATM    5  N1  UNL     1      -2.819 -39.840  15.788  1.00  0.00    -0.343 N 
HETATM    6  C22 UNL     1      -2.664 -41.219  16.133  1.00  0.00     0.224 C 
HETATM    7  O4  UNL     1      -3.043 -41.611  17.248  1.00  0.00    -0.273 OA
ENDROOT
BRANCH   5   8
HETATM    8  C11 UNL     1      -2.550 -38.759  16.721  1.00  0.00     0.032 C 
HETATM    9  C12 UNL     1      -1.285 -38.904  17.498  1.00  0.00     0.039 C 
BRANCH   8  10
HETATM   10  C13 UNL     1      -2.746 -37.419  16.157  1.00  0.00     0.032 C 
BRANCH  10  11
HETATM   11  C14 UNL     1      -1.695 -36.388  16.159  1.00  0.00     0.022 C 
BRANCH  11  12
HETATM   12  C15 UNL     1      -1.871 -35.174  17.007  1.00  0.00     0.122 C 
BRANCH  12  13
HETATM   13  N2  UNL     1      -1.301 -35.296  18.337  1.00  0.00    -0.365 N 
HETATM   14  C16 UNL     1       0.100 -35.445  18.406  1.00  0.00     0.181 C 
HETATM   15  N3  UNL     1       0.867 -34.414  18.343  1.00  0.00    -0.374 N 
HETATM   16  N4  UNL     1       0.716 -36.730  18.545  1.00  0.00    -0.064 NA
ATOM     17  H32 UNL     1       0.428 -33.498  18.244  1.00  0.00     0.158 HD
ATOM     18  H31 UNL     1       1.880 -34.521  18.393  1.00  0.00     0.158 HD
ATOM     19  H2  UNL     1      -1.881 -35.275  19.175  1.00  0.00     0.162 HD
ENDBRANCH  12  13
ENDBRANCH  11  12
ENDBRANCH  10  11
ENDBRANCH   8  10
BRANCH   8  20
HETATM   20  C17 UNL     1      -3.722 -38.964  17.729  1.00  0.00     0.041 C 
BRANCH  20  21
HETATM   21  C18 UNL     1      -3.598 -38.379  19.056  1.00  0.00     0.085 C 
BRANCH  21  22
HETATM   22  S1  UNL     1      -3.272 -39.433  20.465  1.00  0.00    -0.086 SA
BRANCH  22  23
HETATM   23  C19 UNL     1      -1.965 -38.676  21.443  1.00  0.00     0.186 A 
HETATM   24  N5  UNL     1      -1.363 -37.498  21.102  1.00  0.00    -0.339 N 
HETATM   25  C20 UNL     1      -0.452 -37.218  22.018  1.00  0.00     0.115 A 
ATOM     26  H5  UNL     1      -1.580 -36.932  20.281  1.00  0.00     0.167 HD
HETATM   27  C21 UNL     1      -0.488 -38.244  22.948  1.00  0.00     0.162 A 
HETATM   28  O3  UNL     1      -1.409 -39.076  22.546  1.00  0.00    -0.299 OA
ENDBRANCH  22  23
ENDBRANCH  21  22
ENDBRANCH  20  21
ENDBRANCH   8  20
ENDBRANCH   5   8
BRANCH   1  29
HETATM   29  C6  UNL     1      -1.679 -43.402  15.773  1.00  0.00     0.046 C 
BRANCH  29  30
HETATM   30  C5  UNL     1      -0.398 -43.506  16.472  1.00  0.00     0.123 C 
BRANCH  30  31
HETATM   31  C4  UNL     1       0.576 -44.559  16.097  1.00  0.00     0.017 C 
HETATM   32  C3  UNL     1       1.694 -43.957  15.216  1.00  0.00     0.039 C 
HETATM   33  C2  UNL     1       2.648 -45.095  14.920  1.00  0.00     0.127 C 
HETATM   34  C25 UNL     1       2.029 -46.149  14.063  1.00  0.00     0.037 C 
HETATM   35  C24 UNL     1       0.713 -46.617  14.643  1.00  0.00     0.010 C 
HETATM   36  C23 UNL     1      -0.165 -45.482  15.100  1.00  0.00     0.008 C 
BRANCH  33  37
HETATM   37  O1  UNL     1       3.842 -44.634  14.444  1.00  0.00    -0.390 OA
HETATM   38  C1  UNL     1       4.961 -45.360  14.817  1.00  0.00     0.202 C 
ENDBRANCH  33  37
BRANCH  34  39
HETATM   39  C26 UNL     1       1.875 -45.715  12.620  1.00  0.00     0.089 C 
HETATM   40  C27 UNL     1       3.048 -46.131  11.765  1.00  0.00     0.033 C 
BRANCH  39  41
HETATM   41  N6  UNL     1       0.686 -46.244  12.009  1.00  0.00    -0.347 N 
HETATM   42  C28 UNL     1       0.498 -47.611  11.600  1.00  0.00     0.127 C 
HETATM   43  C29 UNL     1      -0.987 -47.740  11.381  1.00  0.00     0.029 C 
HETATM   44  C30 UNL     1      -1.390 -46.369  10.900  1.00  0.00     0.104 C 
HETATM   45  C31 UNL     1      -0.475 -45.495  11.699  1.00  0.00     0.220 C 
HETATM   46  O5  UNL     1      -0.765 -44.311  11.999  1.00  0.00    -0.273 OA
ENDBRANCH  39  41
ENDBRANCH  34  39
ENDBRANCH  30  31
BRANCH  30  47
HETATM   47  O2  UNL     1      -0.535 -43.515  17.874  1.00  0.00    -0.395 OA
ATOM     48  H2  UNL     1      -1.242 -42.923  18.105  1.00  0.00     0.210 HD
ENDBRANCH  30  47
ENDBRANCH  29  30
ENDBRANCH   1  29
TORSDOF 16
ENDMDL
MODEL 4
REMARK VINA RESULT: -8.299835050      2.471      4.196
REMARK  16 active torsions:
REMARK  status: ('A' for Active; 'I' for Inactive)
REMARK    1  A    between atoms: O1_2  and  C2_3 
REMARK    2  A    between atoms: C4_5  and  C5_6 
REMARK    3  A    between atoms: C5_6  and  O2_7 
REMARK    4  A    between atoms: C5_6  and  C6_9 
REMARK    5  A    between atoms: C6_9  and  C7_10 
REMARK    6  A    between atoms: N1_14  and  C11_15 
REMARK    7  A    between atoms: C11_15  and  C13_17 
REMARK    8  A    between atoms: C11_15  and  C17_27 
REMARK    9  A    between atoms: C13_17  and  C14_18 
REMARK   10  A    between atoms: C14_18  and  C15_19 
REMARK   11  A    between atoms: C15_19  and  N2_20 
REMARK       I    between atoms: N2_20  and  C16_22 
REMARK   12  A    between atoms: C17_27  and  C18_28 
REMARK   13  A    between atoms: C18_28  and  S1_29 
REMARK   14  A    between atoms: S1_29  and  C19_30 
REMARK   15  A    between atoms: C25_40  and  C26_41 
REMARK   16  A    between atoms: C26_41  and  N6_43 
ROOT
HETATM    1  C7  UNL     1      -2.601 -42.804  14.193  1.00  0.00     0.080 C 
HETATM    2  C8  UNL     1      -3.345 -43.846  13.426  1.00  0.00     0.015 C 
HETATM    3  C9  UNL     1      -2.989 -45.230  13.869  1.00  0.00     0.021 C 
HETATM    4  C10 UNL     1      -2.718 -45.372  15.361  1.00  0.00     0.127 C 
HETATM    5  N1  UNL     1      -1.572 -44.513  15.706  1.00  0.00    -0.343 N 
HETATM    6  C22 UNL     1      -1.380 -43.480  14.737  1.00  0.00     0.224 C 
HETATM    7  O4  UNL     1      -0.228 -43.187  14.382  1.00  0.00    -0.273 OA
ENDROOT
BRANCH   5   8
HETATM    8  C11 UNL     1      -0.728 -44.659  16.880  1.00  0.00     0.032 C 
HETATM    9  C12 UNL     1      -1.212 -45.655  17.879  1.00  0.00     0.039 C 
BRANCH   8  10
HETATM   10  C13 UNL     1       0.704 -44.773  16.579  1.00  0.00     0.032 C 
BRANCH  10  11
HETATM   11  C14 UNL     1       1.305 -45.984  15.998  1.00  0.00     0.022 C 
BRANCH  11  12
HETATM   12  C15 UNL     1       1.599 -46.019  14.537  1.00  0.00     0.122 C 
BRANCH  12  13
HETATM   13  N2  UNL     1       0.477 -46.446  13.719  1.00  0.00    -0.365 N 
HETATM   14  C16 UNL     1       0.628 -46.302  12.325  1.00  0.00     0.181 C 
HETATM   15  N3  UNL     1       1.260 -47.193  11.645  1.00  0.00    -0.374 N 
HETATM   16  N4  UNL     1       0.096 -45.175  11.620  1.00  0.00    -0.064 NA
ATOM     17  H32 UNL     1       1.639 -47.996  12.146  1.00  0.00     0.158 HD
ATOM     18  H31 UNL     1       1.369 -47.090  10.636  1.00  0.00     0.158 HD
ATOM     19  H2  UNL     1      -0.374 -46.829  14.131  1.00  0.00     0.162 HD
ENDBRANCH  12  13
ENDBRANCH  11  12
ENDBRANCH  10  11
ENDBRANCH   8  10
BRANCH   8  20
HETATM   20  C17 UNL     1      -0.908 -43.251  17.528  1.00  0.00     0.041 C 
BRANCH  20  21
HETATM   21  C18 UNL     1      -1.632 -43.161  18.787  1.00  0.00     0.085 C 
BRANCH  21  22
HETATM   22  S1  UNL     1      -0.761 -42.700  20.281  1.00  0.00    -0.086 SA
BRANCH  22  23
HETATM   23  C19 UNL     1      -1.583 -41.265  20.990  1.00  0.00     0.186 A 
HETATM   24  N5  UNL     1      -2.908 -40.994  20.802  1.00  0.00    -0.339 N 
HETATM   25  C20 UNL     1      -3.198 -39.877  21.449  1.00  0.00     0.115 A 
ATOM     26  H5  UNL     1      -3.561 -41.556  20.257  1.00  0.00     0.167 HD
HETATM   27  C21 UNL     1      -2.028 -39.446  22.051  1.00  0.00     0.162 A 
HETATM   28  O3  UNL     1      -1.108 -40.315  21.738  1.00  0.00    -0.299 OA
ENDBRANCH  22  23
ENDBRANCH  21  22
ENDBRANCH  20  21
ENDBRANCH   8  20
ENDBRANCH   5   8
BRANCH   1  29
HETATM   29  C6  UNL     1      -2.181 -41.572  13.479  1.00  0.00     0.046 C 
BRANCH  29  30
HETATM   30  C5  UNL     1      -2.734 -40.281  13.884  1.00  0.00     0.123 C 
BRANCH  30  31
HETATM   31  C4  UNL     1      -3.304 -40.103  15.241  1.00  0.00     0.017 C 
HETATM   32  C3  UNL     1      -4.214 -38.854  15.273  1.00  0.00     0.039 C 
HETATM   33  C2  UNL     1      -4.772 -38.781  16.680  1.00  0.00     0.127 C 
HETATM   34  C25 UNL     1      -3.717 -38.496  17.696  1.00  0.00     0.037 C 
HETATM   35  C24 UNL     1      -2.562 -39.465  17.567  1.00  0.00     0.010 C 
HETATM   36  C23 UNL     1      -2.122 -39.669  16.141  1.00  0.00     0.008 C 
BRANCH  33  37
HETATM   37  O1  UNL     1      -5.841 -37.936  16.749  1.00  0.00    -0.390 OA
HETATM   38  C1  UNL     1      -6.795 -38.248  17.705  1.00  0.00     0.202 C 
ENDBRANCH  33  37
BRANCH  34  39
HETATM   39  C26 UNL     1      -3.239 -37.059  17.659  1.00  0.00     0.089 C 
HETATM   40  C27 UNL     1      -3.953 -36.189  18.666  1.00  0.00     0.033 C 
BRANCH  39  41
HETATM   41  N6  UNL     1      -1.829 -36.939  17.907  1.00  0.00    -0.347 N 
HETATM   42  C28 UNL     1      -1.176 -37.234  19.155  1.00  0.00     0.127 C 
HETATM   43  C29 UNL     1       0.287 -37.318  18.806  1.00  0.00     0.029 C 
HETATM   44  C30 UNL     1       0.436 -36.327  17.679  1.00  0.00     0.104 C 
HETATM   45  C31 UNL     1      -0.869 -36.494  16.966  1.00  0.00     0.220 C 
HETATM   46  O5  UNL     1      -1.004 -36.257  15.741  1.00  0.00    -0.273 OA
ENDBRANCH  39  41
ENDBRANCH  34  39
ENDBRANCH  30  31
BRANCH  30  47
HETATM   47  O2  UNL     1      -3.652 -39.758  12.952  1.00  0.00    -0.395 OA
ATOM     48  H2  UNL     1      -4.033 -40.484  12.473  1.00  0.00     0.210 HD
ENDBRANCH  30  47
ENDBRANCH  29  30
ENDBRANCH   1  29
TORSDOF 16
ENDMDL
MODEL 5
REMARK VINA RESULT: -8.268805437      1.633      2.381
REMARK  16 active torsions:
REMARK  status: ('A' for Active; 'I' for Inactive)
REMARK    1  A    between atoms: O1_2  and  C2_3 
REMARK    2  A    between atoms: C4_5  and  C5_6 
REMARK    3  A    between atoms: C5_6  and  O2_7 
REMARK    4  A    between atoms: C5_6  and  C6_9 
REMARK    5  A    between atoms: C6_9  and  C7_10 
REMARK    6  A    between atoms: N1_14  and  C11_15 
REMARK    7  A    between atoms: C11_15  and  C13_17 
REMARK    8  A    between atoms: C11_15  and  C17_27 
REMARK    9  A    between atoms: C13_17  and  C14_18 
REMARK   10  A    between atoms: C14_18  and  C15_19 
REMARK   11  A    between atoms: C15_19  and  N2_20 
REMARK       I    between atoms: N2_20  and  C16_22 
REMARK   12  A    between atoms: C17_27  and  C18_28 
REMARK   13  A    between atoms: C18_28  and  S1_29 
REMARK   14  A    between atoms: S1_29  and  C19_30 
REMARK   15  A    between atoms: C25_40  and  C26_41 
REMARK   16  A    between atoms: C26_41  and  N6_43 
ROOT
HETATM    1  C7  UNL     1      -1.922 -42.216  14.149  1.00  0.00     0.080 C 
HETATM    2  C8  UNL     1      -0.579 -41.594  14.341  1.00  0.00     0.015 C 
HETATM    3  C9  UNL     1       0.435 -42.585  14.820  1.00  0.00     0.021 C 
HETATM    4  C10 UNL     1       0.273 -43.988  14.250  1.00  0.00     0.127 C 
HETATM    5  N1  UNL     1      -1.045 -44.505  14.658  1.00  0.00    -0.343 N 
HETATM    6  C22 UNL     1      -1.939 -43.444  15.005  1.00  0.00     0.224 C 
HETATM    7  O4  UNL     1      -2.682 -43.576  15.989  1.00  0.00    -0.273 OA
ENDROOT
BRANCH   5   8
HETATM    8  C11 UNL     1      -1.428 -45.906  14.704  1.00  0.00     0.032 C 
HETATM    9  C12 UNL     1      -1.920 -46.377  16.031  1.00  0.00     0.039 C 
BRANCH   8  10
HETATM   10  C13 UNL     1      -2.265 -46.335  13.577  1.00  0.00     0.032 C 
BRANCH  10  11
HETATM   11  C14 UNL     1      -2.273 -45.644  12.278  1.00  0.00     0.022 C 
BRANCH  11  12
HETATM   12  C15 UNL     1      -1.509 -46.230  11.140  1.00  0.00     0.122 C 
BRANCH  12  13
HETATM   13  N2  UNL     1      -1.130 -47.619  11.336  1.00  0.00    -0.365 N 
HETATM   14  C16 UNL     1       0.062 -48.037  10.711  1.00  0.00     0.181 C 
HETATM   15  N3  UNL     1       1.200 -47.813  11.268  1.00  0.00    -0.374 N 
HETATM   16  N4  UNL     1       0.056 -48.715   9.450  1.00  0.00    -0.064 NA
ATOM     17  H32 UNL     1       1.205 -47.330  12.166  1.00  0.00     0.158 HD
ATOM     18  H31 UNL     1       2.064 -48.115  10.816  1.00  0.00     0.158 HD
ATOM     19  H2  UNL     1      -1.697 -48.257  11.895  1.00  0.00     0.162 HD
ENDBRANCH  12  13
ENDBRANCH  11  12
ENDBRANCH  10  11
ENDBRANCH   8  10
BRANCH   8  20
HETATM   20  C17 UNL     1      -0.040 -46.580  14.475  1.00  0.00     0.041 C 
BRANCH  20  21
HETATM   21  C18 UNL     1       0.318 -47.716  15.312  1.00  0.00     0.085 C 
BRANCH  21  22
HETATM   22  S1  UNL     1       2.009 -47.912  15.866  1.00  0.00    -0.086 SA
BRANCH  22  23
HETATM   23  C19 UNL     1       2.856 -46.340  15.651  1.00  0.00     0.186 A 
HETATM   24  N5  UNL     1       2.817 -45.336  16.576  1.00  0.00    -0.339 N 
HETATM   25  C20 UNL     1       3.535 -44.323  16.120  1.00  0.00     0.115 A 
ATOM     26  H5  UNL     1       2.319 -45.364  17.466  1.00  0.00     0.167 HD
HETATM   27  C21 UNL     1       4.030 -44.706  14.885  1.00  0.00     0.162 A 
HETATM   28  O3  UNL     1       3.589 -45.914  14.667  1.00  0.00    -0.299 OA
ENDBRANCH  22  23
ENDBRANCH  21  22
ENDBRANCH  20  21
ENDBRANCH   8  20
ENDBRANCH   5   8
BRANCH   1  29
HETATM   29  C6  UNL     1      -3.124 -41.403  14.465  1.00  0.00     0.046 C 
BRANCH  29  30
HETATM   30  C5  UNL     1      -3.070 -39.950  14.313  1.00  0.00     0.123 C 
BRANCH  30  31
HETATM   31  C4  UNL     1      -3.480 -39.064  15.429  1.00  0.00     0.017 C 
HETATM   32  C3  UNL     1      -2.328 -38.099  15.789  1.00  0.00     0.039 C 
HETATM   33  C2  UNL     1      -2.855 -37.220  16.905  1.00  0.00     0.127 C 
HETATM   34  C25 UNL     1      -3.104 -37.985  18.162  1.00  0.00     0.037 C 
HETATM   35  C24 UNL     1      -3.975 -39.193  17.900  1.00  0.00     0.010 C 
HETATM   36  C23 UNL     1      -3.551 -39.970  16.681  1.00  0.00     0.008 C 
BRANCH  33  37
HETATM   37  O1  UNL     1      -2.073 -36.116  17.082  1.00  0.00    -0.390 OA
HETATM   38  C1  UNL     1      -2.709 -34.895  16.924  1.00  0.00     0.202 C 
ENDBRANCH  33  37
BRANCH  34  39
HETATM   39  C26 UNL     1      -1.824 -38.370  18.877  1.00  0.00     0.089 C 
HETATM   40  C27 UNL     1      -1.006 -37.166  19.281  1.00  0.00     0.033 C 
BRANCH  39  41
HETATM   41  N6  UNL     1      -2.067 -39.144  20.064  1.00  0.00    -0.347 N 
HETATM   42  C28 UNL     1      -2.909 -38.745  21.160  1.00  0.00     0.127 C 
HETATM   43  C29 UNL     1      -3.132 -40.010  21.947  1.00  0.00     0.029 C 
HETATM   44  C30 UNL     1      -1.846 -40.775  21.751  1.00  0.00     0.104 C 
HETATM   45  C31 UNL     1      -1.499 -40.410  20.342  1.00  0.00     0.220 C 
HETATM   46  O5  UNL     1      -0.814 -41.158  19.602  1.00  0.00    -0.273 OA
ENDBRANCH  39  41
ENDBRANCH  34  39
ENDBRANCH  30  31
BRANCH  30  47
HETATM   47  O2  UNL     1      -3.702 -39.495  13.138  1.00  0.00    -0.395 OA
ATOM     48  H2  UNL     1      -4.101 -40.243  12.710  1.00  0.00     0.210 HD
ENDBRANCH  30  47
ENDBRANCH  29  30
ENDBRANCH   1  29
TORSDOF 16
ENDMDL
