MODEL 1
REMARK VINA RESULT: -7.632412594      0.000      0.000
REMARK  17 active torsions:
REMARK  status: ('A' for Active; 'I' for Inactive)
REMARK    1  A    between atoms: C2_2  and  C3_3 
REMARK    2  A    between atoms: C3_3  and  C5_5 
REMARK    3  A    between atoms: C5_5  and  C6_6 
REMARK    4  A    between atoms: C5_5  and  N1_9 
REMARK    5  A    between atoms: C6_6  and  O1_7 
REMARK       I    between atoms: N1_9  and  C7_11 
REMARK    6  A    between atoms: C7_11  and  C8_13 
REMARK    7  A    between atoms: C8_13  and  C9_14 
REMARK    8  A    between atoms: C8_13  and  C12_18 
REMARK    9  A    between atoms: C9_14  and  C10_15 
REMARK   10  A    between atoms: C10_15  and  S1_16 
REMARK   11  A    between atoms: C12_18  and  N2_19 
REMARK   12  A    between atoms: C12_18  and  C31_44 
REMARK       I    between atoms: N2_19  and  C13_21 
REMARK   13  A    between atoms: C13_21  and  C14_23 
REMARK   14  A    between atoms: C14_23  and  N3_25 
REMARK       I    between atoms: N3_25  and  C16_27 
REMARK   15  A    between atoms: C16_27  and  O5_29 
REMARK   16  A    between atoms: O5_29  and  C17_30 
REMARK   17  A    between atoms: C31_44  and  O7_46 
ROOT
HETATM    1  N2  UNL     1      -3.708 -39.466  16.564  1.00  0.00    -0.345 N 
ATOM      2  H2  UNL     1      -4.233 -40.331  16.691  1.00  0.00     0.163 HD
HETATM    3  C13 UNL     1      -3.026 -39.278  15.362  1.00  0.00     0.240 C 
HETATM    4  O3  UNL     1      -2.369 -38.191  15.212  1.00  0.00    -0.271 OA
ENDROOT
BRANCH   1   5
HETATM    5  C12 UNL     1      -3.710 -38.481  17.661  1.00  0.00     0.197 C 
BRANCH   5   6
HETATM    6  C8  UNL     1      -3.551 -39.217  18.951  1.00  0.00     0.111 C 
BRANCH   6   7
HETATM    7  C7  UNL     1      -3.770 -40.672  18.896  1.00  0.00     0.224 C 
HETATM    8  N1  UNL     1      -2.856 -41.674  19.230  1.00  0.00    -0.354 N 
ATOM      9  H1  UNL     1      -1.929 -41.397  19.554  1.00  0.00     0.163 HD
HETATM   10  O2  UNL     1      -4.921 -41.083  18.499  1.00  0.00    -0.273 OA
BRANCH   8  11
HETATM   11  C5  UNL     1      -3.162 -43.102  19.139  1.00  0.00     0.111 C 
BRANCH  11  12
HETATM   12  C3  UNL     1      -1.916 -43.878  18.984  1.00  0.00     0.006 C 
HETATM   13  C4  UNL     1      -0.643 -43.055  18.974  1.00  0.00     0.012 C 
BRANCH  12  14
HETATM   14  C2  UNL     1      -1.758 -45.076  19.877  1.00  0.00     0.002 C 
HETATM   15  C1  UNL     1      -0.455 -45.787  19.780  1.00  0.00     0.005 C 
ENDBRANCH  12  14
ENDBRANCH  11  12
BRANCH  11  16
HETATM   16  C6  UNL     1      -4.098 -43.534  20.225  1.00  0.00     0.189 C 
BRANCH  16  17
HETATM   17  O1  UNL     1      -5.336 -43.827  19.581  1.00  0.00    -0.399 OA
ATOM     18  H1  UNL     1      -5.972 -43.939  20.277  1.00  0.00     0.209 HD
ENDBRANCH  16  17
ENDBRANCH  11  16
ENDBRANCH   8  11
ENDBRANCH   6   7
BRANCH   6  19
HETATM   19  C9  UNL     1      -2.294 -38.841  19.722  1.00  0.00     0.027 C 
BRANCH  19  20
HETATM   20  C10 UNL     1      -1.191 -38.543  18.721  1.00  0.00     0.074 C 
BRANCH  20  21
HETATM   21  S1  UNL     1      -0.545 -36.886  19.115  1.00  0.00    -0.173 SA
HETATM   22  C11 UNL     1      -1.327 -35.627  18.081  1.00  0.00     0.089 C 
ENDBRANCH  20  21
ENDBRANCH  19  20
ENDBRANCH   6  19
ENDBRANCH   5   6
BRANCH   5  23
HETATM   23  C31 UNL     1      -4.879 -37.601  17.552  1.00  0.00     0.282 C 
HETATM   24  O6  UNL     1      -4.811 -36.402  17.995  1.00  0.00    -0.263 OA
BRANCH  23  25
HETATM   25  O7  UNL     1      -6.088 -37.962  16.999  1.00  0.00    -0.325 OA
HETATM   26  C32 UNL     1      -7.283 -37.949  17.805  1.00  0.00     0.213 C 
ENDBRANCH  23  25
ENDBRANCH   5  23
ENDBRANCH   1   5
BRANCH   3  27
HETATM   27  C14 UNL     1      -3.000 -40.238  14.243  1.00  0.00     0.174 C 
HETATM   28  C15 UNL     1      -4.139 -40.065  13.287  1.00  0.00     0.042 C 
BRANCH  27  29
HETATM   29  N3  UNL     1      -2.988 -41.610  14.698  1.00  0.00    -0.324 N 
HETATM   30  C16 UNL     1      -1.802 -42.232  15.165  1.00  0.00     0.361 C 
HETATM   31  O4  UNL     1      -0.738 -41.562  15.182  1.00  0.00    -0.238 OA
ATOM     32  H3  UNL     1      -3.857 -42.145  14.683  1.00  0.00     0.165 HD
BRANCH  30  33
HETATM   33  O5  UNL     1      -1.757 -43.535  15.602  1.00  0.00    -0.298 OA
BRANCH  33  34
HETATM   34  C17 UNL     1      -2.043 -44.630  14.793  1.00  0.00     0.142 C 
HETATM   35  C18 UNL     1      -2.833 -45.706  15.529  1.00  0.00     0.016 C 
HETATM   36  C19 UNL     1      -3.401 -46.623  14.452  1.00  0.00     0.012 C 
HETATM   37  C23 UNL     1      -1.996 -46.509  16.470  1.00  0.00     0.012 C 
HETATM   38  C20 UNL     1      -2.251 -47.217  13.672  1.00  0.00    -0.013 C 
HETATM   39  C21 UNL     1      -1.427 -48.028  14.661  1.00  0.00     0.010 C 
HETATM   40  C30 UNL     1      -1.360 -46.191  13.055  1.00  0.00     0.012 C 
HETATM   41  C22 UNL     1      -0.843 -47.146  15.717  1.00  0.00    -0.005 C 
HETATM   42  C24 UNL     1      -0.011 -46.055  15.096  1.00  0.00    -0.031 C 
HETATM   43  C25 UNL     1       1.192 -46.604  14.390  1.00  0.00     0.010 C 
HETATM   44  C28 UNL     1       0.595 -45.146  16.115  1.00  0.00     0.010 C 
HETATM   45  C29 UNL     1      -0.843 -45.240  14.137  1.00  0.00     0.025 C 
HETATM   46  C26 UNL     1       2.337 -46.541  15.398  1.00  0.00     0.001 C 
HETATM   47  C27 UNL     1       1.714 -46.003  16.676  1.00  0.00     0.001 C 
ENDBRANCH  33  34
ENDBRANCH  30  33
ENDBRANCH  27  29
ENDBRANCH   3  27
TORSDOF 17
ENDMDL
MODEL 2
REMARK VINA RESULT: -7.608337889      1.149      2.316
REMARK  17 active torsions:
REMARK  status: ('A' for Active; 'I' for Inactive)
REMARK    1  A    between atoms: C2_2  and  C3_3 
REMARK    2  A    between atoms: C3_3  and  C5_5 
REMARK    3  A    between atoms: C5_5  and  C6_6 
REMARK    4  A    between atoms: C5_5  and  N1_9 
REMARK    5  A    between atoms: C6_6  and  O1_7 
REMARK       I    between atoms: N1_9  and  C7_11 
REMARK    6  A    between atoms: C7_11  and  C8_13 
REMARK    7  A    between atoms: C8_13  and  C9_14 
REMARK    8  A    between atoms: C8_13  and  C12_18 
REMARK    9  A    between atoms: C9_14  and  C10_15 
REMARK   10  A    between atoms: C10_15  and  S1_16 
REMARK   11  A    between atoms: C12_18  and  N2_19 
REMARK   12  A    between atoms: C12_18  and  C31_44 
REMARK       I    between atoms: N2_19  and  C13_21 
REMARK   13  A    between atoms: C13_21  and  C14_23 
REMARK   14  A    between atoms: C14_23  and  N3_25 
REMARK       I    between atoms: N3_25  and  C16_27 
REMARK   15  A    between atoms: C16_27  and  O5_29 
REMARK   16  A    between atoms: O5_29  and  C17_30 
REMARK   17  A    between atoms: C31_44  and  O7_46 
ROOT
HETATM    1  N2  UNL     1      -3.651 -39.507  16.409  1.00  0.00    -0.345 N 
ATOM      2  H2  UNL     1      -4.182 -40.372  16.500  1.00  0.00     0.163 HD
HETATM    3  C13 UNL     1      -3.000 -39.255  15.202  1.00  0.00     0.240 C 
HETATM    4  O3  UNL     1      -2.335 -38.168  15.097  1.00  0.00    -0.271 OA
ENDROOT
BRANCH   1   5
HETATM    5  C12 UNL     1      -3.612 -38.587  17.561  1.00  0.00     0.197 C 
BRANCH   5   6
HETATM    6  C8  UNL     1      -3.479 -39.402  18.806  1.00  0.00     0.111 C 
BRANCH   6   7
HETATM    7  C7  UNL     1      -3.771 -40.838  18.672  1.00  0.00     0.224 C 
HETATM    8  N1  UNL     1      -2.866 -41.896  18.792  1.00  0.00    -0.354 N 
ATOM      9  H1  UNL     1      -1.891 -41.679  18.998  1.00  0.00     0.163 HD
HETATM   10  O2  UNL     1      -4.985 -41.175  18.415  1.00  0.00    -0.273 OA
BRANCH   8  11
HETATM   11  C5  UNL     1      -3.249 -43.300  18.637  1.00  0.00     0.111 C 
BRANCH  11  12
HETATM   12  C3  UNL     1      -2.123 -44.071  18.072  1.00  0.00     0.006 C 
HETATM   13  C4  UNL     1      -0.745 -43.588  18.478  1.00  0.00     0.012 C 
BRANCH  12  14
HETATM   14  C2  UNL     1      -2.210 -45.566  18.191  1.00  0.00     0.002 C 
HETATM   15  C1  UNL     1      -0.934 -46.305  17.995  1.00  0.00     0.005 C 
ENDBRANCH  12  14
ENDBRANCH  11  12
BRANCH  11  16
HETATM   16  C6  UNL     1      -3.882 -43.839  19.882  1.00  0.00     0.189 C 
BRANCH  16  17
HETATM   17  O1  UNL     1      -5.268 -43.986  19.584  1.00  0.00    -0.399 OA
ATOM     18  H1  UNL     1      -5.652 -44.417  20.338  1.00  0.00     0.209 HD
ENDBRANCH  16  17
ENDBRANCH  11  16
ENDBRANCH   8  11
ENDBRANCH   6   7
BRANCH   6  19
HETATM   19  C9  UNL     1      -2.199 -39.133  19.583  1.00  0.00     0.027 C 
BRANCH  19  20
HETATM   20  C10 UNL     1      -1.165 -38.574  18.621  1.00  0.00     0.074 C 
BRANCH  20  21
HETATM   21  S1  UNL     1      -0.712 -36.916  19.226  1.00  0.00    -0.173 SA
HETATM   22  C11 UNL     1      -1.169 -35.645  18.026  1.00  0.00     0.089 C 
ENDBRANCH  20  21
ENDBRANCH  19  20
ENDBRANCH   6  19
ENDBRANCH   5   6
BRANCH   5  23
HETATM   23  C31 UNL     1      -4.746 -37.657  17.509  1.00  0.00     0.282 C 
HETATM   24  O6  UNL     1      -4.639 -36.498  18.042  1.00  0.00    -0.263 OA
BRANCH  23  25
HETATM   25  O7  UNL     1      -5.960 -37.928  16.918  1.00  0.00    -0.325 OA
HETATM   26  C32 UNL     1      -7.164 -37.933  17.711  1.00  0.00     0.213 C 
ENDBRANCH  23  25
ENDBRANCH   5  23
ENDBRANCH   1   5
BRANCH   3  27
HETATM   27  C14 UNL     1      -3.016 -40.148  14.029  1.00  0.00     0.174 C 
HETATM   28  C15 UNL     1      -4.349 -40.216  13.352  1.00  0.00     0.042 C 
BRANCH  27  29
HETATM   29  N3  UNL     1      -2.600 -41.493  14.358  1.00  0.00    -0.324 N 
HETATM   30  C16 UNL     1      -1.253 -41.802  14.678  1.00  0.00     0.361 C 
HETATM   31  O4  UNL     1      -0.406 -40.872  14.675  1.00  0.00    -0.238 OA
ATOM     32  H3  UNL     1      -3.295 -42.240  14.361  1.00  0.00     0.165 HD
BRANCH  30  33
HETATM   33  O5  UNL     1      -0.826 -43.070  14.993  1.00  0.00    -0.298 OA
BRANCH  33  34
HETATM   34  C17 UNL     1       0.257 -43.694  14.383  1.00  0.00     0.142 C 
HETATM   35  C18 UNL     1       0.268 -43.495  12.873  1.00  0.00     0.016 C 
HETATM   36  C19 UNL     1       1.670 -43.872  12.408  1.00  0.00     0.012 C 
HETATM   37  C23 UNL     1      -0.733 -44.345  12.161  1.00  0.00     0.012 C 
HETATM   38  C20 UNL     1       1.927 -45.314  12.778  1.00  0.00    -0.013 C 
HETATM   39  C21 UNL     1       0.893 -46.145  12.032  1.00  0.00     0.010 C 
HETATM   40  C30 UNL     1       1.780 -45.588  14.238  1.00  0.00     0.012 C 
HETATM   41  C22 UNL     1      -0.491 -45.807  12.486  1.00  0.00    -0.005 C 
HETATM   42  C24 UNL     1      -0.622 -45.998  13.974  1.00  0.00    -0.031 C 
HETATM   43  C25 UNL     1      -0.464 -47.437  14.368  1.00  0.00     0.010 C 
HETATM   44  C28 UNL     1      -1.991 -45.672  14.475  1.00  0.00     0.010 C 
HETATM   45  C29 UNL     1       0.389 -45.151  14.706  1.00  0.00     0.025 C 
HETATM   46  C26 UNL     1      -1.876 -48.013  14.434  1.00  0.00     0.001 C 
HETATM   47  C27 UNL     1      -2.791 -46.875  14.013  1.00  0.00     0.001 C 
ENDBRANCH  33  34
ENDBRANCH  30  33
ENDBRANCH  27  29
ENDBRANCH   3  27
TORSDOF 17
ENDMDL
MODEL 3
REMARK VINA RESULT: -7.588620288      2.284      3.760
REMARK  17 active torsions:
REMARK  status: ('A' for Active; 'I' for Inactive)
REMARK    1  A    between atoms: C2_2  and  C3_3 
REMARK    2  A    between atoms: C3_3  and  C5_5 
REMARK    3  A    between atoms: C5_5  and  C6_6 
REMARK    4  A    between atoms: C5_5  and  N1_9 
REMARK    5  A    between atoms: C6_6  and  O1_7 
REMARK       I    between atoms: N1_9  and  C7_11 
REMARK    6  A    between atoms: C7_11  and  C8_13 
REMARK    7  A    between atoms: C8_13  and  C9_14 
REMARK    8  A    between atoms: C8_13  and  C12_18 
REMARK    9  A    between atoms: C9_14  and  C10_15 
REMARK   10  A    between atoms: C10_15  and  S1_16 
REMARK   11  A    between atoms: C12_18  and  N2_19 
REMARK   12  A    between atoms: C12_18  and  C31_44 
REMARK       I    between atoms: N2_19  and  C13_21 
REMARK   13  A    between atoms: C13_21  and  C14_23 
REMARK   14  A    between atoms: C14_23  and  N3_25 
REMARK       I    between atoms: N3_25  and  C16_27 
REMARK   15  A    between atoms: C16_27  and  O5_29 
REMARK   16  A    between atoms: O5_29  and  C17_30 
REMARK   17  A    between atoms: C31_44  and  O7_46 
ROOT
HETATM    1  N2  UNL     1      -2.963 -39.358  16.658  1.00  0.00    -0.345 N 
ATOM      2  H2  UNL     1      -1.987 -39.131  16.469  1.00  0.00     0.163 HD
HETATM    3  C13 UNL     1      -3.732 -39.884  15.621  1.00  0.00     0.240 C 
HETATM    4  O3  UNL     1      -4.955 -40.164  15.867  1.00  0.00    -0.271 OA
ENDROOT
BRANCH   1   5
HETATM    5  C12 UNL     1      -3.487 -39.112  18.014  1.00  0.00     0.197 C 
BRANCH   5   6
HETATM    6  C8  UNL     1      -2.741 -37.958  18.601  1.00  0.00     0.111 C 
BRANCH   6   7
HETATM    7  C7  UNL     1      -2.581 -37.969  20.064  1.00  0.00     0.224 C 
HETATM    8  N1  UNL     1      -1.451 -38.364  20.784  1.00  0.00    -0.354 N 
ATOM      9  H1  UNL     1      -0.631 -38.680  20.266  1.00  0.00     0.163 HD
HETATM   10  O2  UNL     1      -3.579 -37.578  20.773  1.00  0.00    -0.273 OA
BRANCH   8  11
HETATM   11  C5  UNL     1      -1.384 -38.346  22.246  1.00  0.00     0.111 C 
BRANCH  11  12
HETATM   12  C3  UNL     1      -1.339 -39.727  22.767  1.00  0.00     0.006 C 
HETATM   13  C4  UNL     1      -0.575 -39.901  24.063  1.00  0.00     0.012 C 
BRANCH  12  14
HETATM   14  C2  UNL     1      -2.648 -40.462  22.828  1.00  0.00     0.002 C 
HETATM   15  C1  UNL     1      -2.923 -41.188  24.097  1.00  0.00     0.005 C 
ENDBRANCH  12  14
ENDBRANCH  11  12
BRANCH  11  16
HETATM   16  C6  UNL     1      -0.331 -37.402  22.738  1.00  0.00     0.189 C 
BRANCH  16  17
HETATM   17  O1  UNL     1      -0.021 -36.554  21.635  1.00  0.00    -0.399 OA
ATOM     18  H1  UNL     1       0.908 -36.365  21.705  1.00  0.00     0.209 HD
ENDBRANCH  16  17
ENDBRANCH  11  16
ENDBRANCH   8  11
ENDBRANCH   6   7
BRANCH   6  19
HETATM   19  C9  UNL     1      -1.448 -37.627  17.872  1.00  0.00     0.027 C 
BRANCH  19  20
HETATM   20  C10 UNL     1      -1.181 -36.139  18.024  1.00  0.00     0.074 C 
BRANCH  20  21
HETATM   21  S1  UNL     1      -2.396 -35.268  16.982  1.00  0.00    -0.173 SA
HETATM   22  C11 UNL     1      -3.635 -34.434  18.000  1.00  0.00     0.089 C 
ENDBRANCH  20  21
ENDBRANCH  19  20
ENDBRANCH   6  19
ENDBRANCH   5   6
BRANCH   5  23
HETATM   23  C31 UNL     1      -3.484 -40.355  18.794  1.00  0.00     0.282 C 
HETATM   24  O6  UNL     1      -4.592 -40.846  19.204  1.00  0.00    -0.263 OA
BRANCH  23  25
HETATM   25  O7  UNL     1      -2.355 -41.065  19.139  1.00  0.00    -0.325 OA
HETATM   26  C32 UNL     1      -1.971 -42.226  18.375  1.00  0.00     0.213 C 
ENDBRANCH  23  25
ENDBRANCH   5  23
ENDBRANCH   1   5
BRANCH   3  27
HETATM   27  C14 UNL     1      -3.245 -40.145  14.253  1.00  0.00     0.174 C 
HETATM   28  C15 UNL     1      -4.237 -39.784  13.192  1.00  0.00     0.042 C 
BRANCH  27  29
HETATM   29  N3  UNL     1      -2.853 -41.523  14.065  1.00  0.00    -0.324 N 
HETATM   30  C16 UNL     1      -1.569 -41.993  14.441  1.00  0.00     0.361 C 
HETATM   31  O4  UNL     1      -0.758 -41.181  14.955  1.00  0.00    -0.238 OA
ATOM     32  H3  UNL     1      -3.519 -42.176  13.650  1.00  0.00     0.165 HD
BRANCH  30  33
HETATM   33  O5  UNL     1      -1.165 -43.297  14.273  1.00  0.00    -0.298 OA
BRANCH  33  34
HETATM   34  C17 UNL     1      -2.023 -44.388  14.365  1.00  0.00     0.142 C 
HETATM   35  C18 UNL     1      -1.757 -45.234  15.604  1.00  0.00     0.016 C 
HETATM   36  C19 UNL     1      -2.983 -46.123  15.779  1.00  0.00     0.012 C 
HETATM   37  C23 UNL     1      -0.540 -46.091  15.480  1.00  0.00     0.012 C 
HETATM   38  C20 UNL     1      -3.134 -46.981  14.545  1.00  0.00    -0.013 C 
HETATM   39  C21 UNL     1      -1.880 -47.839  14.455  1.00  0.00     0.010 C 
HETATM   40  C30 UNL     1      -3.249 -46.192  13.283  1.00  0.00     0.012 C 
HETATM   41  C22 UNL     1      -0.665 -46.990  14.263  1.00  0.00    -0.005 C 
HETATM   42  C24 UNL     1      -0.811 -46.126  13.038  1.00  0.00    -0.031 C 
HETATM   43  C25 UNL     1      -0.871 -46.944  11.783  1.00  0.00     0.010 C 
HETATM   44  C28 UNL     1       0.382 -45.257  12.805  1.00  0.00     0.010 C 
HETATM   45  C29 UNL     1      -2.041 -45.260  13.148  1.00  0.00     0.025 C 
HETATM   46  C26 UNL     1       0.559 -47.003  11.250  1.00  0.00     0.001 C 
HETATM   47  C27 UNL     1       1.397 -46.251  12.272  1.00  0.00     0.001 C 
ENDBRANCH  33  34
ENDBRANCH  30  33
ENDBRANCH  27  29
ENDBRANCH   3  27
TORSDOF 17
ENDMDL
MODEL 4
REMARK VINA RESULT: -7.475400054      0.940      1.542
REMARK  17 active torsions:
REMARK  status: ('A' for Active; 'I' for Inactive)
REMARK    1  A    between atoms: C2_2  and  C3_3 
REMARK    2  A    between atoms: C3_3  and  C5_5 
REMARK    3  A    between atoms: C5_5  and  C6_6 
REMARK    4  A    between atoms: C5_5  and  N1_9 
REMARK    5  A    between atoms: C6_6  and  O1_7 
REMARK       I    between atoms: N1_9  and  C7_11 
REMARK    6  A    between atoms: C7_11  and  C8_13 
REMARK    7  A    between atoms: C8_13  and  C9_14 
REMARK    8  A    between atoms: C8_13  and  C12_18 
REMARK    9  A    between atoms: C9_14  and  C10_15 
REMARK   10  A    between atoms: C10_15  and  S1_16 
REMARK   11  A    between atoms: C12_18  and  N2_19 
REMARK   12  A    between atoms: C12_18  and  C31_44 
REMARK       I    between atoms: N2_19  and  C13_21 
REMARK   13  A    between atoms: C13_21  and  C14_23 
REMARK   14  A    between atoms: C14_23  and  N3_25 
REMARK       I    between atoms: N3_25  and  C16_27 
REMARK   15  A    between atoms: C16_27  and  O5_29 
REMARK   16  A    between atoms: O5_29  and  C17_30 
REMARK   17  A    between atoms: C31_44  and  O7_46 
ROOT
HETATM    1  N2  UNL     1      -3.651 -39.488  16.492  1.00  0.00    -0.345 N 
ATOM      2  H2  UNL     1      -4.190 -40.340  16.641  1.00  0.00     0.163 HD
HETATM    3  C13 UNL     1      -3.005 -39.320  15.268  1.00  0.00     0.240 C 
HETATM    4  O3  UNL     1      -2.330 -38.249  15.090  1.00  0.00    -0.271 OA
ENDROOT
BRANCH   1   5
HETATM    5  C12 UNL     1      -3.595 -38.497  17.583  1.00  0.00     0.197 C 
BRANCH   5   6
HETATM    6  C8  UNL     1      -3.361 -39.226  18.865  1.00  0.00     0.111 C 
BRANCH   6   7
HETATM    7  C7  UNL     1      -3.635 -40.672  18.845  1.00  0.00     0.224 C 
HETATM    8  N1  UNL     1      -2.744 -41.701  19.159  1.00  0.00    -0.354 N 
ATOM      9  H1  UNL     1      -1.795 -41.453  19.439  1.00  0.00     0.163 HD
HETATM   10  O2  UNL     1      -4.816 -41.047  18.504  1.00  0.00    -0.273 OA
BRANCH   8  11
HETATM   11  C5  UNL     1      -3.105 -43.119  19.106  1.00  0.00     0.111 C 
BRANCH  11  12
HETATM   12  C3  UNL     1      -1.891 -43.945  18.952  1.00  0.00     0.006 C 
HETATM   13  C4  UNL     1      -0.589 -43.171  18.904  1.00  0.00     0.012 C 
BRANCH  12  14
HETATM   14  C2  UNL     1      -1.765 -45.126  19.872  1.00  0.00     0.002 C 
HETATM   15  C1  UNL     1      -0.480 -45.872  19.793  1.00  0.00     0.005 C 
ENDBRANCH  12  14
ENDBRANCH  11  12
BRANCH  11  16
HETATM   16  C6  UNL     1      -4.041 -43.490  20.214  1.00  0.00     0.189 C 
BRANCH  16  17
HETATM   17  O1  UNL     1      -5.297 -43.753  19.594  1.00  0.00    -0.399 OA
ATOM     18  H1  UNL     1      -5.894 -43.091  19.923  1.00  0.00     0.209 HD
ENDBRANCH  16  17
ENDBRANCH  11  16
ENDBRANCH   8  11
ENDBRANCH   6   7
BRANCH   6  19
HETATM   19  C9  UNL     1      -2.036 -38.888  19.532  1.00  0.00     0.027 C 
BRANCH  19  20
HETATM   20  C10 UNL     1      -2.328 -38.290  20.898  1.00  0.00     0.074 C 
BRANCH  20  21
HETATM   21  S1  UNL     1      -1.893 -39.552  22.138  1.00  0.00    -0.173 SA
HETATM   22  C11 UNL     1      -3.345 -40.520  22.608  1.00  0.00     0.089 C 
ENDBRANCH  20  21
ENDBRANCH  19  20
ENDBRANCH   6  19
ENDBRANCH   5   6
BRANCH   5  23
HETATM   23  C31 UNL     1      -4.772 -37.622  17.536  1.00  0.00     0.282 C 
HETATM   24  O6  UNL     1      -5.833 -38.020  16.940  1.00  0.00    -0.263 OA
BRANCH  23  25
HETATM   25  O7  UNL     1      -4.842 -36.364  18.093  1.00  0.00    -0.325 OA
HETATM   26  C32 UNL     1      -3.663 -35.537  18.161  1.00  0.00     0.213 C 
ENDBRANCH  23  25
ENDBRANCH   5  23
ENDBRANCH   1   5
BRANCH   3  27
HETATM   27  C14 UNL     1      -3.036 -40.286  14.154  1.00  0.00     0.174 C 
HETATM   28  C15 UNL     1      -4.220 -40.115  13.254  1.00  0.00     0.042 C 
BRANCH  27  29
HETATM   29  N3  UNL     1      -3.005 -41.656  14.615  1.00  0.00    -0.324 N 
HETATM   30  C16 UNL     1      -1.815 -42.253  15.103  1.00  0.00     0.361 C 
HETATM   31  O4  UNL     1      -0.764 -41.563  15.133  1.00  0.00    -0.238 OA
ATOM     32  H3  UNL     1      -3.863 -42.208  14.590  1.00  0.00     0.165 HD
BRANCH  30  33
HETATM   33  O5  UNL     1      -1.752 -43.554  15.546  1.00  0.00    -0.298 OA
BRANCH  33  34
HETATM   34  C17 UNL     1      -2.061 -44.654  14.755  1.00  0.00     0.142 C 
HETATM   35  C18 UNL     1      -2.834 -45.722  15.519  1.00  0.00     0.016 C 
HETATM   36  C19 UNL     1      -3.431 -46.646  14.464  1.00  0.00     0.012 C 
HETATM   37  C23 UNL     1      -1.976 -46.520  16.445  1.00  0.00     0.012 C 
HETATM   38  C20 UNL     1      -2.303 -47.249  13.660  1.00  0.00    -0.013 C 
HETATM   39  C21 UNL     1      -1.456 -48.054  14.635  1.00  0.00     0.010 C 
HETATM   40  C30 UNL     1      -1.426 -46.231  13.012  1.00  0.00     0.012 C 
HETATM   41  C22 UNL     1      -0.843 -47.166  15.669  1.00  0.00    -0.005 C 
HETATM   42  C24 UNL     1      -0.025 -46.081  15.017  1.00  0.00    -0.031 C 
HETATM   43  C25 UNL     1       1.159 -46.639  14.286  1.00  0.00     0.010 C 
HETATM   44  C28 UNL     1       0.609 -45.166  16.014  1.00  0.00     0.010 C 
HETATM   45  C29 UNL     1      -0.879 -45.272  14.074  1.00  0.00     0.025 C 
HETATM   46  C26 UNL     1       2.329 -46.571  15.265  1.00  0.00     0.001 C 
HETATM   47  C27 UNL     1       1.740 -46.020  16.553  1.00  0.00     0.001 C 
ENDBRANCH  33  34
ENDBRANCH  30  33
ENDBRANCH  27  29
ENDBRANCH   3  27
TORSDOF 17
ENDMDL
MODEL 5
REMARK VINA RESULT: -7.460604294      1.320      2.087
REMARK  17 active torsions:
REMARK  status: ('A' for Active; 'I' for Inactive)
REMARK    1  A    between atoms: C2_2  and  C3_3 
REMARK    2  A    between atoms: C3_3  and  C5_5 
REMARK    3  A    between atoms: C5_5  and  C6_6 
REMARK    4  A    between atoms: C5_5  and  N1_9 
REMARK    5  A    between atoms: C6_6  and  O1_7 
REMARK       I    between atoms: N1_9  and  C7_11 
REMARK    6  A    between atoms: C7_11  and  C8_13 
REMARK    7  A    between atoms: C8_13  and  C9_14 
REMARK    8  A    between atoms: C8_13  and  C12_18 
REMARK    9  A    between atoms: C9_14  and  C10_15 
REMARK   10  A    between atoms: C10_15  and  S1_16 
REMARK   11  A    between atoms: C12_18  and  N2_19 
REMARK   12  A    between atoms: C12_18  and  C31_44 
REMARK       I    between atoms: N2_19  and  C13_21 
REMARK   13  A    between atoms: C13_21  and  C14_23 
REMARK   14  A    between atoms: C14_23  and  N3_25 
REMARK       I    between atoms: N3_25  and  C16_27 
REMARK   15  A    between atoms: C16_27  and  O5_29 
REMARK   16  A    between atoms: O5_29  and  C17_30 
REMARK   17  A    between atoms: C31_44  and  O7_46 
ROOT
HETATM    1  N2  UNL     1      -3.535 -40.266  16.450  1.00  0.00    -0.345 N 
ATOM      2  H2  UNL     1      -3.911 -41.204  16.307  1.00  0.00     0.163 HD
HETATM    3  C13 UNL     1      -2.971 -39.607  15.359  1.00  0.00     0.240 C 
HETATM    4  O3  UNL     1      -2.501 -38.433  15.547  1.00  0.00    -0.271 OA
ENDROOT
BRANCH   1   5
HETATM    5  C12 UNL     1      -3.616 -39.680  17.801  1.00  0.00     0.197 C 
BRANCH   5   6
HETATM    6  C8  UNL     1      -2.576 -40.328  18.655  1.00  0.00     0.111 C 
BRANCH   6   7
HETATM    7  C7  UNL     1      -2.460 -41.791  18.533  1.00  0.00     0.224 C 
HETATM    8  N1  UNL     1      -3.137 -42.753  19.286  1.00  0.00    -0.354 N 
ATOM      9  H1  UNL     1      -3.791 -42.438  20.003  1.00  0.00     0.163 HD
HETATM   10  O2  UNL     1      -1.654 -42.250  17.645  1.00  0.00    -0.273 OA
BRANCH   8  11
HETATM   11  C5  UNL     1      -2.954 -44.193  19.098  1.00  0.00     0.111 C 
BRANCH  11  12
HETATM   12  C3  UNL     1      -1.843 -44.676  19.941  1.00  0.00     0.006 C 
HETATM   13  C4  UNL     1      -2.261 -45.344  21.235  1.00  0.00     0.012 C 
BRANCH  12  14
HETATM   14  C2  UNL     1      -0.783 -45.487  19.251  1.00  0.00     0.002 C 
HETATM   15  C1  UNL     1      -1.113 -46.919  19.020  1.00  0.00     0.005 C 
ENDBRANCH  12  14
ENDBRANCH  11  12
BRANCH  11  16
HETATM   16  C6  UNL     1      -4.253 -44.931  19.201  1.00  0.00     0.189 C 
BRANCH  16  17
HETATM   17  O1  UNL     1      -5.272 -43.934  19.183  1.00  0.00    -0.399 OA
ATOM     18  H1  UNL     1      -6.092 -44.401  19.080  1.00  0.00     0.209 HD
ENDBRANCH  16  17
ENDBRANCH  11  16
ENDBRANCH   8  11
ENDBRANCH   6   7
BRANCH   6  19
HETATM   19  C9  UNL     1      -1.226 -39.627  18.618  1.00  0.00     0.027 C 
BRANCH  19  20
HETATM   20  C10 UNL     1      -1.252 -38.489  19.625  1.00  0.00     0.074 C 
BRANCH  20  21
HETATM   21  S1  UNL     1      -1.249 -36.934  18.675  1.00  0.00    -0.173 SA
HETATM   22  C11 UNL     1       0.306 -36.731  17.777  1.00  0.00     0.089 C 
ENDBRANCH  20  21
ENDBRANCH  19  20
ENDBRANCH   6  19
ENDBRANCH   5   6
BRANCH   5  23
HETATM   23  C31 UNL     1      -4.995 -39.736  18.298  1.00  0.00     0.282 C 
HETATM   24  O6  UNL     1      -5.582 -40.868  18.408  1.00  0.00    -0.263 OA
BRANCH  23  25
HETATM   25  O7  UNL     1      -5.744 -38.641  18.670  1.00  0.00    -0.325 OA
HETATM   26  C32 UNL     1      -5.270 -37.310  18.382  1.00  0.00     0.213 C 
ENDBRANCH  23  25
ENDBRANCH   5  23
ENDBRANCH   1   5
BRANCH   3  27
HETATM   27  C14 UNL     1      -2.872 -40.159  13.994  1.00  0.00     0.174 C 
HETATM   28  C15 UNL     1      -4.101 -39.929  13.171  1.00  0.00     0.042 C 
BRANCH  27  29
HETATM   29  N3  UNL     1      -2.580 -41.575  13.996  1.00  0.00    -0.324 N 
HETATM   30  C16 UNL     1      -1.275 -42.068  14.251  1.00  0.00     0.361 C 
HETATM   31  O4  UNL     1      -0.355 -41.243  14.485  1.00  0.00    -0.238 OA
ATOM     32  H3  UNL     1      -3.333 -42.237  13.808  1.00  0.00     0.165 HD
BRANCH  30  33
HETATM   33  O5  UNL     1      -0.964 -43.408  14.257  1.00  0.00    -0.298 OA
BRANCH  33  34
HETATM   34  C17 UNL     1      -1.910 -44.418  14.389  1.00  0.00     0.142 C 
HETATM   35  C18 UNL     1      -1.645 -45.309  15.596  1.00  0.00     0.016 C 
HETATM   36  C19 UNL     1      -2.934 -46.087  15.837  1.00  0.00     0.012 C 
HETATM   37  C23 UNL     1      -0.522 -46.270  15.382  1.00  0.00     0.012 C 
HETATM   38  C20 UNL     1      -3.240 -46.903  14.603  1.00  0.00    -0.013 C 
HETATM   39  C21 UNL     1      -2.078 -47.869  14.422  1.00  0.00     0.010 C 
HETATM   40  C30 UNL     1      -3.361 -46.082  13.363  1.00  0.00     0.012 C 
HETATM   41  C22 UNL     1      -0.805 -47.130  14.164  1.00  0.00    -0.005 C 
HETATM   42  C24 UNL     1      -0.947 -46.232  12.963  1.00  0.00    -0.031 C 
HETATM   43  C25 UNL     1      -1.160 -47.016  11.703  1.00  0.00     0.010 C 
HETATM   44  C28 UNL     1       0.303 -45.470  12.666  1.00  0.00     0.010 C 
HETATM   45  C29 UNL     1      -2.084 -45.261  13.163  1.00  0.00     0.025 C 
HETATM   46  C26 UNL     1       0.222 -47.193  11.079  1.00  0.00     0.001 C 
HETATM   47  C27 UNL     1       1.187 -46.540  12.055  1.00  0.00     0.001 C 
ENDBRANCH  33  34
ENDBRANCH  30  33
ENDBRANCH  27  29
ENDBRANCH   3  27
TORSDOF 17
ENDMDL
