MODEL 1
REMARK VINA RESULT: -7.566341325      0.000      0.000
REMARK  22 active torsions:
REMARK  status: ('A' for Active; 'I' for Inactive)
REMARK    1  A    between atoms: C2_2  and  C3_3 
REMARK    2  A    between atoms: C3_3  and  C5_5 
REMARK    3  A    between atoms: C5_5  and  C6_6 
REMARK    4  A    between atoms: C5_5  and  C9_12 
REMARK    5  A    between atoms: C6_6  and  O1_7 
REMARK    6  A    between atoms: C6_6  and  N1_9 
REMARK    7  A    between atoms: C9_12  and  C11_14 
REMARK    8  A    between atoms: C11_14  and  C12_15 
REMARK    9  A    between atoms: C12_15  and  O2_16 
REMARK   10  A    between atoms: C12_15  and  C13_18 
REMARK       I    between atoms: C13_18  and  N2_20 
REMARK   11  A    between atoms: N2_20  and  C14_22 
REMARK   12  A    between atoms: C14_22  and  C15_23 
REMARK   13  A    between atoms: C14_22  and  C22_34 
REMARK   14  A    between atoms: C15_23  and  C16_24 
REMARK   15  A    between atoms: C16_24  and  O4_25 
REMARK   16  A    between atoms: C16_24  and  C17_27 
REMARK       I    between atoms: C22_34  and  N4_36 
REMARK   17  A    between atoms: N4_36  and  C23_38 
REMARK   18  A    between atoms: C23_38  and  C24_39 
REMARK   19  A    between atoms: C23_38  and  C31_46 
REMARK   20  A    between atoms: C24_39  and  C25_40 
REMARK   21  A    between atoms: C31_46  and  O6_47 
REMARK   22  A    between atoms: C31_46  and  C32_49 
ROOT
HETATM    1  C14 UNL     1      -3.723 -40.289  15.906  1.00  0.00     0.179 C 
ENDROOT
BRANCH   1   2
HETATM    2  N2  UNL     1      -3.797 -40.687  17.289  1.00  0.00    -0.342 N 
HETATM    3  C13 UNL     1      -5.053 -40.753  18.019  1.00  0.00     0.275 C 
HETATM    4  O3  UNL     1      -6.031 -40.427  17.327  1.00  0.00    -0.265 OA
ATOM      5  H2  UNL     1      -2.934 -40.933  17.775  1.00  0.00     0.163 HD
BRANCH   3   6
HETATM    6  C12 UNL     1      -5.117 -41.151  19.376  1.00  0.00     0.134 C 
BRANCH   6   7
HETATM    7  C11 UNL     1      -4.827 -40.622  20.643  1.00  0.00     0.045 C 
BRANCH   7   8
HETATM    8  C9  UNL     1      -3.898 -40.675  21.530  1.00  0.00    -0.069 C 
HETATM    9  C10 UNL     1      -4.234 -40.937  22.982  1.00  0.00     0.044 C 
BRANCH   8  10
HETATM   10  C5  UNL     1      -2.403 -40.486  21.262  1.00  0.00     0.092 C 
BRANCH  10  11
HETATM   11  C3  UNL     1      -2.098 -39.570  20.202  1.00  0.00    -0.003 C 
HETATM   12  C4  UNL     1      -0.905 -39.969  19.332  1.00  0.00     0.011 C 
BRANCH  11  13
HETATM   13  C2  UNL     1      -1.931 -38.158  20.702  1.00  0.00     0.001 C 
HETATM   14  C1  UNL     1      -1.249 -38.110  22.056  1.00  0.00     0.005 C 
ENDBRANCH  11  13
ENDBRANCH  10  11
BRANCH  10  15
HETATM   15  C6  UNL     1      -1.889 -41.858  21.256  1.00  0.00     0.121 C 
BRANCH  15  16
HETATM   16  O1  UNL     1      -0.848 -42.000  22.028  1.00  0.00    -0.349 OA
ATOM     17  H1  UNL     1      -0.033 -41.989  21.540  1.00  0.00     0.219 HD
ENDBRANCH  15  16
BRANCH  15  18
HETATM   18  N1  UNL     1      -2.279 -43.002  20.609  1.00  0.00    -0.374 N 
HETATM   19  C7  UNL     1      -2.942 -44.079  21.365  1.00  0.00     0.150 C 
HETATM   20  C8  UNL     1      -2.108 -43.261  19.213  1.00  0.00     0.150 C 
ENDBRANCH  15  18
ENDBRANCH  10  15
ENDBRANCH   8  10
ENDBRANCH   7   8
ENDBRANCH   6   7
BRANCH   6  21
HETATM   21  O2  UNL     1      -5.602 -42.410  19.457  1.00  0.00    -0.356 OA
ATOM     22  H2  UNL     1      -5.627 -42.834  18.606  1.00  0.00     0.218 HD
ENDBRANCH   6  21
ENDBRANCH   3   6
ENDBRANCH   1   2
BRANCH   1  23
HETATM   23  C15 UNL     1      -2.679 -39.210  15.689  1.00  0.00     0.067 C 
BRANCH  23  24
HETATM   24  C16 UNL     1      -3.160 -37.842  16.050  1.00  0.00     0.129 C 
BRANCH  24  25
HETATM   25  O4  UNL     1      -4.454 -37.855  16.563  1.00  0.00    -0.395 OA
ATOM     26  H4  UNL     1      -4.737 -36.994  16.849  1.00  0.00     0.210 HD
ENDBRANCH  24  25
BRANCH  24  27
HETATM   27  C17 UNL     1      -2.257 -37.259  17.108  1.00  0.00     0.052 C 
HETATM   28  C18 UNL     1      -2.737 -35.978  17.652  1.00  0.00     0.062 C 
HETATM   29  N3  UNL     1      -1.929 -35.216  18.253  1.00  0.00    -0.402 N 
HETATM   30  C19 UNL     1      -0.552 -35.424  18.493  1.00  0.00     0.118 C 
ATOM     31  H3  UNL     1      -2.318 -34.343  18.610  1.00  0.00     0.158 HD
HETATM   32  C20 UNL     1      -0.032 -36.713  17.904  1.00  0.00     0.020 C 
HETATM   33  C21 UNL     1      -0.840 -37.097  16.657  1.00  0.00     0.014 C 
ENDBRANCH  24  27
ENDBRANCH  23  24
ENDBRANCH   1  23
BRANCH   1  34
HETATM   34  C22 UNL     1      -3.446 -41.462  14.998  1.00  0.00     0.240 C 
HETATM   35  O5  UNL     1      -4.202 -41.528  14.000  1.00  0.00    -0.271 OA
HETATM   36  N4  UNL     1      -2.408 -42.320  15.358  1.00  0.00    -0.352 N 
ATOM     37  H4  UNL     1      -1.929 -42.082  16.227  1.00  0.00     0.163 HD
BRANCH  36  38
HETATM   38  C23 UNL     1      -1.912 -43.491  14.684  1.00  0.00     0.116 C 
BRANCH  38  39
HETATM   39  C24 UNL     1      -1.939 -44.710  15.549  1.00  0.00     0.032 C 
BRANCH  39  40
HETATM   40  C25 UNL     1      -3.067 -45.665  15.249  1.00  0.00    -0.013 C 
HETATM   41  C26 UNL     1      -2.451 -47.063  15.315  1.00  0.00     0.005 C 
HETATM   42  C27 UNL     1      -1.931 -47.480  13.955  1.00  0.00     0.000 C 
HETATM   43  C28 UNL     1      -3.140 -47.845  13.118  1.00  0.00     0.000 C 
HETATM   44  C29 UNL     1      -4.135 -46.724  13.285  1.00  0.00     0.000 C 
HETATM   45  C30 UNL     1      -3.536 -45.457  13.808  1.00  0.00     0.005 C 
ENDBRANCH  39  40
ENDBRANCH  38  39
BRANCH  38  46
HETATM   46  C31 UNL     1      -0.569 -43.171  14.111  1.00  0.00     0.177 C 
BRANCH  46  47
HETATM   47  O6  UNL     1      -0.834 -42.169  13.112  1.00  0.00    -0.390 OA
ATOM     48  H6  UNL     1      -0.492 -42.540  12.307  1.00  0.00     0.210 HD
ENDBRANCH  46  47
BRANCH  46  49
HETATM   49  C32 UNL     1       0.115 -44.269  13.365  1.00  0.00     0.106 A 
HETATM   50  C33 UNL     1      -0.468 -44.657  11.991  1.00  0.00     0.051 C 
HETATM   51  C34 UNL     1       1.629 -44.254  13.375  1.00  0.00     0.209 A 
HETATM   52  O7  UNL     1       0.859 -45.242  14.016  1.00  0.00    -0.373 OA
ENDBRANCH  46  49
ENDBRANCH  38  46
ENDBRANCH  36  38
ENDBRANCH   1  34
TORSDOF 22
ENDMDL
MODEL 2
REMARK VINA RESULT: -7.493805780      2.165      5.801
REMARK  22 active torsions:
REMARK  status: ('A' for Active; 'I' for Inactive)
REMARK    1  A    between atoms: C2_2  and  C3_3 
REMARK    2  A    between atoms: C3_3  and  C5_5 
REMARK    3  A    between atoms: C5_5  and  C6_6 
REMARK    4  A    between atoms: C5_5  and  C9_12 
REMARK    5  A    between atoms: C6_6  and  O1_7 
REMARK    6  A    between atoms: C6_6  and  N1_9 
REMARK    7  A    between atoms: C9_12  and  C11_14 
REMARK    8  A    between atoms: C11_14  and  C12_15 
REMARK    9  A    between atoms: C12_15  and  O2_16 
REMARK   10  A    between atoms: C12_15  and  C13_18 
REMARK       I    between atoms: C13_18  and  N2_20 
REMARK   11  A    between atoms: N2_20  and  C14_22 
REMARK   12  A    between atoms: C14_22  and  C15_23 
REMARK   13  A    between atoms: C14_22  and  C22_34 
REMARK   14  A    between atoms: C15_23  and  C16_24 
REMARK   15  A    between atoms: C16_24  and  O4_25 
REMARK   16  A    between atoms: C16_24  and  C17_27 
REMARK       I    between atoms: C22_34  and  N4_36 
REMARK   17  A    between atoms: N4_36  and  C23_38 
REMARK   18  A    between atoms: C23_38  and  C24_39 
REMARK   19  A    between atoms: C23_38  and  C31_46 
REMARK   20  A    between atoms: C24_39  and  C25_40 
REMARK   21  A    between atoms: C31_46  and  O6_47 
REMARK   22  A    between atoms: C31_46  and  C32_49 
ROOT
HETATM    1  C14 UNL     1      -1.283 -42.196  13.887  1.00  0.00     0.179 C 
ENDROOT
BRANCH   1   2
HETATM    2  N2  UNL     1      -1.573 -41.166  14.852  1.00  0.00    -0.342 N 
HETATM    3  C13 UNL     1      -2.688 -40.244  14.703  1.00  0.00     0.275 C 
HETATM    4  O3  UNL     1      -3.342 -40.441  13.667  1.00  0.00    -0.265 OA
ATOM      5  H2  UNL     1      -0.972 -41.080  15.672  1.00  0.00     0.163 HD
BRANCH   3   6
HETATM    6  C12 UNL     1      -2.968 -39.239  15.660  1.00  0.00     0.134 C 
BRANCH   6   7
HETATM    7  C11 UNL     1      -3.464 -39.141  16.970  1.00  0.00     0.045 C 
BRANCH   7   8
HETATM    8  C9  UNL     1      -4.044 -38.281  17.728  1.00  0.00    -0.069 C 
HETATM    9  C10 UNL     1      -5.548 -38.117  17.698  1.00  0.00     0.044 C 
BRANCH   8  10
HETATM   10  C5  UNL     1      -3.337 -37.346  18.713  1.00  0.00     0.092 C 
BRANCH  10  11
HETATM   11  C3  UNL     1      -2.093 -36.811  18.241  1.00  0.00    -0.003 C 
HETATM   12  C4  UNL     1      -0.974 -36.775  19.281  1.00  0.00     0.011 C 
BRANCH  11  13
HETATM   13  C2  UNL     1      -2.263 -35.453  17.608  1.00  0.00     0.001 C 
HETATM   14  C1  UNL     1      -3.580 -34.807  17.992  1.00  0.00     0.005 C 
ENDBRANCH  11  13
ENDBRANCH  10  11
BRANCH  10  15
HETATM   15  C6  UNL     1      -3.422 -38.073  19.983  1.00  0.00     0.121 C 
BRANCH  15  16
HETATM   16  O1  UNL     1      -3.856 -37.321  20.955  1.00  0.00    -0.349 OA
ATOM     17  H1  UNL     1      -3.589 -36.415  20.857  1.00  0.00     0.219 HD
ENDBRANCH  15  16
BRANCH  15  18
HETATM   18  N1  UNL     1      -3.138 -39.364  20.343  1.00  0.00    -0.374 N 
HETATM   19  C7  UNL     1      -4.237 -40.292  20.666  1.00  0.00     0.150 C 
HETATM   20  C8  UNL     1      -1.826 -39.929  20.432  1.00  0.00     0.150 C 
ENDBRANCH  15  18
ENDBRANCH  10  15
ENDBRANCH   8  10
ENDBRANCH   7   8
ENDBRANCH   6   7
BRANCH   6  21
HETATM   21  O2  UNL     1      -2.663 -38.027  15.147  1.00  0.00    -0.356 OA
ATOM     22  H2  UNL     1      -1.997 -38.087  14.472  1.00  0.00     0.218 HD
ENDBRANCH   6  21
ENDBRANCH   3   6
ENDBRANCH   1   2
BRANCH   1  23
HETATM   23  C15 UNL     1       0.210 -42.388  13.702  1.00  0.00     0.067 C 
BRANCH  23  24
HETATM   24  C16 UNL     1       0.551 -43.350  12.611  1.00  0.00     0.129 C 
BRANCH  24  25
HETATM   25  O4  UNL     1       1.245 -42.743  11.568  1.00  0.00    -0.395 OA
ATOM     26  H4  UNL     1       2.089 -43.150  11.411  1.00  0.00     0.210 HD
ENDBRANCH  24  25
BRANCH  24  27
HETATM   27  C17 UNL     1       1.431 -44.443  13.168  1.00  0.00     0.052 C 
HETATM   28  C18 UNL     1       2.451 -43.954  14.111  1.00  0.00     0.062 C 
HETATM   29  N3  UNL     1       3.460 -44.671  14.362  1.00  0.00    -0.402 N 
HETATM   30  C19 UNL     1       3.772 -45.946  13.839  1.00  0.00     0.118 C 
ATOM     31  H3  UNL     1       4.132 -44.282  15.023  1.00  0.00     0.158 HD
HETATM   32  C20 UNL     1       2.759 -46.444  12.836  1.00  0.00     0.020 C 
HETATM   33  C21 UNL     1       2.098 -45.265  12.110  1.00  0.00     0.014 C 
ENDBRANCH  24  27
ENDBRANCH  23  24
ENDBRANCH   1  23
BRANCH   1  34
HETATM   34  C22 UNL     1      -1.928 -43.509  14.256  1.00  0.00     0.240 C 
HETATM   35  O5  UNL     1      -2.899 -43.826  13.529  1.00  0.00    -0.271 OA
HETATM   36  N4  UNL     1      -1.389 -44.207  15.334  1.00  0.00    -0.352 N 
ATOM     37  H4  UNL     1      -0.601 -43.752  15.796  1.00  0.00     0.163 HD
BRANCH  36  38
HETATM   38  C23 UNL     1      -1.779 -45.475  15.893  1.00  0.00     0.116 C 
BRANCH  38  39
HETATM   39  C24 UNL     1      -3.091 -45.960  15.363  1.00  0.00     0.032 C 
BRANCH  39  40
HETATM   40  C25 UNL     1      -3.027 -47.290  14.657  1.00  0.00    -0.013 C 
HETATM   41  C26 UNL     1      -1.572 -47.451  14.212  1.00  0.00     0.005 C 
HETATM   42  C27 UNL     1      -1.372 -46.870  12.827  1.00  0.00     0.000 C 
HETATM   43  C28 UNL     1      -1.979 -47.855  11.848  1.00  0.00     0.000 C 
HETATM   44  C29 UNL     1      -3.347 -48.204  12.379  1.00  0.00     0.000 C 
HETATM   45  C30 UNL     1      -3.873 -47.228  13.384  1.00  0.00     0.005 C 
ENDBRANCH  39  40
ENDBRANCH  38  39
BRANCH  38  46
HETATM   46  C31 UNL     1      -1.715 -45.373  17.382  1.00  0.00     0.177 C 
BRANCH  46  47
HETATM   47  O6  UNL     1      -1.894 -46.725  17.843  1.00  0.00    -0.390 OA
ATOM     48  H6  UNL     1      -2.000 -46.643  18.783  1.00  0.00     0.210 HD
ENDBRANCH  46  47
BRANCH  46  49
HETATM   49  C32 UNL     1      -2.809 -44.604  18.045  1.00  0.00     0.106 A 
HETATM   50  C33 UNL     1      -3.889 -45.417  18.788  1.00  0.00     0.051 C 
HETATM   51  C34 UNL     1      -2.402 -43.352  18.792  1.00  0.00     0.209 A 
HETATM   52  O7  UNL     1      -3.176 -43.337  17.617  1.00  0.00    -0.373 OA
ENDBRANCH  46  49
ENDBRANCH  38  46
ENDBRANCH  36  38
ENDBRANCH   1  34
TORSDOF 22
ENDMDL
MODEL 3
REMARK VINA RESULT: -7.323502842      2.090      5.889
REMARK  22 active torsions:
REMARK  status: ('A' for Active; 'I' for Inactive)
REMARK    1  A    between atoms: C2_2  and  C3_3 
REMARK    2  A    between atoms: C3_3  and  C5_5 
REMARK    3  A    between atoms: C5_5  and  C6_6 
REMARK    4  A    between atoms: C5_5  and  C9_12 
REMARK    5  A    between atoms: C6_6  and  O1_7 
REMARK    6  A    between atoms: C6_6  and  N1_9 
REMARK    7  A    between atoms: C9_12  and  C11_14 
REMARK    8  A    between atoms: C11_14  and  C12_15 
REMARK    9  A    between atoms: C12_15  and  O2_16 
REMARK   10  A    between atoms: C12_15  and  C13_18 
REMARK       I    between atoms: C13_18  and  N2_20 
REMARK   11  A    between atoms: N2_20  and  C14_22 
REMARK   12  A    between atoms: C14_22  and  C15_23 
REMARK   13  A    between atoms: C14_22  and  C22_34 
REMARK   14  A    between atoms: C15_23  and  C16_24 
REMARK   15  A    between atoms: C16_24  and  O4_25 
REMARK   16  A    between atoms: C16_24  and  C17_27 
REMARK       I    between atoms: C22_34  and  N4_36 
REMARK   17  A    between atoms: N4_36  and  C23_38 
REMARK   18  A    between atoms: C23_38  and  C24_39 
REMARK   19  A    between atoms: C23_38  and  C31_46 
REMARK   20  A    between atoms: C24_39  and  C25_40 
REMARK   21  A    between atoms: C31_46  and  O6_47 
REMARK   22  A    between atoms: C31_46  and  C32_49 
ROOT
HETATM    1  C14 UNL     1      -1.515 -42.174  13.939  1.00  0.00     0.179 C 
ENDROOT
BRANCH   1   2
HETATM    2  N2  UNL     1      -1.826 -41.167  14.921  1.00  0.00    -0.342 N 
HETATM    3  C13 UNL     1      -2.733 -40.063  14.649  1.00  0.00     0.275 C 
HETATM    4  O3  UNL     1      -3.191 -40.087  13.497  1.00  0.00    -0.265 OA
ATOM      5  H2  UNL     1      -1.394 -41.231  15.843  1.00  0.00     0.163 HD
BRANCH   3   6
HETATM    6  C12 UNL     1      -3.038 -39.081  15.623  1.00  0.00     0.134 C 
BRANCH   6   7
HETATM    7  C11 UNL     1      -3.798 -38.962  16.797  1.00  0.00     0.045 C 
BRANCH   7   8
HETATM    8  C9  UNL     1      -3.640 -39.034  18.070  1.00  0.00    -0.069 C 
HETATM    9  C10 UNL     1      -4.647 -39.762  18.932  1.00  0.00     0.044 C 
BRANCH   8  10
HETATM   10  C5  UNL     1      -2.477 -38.422  18.855  1.00  0.00     0.092 C 
BRANCH  10  11
HETATM   11  C3  UNL     1      -2.217 -39.045  20.121  1.00  0.00    -0.003 C 
HETATM   12  C4  UNL     1      -1.582 -38.131  21.168  1.00  0.00     0.011 C 
BRANCH  11  13
HETATM   13  C2  UNL     1      -1.414 -40.312  19.975  1.00  0.00     0.001 C 
HETATM   14  C1  UNL     1      -1.620 -41.255  21.145  1.00  0.00     0.005 C 
ENDBRANCH  11  13
ENDBRANCH  10  11
BRANCH  10  15
HETATM   15  C6  UNL     1      -2.724 -36.981  18.751  1.00  0.00     0.121 C 
BRANCH  15  16
HETATM   16  O1  UNL     1      -3.793 -36.615  19.401  1.00  0.00    -0.349 OA
ATOM     17  H1  UNL     1      -3.589 -36.059  20.144  1.00  0.00     0.219 HD
ENDBRANCH  15  16
BRANCH  15  18
HETATM   18  N1  UNL     1      -2.066 -35.962  18.114  1.00  0.00    -0.374 N 
HETATM   19  C7  UNL     1      -2.808 -35.061  17.215  1.00  0.00     0.150 C 
HETATM   20  C8  UNL     1      -0.672 -35.667  18.249  1.00  0.00     0.150 C 
ENDBRANCH  15  18
ENDBRANCH  10  15
ENDBRANCH   8  10
ENDBRANCH   7   8
ENDBRANCH   6   7
BRANCH   6  21
HETATM   21  O2  UNL     1      -2.403 -37.928  15.318  1.00  0.00    -0.356 OA
ATOM     22  H2  UNL     1      -2.478 -37.717  14.394  1.00  0.00     0.218 HD
ENDBRANCH   6  21
ENDBRANCH   3   6
ENDBRANCH   1   2
BRANCH   1  23
HETATM   23  C15 UNL     1      -0.018 -42.373  13.795  1.00  0.00     0.067 C 
BRANCH  23  24
HETATM   24  C16 UNL     1       0.350 -43.323  12.702  1.00  0.00     0.129 C 
BRANCH  24  25
HETATM   25  O4  UNL     1       0.993 -42.688  11.643  1.00  0.00    -0.395 OA
ATOM     26  H4  UNL     1       1.793 -43.131  11.389  1.00  0.00     0.210 HD
ENDBRANCH  24  25
BRANCH  24  27
HETATM   27  C17 UNL     1       1.292 -44.369  13.245  1.00  0.00     0.052 C 
HETATM   28  C18 UNL     1       2.299 -43.828  14.174  1.00  0.00     0.062 C 
HETATM   29  N3  UNL     1       3.346 -44.492  14.411  1.00  0.00    -0.402 N 
HETATM   30  C19 UNL     1       3.717 -45.749  13.883  1.00  0.00     0.118 C 
ATOM     31  H3  UNL     1       4.006 -44.069  15.063  1.00  0.00     0.158 HD
HETATM   32  C20 UNL     1       2.717 -46.299  12.894  1.00  0.00     0.020 C 
HETATM   33  C21 UNL     1       1.986 -45.155  12.178  1.00  0.00     0.014 C 
ENDBRANCH  24  27
ENDBRANCH  23  24
ENDBRANCH   1  23
BRANCH   1  34
HETATM   34  C22 UNL     1      -2.180 -43.491  14.254  1.00  0.00     0.240 C 
HETATM   35  O5  UNL     1      -3.131 -43.782  13.490  1.00  0.00    -0.271 OA
HETATM   36  N4  UNL     1      -1.679 -44.221  15.331  1.00  0.00    -0.352 N 
ATOM     37  H4  UNL     1      -0.902 -43.784  15.828  1.00  0.00     0.163 HD
BRANCH  36  38
HETATM   38  C23 UNL     1      -2.095 -45.500  15.845  1.00  0.00     0.116 C 
BRANCH  38  39
HETATM   39  C24 UNL     1      -3.295 -46.043  15.136  1.00  0.00     0.032 C 
BRANCH  39  40
HETATM   40  C25 UNL     1      -3.071 -47.370  14.456  1.00  0.00    -0.013 C 
HETATM   41  C26 UNL     1      -1.588 -47.398  14.085  1.00  0.00     0.005 C 
HETATM   42  C27 UNL     1      -1.375 -46.818  12.702  1.00  0.00     0.000 C 
HETATM   43  C28 UNL     1      -1.837 -47.867  11.711  1.00  0.00     0.000 C 
HETATM   44  C29 UNL     1      -3.191 -48.338  12.182  1.00  0.00     0.000 C 
HETATM   45  C30 UNL     1      -3.855 -47.403  13.143  1.00  0.00     0.005 C 
ENDBRANCH  39  40
ENDBRANCH  38  39
BRANCH  38  46
HETATM   46  C31 UNL     1      -2.253 -45.383  17.326  1.00  0.00     0.177 C 
BRANCH  46  47
HETATM   47  O6  UNL     1      -3.676 -45.402  17.538  1.00  0.00    -0.390 OA
ATOM     48  H6  UNL     1      -3.839 -44.671  18.123  1.00  0.00     0.210 HD
ENDBRANCH  46  47
BRANCH  46  49
HETATM   49  C32 UNL     1      -1.800 -44.102  17.945  1.00  0.00     0.106 A 
HETATM   50  C33 UNL     1      -2.878 -43.034  18.220  1.00  0.00     0.051 C 
HETATM   51  C34 UNL     1      -0.785 -44.211  19.063  1.00  0.00     0.209 A 
HETATM   52  O7  UNL     1      -0.498 -43.644  17.808  1.00  0.00    -0.373 OA
ENDBRANCH  46  49
ENDBRANCH  38  46
ENDBRANCH  36  38
ENDBRANCH   1  34
TORSDOF 22
ENDMDL
MODEL 4
REMARK VINA RESULT: -7.297744344      2.202      5.403
REMARK  22 active torsions:
REMARK  status: ('A' for Active; 'I' for Inactive)
REMARK    1  A    between atoms: C2_2  and  C3_3 
REMARK    2  A    between atoms: C3_3  and  C5_5 
REMARK    3  A    between atoms: C5_5  and  C6_6 
REMARK    4  A    between atoms: C5_5  and  C9_12 
REMARK    5  A    between atoms: C6_6  and  O1_7 
REMARK    6  A    between atoms: C6_6  and  N1_9 
REMARK    7  A    between atoms: C9_12  and  C11_14 
REMARK    8  A    between atoms: C11_14  and  C12_15 
REMARK    9  A    between atoms: C12_15  and  O2_16 
REMARK   10  A    between atoms: C12_15  and  C13_18 
REMARK       I    between atoms: C13_18  and  N2_20 
REMARK   11  A    between atoms: N2_20  and  C14_22 
REMARK   12  A    between atoms: C14_22  and  C15_23 
REMARK   13  A    between atoms: C14_22  and  C22_34 
REMARK   14  A    between atoms: C15_23  and  C16_24 
REMARK   15  A    between atoms: C16_24  and  O4_25 
REMARK   16  A    between atoms: C16_24  and  C17_27 
REMARK       I    between atoms: C22_34  and  N4_36 
REMARK   17  A    between atoms: N4_36  and  C23_38 
REMARK   18  A    between atoms: C23_38  and  C24_39 
REMARK   19  A    between atoms: C23_38  and  C31_46 
REMARK   20  A    between atoms: C24_39  and  C25_40 
REMARK   21  A    between atoms: C31_46  and  O6_47 
REMARK   22  A    between atoms: C31_46  and  C32_49 
ROOT
HETATM    1  C14 UNL     1      -1.127 -42.304  15.468  1.00  0.00     0.179 C 
ENDROOT
BRANCH   1   2
HETATM    2  N2  UNL     1      -2.425 -41.696  15.618  1.00  0.00    -0.342 N 
HETATM    3  C13 UNL     1      -2.599 -40.279  15.893  1.00  0.00     0.275 C 
HETATM    4  O3  UNL     1      -1.522 -39.669  15.986  1.00  0.00    -0.265 OA
ATOM      5  H2  UNL     1      -3.254 -42.284  15.528  1.00  0.00     0.163 HD
BRANCH   3   6
HETATM    6  C12 UNL     1      -3.879 -39.690  16.033  1.00  0.00     0.134 C 
BRANCH   6   7
HETATM    7  C11 UNL     1      -4.435 -38.451  16.389  1.00  0.00     0.045 C 
BRANCH   7   8
HETATM    8  C9  UNL     1      -4.781 -37.808  17.447  1.00  0.00    -0.069 C 
HETATM    9  C10 UNL     1      -6.220 -37.810  17.913  1.00  0.00     0.044 C 
BRANCH   8  10
HETATM   10  C5  UNL     1      -3.841 -36.989  18.335  1.00  0.00     0.092 C 
BRANCH  10  11
HETATM   11  C3  UNL     1      -2.675 -36.488  17.668  1.00  0.00    -0.003 C 
HETATM   12  C4  UNL     1      -1.433 -36.365  18.552  1.00  0.00     0.011 C 
BRANCH  11  13
HETATM   13  C2  UNL     1      -2.943 -35.186  16.958  1.00  0.00     0.001 C 
HETATM   14  C1  UNL     1      -3.871 -34.285  17.751  1.00  0.00     0.005 C 
ENDBRANCH  11  13
ENDBRANCH  10  11
BRANCH  10  15
HETATM   15  C6  UNL     1      -3.735 -37.804  19.549  1.00  0.00     0.121 C 
BRANCH  15  16
HETATM   16  O1  UNL     1      -3.991 -37.120  20.628  1.00  0.00    -0.349 OA
ATOM     17  H1  UNL     1      -4.681 -37.514  21.149  1.00  0.00     0.219 HD
ENDBRANCH  15  16
BRANCH  15  18
HETATM   18  N1  UNL     1      -3.423 -39.120  19.769  1.00  0.00    -0.374 N 
HETATM   19  C7  UNL     1      -2.046 -39.593  19.540  1.00  0.00     0.150 C 
HETATM   20  C8  UNL     1      -4.337 -40.121  20.228  1.00  0.00     0.150 C 
ENDBRANCH  15  18
ENDBRANCH  10  15
ENDBRANCH   8  10
ENDBRANCH   7   8
ENDBRANCH   6   7
BRANCH   6  21
HETATM   21  O2  UNL     1      -4.832 -40.599  15.731  1.00  0.00    -0.356 OA
ATOM     22  H2  UNL     1      -4.531 -41.224  15.081  1.00  0.00     0.218 HD
ENDBRANCH   6  21
ENDBRANCH   3   6
ENDBRANCH   1   2
BRANCH   1  23
HETATM   23  C15 UNL     1      -0.989 -43.550  16.322  1.00  0.00     0.067 C 
BRANCH  23  24
HETATM   24  C16 UNL     1      -2.302 -44.166  16.684  1.00  0.00     0.129 C 
BRANCH  24  25
HETATM   25  O4  UNL     1      -3.194 -44.175  15.616  1.00  0.00    -0.395 OA
ATOM     26  H4  UNL     1      -3.759 -44.939  15.624  1.00  0.00     0.210 HD
ENDBRANCH  24  25
BRANCH  24  27
HETATM   27  C17 UNL     1      -2.081 -45.598  17.105  1.00  0.00     0.052 C 
HETATM   28  C18 UNL     1      -2.093 -45.792  18.565  1.00  0.00     0.062 C 
HETATM   29  N3  UNL     1      -1.571 -46.831  19.058  1.00  0.00    -0.402 N 
HETATM   30  C19 UNL     1      -0.940 -47.895  18.376  1.00  0.00     0.118 C 
ATOM     31  H3  UNL     1      -1.610 -46.911  20.074  1.00  0.00     0.158 HD
HETATM   32  C20 UNL     1      -0.880 -47.693  16.880  1.00  0.00     0.020 C 
HETATM   33  C21 UNL     1      -0.830 -46.197  16.543  1.00  0.00     0.014 C 
ENDBRANCH  24  27
ENDBRANCH  23  24
ENDBRANCH   1  23
BRANCH   1  34
HETATM   34  C22 UNL     1      -0.824 -42.632  14.027  1.00  0.00     0.240 C 
HETATM   35  O5  UNL     1      -1.310 -41.822  13.203  1.00  0.00    -0.271 OA
HETATM   36  N4  UNL     1      -0.058 -43.769  13.776  1.00  0.00    -0.352 N 
ATOM     37  H4  UNL     1       0.222 -44.296  14.603  1.00  0.00     0.163 HD
BRANCH  36  38
HETATM   38  C23 UNL     1       0.397 -44.309  12.521  1.00  0.00     0.116 C 
BRANCH  38  39
HETATM   39  C24 UNL     1      -0.485 -45.404  12.011  1.00  0.00     0.032 C 
BRANCH  39  40
HETATM   40  C25 UNL     1      -1.388 -46.016  13.052  1.00  0.00    -0.013 C 
HETATM   41  C26 UNL     1      -1.244 -47.530  12.882  1.00  0.00     0.005 C 
HETATM   42  C27 UNL     1      -2.268 -48.054  11.896  1.00  0.00     0.000 C 
HETATM   43  C28 UNL     1      -3.601 -48.070  12.618  1.00  0.00     0.000 C 
HETATM   44  C29 UNL     1      -3.747 -46.725  13.284  1.00  0.00     0.000 C 
HETATM   45  C30 UNL     1      -2.842 -45.672  12.726  1.00  0.00     0.005 C 
ENDBRANCH  39  40
ENDBRANCH  38  39
BRANCH  38  46
HETATM   46  C31 UNL     1       1.834 -44.692  12.667  1.00  0.00     0.177 C 
BRANCH  46  47
HETATM   47  O6  UNL     1       1.989 -45.836  11.808  1.00  0.00    -0.390 OA
ATOM     48  H6  UNL     1       2.084 -46.569  12.405  1.00  0.00     0.210 HD
ENDBRANCH  46  47
BRANCH  46  49
HETATM   49  C32 UNL     1       2.261 -45.174  14.013  1.00  0.00     0.106 A 
HETATM   50  C33 UNL     1       2.066 -46.674  14.318  1.00  0.00     0.051 C 
HETATM   51  C34 UNL     1       3.575 -44.637  14.541  1.00  0.00     0.209 A 
HETATM   52  O7  UNL     1       2.325 -44.326  15.109  1.00  0.00    -0.373 OA
ENDBRANCH  46  49
ENDBRANCH  38  46
ENDBRANCH  36  38
ENDBRANCH   1  34
TORSDOF 22
ENDMDL
MODEL 5
REMARK VINA RESULT: -7.185626243      2.665      6.663
REMARK  22 active torsions:
REMARK  status: ('A' for Active; 'I' for Inactive)
REMARK    1  A    between atoms: C2_2  and  C3_3 
REMARK    2  A    between atoms: C3_3  and  C5_5 
REMARK    3  A    between atoms: C5_5  and  C6_6 
REMARK    4  A    between atoms: C5_5  and  C9_12 
REMARK    5  A    between atoms: C6_6  and  O1_7 
REMARK    6  A    between atoms: C6_6  and  N1_9 
REMARK    7  A    between atoms: C9_12  and  C11_14 
REMARK    8  A    between atoms: C11_14  and  C12_15 
REMARK    9  A    between atoms: C12_15  and  O2_16 
REMARK   10  A    between atoms: C12_15  and  C13_18 
REMARK       I    between atoms: C13_18  and  N2_20 
REMARK   11  A    between atoms: N2_20  and  C14_22 
REMARK   12  A    between atoms: C14_22  and  C15_23 
REMARK   13  A    between atoms: C14_22  and  C22_34 
REMARK   14  A    between atoms: C15_23  and  C16_24 
REMARK   15  A    between atoms: C16_24  and  O4_25 
REMARK   16  A    between atoms: C16_24  and  C17_27 
REMARK       I    between atoms: C22_34  and  N4_36 
REMARK   17  A    between atoms: N4_36  and  C23_38 
REMARK   18  A    between atoms: C23_38  and  C24_39 
REMARK   19  A    between atoms: C23_38  and  C31_46 
REMARK   20  A    between atoms: C24_39  and  C25_40 
REMARK   21  A    between atoms: C31_46  and  O6_47 
REMARK   22  A    between atoms: C31_46  and  C32_49 
ROOT
HETATM    1  C14 UNL     1      -1.008 -42.951  14.531  1.00  0.00     0.179 C 
ENDROOT
BRANCH   1   2
HETATM    2  N2  UNL     1      -1.520 -41.604  14.536  1.00  0.00    -0.342 N 
HETATM    3  C13 UNL     1      -2.886 -41.284  14.153  1.00  0.00     0.275 C 
HETATM    4  O3  UNL     1      -3.542 -42.285  13.824  1.00  0.00    -0.265 OA
ATOM      5  H2  UNL     1      -0.900 -40.845  14.819  1.00  0.00     0.163 HD
BRANCH   3   6
HETATM    6  C12 UNL     1      -3.382 -39.958  14.166  1.00  0.00     0.134 C 
BRANCH   6   7
HETATM    7  C11 UNL     1      -3.538 -38.901  15.077  1.00  0.00     0.045 C 
BRANCH   7   8
HETATM    8  C9  UNL     1      -3.715 -38.721  16.337  1.00  0.00    -0.069 C 
HETATM    9  C10 UNL     1      -4.969 -39.224  17.018  1.00  0.00     0.044 C 
BRANCH   8  10
HETATM   10  C5  UNL     1      -2.741 -38.007  17.277  1.00  0.00     0.092 C 
BRANCH  10  11
HETATM   11  C3  UNL     1      -1.978 -36.959  16.663  1.00  0.00    -0.003 C 
HETATM   12  C4  UNL     1      -0.555 -36.802  17.199  1.00  0.00     0.011 C 
BRANCH  11  13
HETATM   13  C2  UNL     1      -2.700 -35.636  16.700  1.00  0.00     0.001 C 
HETATM   14  C1  UNL     1      -3.484 -35.451  17.984  1.00  0.00     0.005 C 
ENDBRANCH  11  13
ENDBRANCH  10  11
BRANCH  10  15
HETATM   15  C6  UNL     1      -2.087 -39.113  17.983  1.00  0.00     0.121 C 
BRANCH  15  16
HETATM   16  O1  UNL     1      -1.550 -39.974  17.165  1.00  0.00    -0.349 OA
ATOM     17  H1  UNL     1      -0.773 -40.381  17.529  1.00  0.00     0.219 HD
ENDBRANCH  15  16
BRANCH  15  18
HETATM   18  N1  UNL     1      -1.933 -39.415  19.311  1.00  0.00    -0.374 N 
HETATM   19  C7  UNL     1      -1.484 -40.762  19.706  1.00  0.00     0.150 C 
HETATM   20  C8  UNL     1      -2.164 -38.513  20.396  1.00  0.00     0.150 C 
ENDBRANCH  15  18
ENDBRANCH  10  15
ENDBRANCH   8  10
ENDBRANCH   7   8
ENDBRANCH   6   7
BRANCH   6  21
HETATM   21  O2  UNL     1      -3.832 -39.630  12.935  1.00  0.00    -0.356 OA
ATOM     22  H2  UNL     1      -4.716 -39.946  12.786  1.00  0.00     0.218 HD
ENDBRANCH   6  21
ENDBRANCH   3   6
ENDBRANCH   1   2
BRANCH   1  23
HETATM   23  C15 UNL     1       0.275 -43.060  13.730  1.00  0.00     0.067 C 
BRANCH  23  24
HETATM   24  C16 UNL     1       0.043 -43.251  12.266  1.00  0.00     0.129 C 
BRANCH  24  25
HETATM   25  O4  UNL     1       0.875 -42.448  11.490  1.00  0.00    -0.395 OA
ATOM     26  H4  UNL     1       0.464 -41.626  11.253  1.00  0.00     0.210 HD
ENDBRANCH  24  25
BRANCH  24  27
HETATM   27  C17 UNL     1       0.326 -44.687  11.900  1.00  0.00     0.052 C 
HETATM   28  C18 UNL     1      -0.840 -45.574  12.051  1.00  0.00     0.062 C 
HETATM   29  N3  UNL     1      -0.664 -46.821  12.136  1.00  0.00    -0.402 N 
HETATM   30  C19 UNL     1       0.556 -47.532  12.106  1.00  0.00     0.118 C 
ATOM     31  H3  UNL     1      -1.508 -47.386  12.238  1.00  0.00     0.158 HD
HETATM   32  C20 UNL     1       1.767 -46.635  11.995  1.00  0.00     0.020 C 
HETATM   33  C21 UNL     1       1.485 -45.273  12.642  1.00  0.00     0.014 C 
ENDBRANCH  24  27
ENDBRANCH  23  24
ENDBRANCH   1  23
BRANCH   1  34
HETATM   34  C22 UNL     1      -0.786 -43.472  15.930  1.00  0.00     0.240 C 
HETATM   35  O5  UNL     1      -1.514 -42.935  16.799  1.00  0.00    -0.271 OA
HETATM   36  N4  UNL     1       0.176 -44.466  16.099  1.00  0.00    -0.352 N 
ATOM     37  H4  UNL     1       0.664 -44.747  15.248  1.00  0.00     0.163 HD
BRANCH  36  38
HETATM   38  C23 UNL     1       0.582 -45.155  17.296  1.00  0.00     0.116 C 
BRANCH  38  39
HETATM   39  C24 UNL     1       1.974 -45.693  17.207  1.00  0.00     0.032 C 
BRANCH  39  40
HETATM   40  C25 UNL     1       2.528 -45.768  15.807  1.00  0.00    -0.013 C 
HETATM   41  C26 UNL     1       2.939 -47.227  15.604  1.00  0.00     0.005 C 
HETATM   42  C27 UNL     1       4.378 -47.439  16.028  1.00  0.00     0.000 C 
HETATM   43  C28 UNL     1       5.246 -46.844  14.938  1.00  0.00     0.000 C 
HETATM   44  C29 UNL     1       4.692 -45.473  14.644  1.00  0.00     0.000 C 
HETATM   45  C30 UNL     1       3.808 -44.934  15.724  1.00  0.00     0.005 C 
ENDBRANCH  39  40
ENDBRANCH  38  39
BRANCH  38  46
HETATM   46  C31 UNL     1      -0.455 -46.177  17.626  1.00  0.00     0.177 C 
BRANCH  46  47
HETATM   47  O6  UNL     1       0.070 -46.863  18.777  1.00  0.00    -0.390 OA
ATOM     48  H6  UNL     1      -0.655 -47.392  19.089  1.00  0.00     0.210 HD
ENDBRANCH  46  47
BRANCH  46  49
HETATM   49  C32 UNL     1      -0.673 -47.255  16.616  1.00  0.00     0.106 A 
HETATM   50  C33 UNL     1      -0.311 -48.695  17.035  1.00  0.00     0.051 C 
HETATM   51  C34 UNL     1      -1.955 -47.184  15.814  1.00  0.00     0.209 A 
HETATM   52  O7  UNL     1      -0.678 -46.992  15.254  1.00  0.00    -0.373 OA
ENDBRANCH  46  49
ENDBRANCH  38  46
ENDBRANCH  36  38
ENDBRANCH   1  34
TORSDOF 22
ENDMDL
