MODEL 1
REMARK VINA RESULT: -8.277596520      0.000      0.000
REMARK  18 active torsions:
REMARK  status: ('A' for Active; 'I' for Inactive)
REMARK    1  A    between atoms: C2_2  and  C3_3 
REMARK    2  A    between atoms: C3_3  and  C5_5 
REMARK    3  A    between atoms: C5_5  and  N1_6 
REMARK    4  A    between atoms: C5_5  and  C11_14 
REMARK       I    between atoms: N1_6  and  C6_7 
REMARK    5  A    between atoms: C6_7  and  O2_9 
REMARK    6  A    between atoms: O2_9  and  C7_10 
REMARK       I    between atoms: C11_14  and  N2_16 
REMARK    7  A    between atoms: N2_16  and  C12_18 
REMARK    8  A    between atoms: C12_18  and  C13_19 
REMARK    9  A    between atoms: C12_18  and  C30_47 
REMARK       I    between atoms: C13_19  and  N3_21 
REMARK   10  A    between atoms: N3_21  and  C14_23 
REMARK   11  A    between atoms: C14_23  and  C15_24 
REMARK   12  A    between atoms: C14_23  and  C22_31 
REMARK   13  A    between atoms: C15_24  and  C16_25 
REMARK   14  A    between atoms: C22_31  and  O5_32 
REMARK   15  A    between atoms: C22_31  and  C23_34 
REMARK       I    between atoms: C23_34  and  N4_36 
REMARK   16  A    between atoms: N4_36  and  C24_38 
REMARK   17  A    between atoms: C24_38  and  C25_39 
REMARK   18  A    between atoms: C25_39  and  C26_40 
ROOT
HETATM    1  C13 UNL     1      -2.593 -42.119  15.661  1.00  0.00     0.241 C 
HETATM    2  O4  UNL     1      -2.080 -42.435  16.790  1.00  0.00    -0.271 OA
HETATM    3  N3  UNL     1      -2.017 -42.774  14.471  1.00  0.00    -0.349 N 
ATOM      4  H3  UNL     1      -2.315 -42.555  13.520  1.00  0.00     0.163 HD
ENDROOT
BRANCH   3   5
HETATM    5  C14 UNL     1      -0.991 -43.758  14.767  1.00  0.00     0.147 C 
BRANCH   5   6
HETATM    6  C15 UNL     1      -1.357 -45.108  14.370  1.00  0.00     0.037 C 
BRANCH   6   7
HETATM    7  C16 UNL     1      -2.587 -45.251  13.512  1.00  0.00    -0.012 C 
HETATM    8  C17 UNL     1      -2.207 -45.554  12.083  1.00  0.00     0.005 C 
HETATM    9  C18 UNL     1      -1.970 -46.995  11.819  1.00  0.00     0.000 C 
HETATM   10  C19 UNL     1      -2.797 -47.927  12.695  1.00  0.00     0.000 C 
HETATM   11  C20 UNL     1      -4.078 -47.188  13.050  1.00  0.00     0.000 C 
HETATM   12  C21 UNL     1      -3.688 -46.064  14.030  1.00  0.00     0.005 C 
ENDBRANCH   6   7
ENDBRANCH   5   6
BRANCH   5  13
HETATM   13  C22 UNL     1       0.193 -43.287  14.024  1.00  0.00     0.134 C 
BRANCH  13  14
HETATM   14  O5  UNL     1       0.023 -42.701  12.862  1.00  0.00    -0.358 OA
ATOM     15  H5  UNL     1       0.785 -42.389  12.388  1.00  0.00     0.217 HD
ENDBRANCH  13  14
BRANCH  13  16
HETATM   16  C23 UNL     1       1.578 -43.350  14.420  1.00  0.00     0.272 C 
HETATM   17  O6  UNL     1       2.304 -42.398  14.090  1.00  0.00    -0.266 OA
HETATM   18  N4  UNL     1       2.042 -44.456  15.142  1.00  0.00    -0.355 N 
ATOM     19  H4  UNL     1       1.364 -45.196  15.326  1.00  0.00     0.162 HD
BRANCH  18  20
HETATM   20  C24 UNL     1       3.385 -44.663  15.657  1.00  0.00     0.129 C 
BRANCH  20  21
HETATM   21  C25 UNL     1       4.238 -45.047  14.436  1.00  0.00     0.078 C 
BRANCH  21  22
HETATM   22  C26 UNL     1       4.354 -46.503  14.309  1.00  0.00     0.029 A 
HETATM   23  C27 UNL     1       3.452 -47.253  13.473  1.00  0.00     0.114 A 
HETATM   24  N5  UNL     1       3.805 -48.537  13.631  1.00  0.00    -0.360 N 
HETATM   25  C28 UNL     1       4.836 -48.626  14.489  1.00  0.00     0.182 A 
ATOM     26  H5  UNL     1       3.357 -49.329  13.168  1.00  0.00     0.166 HD
HETATM   27  N6  UNL     1       5.153 -47.377  14.900  1.00  0.00    -0.350 N 
HETATM   28  C29 UNL     1       6.164 -47.107  15.880  1.00  0.00     0.156 C 
ENDBRANCH  21  22
ENDBRANCH  20  21
ENDBRANCH  18  20
ENDBRANCH  13  16
ENDBRANCH   5  13
ENDBRANCH   3   5
BRANCH   1  29
HETATM   29  C12 UNL     1      -3.681 -41.185  15.566  1.00  0.00     0.180 C 
BRANCH  29  30
HETATM   30  N2  UNL     1      -3.875 -40.377  16.748  1.00  0.00    -0.345 N 
HETATM   31  C11 UNL     1      -4.983 -40.111  17.516  1.00  0.00     0.254 C 
HETATM   32  O3  UNL     1      -6.110 -40.532  17.353  1.00  0.00    -0.270 OA
ATOM     33  H2  UNL     1      -3.026 -39.915  17.076  1.00  0.00     0.163 HD
BRANCH  31  34
HETATM   34  C5  UNL     1      -4.798 -39.167  18.743  1.00  0.00     0.264 C 
BRANCH  34  35
HETATM   35  C3  UNL     1      -3.644 -39.926  19.529  1.00  0.00     0.026 C 
HETATM   36  C4  UNL     1      -3.374 -38.965  20.757  1.00  0.00     0.014 C 
BRANCH  35  37
HETATM   37  C2  UNL     1      -4.095 -41.216  20.166  1.00  0.00     0.003 C 
HETATM   38  C1  UNL     1      -4.188 -40.946  21.694  1.00  0.00     0.005 C 
ENDBRANCH  35  37
ENDBRANCH  34  35
BRANCH  34  39
HETATM   39  N1  UNL     1      -4.392 -37.954  18.468  1.00  0.00    -0.375 NA
HETATM   40  C6  UNL     1      -4.040 -36.604  18.131  1.00  0.00     0.436 C 
HETATM   41  O1  UNL     1      -4.583 -35.707  17.657  1.00  0.00    -0.221 OA
BRANCH  40  42
HETATM   42  O2  UNL     1      -2.662 -36.415  18.511  1.00  0.00    -0.283 OA
BRANCH  42  43
HETATM   43  C7  UNL     1      -1.516 -36.580  17.817  1.00  0.00     0.062 C 
HETATM   44  C8  UNL     1      -1.587 -36.038  16.409  1.00  0.00     0.046 C 
HETATM   45  C9  UNL     1      -0.485 -35.642  18.546  1.00  0.00     0.046 C 
HETATM   46  C10 UNL     1      -0.944 -37.960  17.780  1.00  0.00     0.046 C 
ENDBRANCH  42  43
ENDBRANCH  40  42
ENDBRANCH  34  39
ENDBRANCH  31  34
ENDBRANCH  29  30
BRANCH  29  47
HETATM   47  C30 UNL     1      -3.368 -40.145  14.424  1.00  0.00     0.009 C 
HETATM   48  C31 UNL     1      -3.262 -38.782  15.052  1.00  0.00     0.012 C 
HETATM   49  C32 UNL     1      -4.378 -40.257  13.359  1.00  0.00     0.012 C 
ENDBRANCH  29  47
ENDBRANCH   1  29
TORSDOF 18
ENDMDL
MODEL 2
REMARK VINA RESULT: -8.229338997      1.339      1.845
REMARK  18 active torsions:
REMARK  status: ('A' for Active; 'I' for Inactive)
REMARK    1  A    between atoms: C2_2  and  C3_3 
REMARK    2  A    between atoms: C3_3  and  C5_5 
REMARK    3  A    between atoms: C5_5  and  N1_6 
REMARK    4  A    between atoms: C5_5  and  C11_14 
REMARK       I    between atoms: N1_6  and  C6_7 
REMARK    5  A    between atoms: C6_7  and  O2_9 
REMARK    6  A    between atoms: O2_9  and  C7_10 
REMARK       I    between atoms: C11_14  and  N2_16 
REMARK    7  A    between atoms: N2_16  and  C12_18 
REMARK    8  A    between atoms: C12_18  and  C13_19 
REMARK    9  A    between atoms: C12_18  and  C30_47 
REMARK       I    between atoms: C13_19  and  N3_21 
REMARK   10  A    between atoms: N3_21  and  C14_23 
REMARK   11  A    between atoms: C14_23  and  C15_24 
REMARK   12  A    between atoms: C14_23  and  C22_31 
REMARK   13  A    between atoms: C15_24  and  C16_25 
REMARK   14  A    between atoms: C22_31  and  O5_32 
REMARK   15  A    between atoms: C22_31  and  C23_34 
REMARK       I    between atoms: C23_34  and  N4_36 
REMARK   16  A    between atoms: N4_36  and  C24_38 
REMARK   17  A    between atoms: C24_38  and  C25_39 
REMARK   18  A    between atoms: C25_39  and  C26_40 
ROOT
HETATM    1  C13 UNL     1      -2.810 -42.443  14.957  1.00  0.00     0.241 C 
HETATM    2  O4  UNL     1      -2.835 -43.508  15.665  1.00  0.00    -0.271 OA
HETATM    3  N3  UNL     1      -1.915 -42.453  13.784  1.00  0.00    -0.349 N 
ATOM      4  H3  UNL     1      -1.779 -41.639  13.184  1.00  0.00     0.163 HD
ENDROOT
BRANCH   3   5
HETATM    5  C14 UNL     1      -1.243 -43.720  13.555  1.00  0.00     0.147 C 
BRANCH   5   6
HETATM    6  C15 UNL     1      -1.986 -44.614  12.681  1.00  0.00     0.037 C 
BRANCH   6   7
HETATM    7  C16 UNL     1      -1.753 -46.091  12.868  1.00  0.00    -0.012 C 
HETATM    8  C17 UNL     1      -2.160 -46.523  14.255  1.00  0.00     0.005 C 
HETATM    9  C18 UNL     1      -3.607 -46.830  14.386  1.00  0.00     0.000 C 
HETATM   10  C19 UNL     1      -4.243 -47.361  13.109  1.00  0.00     0.000 C 
HETATM   11  C20 UNL     1      -3.151 -48.077  12.329  1.00  0.00     0.000 C 
HETATM   12  C21 UNL     1      -2.194 -46.990  11.801  1.00  0.00     0.005 C 
ENDBRANCH   6   7
ENDBRANCH   5   6
BRANCH   5  13
HETATM   13  C22 UNL     1       0.053 -43.346  12.959  1.00  0.00     0.134 C 
BRANCH  13  14
HETATM   14  O5  UNL     1       0.115 -43.113  11.669  1.00  0.00    -0.358 OA
ATOM     15  H5  UNL     1       0.201 -43.847  11.073  1.00  0.00     0.217 HD
ENDBRANCH  13  14
BRANCH  13  16
HETATM   16  C23 UNL     1       1.319 -43.160  13.623  1.00  0.00     0.272 C 
HETATM   17  O6  UNL     1       1.605 -42.005  13.978  1.00  0.00    -0.266 OA
HETATM   18  N4  UNL     1       2.159 -44.259  13.833  1.00  0.00    -0.355 N 
ATOM     19  H4  UNL     1       1.837 -45.155  13.466  1.00  0.00     0.162 HD
BRANCH  18  20
HETATM   20  C24 UNL     1       3.441 -44.262  14.519  1.00  0.00     0.129 C 
BRANCH  20  21
HETATM   21  C25 UNL     1       3.313 -45.325  15.623  1.00  0.00     0.078 C 
BRANCH  21  22
HETATM   22  C26 UNL     1       3.247 -46.674  15.053  1.00  0.00     0.029 A 
HETATM   23  C27 UNL     1       4.273 -47.161  14.167  1.00  0.00     0.114 A 
HETATM   24  N5  UNL     1       3.874 -48.388  13.800  1.00  0.00    -0.360 N 
HETATM   25  C28 UNL     1       2.699 -48.681  14.385  1.00  0.00     0.182 A 
ATOM     26  H5  UNL     1       4.387 -49.007  13.171  1.00  0.00     0.166 HD
HETATM   27  N6  UNL     1       2.327 -47.621  15.140  1.00  0.00    -0.350 N 
HETATM   28  C29 UNL     1       1.082 -47.563  15.847  1.00  0.00     0.156 C 
ENDBRANCH  21  22
ENDBRANCH  20  21
ENDBRANCH  18  20
ENDBRANCH  13  16
ENDBRANCH   5  13
ENDBRANCH   3   5
BRANCH   1  29
HETATM   29  C12 UNL     1      -3.623 -41.304  15.284  1.00  0.00     0.180 C 
BRANCH  29  30
HETATM   30  N2  UNL     1      -3.356 -40.739  16.588  1.00  0.00    -0.345 N 
HETATM   31  C11 UNL     1      -4.144 -40.566  17.700  1.00  0.00     0.254 C 
HETATM   32  O3  UNL     1      -5.310 -40.876  17.832  1.00  0.00    -0.270 OA
ATOM     33  H2  UNL     1      -2.399 -40.405  16.705  1.00  0.00     0.163 HD
BRANCH  31  34
HETATM   34  C5  UNL     1      -3.489 -39.901  18.950  1.00  0.00     0.264 C 
BRANCH  34  35
HETATM   35  C3  UNL     1      -2.045 -40.565  18.915  1.00  0.00     0.026 C 
HETATM   36  C4  UNL     1      -1.345 -39.934  20.187  1.00  0.00     0.014 C 
BRANCH  35  37
HETATM   37  C2  UNL     1      -2.055 -42.046  19.200  1.00  0.00     0.003 C 
HETATM   38  C1  UNL     1      -0.733 -42.360  19.954  1.00  0.00     0.005 C 
ENDBRANCH  35  37
ENDBRANCH  34  35
BRANCH  34  39
HETATM   39  N1  UNL     1      -3.355 -38.600  18.893  1.00  0.00    -0.375 NA
HETATM   40  C6  UNL     1      -3.310 -37.167  18.831  1.00  0.00     0.436 C 
HETATM   41  O1  UNL     1      -4.089 -36.321  18.782  1.00  0.00    -0.221 OA
BRANCH  40  42
HETATM   42  O2  UNL     1      -1.919 -36.784  18.835  1.00  0.00    -0.283 OA
BRANCH  42  43
HETATM   43  C7  UNL     1      -1.121 -36.322  17.850  1.00  0.00     0.062 C 
HETATM   44  C8  UNL     1      -0.194 -35.218  18.300  1.00  0.00     0.046 C 
HETATM   45  C9  UNL     1      -0.164 -37.529  17.531  1.00  0.00     0.046 C 
HETATM   46  C10 UNL     1      -1.790 -35.910  16.578  1.00  0.00     0.046 C 
ENDBRANCH  42  43
ENDBRANCH  40  42
ENDBRANCH  34  39
ENDBRANCH  31  34
ENDBRANCH  29  30
BRANCH  29  47
HETATM   47  C30 UNL     1      -3.304 -40.136  14.276  1.00  0.00     0.009 C 
HETATM   48  C31 UNL     1      -3.079 -38.880  15.074  1.00  0.00     0.012 C 
HETATM   49  C32 UNL     1      -4.373 -40.044  13.268  1.00  0.00     0.012 C 
ENDBRANCH  29  47
ENDBRANCH   1  29
TORSDOF 18
ENDMDL
MODEL 3
REMARK VINA RESULT: -8.227639214      0.979      1.580
REMARK  18 active torsions:
REMARK  status: ('A' for Active; 'I' for Inactive)
REMARK    1  A    between atoms: C2_2  and  C3_3 
REMARK    2  A    between atoms: C3_3  and  C5_5 
REMARK    3  A    between atoms: C5_5  and  N1_6 
REMARK    4  A    between atoms: C5_5  and  C11_14 
REMARK       I    between atoms: N1_6  and  C6_7 
REMARK    5  A    between atoms: C6_7  and  O2_9 
REMARK    6  A    between atoms: O2_9  and  C7_10 
REMARK       I    between atoms: C11_14  and  N2_16 
REMARK    7  A    between atoms: N2_16  and  C12_18 
REMARK    8  A    between atoms: C12_18  and  C13_19 
REMARK    9  A    between atoms: C12_18  and  C30_47 
REMARK       I    between atoms: C13_19  and  N3_21 
REMARK   10  A    between atoms: N3_21  and  C14_23 
REMARK   11  A    between atoms: C14_23  and  C15_24 
REMARK   12  A    between atoms: C14_23  and  C22_31 
REMARK   13  A    between atoms: C15_24  and  C16_25 
REMARK   14  A    between atoms: C22_31  and  O5_32 
REMARK   15  A    between atoms: C22_31  and  C23_34 
REMARK       I    between atoms: C23_34  and  N4_36 
REMARK   16  A    between atoms: N4_36  and  C24_38 
REMARK   17  A    between atoms: C24_38  and  C25_39 
REMARK   18  A    between atoms: C25_39  and  C26_40 
ROOT
HETATM    1  C13 UNL     1      -2.798 -42.169  15.509  1.00  0.00     0.241 C 
HETATM    2  O4  UNL     1      -2.728 -43.015  16.466  1.00  0.00    -0.271 OA
HETATM    3  N3  UNL     1      -1.835 -42.345  14.404  1.00  0.00    -0.349 N 
ATOM      4  H3  UNL     1      -1.769 -41.697  13.620  1.00  0.00     0.163 HD
ENDROOT
BRANCH   3   5
HETATM    5  C14 UNL     1      -0.989 -43.518  14.529  1.00  0.00     0.147 C 
BRANCH   5   6
HETATM    6  C15 UNL     1      -1.502 -44.676  13.814  1.00  0.00     0.037 C 
BRANCH   6   7
HETATM    7  C16 UNL     1      -1.740 -45.923  14.625  1.00  0.00    -0.012 C 
HETATM    8  C17 UNL     1      -3.210 -46.096  14.919  1.00  0.00     0.005 C 
HETATM    9  C18 UNL     1      -3.962 -46.772  13.832  1.00  0.00     0.000 C 
HETATM   10  C19 UNL     1      -3.131 -47.769  13.035  1.00  0.00     0.000 C 
HETATM   11  C20 UNL     1      -2.054 -48.301  13.967  1.00  0.00     0.000 C 
HETATM   12  C21 UNL     1      -1.059 -47.148  14.205  1.00  0.00     0.005 C 
ENDBRANCH   6   7
ENDBRANCH   5   6
BRANCH   5  13
HETATM   13  C22 UNL     1       0.314 -43.091  13.987  1.00  0.00     0.134 C 
BRANCH  13  14
HETATM   14  O5  UNL     1       0.732 -41.870  14.225  1.00  0.00    -0.358 OA
ATOM     15  H5  UNL     1       1.362 -41.476  13.634  1.00  0.00     0.217 HD
ENDBRANCH  13  14
BRANCH  13  16
HETATM   16  C23 UNL     1       1.258 -43.865  13.220  1.00  0.00     0.272 C 
HETATM   17  O6  UNL     1       1.454 -43.514  12.045  1.00  0.00    -0.266 OA
HETATM   18  N4  UNL     1       1.901 -44.957  13.814  1.00  0.00    -0.355 N 
ATOM     19  H4  UNL     1       1.635 -45.175  14.774  1.00  0.00     0.162 HD
BRANCH  18  20
HETATM   20  C24 UNL     1       2.907 -45.814  13.208  1.00  0.00     0.129 C 
BRANCH  20  21
HETATM   21  C25 UNL     1       3.177 -46.922  14.240  1.00  0.00     0.078 C 
BRANCH  21  22
HETATM   22  C26 UNL     1       4.588 -46.939  14.639  1.00  0.00     0.029 A 
HETATM   23  C27 UNL     1       5.296 -45.719  14.933  1.00  0.00     0.114 A 
HETATM   24  N5  UNL     1       6.554 -46.094  15.206  1.00  0.00    -0.360 N 
HETATM   25  C28 UNL     1       6.667 -47.429  15.100  1.00  0.00     0.182 A 
ATOM     26  H5  UNL     1       7.313 -45.459  15.457  1.00  0.00     0.166 HD
HETATM   27  N6  UNL     1       5.460 -47.929  14.745  1.00  0.00    -0.350 N 
HETATM   28  C29 UNL     1       5.237 -49.318  14.473  1.00  0.00     0.156 C 
ENDBRANCH  21  22
ENDBRANCH  20  21
ENDBRANCH  18  20
ENDBRANCH  13  16
ENDBRANCH   5  13
ENDBRANCH   3   5
BRANCH   1  29
HETATM   29  C12 UNL     1      -3.774 -41.114  15.508  1.00  0.00     0.180 C 
BRANCH  29  30
HETATM   30  N2  UNL     1      -3.821 -40.350  16.734  1.00  0.00    -0.345 N 
HETATM   31  C11 UNL     1      -4.774 -40.237  17.718  1.00  0.00     0.254 C 
HETATM   32  O3  UNL     1      -5.849 -40.798  17.769  1.00  0.00    -0.270 OA
ATOM     33  H2  UNL     1      -2.988 -39.785  16.901  1.00  0.00     0.163 HD
BRANCH  31  34
HETATM   34  C5  UNL     1      -4.462 -39.289  18.917  1.00  0.00     0.264 C 
BRANCH  34  35
HETATM   35  C3  UNL     1      -3.168 -39.990  19.518  1.00  0.00     0.026 C 
HETATM   36  C4  UNL     1      -2.843 -39.088  20.777  1.00  0.00     0.014 C 
BRANCH  35  37
HETATM   37  C2  UNL     1      -3.438 -41.353  20.105  1.00  0.00     0.003 C 
HETATM   38  C1  UNL     1      -2.149 -42.193  19.881  1.00  0.00     0.005 C 
ENDBRANCH  35  37
ENDBRANCH  34  35
BRANCH  34  39
HETATM   39  N1  UNL     1      -4.164 -38.056  18.599  1.00  0.00    -0.375 NA
HETATM   40  C6  UNL     1      -3.932 -36.691  18.221  1.00  0.00     0.436 C 
HETATM   41  O1  UNL     1      -4.565 -35.847  17.759  1.00  0.00    -0.221 OA
BRANCH  40  42
HETATM   42  O2  UNL     1      -2.555 -36.391  18.527  1.00  0.00    -0.283 OA
BRANCH  42  43
HETATM   43  C7  UNL     1      -1.435 -36.489  17.781  1.00  0.00     0.062 C 
HETATM   44  C8  UNL     1      -1.592 -35.921  16.390  1.00  0.00     0.046 C 
HETATM   45  C9  UNL     1      -0.415 -35.520  18.486  1.00  0.00     0.046 C 
HETATM   46  C10 UNL     1      -0.805 -37.841  17.688  1.00  0.00     0.046 C 
ENDBRANCH  42  43
ENDBRANCH  40  42
ENDBRANCH  34  39
ENDBRANCH  31  34
ENDBRANCH  29  30
BRANCH  29  47
HETATM   47  C30 UNL     1      -3.392 -40.061  14.401  1.00  0.00     0.009 C 
HETATM   48  C31 UNL     1      -3.293 -38.710  15.058  1.00  0.00     0.012 C 
HETATM   49  C32 UNL     1      -4.355 -40.137  13.289  1.00  0.00     0.012 C 
ENDBRANCH  29  47
ENDBRANCH   1  29
TORSDOF 18
ENDMDL
MODEL 4
REMARK VINA RESULT: -8.186740937      2.507      9.957
REMARK  18 active torsions:
REMARK  status: ('A' for Active; 'I' for Inactive)
REMARK    1  A    between atoms: C2_2  and  C3_3 
REMARK    2  A    between atoms: C3_3  and  C5_5 
REMARK    3  A    between atoms: C5_5  and  N1_6 
REMARK    4  A    between atoms: C5_5  and  C11_14 
REMARK       I    between atoms: N1_6  and  C6_7 
REMARK    5  A    between atoms: C6_7  and  O2_9 
REMARK    6  A    between atoms: O2_9  and  C7_10 
REMARK       I    between atoms: C11_14  and  N2_16 
REMARK    7  A    between atoms: N2_16  and  C12_18 
REMARK    8  A    between atoms: C12_18  and  C13_19 
REMARK    9  A    between atoms: C12_18  and  C30_47 
REMARK       I    between atoms: C13_19  and  N3_21 
REMARK   10  A    between atoms: N3_21  and  C14_23 
REMARK   11  A    between atoms: C14_23  and  C15_24 
REMARK   12  A    between atoms: C14_23  and  C22_31 
REMARK   13  A    between atoms: C15_24  and  C16_25 
REMARK   14  A    between atoms: C22_31  and  O5_32 
REMARK   15  A    between atoms: C22_31  and  C23_34 
REMARK       I    between atoms: C23_34  and  N4_36 
REMARK   16  A    between atoms: N4_36  and  C24_38 
REMARK   17  A    between atoms: C24_38  and  C25_39 
REMARK   18  A    between atoms: C25_39  and  C26_40 
ROOT
HETATM    1  C13 UNL     1      -1.935 -43.765  16.914  1.00  0.00     0.241 C 
HETATM    2  O4  UNL     1      -3.190 -43.824  17.150  1.00  0.00    -0.271 OA
HETATM    3  N3  UNL     1      -1.311 -42.431  16.997  1.00  0.00    -0.349 N 
ATOM      4  H3  UNL     1      -0.330 -42.264  16.777  1.00  0.00     0.163 HD
ENDROOT
BRANCH   3   5
HETATM    5  C14 UNL     1      -2.214 -41.374  17.420  1.00  0.00     0.147 C 
BRANCH   5   6
HETATM    6  C15 UNL     1      -1.954 -40.903  18.771  1.00  0.00     0.037 C 
BRANCH   6   7
HETATM    7  C16 UNL     1      -2.992 -41.232  19.813  1.00  0.00    -0.012 C 
HETATM    8  C17 UNL     1      -2.494 -42.315  20.738  1.00  0.00     0.005 C 
HETATM    9  C18 UNL     1      -1.663 -41.810  21.859  1.00  0.00     0.000 C 
HETATM   10  C19 UNL     1      -2.032 -40.406  22.317  1.00  0.00     0.000 C 
HETATM   11  C20 UNL     1      -3.511 -40.213  22.022  1.00  0.00     0.000 C 
HETATM   12  C21 UNL     1      -3.653 -40.116  20.490  1.00  0.00     0.005 C 
ENDBRANCH   6   7
ENDBRANCH   5   6
BRANCH   5  13
HETATM   13  C22 UNL     1      -2.008 -40.299  16.432  1.00  0.00     0.134 C 
BRANCH  13  14
HETATM   14  O5  UNL     1      -1.099 -40.458  15.499  1.00  0.00    -0.358 OA
ATOM     15  H5  UNL     1      -0.983 -39.776  14.848  1.00  0.00     0.217 HD
ENDBRANCH  13  14
BRANCH  13  16
HETATM   16  C23 UNL     1      -2.716 -39.048  16.314  1.00  0.00     0.272 C 
HETATM   17  O6  UNL     1      -2.363 -38.284  15.402  1.00  0.00    -0.266 OA
HETATM   18  N4  UNL     1      -3.748 -38.750  17.211  1.00  0.00    -0.355 N 
ATOM     19  H4  UNL     1      -3.927 -39.438  17.943  1.00  0.00     0.162 HD
BRANCH  18  20
HETATM   20  C24 UNL     1      -4.590 -37.566  17.212  1.00  0.00     0.129 C 
BRANCH  20  21
HETATM   21  C25 UNL     1      -4.126 -36.732  18.418  1.00  0.00     0.078 C 
BRANCH  21  22
HETATM   22  C26 UNL     1      -2.832 -36.096  18.153  1.00  0.00     0.029 A 
HETATM   23  C27 UNL     1      -2.708 -35.025  17.197  1.00  0.00     0.114 A 
HETATM   24  N5  UNL     1      -1.402 -34.722  17.168  1.00  0.00    -0.360 N 
HETATM   25  C28 UNL     1      -0.729 -35.516  18.019  1.00  0.00     0.182 A 
ATOM     26  H5  UNL     1      -0.982 -33.996  16.587  1.00  0.00     0.166 HD
HETATM   27  N6  UNL     1      -1.615 -36.354  18.606  1.00  0.00    -0.350 N 
HETATM   28  C29 UNL     1      -1.228 -37.390  19.518  1.00  0.00     0.156 C 
ENDBRANCH  21  22
ENDBRANCH  20  21
ENDBRANCH  18  20
ENDBRANCH  13  16
ENDBRANCH   5  13
ENDBRANCH   3   5
BRANCH   1  29
HETATM   29  C12 UNL     1      -1.174 -44.943  16.599  1.00  0.00     0.180 C 
BRANCH  29  30
HETATM   30  N2  UNL     1      -0.643 -44.965  15.254  1.00  0.00    -0.345 N 
HETATM   31  C11 UNL     1      -0.733 -44.076  14.210  1.00  0.00     0.254 C 
HETATM   32  O3  UNL     1      -1.314 -43.010  14.198  1.00  0.00    -0.270 OA
ATOM     33  H2  UNL     1      -0.098 -45.799  15.039  1.00  0.00     0.163 HD
BRANCH  31  34
HETATM   34  C5  UNL     1      -0.013 -44.455  12.879  1.00  0.00     0.264 C 
BRANCH  34  35
HETATM   35  C3  UNL     1       1.412 -44.895  13.430  1.00  0.00     0.026 C 
HETATM   36  C4  UNL     1       2.170 -45.333  12.111  1.00  0.00     0.014 C 
BRANCH  35  37
HETATM   37  C2  UNL     1       2.234 -43.747  13.960  1.00  0.00     0.003 C 
HETATM   38  C1  UNL     1       3.451 -44.378  14.694  1.00  0.00     0.005 C 
ENDBRANCH  35  37
ENDBRANCH  34  35
BRANCH  34  39
HETATM   39  N1  UNL     1      -0.536 -45.456  12.218  1.00  0.00    -0.375 NA
HETATM   40  C6  UNL     1      -1.017 -46.575  11.460  1.00  0.00     0.436 C 
HETATM   41  O1  UNL     1      -0.546 -47.354  10.755  1.00  0.00    -0.221 OA
BRANCH  40  42
HETATM   42  O2  UNL     1      -2.437 -46.672  11.695  1.00  0.00    -0.283 OA
BRANCH  42  43
HETATM   43  C7  UNL     1      -3.136 -47.243  12.698  1.00  0.00     0.062 C 
HETATM   44  C8  UNL     1      -2.260 -47.846  13.770  1.00  0.00     0.046 C 
HETATM   45  C9  UNL     1      -3.848 -46.033  13.410  1.00  0.00     0.046 C 
HETATM   46  C10 UNL     1      -4.184 -48.235  12.308  1.00  0.00     0.046 C 
ENDBRANCH  42  43
ENDBRANCH  40  42
ENDBRANCH  34  39
ENDBRANCH  31  34
ENDBRANCH  29  30
BRANCH  29  47
HETATM   47  C30 UNL     1       0.099 -44.998  17.526  1.00  0.00     0.009 C 
HETATM   48  C31 UNL     1       1.018 -46.063  16.993  1.00  0.00     0.012 C 
HETATM   49  C32 UNL     1      -0.314 -45.183  18.927  1.00  0.00     0.012 C 
ENDBRANCH  29  47
ENDBRANCH   1  29
TORSDOF 18
ENDMDL
MODEL 5
REMARK VINA RESULT: -8.175580881      1.773      2.548
REMARK  18 active torsions:
REMARK  status: ('A' for Active; 'I' for Inactive)
REMARK    1  A    between atoms: C2_2  and  C3_3 
REMARK    2  A    between atoms: C3_3  and  C5_5 
REMARK    3  A    between atoms: C5_5  and  N1_6 
REMARK    4  A    between atoms: C5_5  and  C11_14 
REMARK       I    between atoms: N1_6  and  C6_7 
REMARK    5  A    between atoms: C6_7  and  O2_9 
REMARK    6  A    between atoms: O2_9  and  C7_10 
REMARK       I    between atoms: C11_14  and  N2_16 
REMARK    7  A    between atoms: N2_16  and  C12_18 
REMARK    8  A    between atoms: C12_18  and  C13_19 
REMARK    9  A    between atoms: C12_18  and  C30_47 
REMARK       I    between atoms: C13_19  and  N3_21 
REMARK   10  A    between atoms: N3_21  and  C14_23 
REMARK   11  A    between atoms: C14_23  and  C15_24 
REMARK   12  A    between atoms: C14_23  and  C22_31 
REMARK   13  A    between atoms: C15_24  and  C16_25 
REMARK   14  A    between atoms: C22_31  and  O5_32 
REMARK   15  A    between atoms: C22_31  and  C23_34 
REMARK       I    between atoms: C23_34  and  N4_36 
REMARK   16  A    between atoms: N4_36  and  C24_38 
REMARK   17  A    between atoms: C24_38  and  C25_39 
REMARK   18  A    between atoms: C25_39  and  C26_40 
ROOT
HETATM    1  C13 UNL     1      -3.092 -42.825  15.181  1.00  0.00     0.241 C 
HETATM    2  O4  UNL     1      -2.721 -43.690  16.046  1.00  0.00    -0.271 OA
HETATM    3  N3  UNL     1      -3.050 -43.248  13.768  1.00  0.00    -0.349 N 
ATOM      4  H3  UNL     1      -3.274 -42.620  12.996  1.00  0.00     0.163 HD
ENDROOT
BRANCH   3   5
HETATM    5  C14 UNL     1      -2.664 -44.633  13.570  1.00  0.00     0.147 C 
BRANCH   5   6
HETATM    6  C15 UNL     1      -3.793 -45.515  13.319  1.00  0.00     0.037 C 
BRANCH   6   7
HETATM    7  C16 UNL     1      -3.702 -46.909  13.884  1.00  0.00    -0.012 C 
HETATM    8  C17 UNL     1      -3.658 -47.931  12.775  1.00  0.00     0.005 C 
HETATM    9  C18 UNL     1      -2.297 -48.164  12.230  1.00  0.00     0.000 C 
HETATM   10  C19 UNL     1      -1.182 -47.965  13.248  1.00  0.00     0.000 C 
HETATM   11  C20 UNL     1      -1.764 -48.284  14.617  1.00  0.00     0.000 C 
HETATM   12  C21 UNL     1      -2.743 -47.144  14.963  1.00  0.00     0.005 C 
ENDBRANCH   6   7
ENDBRANCH   5   6
BRANCH   5  13
HETATM   13  C22 UNL     1      -1.749 -44.597  12.413  1.00  0.00     0.134 C 
BRANCH  13  14
HETATM   14  O5  UNL     1      -2.200 -44.960  11.235  1.00  0.00    -0.358 OA
ATOM     15  H5  UNL     1      -2.524 -45.846  11.120  1.00  0.00     0.217 HD
ENDBRANCH  13  14
BRANCH  13  16
HETATM   16  C23 UNL     1      -0.373 -44.170  12.377  1.00  0.00     0.272 C 
HETATM   17  O6  UNL     1      -0.141 -42.985  12.667  1.00  0.00    -0.266 OA
HETATM   18  N4  UNL     1       0.626 -45.084  12.023  1.00  0.00    -0.355 N 
ATOM     19  H4  UNL     1       0.316 -46.022  11.769  1.00  0.00     0.162 HD
BRANCH  18  20
HETATM   20  C24 UNL     1       2.058 -44.840  11.978  1.00  0.00     0.129 C 
BRANCH  20  21
HETATM   21  C25 UNL     1       2.711 -46.130  12.504  1.00  0.00     0.078 C 
BRANCH  21  22
HETATM   22  C26 UNL     1       3.338 -45.909  13.811  1.00  0.00     0.029 A 
HETATM   23  C27 UNL     1       3.200 -44.653  14.502  1.00  0.00     0.114 A 
HETATM   24  N5  UNL     1       3.930 -44.779  15.620  1.00  0.00    -0.360 N 
HETATM   25  C28 UNL     1       4.497 -45.998  15.661  1.00  0.00     0.182 A 
ATOM     26  H5  UNL     1       4.039 -44.058  16.334  1.00  0.00     0.166 HD
HETATM   27  N6  UNL     1       4.132 -46.672  14.546  1.00  0.00    -0.350 N 
HETATM   28  C29 UNL     1       4.618 -47.982  14.228  1.00  0.00     0.156 C 
ENDBRANCH  21  22
ENDBRANCH  20  21
ENDBRANCH  18  20
ENDBRANCH  13  16
ENDBRANCH   5  13
ENDBRANCH   3   5
BRANCH   1  29
HETATM   29  C12 UNL     1      -3.538 -41.516  15.572  1.00  0.00     0.180 C 
BRANCH  29  30
HETATM   30  N2  UNL     1      -3.210 -41.159  16.933  1.00  0.00    -0.345 N 
HETATM   31  C11 UNL     1      -3.988 -40.849  18.022  1.00  0.00     0.254 C 
HETATM   32  O3  UNL     1      -5.201 -40.811  18.074  1.00  0.00    -0.270 OA
ATOM     33  H2  UNL     1      -2.207 -41.131  17.122  1.00  0.00     0.163 HD
BRANCH  31  34
HETATM   34  C5  UNL     1      -3.256 -40.505  19.356  1.00  0.00     0.264 C 
BRANCH  34  35
HETATM   35  C3  UNL     1      -1.745 -40.771  18.940  1.00  0.00     0.026 C 
HETATM   36  C4  UNL     1      -1.053 -39.383  19.256  1.00  0.00     0.014 C 
BRANCH  35  37
HETATM   37  C2  UNL     1      -1.034 -41.749  19.841  1.00  0.00     0.003 C 
HETATM   38  C1  UNL     1      -1.023 -43.112  19.093  1.00  0.00     0.005 C 
ENDBRANCH  35  37
ENDBRANCH  34  35
BRANCH  34  39
HETATM   39  N1  UNL     1      -3.370 -39.266  19.760  1.00  0.00    -0.375 NA
HETATM   40  C6  UNL     1      -3.533 -37.942  20.290  1.00  0.00     0.436 C 
HETATM   41  O1  UNL     1      -3.953 -37.492  21.263  1.00  0.00    -0.221 OA
BRANCH  40  42
HETATM   42  O2  UNL     1      -3.026 -37.022  19.302  1.00  0.00    -0.283 OA
BRANCH  42  43
HETATM   43  C7  UNL     1      -3.520 -36.639  18.105  1.00  0.00     0.062 C 
HETATM   44  C8  UNL     1      -4.931 -37.117  17.860  1.00  0.00     0.046 C 
HETATM   45  C9  UNL     1      -3.653 -35.075  18.226  1.00  0.00     0.046 C 
HETATM   46  C10 UNL     1      -2.685 -36.943  16.904  1.00  0.00     0.046 C 
ENDBRANCH  42  43
ENDBRANCH  40  42
ENDBRANCH  34  39
ENDBRANCH  31  34
ENDBRANCH  29  30
BRANCH  29  47
HETATM   47  C30 UNL     1      -2.801 -40.436  14.691  1.00  0.00     0.009 C 
HETATM   48  C31 UNL     1      -1.511 -40.078  15.378  1.00  0.00     0.012 C 
HETATM   49  C32 UNL     1      -3.703 -39.300  14.440  1.00  0.00     0.012 C 
ENDBRANCH  29  47
ENDBRANCH   1  29
TORSDOF 18
ENDMDL
