MODEL 1
REMARK VINA RESULT: -7.767564068      0.000      0.000
REMARK  17 active torsions:
REMARK  status: ('A' for Active; 'I' for Inactive)
REMARK    1  A    between atoms: C2_2  and  C3_3 
REMARK    2  A    between atoms: C5_5  and  C6_6 
REMARK    3  A    between atoms: C6_6  and  N1_7 
REMARK       I    between atoms: N1_7  and  C7_9 
REMARK    4  A    between atoms: N2_14  and  C11_15 
REMARK    5  A    between atoms: C11_15  and  C12_16 
REMARK    6  A    between atoms: C12_16  and  N3_17 
REMARK    7  A    between atoms: C12_16  and  C31_47 
REMARK       I    between atoms: N3_17  and  C13_19 
REMARK    8  A    between atoms: C13_19  and  C14_21 
REMARK    9  A    between atoms: C17_25  and  O4_26 
REMARK   10  A    between atoms: C19_28  and  C20_29 
REMARK       I    between atoms: C20_29  and  N4_31 
REMARK   11  A    between atoms: N4_31  and  C21_33 
REMARK   12  A    between atoms: C21_33  and  C22_34 
REMARK   13  A    between atoms: C21_33  and  C28_44 
REMARK   14  A    between atoms: C22_34  and  C23_36 
REMARK   15  A    between atoms: C23_36  and  C24_37 
REMARK   16  A    between atoms: C23_36  and  N5_40 
REMARK   17  A    between atoms: C24_37  and  C25_38 
ROOT
HETATM    1  C14 UNL     1      -1.401 -42.704  19.621  1.00  0.00     0.161 A 
HETATM    2  O3  UNL     1      -1.506 -43.499  20.707  1.00  0.00    -0.306 OA
HETATM    3  C15 UNL     1      -1.821 -42.783  21.750  1.00  0.00     0.084 A 
HETATM    4  C16 UNL     1      -2.040 -43.238  23.150  1.00  0.00     0.079 C 
HETATM    5  C17 UNL     1      -1.933 -41.460  21.344  1.00  0.00     0.116 A 
HETATM    6  C19 UNL     1      -1.657 -41.452  19.967  1.00  0.00     0.107 A 
ENDROOT
BRANCH   1   7
HETATM    7  C13 UNL     1      -1.038 -43.287  18.297  1.00  0.00     0.277 C 
HETATM    8  N3  UNL     1      -1.692 -42.799  17.169  1.00  0.00    -0.345 N 
ATOM      9  H3  UNL     1      -2.334 -42.022  17.327  1.00  0.00     0.163 HD
HETATM   10  O2  UNL     1      -0.186 -44.180  18.291  1.00  0.00    -0.265 OA
BRANCH   8  11
HETATM   11  C12 UNL     1      -1.575 -43.264  15.767  1.00  0.00     0.130 C 
BRANCH  11  12
HETATM   12  C11 UNL     1      -2.612 -44.338  15.617  1.00  0.00     0.084 C 
BRANCH  12  13
HETATM   13  N2  UNL     1      -2.415 -45.512  14.944  1.00  0.00    -0.383 N 
HETATM   14  C3  UNL     1      -1.508 -46.484  15.342  1.00  0.00     0.106 C 
HETATM   15  C4  UNL     1      -1.313 -47.694  14.510  1.00  0.00     0.035 C 
HETATM   16  C5  UNL     1      -2.269 -47.931  13.408  1.00  0.00     0.007 C 
HETATM   17  C9  UNL     1      -3.599 -47.315  13.706  1.00  0.00     0.026 C 
HETATM   18  C10 UNL     1      -3.419 -45.876  13.997  1.00  0.00     0.123 C 
BRANCH  14  19
HETATM   19  C2  UNL     1      -1.787 -46.990  16.739  1.00  0.00    -0.012 C 
HETATM   20  C1  UNL     1      -0.874 -47.689  17.366  1.00  0.00     0.009 C 
ENDBRANCH  14  19
BRANCH  16  21
HETATM   21  C6  UNL     1      -1.754 -47.599  12.030  1.00  0.00     0.127 C 
BRANCH  21  22
HETATM   22  N1  UNL     1      -0.372 -47.147  12.180  1.00  0.00    -0.361 N 
HETATM   23  C7  UNL     1      -0.013 -45.808  11.882  1.00  0.00     0.213 C 
HETATM   24  C8  UNL     1       1.406 -45.374  12.033  1.00  0.00     0.117 C 
HETATM   25  O1  UNL     1      -0.875 -44.987  11.492  1.00  0.00    -0.274 OA
ATOM     26  H1  UNL     1       0.341 -47.801  12.501  1.00  0.00     0.162 HD
ENDBRANCH  21  22
ENDBRANCH  16  21
ENDBRANCH  12  13
ENDBRANCH  11  12
BRANCH  11  27
HETATM   27  C31 UNL     1      -1.666 -42.117  14.825  1.00  0.00    -0.026 C 
HETATM   28  C32 UNL     1      -1.311 -40.789  15.526  1.00  0.00     0.017 C 
HETATM   29  C33 UNL     1      -3.025 -41.909  14.210  1.00  0.00     0.017 C 
HETATM   30  C34 UNL     1      -0.682 -42.192  13.679  1.00  0.00     0.017 C 
ENDBRANCH  11  27
ENDBRANCH   8  11
ENDBRANCH   1   7
BRANCH   6  31
HETATM   31  C20 UNL     1      -1.780 -40.235  19.149  1.00  0.00     0.261 C 
HETATM   32  O5  UNL     1      -0.746 -39.579  18.855  1.00  0.00    -0.267 OA
HETATM   33  N4  UNL     1      -3.029 -39.780  18.679  1.00  0.00    -0.323 N 
ATOM     34  H4  UNL     1      -3.829 -40.331  18.991  1.00  0.00     0.169 HD
BRANCH  33  35
HETATM   35  C21 UNL     1      -3.357 -38.685  17.844  1.00  0.00     0.064 C 
BRANCH  35  36
HETATM   36  C22 UNL     1      -3.073 -37.308  18.382  1.00  0.00     0.202 C 
HETATM   37  O6  UNL     1      -3.447 -37.063  19.496  1.00  0.00    -0.289 OA
BRANCH  36  38
HETATM   38  C23 UNL     1      -2.363 -36.283  17.607  1.00  0.00     0.260 C 
BRANCH  38  39
HETATM   39  C24 UNL     1      -3.273 -35.264  16.914  1.00  0.00     0.041 C 
BRANCH  39  40
HETATM   40  C25 UNL     1      -3.721 -34.176  17.833  1.00  0.00    -0.002 C 
HETATM   41  C26 UNL     1      -4.270 -33.021  16.989  1.00  0.00     0.005 C 
ENDBRANCH  39  40
ENDBRANCH  38  39
BRANCH  38  42
HETATM   42  N5  UNL     1      -1.660 -35.435  18.630  1.00  0.00    -0.068 N 
HETATM   43  C27 UNL     1      -0.214 -35.516  18.327  1.00  0.00     0.267 C 
ATOM     44  H52 UNL     1      -2.010 -34.478  18.668  1.00  0.00     0.277 HD
ATOM     45  H51 UNL     1      -1.886 -35.692  19.590  1.00  0.00     0.277 HD
ENDBRANCH  38  42
ENDBRANCH  36  38
ENDBRANCH  35  36
BRANCH  35  46
HETATM   46  C28 UNL     1      -4.657 -38.806  17.130  1.00  0.00     0.031 C 
HETATM   47  C29 UNL     1      -5.390 -40.084  17.439  1.00  0.00     0.016 C 
HETATM   48  C30 UNL     1      -4.361 -38.772  15.623  1.00  0.00     0.016 C 
ENDBRANCH  35  46
ENDBRANCH  33  35
ENDBRANCH   6  31
BRANCH   5  49
HETATM   49  O4  UNL     1      -2.244 -40.353  22.092  1.00  0.00    -0.352 OA
HETATM   50  C18 UNL     1      -3.594 -39.969  22.334  1.00  0.00     0.210 C 
ENDBRANCH   5  49
TORSDOF 17
ENDMDL
MODEL 2
REMARK VINA RESULT: -7.751922738      2.305      9.176
REMARK  17 active torsions:
REMARK  status: ('A' for Active; 'I' for Inactive)
REMARK    1  A    between atoms: C2_2  and  C3_3 
REMARK    2  A    between atoms: C5_5  and  C6_6 
REMARK    3  A    between atoms: C6_6  and  N1_7 
REMARK       I    between atoms: N1_7  and  C7_9 
REMARK    4  A    between atoms: N2_14  and  C11_15 
REMARK    5  A    between atoms: C11_15  and  C12_16 
REMARK    6  A    between atoms: C12_16  and  N3_17 
REMARK    7  A    between atoms: C12_16  and  C31_47 
REMARK       I    between atoms: N3_17  and  C13_19 
REMARK    8  A    between atoms: C13_19  and  C14_21 
REMARK    9  A    between atoms: C17_25  and  O4_26 
REMARK   10  A    between atoms: C19_28  and  C20_29 
REMARK       I    between atoms: C20_29  and  N4_31 
REMARK   11  A    between atoms: N4_31  and  C21_33 
REMARK   12  A    between atoms: C21_33  and  C22_34 
REMARK   13  A    between atoms: C21_33  and  C28_44 
REMARK   14  A    between atoms: C22_34  and  C23_36 
REMARK   15  A    between atoms: C23_36  and  C24_37 
REMARK   16  A    between atoms: C23_36  and  N5_40 
REMARK   17  A    between atoms: C24_37  and  C25_38 
ROOT
HETATM    1  C14 UNL     1      -0.660 -44.234  17.854  1.00  0.00     0.161 A 
HETATM    2  O3  UNL     1      -0.542 -44.449  19.182  1.00  0.00    -0.306 OA
HETATM    3  C15 UNL     1       0.468 -45.240  19.414  1.00  0.00     0.084 A 
HETATM    4  C16 UNL     1       0.966 -45.741  20.724  1.00  0.00     0.079 C 
HETATM    5  C17 UNL     1       1.048 -45.564  18.195  1.00  0.00     0.116 A 
HETATM    6  C19 UNL     1       0.294 -44.896  17.216  1.00  0.00     0.107 A 
ENDROOT
BRANCH   1   7
HETATM    7  C13 UNL     1      -1.752 -43.366  17.328  1.00  0.00     0.277 C 
HETATM    8  N3  UNL     1      -1.412 -42.376  16.409  1.00  0.00    -0.345 N 
ATOM      9  H3  UNL     1      -0.437 -42.360  16.111  1.00  0.00     0.163 HD
HETATM   10  O2  UNL     1      -2.890 -43.574  17.756  1.00  0.00    -0.265 OA
BRANCH   8  11
HETATM   11  C12 UNL     1      -2.287 -41.342  15.810  1.00  0.00     0.130 C 
BRANCH  11  12
HETATM   12  C11 UNL     1      -1.629 -40.032  16.129  1.00  0.00     0.084 C 
BRANCH  12  13
HETATM   13  N2  UNL     1      -2.116 -39.122  17.026  1.00  0.00    -0.383 N 
HETATM   14  C3  UNL     1      -2.397 -39.423  18.351  1.00  0.00     0.106 C 
HETATM   15  C4  UNL     1      -2.989 -38.389  19.232  1.00  0.00     0.035 C 
HETATM   16  C5  UNL     1      -3.037 -37.002  18.725  1.00  0.00     0.007 C 
HETATM   17  C9  UNL     1      -1.938 -36.747  17.743  1.00  0.00     0.026 C 
HETATM   18  C10 UNL     1      -2.011 -37.747  16.656  1.00  0.00     0.123 C 
BRANCH  14  19
HETATM   19  C2  UNL     1      -1.184 -39.942  19.091  1.00  0.00    -0.012 C 
HETATM   20  C1  UNL     1      -1.330 -40.881  19.991  1.00  0.00     0.009 C 
ENDBRANCH  14  19
BRANCH  16  21
HETATM   21  C6  UNL     1      -4.389 -36.544  18.239  1.00  0.00     0.127 C 
BRANCH  21  22
HETATM   22  N1  UNL     1      -5.363 -37.555  18.646  1.00  0.00    -0.361 N 
HETATM   23  C7  UNL     1      -6.079 -38.301  17.676  1.00  0.00     0.213 C 
HETATM   24  C8  UNL     1      -7.075 -39.320  18.117  1.00  0.00     0.117 C 
HETATM   25  O1  UNL     1      -5.885 -38.112  16.453  1.00  0.00    -0.274 OA
ATOM     26  H1  UNL     1      -5.530 -37.725  19.637  1.00  0.00     0.162 HD
ENDBRANCH  21  22
ENDBRANCH  16  21
ENDBRANCH  12  13
ENDBRANCH  11  12
BRANCH  11  27
HETATM   27  C31 UNL     1      -2.528 -41.630  14.371  1.00  0.00    -0.026 C 
HETATM   28  C32 UNL     1      -3.277 -40.468  13.687  1.00  0.00     0.017 C 
HETATM   29  C33 UNL     1      -3.348 -42.865  14.101  1.00  0.00     0.017 C 
HETATM   30  C34 UNL     1      -1.261 -41.769  13.557  1.00  0.00     0.017 C 
ENDBRANCH  11  27
ENDBRANCH   8  11
ENDBRANCH   1   7
BRANCH   6  31
HETATM   31  C20 UNL     1       0.668 -44.909  15.793  1.00  0.00     0.261 C 
HETATM   32  O5  UNL     1       0.951 -43.827  15.217  1.00  0.00    -0.267 OA
HETATM   33  N4  UNL     1       0.722 -46.108  15.051  1.00  0.00    -0.323 N 
ATOM     34  H4  UNL     1       0.437 -46.941  15.566  1.00  0.00     0.169 HD
BRANCH  33  35
HETATM   35  C21 UNL     1       1.108 -46.346  13.710  1.00  0.00     0.064 C 
BRANCH  35  36
HETATM   36  C22 UNL     1       0.003 -46.502  12.701  1.00  0.00     0.202 C 
HETATM   37  O6  UNL     1      -0.225 -45.568  11.983  1.00  0.00    -0.289 OA
BRANCH  36  38
HETATM   38  C23 UNL     1      -0.780 -47.736  12.565  1.00  0.00     0.260 C 
BRANCH  38  39
HETATM   39  C24 UNL     1      -2.047 -47.785  13.427  1.00  0.00     0.041 C 
BRANCH  39  40
HETATM   40  C25 UNL     1      -3.297 -47.796  12.610  1.00  0.00    -0.002 C 
HETATM   41  C26 UNL     1      -4.345 -46.926  13.312  1.00  0.00     0.005 C 
ENDBRANCH  39  40
ENDBRANCH  38  39
BRANCH  38  42
HETATM   42  N5  UNL     1      -1.347 -47.692  11.174  1.00  0.00    -0.068 N 
HETATM   43  C27 UNL     1      -0.498 -48.572  10.341  1.00  0.00     0.267 C 
ATOM     44  H52 UNL     1      -2.337 -47.933  11.134  1.00  0.00     0.277 HD
ATOM     45  H51 UNL     1      -1.431 -46.745  10.803  1.00  0.00     0.277 HD
ENDBRANCH  38  42
ENDBRANCH  36  38
ENDBRANCH  35  36
BRANCH  35  46
HETATM   46  C28 UNL     1       2.232 -47.307  13.541  1.00  0.00     0.031 C 
HETATM   47  C29 UNL     1       2.301 -48.342  14.631  1.00  0.00     0.016 C 
HETATM   48  C30 UNL     1       3.538 -46.497  13.561  1.00  0.00     0.016 C 
ENDBRANCH  35  46
ENDBRANCH  33  35
ENDBRANCH   6  31
BRANCH   5  49
HETATM   49  O4  UNL     1       2.132 -46.366  17.943  1.00  0.00    -0.352 OA
HETATM   50  C18 UNL     1       3.457 -45.846  17.913  1.00  0.00     0.210 C 
ENDBRANCH   5  49
TORSDOF 17
ENDMDL
MODEL 3
REMARK VINA RESULT: -7.705180130      2.257      9.427
REMARK  17 active torsions:
REMARK  status: ('A' for Active; 'I' for Inactive)
REMARK    1  A    between atoms: C2_2  and  C3_3 
REMARK    2  A    between atoms: C5_5  and  C6_6 
REMARK    3  A    between atoms: C6_6  and  N1_7 
REMARK       I    between atoms: N1_7  and  C7_9 
REMARK    4  A    between atoms: N2_14  and  C11_15 
REMARK    5  A    between atoms: C11_15  and  C12_16 
REMARK    6  A    between atoms: C12_16  and  N3_17 
REMARK    7  A    between atoms: C12_16  and  C31_47 
REMARK       I    between atoms: N3_17  and  C13_19 
REMARK    8  A    between atoms: C13_19  and  C14_21 
REMARK    9  A    between atoms: C17_25  and  O4_26 
REMARK   10  A    between atoms: C19_28  and  C20_29 
REMARK       I    between atoms: C20_29  and  N4_31 
REMARK   11  A    between atoms: N4_31  and  C21_33 
REMARK   12  A    between atoms: C21_33  and  C22_34 
REMARK   13  A    between atoms: C21_33  and  C28_44 
REMARK   14  A    between atoms: C22_34  and  C23_36 
REMARK   15  A    between atoms: C23_36  and  C24_37 
REMARK   16  A    between atoms: C23_36  and  N5_40 
REMARK   17  A    between atoms: C24_37  and  C25_38 
ROOT
HETATM    1  C14 UNL     1      -0.639 -44.175  17.902  1.00  0.00     0.161 A 
HETATM    2  O3  UNL     1      -0.480 -44.329  19.234  1.00  0.00    -0.306 OA
HETATM    3  C15 UNL     1       0.577 -45.053  19.473  1.00  0.00     0.084 A 
HETATM    4  C16 UNL     1       1.132 -45.472  20.788  1.00  0.00     0.079 C 
HETATM    5  C17 UNL     1       1.146 -45.395  18.253  1.00  0.00     0.116 A 
HETATM    6  C19 UNL     1       0.335 -44.810  17.268  1.00  0.00     0.107 A 
ENDROOT
BRANCH   1   7
HETATM    7  C13 UNL     1      -1.790 -43.390  17.370  1.00  0.00     0.277 C 
HETATM    8  N3  UNL     1      -1.518 -42.375  16.455  1.00  0.00    -0.345 N 
ATOM      9  H3  UNL     1      -0.545 -42.286  16.165  1.00  0.00     0.163 HD
HETATM   10  O2  UNL     1      -2.912 -43.684  17.789  1.00  0.00    -0.265 OA
BRANCH   8  11
HETATM   11  C12 UNL     1      -2.463 -41.408  15.851  1.00  0.00     0.130 C 
BRANCH  11  12
HETATM   12  C11 UNL     1      -1.967 -40.055  16.268  1.00  0.00     0.084 C 
BRANCH  12  13
HETATM   13  N2  UNL     1      -2.505 -39.315  17.284  1.00  0.00    -0.383 N 
HETATM   14  C3  UNL     1      -2.161 -37.995  17.541  1.00  0.00     0.106 C 
HETATM   15  C4  UNL     1      -2.745 -37.296  18.709  1.00  0.00     0.035 C 
HETATM   16  C5  UNL     1      -3.857 -37.959  19.421  1.00  0.00     0.007 C 
HETATM   17  C9  UNL     1      -4.624 -38.859  18.505  1.00  0.00     0.026 C 
HETATM   18  C10 UNL     1      -3.697 -39.828  17.880  1.00  0.00     0.123 C 
BRANCH  14  19
HETATM   19  C2  UNL     1      -2.421 -37.094  16.355  1.00  0.00    -0.012 C 
HETATM   20  C1  UNL     1      -2.426 -35.795  16.520  1.00  0.00     0.009 C 
ENDBRANCH  14  19
BRANCH  16  21
HETATM   21  C6  UNL     1      -3.483 -38.616  20.725  1.00  0.00     0.127 C 
BRANCH  21  22
HETATM   22  N1  UNL     1      -2.523 -37.739  21.394  1.00  0.00    -0.361 N 
HETATM   23  C7  UNL     1      -1.421 -38.281  22.102  1.00  0.00     0.213 C 
HETATM   24  C8  UNL     1      -0.461 -37.365  22.784  1.00  0.00     0.117 C 
HETATM   25  O1  UNL     1      -1.246 -39.519  22.162  1.00  0.00    -0.274 OA
ATOM     26  H1  UNL     1      -2.648 -36.728  21.351  1.00  0.00     0.162 HD
ENDBRANCH  21  22
ENDBRANCH  16  21
ENDBRANCH  12  13
ENDBRANCH  11  12
BRANCH  11  27
HETATM   27  C31 UNL     1      -2.593 -41.646  14.389  1.00  0.00    -0.026 C 
HETATM   28  C32 UNL     1      -1.210 -41.802  13.724  1.00  0.00     0.017 C 
HETATM   29  C33 UNL     1      -3.296 -40.552  13.629  1.00  0.00     0.017 C 
HETATM   30  C34 UNL     1      -3.304 -42.936  14.044  1.00  0.00     0.017 C 
ENDBRANCH  11  27
ENDBRANCH   8  11
ENDBRANCH   1   7
BRANCH   6  31
HETATM   31  C20 UNL     1       0.676 -44.861  15.838  1.00  0.00     0.261 C 
HETATM   32  O5  UNL     1       1.002 -43.802  15.240  1.00  0.00    -0.267 OA
HETATM   33  N4  UNL     1       0.653 -46.071  15.112  1.00  0.00    -0.323 N 
ATOM     34  H4  UNL     1       0.337 -46.881  15.645  1.00  0.00     0.169 HD
BRANCH  33  35
HETATM   35  C21 UNL     1       0.997 -46.345  13.767  1.00  0.00     0.064 C 
BRANCH  35  36
HETATM   36  C22 UNL     1      -0.139 -46.522  12.795  1.00  0.00     0.202 C 
HETATM   37  O6  UNL     1      -0.447 -45.573  12.127  1.00  0.00    -0.289 OA
BRANCH  36  38
HETATM   38  C23 UNL     1      -0.859 -47.791  12.638  1.00  0.00     0.260 C 
BRANCH  38  39
HETATM   39  C24 UNL     1      -2.121 -47.918  13.499  1.00  0.00     0.041 C 
BRANCH  39  40
HETATM   40  C25 UNL     1      -3.376 -47.828  12.695  1.00  0.00    -0.002 C 
HETATM   41  C26 UNL     1      -4.300 -46.797  13.350  1.00  0.00     0.005 C 
ENDBRANCH  39  40
ENDBRANCH  38  39
BRANCH  38  42
HETATM   42  N5  UNL     1      -1.429 -47.750  11.247  1.00  0.00    -0.068 N 
HETATM   43  C27 UNL     1      -0.537 -48.571  10.399  1.00  0.00     0.267 C 
ATOM     44  H52 UNL     1      -2.406 -48.040  11.204  1.00  0.00     0.277 HD
ATOM     45  H51 UNL     1      -1.561 -46.803  10.894  1.00  0.00     0.277 HD
ENDBRANCH  38  42
ENDBRANCH  36  38
ENDBRANCH  35  36
BRANCH  35  46
HETATM   46  C28 UNL     1       2.111 -47.316  13.589  1.00  0.00     0.031 C 
HETATM   47  C29 UNL     1       2.227 -48.304  14.719  1.00  0.00     0.016 C 
HETATM   48  C30 UNL     1       3.417 -46.511  13.515  1.00  0.00     0.016 C 
ENDBRANCH  35  46
ENDBRANCH  33  35
ENDBRANCH   6  31
BRANCH   5  49
HETATM   49  O4  UNL     1       2.267 -46.147  18.006  1.00  0.00    -0.352 OA
HETATM   50  C18 UNL     1       3.563 -45.560  17.942  1.00  0.00     0.210 C 
ENDBRANCH   5  49
TORSDOF 17
ENDMDL
MODEL 4
REMARK VINA RESULT: -7.601132601      1.862      8.611
REMARK  17 active torsions:
REMARK  status: ('A' for Active; 'I' for Inactive)
REMARK    1  A    between atoms: C2_2  and  C3_3 
REMARK    2  A    between atoms: C5_5  and  C6_6 
REMARK    3  A    between atoms: C6_6  and  N1_7 
REMARK       I    between atoms: N1_7  and  C7_9 
REMARK    4  A    between atoms: N2_14  and  C11_15 
REMARK    5  A    between atoms: C11_15  and  C12_16 
REMARK    6  A    between atoms: C12_16  and  N3_17 
REMARK    7  A    between atoms: C12_16  and  C31_47 
REMARK       I    between atoms: N3_17  and  C13_19 
REMARK    8  A    between atoms: C13_19  and  C14_21 
REMARK    9  A    between atoms: C17_25  and  O4_26 
REMARK   10  A    between atoms: C19_28  and  C20_29 
REMARK       I    between atoms: C20_29  and  N4_31 
REMARK   11  A    between atoms: N4_31  and  C21_33 
REMARK   12  A    between atoms: C21_33  and  C22_34 
REMARK   13  A    between atoms: C21_33  and  C28_44 
REMARK   14  A    between atoms: C22_34  and  C23_36 
REMARK   15  A    between atoms: C23_36  and  C24_37 
REMARK   16  A    between atoms: C23_36  and  N5_40 
REMARK   17  A    between atoms: C24_37  and  C25_38 
ROOT
HETATM    1  C14 UNL     1      -0.984 -42.770  20.061  1.00  0.00     0.161 A 
HETATM    2  O3  UNL     1       0.105 -43.216  20.722  1.00  0.00    -0.306 OA
HETATM    3  C15 UNL     1       0.689 -44.154  20.031  1.00  0.00     0.084 A 
HETATM    4  C16 UNL     1       1.917 -44.924  20.372  1.00  0.00     0.079 C 
HETATM    5  C17 UNL     1      -0.036 -44.340  18.862  1.00  0.00     0.116 A 
HETATM    6  C19 UNL     1      -1.104 -43.430  18.918  1.00  0.00     0.107 A 
ENDROOT
BRANCH   1   7
HETATM    7  C13 UNL     1      -1.834 -41.698  20.652  1.00  0.00     0.277 C 
HETATM    8  N3  UNL     1      -3.188 -41.968  20.838  1.00  0.00    -0.345 N 
ATOM      9  H3  UNL     1      -3.489 -42.916  20.611  1.00  0.00     0.163 HD
HETATM   10  O2  UNL     1      -1.281 -40.630  20.926  1.00  0.00    -0.265 OA
BRANCH   8  11
HETATM   11  C12 UNL     1      -4.248 -41.053  21.321  1.00  0.00     0.130 C 
BRANCH  11  12
HETATM   12  C11 UNL     1      -5.048 -40.693  20.104  1.00  0.00     0.084 C 
BRANCH  12  13
HETATM   13  N2  UNL     1      -4.721 -39.688  19.236  1.00  0.00    -0.383 N 
HETATM   14  C3  UNL     1      -5.356 -39.485  18.019  1.00  0.00     0.106 C 
HETATM   15  C4  UNL     1      -4.886 -38.412  17.113  1.00  0.00     0.035 C 
HETATM   16  C5  UNL     1      -3.908 -37.442  17.647  1.00  0.00     0.007 C 
HETATM   17  C9  UNL     1      -4.046 -37.296  19.129  1.00  0.00     0.026 C 
HETATM   18  C10 UNL     1      -3.926 -38.625  19.765  1.00  0.00     0.123 C 
BRANCH  14  19
HETATM   19  C2  UNL     1      -6.843 -39.262  18.179  1.00  0.00    -0.012 C 
HETATM   20  C1  UNL     1      -7.376 -38.141  17.762  1.00  0.00     0.009 C 
ENDBRANCH  14  19
BRANCH  16  21
HETATM   21  C6  UNL     1      -2.484 -37.655  17.199  1.00  0.00     0.127 C 
BRANCH  21  22
HETATM   22  N1  UNL     1      -1.787 -36.378  17.340  1.00  0.00    -0.361 N 
HETATM   23  C7  UNL     1      -0.583 -36.289  18.083  1.00  0.00     0.213 C 
HETATM   24  C8  UNL     1       0.103 -34.972  18.221  1.00  0.00     0.117 C 
HETATM   25  O1  UNL     1      -0.091 -37.304  18.626  1.00  0.00    -0.274 OA
ATOM     26  H1  UNL     1      -2.172 -35.542  16.900  1.00  0.00     0.162 HD
ENDBRANCH  21  22
ENDBRANCH  16  21
ENDBRANCH  12  13
ENDBRANCH  11  12
BRANCH  11  27
HETATM   27  C31 UNL     1      -4.997 -41.669  22.449  1.00  0.00    -0.026 C 
HETATM   28  C32 UNL     1      -4.602 -43.148  22.640  1.00  0.00     0.017 C 
HETATM   29  C33 UNL     1      -6.495 -41.658  22.295  1.00  0.00     0.017 C 
HETATM   30  C34 UNL     1      -4.698 -41.042  23.792  1.00  0.00     0.017 C 
ENDBRANCH  11  27
ENDBRANCH   8  11
ENDBRANCH   1   7
BRANCH   6  31
HETATM   31  C20 UNL     1      -2.044 -43.252  17.800  1.00  0.00     0.261 C 
HETATM   32  O5  UNL     1      -3.256 -43.014  18.042  1.00  0.00    -0.267 OA
HETATM   33  N4  UNL     1      -1.623 -43.338  16.456  1.00  0.00    -0.323 N 
ATOM     34  H4  UNL     1      -0.640 -43.578  16.332  1.00  0.00     0.169 HD
BRANCH  33  35
HETATM   35  C21 UNL     1      -2.341 -43.145  15.252  1.00  0.00     0.064 C 
BRANCH  35  36
HETATM   36  C22 UNL     1      -2.709 -44.378  14.472  1.00  0.00     0.202 C 
HETATM   37  O6  UNL     1      -3.448 -44.239  13.536  1.00  0.00    -0.289 OA
BRANCH  36  38
HETATM   38  C23 UNL     1      -2.198 -45.712  14.808  1.00  0.00     0.260 C 
BRANCH  38  39
HETATM   39  C24 UNL     1      -3.242 -46.832  14.732  1.00  0.00     0.041 C 
BRANCH  39  40
HETATM   40  C25 UNL     1      -3.085 -47.681  13.514  1.00  0.00    -0.002 C 
HETATM   41  C26 UNL     1      -4.381 -47.608  12.700  1.00  0.00     0.005 C 
ENDBRANCH  39  40
ENDBRANCH  38  39
BRANCH  38  42
HETATM   42  N5  UNL     1      -1.268 -46.071  13.684  1.00  0.00    -0.068 N 
HETATM   43  C27 UNL     1       0.093 -45.688  14.120  1.00  0.00     0.267 C 
ATOM     44  H52 UNL     1      -1.338 -47.048  13.399  1.00  0.00     0.277 HD
ATOM     45  H51 UNL     1      -1.536 -45.658  12.791  1.00  0.00     0.277 HD
ENDBRANCH  38  42
ENDBRANCH  36  38
ENDBRANCH  35  36
BRANCH  35  46
HETATM   46  C28 UNL     1      -1.867 -42.009  14.414  1.00  0.00     0.031 C 
HETATM   47  C29 UNL     1      -0.368 -41.921  14.321  1.00  0.00     0.016 C 
HETATM   48  C30 UNL     1      -2.388 -40.714  15.055  1.00  0.00     0.016 C 
ENDBRANCH  35  46
ENDBRANCH  33  35
ENDBRANCH   6  31
BRANCH   5  49
HETATM   49  O4  UNL     1       0.198 -45.217  17.833  1.00  0.00    -0.352 OA
HETATM   50  C18 UNL     1      -0.263 -46.564  17.878  1.00  0.00     0.210 C 
ENDBRANCH   5  49
TORSDOF 17
ENDMDL
MODEL 5
REMARK VINA RESULT: -7.593014707      1.347      2.213
REMARK  17 active torsions:
REMARK  status: ('A' for Active; 'I' for Inactive)
REMARK    1  A    between atoms: C2_2  and  C3_3 
REMARK    2  A    between atoms: C5_5  and  C6_6 
REMARK    3  A    between atoms: C6_6  and  N1_7 
REMARK       I    between atoms: N1_7  and  C7_9 
REMARK    4  A    between atoms: N2_14  and  C11_15 
REMARK    5  A    between atoms: C11_15  and  C12_16 
REMARK    6  A    between atoms: C12_16  and  N3_17 
REMARK    7  A    between atoms: C12_16  and  C31_47 
REMARK       I    between atoms: N3_17  and  C13_19 
REMARK    8  A    between atoms: C13_19  and  C14_21 
REMARK    9  A    between atoms: C17_25  and  O4_26 
REMARK   10  A    between atoms: C19_28  and  C20_29 
REMARK       I    between atoms: C20_29  and  N4_31 
REMARK   11  A    between atoms: N4_31  and  C21_33 
REMARK   12  A    between atoms: C21_33  and  C22_34 
REMARK   13  A    between atoms: C21_33  and  C28_44 
REMARK   14  A    between atoms: C22_34  and  C23_36 
REMARK   15  A    between atoms: C23_36  and  C24_37 
REMARK   16  A    between atoms: C23_36  and  N5_40 
REMARK   17  A    between atoms: C24_37  and  C25_38 
ROOT
HETATM    1  C14 UNL     1      -0.560 -43.488  19.381  1.00  0.00     0.161 A 
HETATM    2  O3  UNL     1      -0.115 -44.364  20.307  1.00  0.00    -0.306 OA
HETATM    3  C15 UNL     1      -0.277 -43.868  21.500  1.00  0.00     0.084 A 
HETATM    4  C16 UNL     1       0.068 -44.482  22.811  1.00  0.00     0.079 C 
HETATM    5  C17 UNL     1      -0.854 -42.612  21.368  1.00  0.00     0.116 A 
HETATM    6  C19 UNL     1      -1.022 -42.405  19.989  1.00  0.00     0.107 A 
ENDROOT
BRANCH   1   7
HETATM    7  C13 UNL     1      -0.474 -43.820  17.930  1.00  0.00     0.277 C 
HETATM    8  N3  UNL     1      -1.359 -43.184  17.062  1.00  0.00    -0.345 N 
ATOM      9  H3  UNL     1      -1.965 -42.479  17.482  1.00  0.00     0.163 HD
HETATM   10  O2  UNL     1       0.371 -44.654  17.594  1.00  0.00    -0.265 OA
BRANCH   8  11
HETATM   11  C12 UNL     1      -1.531 -43.400  15.607  1.00  0.00     0.130 C 
BRANCH  11  12
HETATM   12  C11 UNL     1      -2.562 -44.484  15.487  1.00  0.00     0.084 C 
BRANCH  12  13
HETATM   13  N2  UNL     1      -2.381 -45.646  14.789  1.00  0.00    -0.383 N 
HETATM   14  C3  UNL     1      -1.483 -46.636  15.162  1.00  0.00     0.106 C 
HETATM   15  C4  UNL     1      -1.305 -47.831  14.304  1.00  0.00     0.035 C 
HETATM   16  C5  UNL     1      -2.268 -48.034  13.202  1.00  0.00     0.007 C 
HETATM   17  C9  UNL     1      -3.590 -47.409  13.518  1.00  0.00     0.026 C 
HETATM   18  C10 UNL     1      -3.393 -45.979  13.838  1.00  0.00     0.123 C 
BRANCH  14  19
HETATM   19  C2  UNL     1      -1.762 -47.169  16.549  1.00  0.00    -0.012 C 
HETATM   20  C1  UNL     1      -0.854 -47.889  17.159  1.00  0.00     0.009 C 
ENDBRANCH  14  19
BRANCH  16  21
HETATM   21  C6  UNL     1      -1.755 -47.679  11.829  1.00  0.00     0.127 C 
BRANCH  21  22
HETATM   22  N1  UNL     1      -0.315 -47.459  11.947  1.00  0.00    -0.361 N 
HETATM   23  C7  UNL     1       0.236 -46.164  11.775  1.00  0.00     0.213 C 
HETATM   24  C8  UNL     1       1.710 -45.967  11.890  1.00  0.00     0.117 C 
HETATM   25  O1  UNL     1      -0.503 -45.184  11.525  1.00  0.00    -0.274 OA
ATOM     26  H1  UNL     1       0.301 -48.245  12.154  1.00  0.00     0.162 HD
ENDBRANCH  21  22
ENDBRANCH  16  21
ENDBRANCH  12  13
ENDBRANCH  11  12
BRANCH  11  27
HETATM   27  C31 UNL     1      -1.834 -42.117  14.919  1.00  0.00    -0.026 C 
HETATM   28  C32 UNL     1      -1.250 -40.917  15.693  1.00  0.00     0.017 C 
HETATM   29  C33 UNL     1      -3.301 -41.822  14.746  1.00  0.00     0.017 C 
HETATM   30  C34 UNL     1      -1.207 -42.000  13.548  1.00  0.00     0.017 C 
ENDBRANCH  11  27
ENDBRANCH   8  11
ENDBRANCH   1   7
BRANCH   6  31
HETATM   31  C20 UNL     1      -1.707 -41.220  19.450  1.00  0.00     0.261 C 
HETATM   32  O5  UNL     1      -2.796 -41.359  18.835  1.00  0.00    -0.267 OA
HETATM   33  N4  UNL     1      -1.177 -39.921  19.608  1.00  0.00    -0.323 N 
ATOM     34  H4  UNL     1      -0.271 -39.885  20.075  1.00  0.00     0.169 HD
BRANCH  33  35
HETATM   35  C21 UNL     1      -1.696 -38.662  19.224  1.00  0.00     0.064 C 
BRANCH  35  36
HETATM   36  C22 UNL     1      -0.950 -37.915  18.151  1.00  0.00     0.202 C 
HETATM   37  O6  UNL     1       0.186 -37.604  18.382  1.00  0.00    -0.289 OA
BRANCH  36  38
HETATM   38  C23 UNL     1      -1.554 -37.571  16.858  1.00  0.00     0.260 C 
BRANCH  38  39
HETATM   39  C24 UNL     1      -3.073 -37.368  16.897  1.00  0.00     0.041 C 
BRANCH  39  40
HETATM   40  C25 UNL     1      -3.809 -38.388  16.092  1.00  0.00    -0.002 C 
HETATM   41  C26 UNL     1      -4.838 -39.072  16.998  1.00  0.00     0.005 C 
ENDBRANCH  39  40
ENDBRANCH  38  39
BRANCH  38  42
HETATM   42  N5  UNL     1      -1.059 -36.186  16.549  1.00  0.00    -0.068 N 
HETATM   43  C27 UNL     1      -2.055 -35.245  17.107  1.00  0.00     0.267 C 
ATOM     44  H52 UNL     1      -0.111 -36.013  16.883  1.00  0.00     0.277 HD
ATOM     45  H51 UNL     1      -0.874 -36.036  15.557  1.00  0.00     0.277 HD
ENDBRANCH  38  42
ENDBRANCH  36  38
ENDBRANCH  35  36
BRANCH  35  46
HETATM   46  C28 UNL     1      -2.166 -37.808  20.349  1.00  0.00     0.031 C 
HETATM   47  C29 UNL     1      -1.575 -38.193  21.679  1.00  0.00     0.016 C 
HETATM   48  C30 UNL     1      -3.692 -37.960  20.437  1.00  0.00     0.016 C 
ENDBRANCH  35  46
ENDBRANCH  33  35
ENDBRANCH   6  31
BRANCH   5  49
HETATM   49  O4  UNL     1      -1.208 -41.718  22.347  1.00  0.00    -0.352 OA
HETATM   50  C18 UNL     1      -2.486 -41.760  22.973  1.00  0.00     0.210 C 
ENDBRANCH   5  49
TORSDOF 17
ENDMDL
