MODEL 1
REMARK VINA RESULT: -8.204643178      0.000      0.000
REMARK  18 active torsions:
REMARK  status: ('A' for Active; 'I' for Inactive)
REMARK    1  A    between atoms: C2_2  and  C4_4 
REMARK    2  A    between atoms: C4_4  and  C5_5 
REMARK    3  A    between atoms: C5_5  and  N1_6 
REMARK    4  A    between atoms: C5_5  and  C11_15 
REMARK       I    between atoms: N1_6  and  C6_8 
REMARK    5  A    between atoms: C6_8  and  O2_10 
REMARK    6  A    between atoms: O2_10  and  C7_11 
REMARK       I    between atoms: C11_15  and  N2_17 
REMARK    7  A    between atoms: N2_17  and  C12_19 
REMARK    8  A    between atoms: C12_19  and  C13_20 
REMARK    9  A    between atoms: C12_19  and  C17_25 
REMARK   10  A    between atoms: C13_20  and  O4_21 
REMARK   11  A    between atoms: O4_21  and  C14_22 
REMARK       I    between atoms: C17_25  and  N3_27 
REMARK   12  A    between atoms: N3_27  and  C18_29 
REMARK   13  A    between atoms: C18_29  and  C19_30 
REMARK   14  A    between atoms: C18_29  and  C27_38 
REMARK   15  A    between atoms: C19_30  and  C20_31 
REMARK   16  A    between atoms: C20_31  and  C21_32 
REMARK   17  A    between atoms: C21_32  and  C23_34 
REMARK       I    between atoms: C27_38  and  N4_40 
REMARK   18  A    between atoms: C31_44  and  C32_45 
ROOT
HETATM    1  C12 UNL     1      -1.776 -43.315  13.837  1.00  0.00     0.200 C 
ENDROOT
BRANCH   1   2
HETATM    2  N2  UNL     1      -0.485 -43.947  13.751  1.00  0.00    -0.344 N 
HETATM    3  C11 UNL     1       0.383 -43.958  12.649  1.00  0.00     0.241 C 
HETATM    4  O3  UNL     1       0.049 -43.379  11.587  1.00  0.00    -0.271 OA
ATOM      5  H2  UNL     1      -0.166 -44.442  14.584  1.00  0.00     0.163 HD
BRANCH   3   6
HETATM    6  C5  UNL     1       1.705 -44.653  12.713  1.00  0.00     0.179 C 
BRANCH   6   7
HETATM    7  C4  UNL     1       1.539 -45.951  11.929  1.00  0.00     0.038 C 
BRANCH   7   8
HETATM    8  C2  UNL     1       0.298 -46.703  12.277  1.00  0.00    -0.020 C 
HETATM    9  C1  UNL     1       0.678 -47.658  13.419  1.00  0.00     0.009 C 
HETATM   10  C3  UNL     1      -0.230 -47.571  11.170  1.00  0.00     0.009 C 
ENDBRANCH   7   8
ENDBRANCH   6   7
BRANCH   6  11
HETATM   11  N1  UNL     1       2.001 -44.995  14.110  1.00  0.00    -0.324 N 
HETATM   12  C6  UNL     1       2.861 -44.068  14.816  1.00  0.00     0.362 C 
HETATM   13  O1  UNL     1       3.325 -43.053  14.241  1.00  0.00    -0.238 OA
ATOM     14  H1  UNL     1       1.624 -45.832  14.555  1.00  0.00     0.165 HD
BRANCH  12  15
HETATM   15  O2  UNL     1       3.213 -44.247  16.150  1.00  0.00    -0.294 OA
BRANCH  15  16
HETATM   16  C7  UNL     1       3.967 -45.365  16.544  1.00  0.00     0.061 C 
HETATM   17  C8  UNL     1       4.718 -45.033  17.840  1.00  0.00     0.046 C 
HETATM   18  C9  UNL     1       4.984 -45.756  15.504  1.00  0.00     0.046 C 
HETATM   19  C10 UNL     1       3.111 -46.577  16.890  1.00  0.00     0.046 C 
ENDBRANCH  15  16
ENDBRANCH  12  15
ENDBRANCH   6  11
ENDBRANCH   3   6
ENDBRANCH   1   2
BRANCH   1  20
HETATM   20  C13 UNL     1      -2.865 -44.353  14.236  1.00  0.00     0.202 C 
BRANCH  20  21
HETATM   21  O4  UNL     1      -2.878 -45.275  13.264  1.00  0.00    -0.384 OA
BRANCH  21  22
HETATM   22  C14 UNL     1      -3.054 -46.585  13.493  1.00  0.00     0.113 C 
HETATM   23  C15 UNL     1      -2.858 -46.813  15.000  1.00  0.00     0.039 C 
HETATM   24  C16 UNL     1      -4.394 -47.140  13.113  1.00  0.00     0.039 C 
ENDBRANCH  21  22
ENDBRANCH  20  21
ENDBRANCH   1  20
BRANCH   1  25
HETATM   25  C17 UNL     1      -1.773 -42.209  14.797  1.00  0.00     0.243 C 
HETATM   26  O5  UNL     1      -0.753 -41.447  14.836  1.00  0.00    -0.271 OA
HETATM   27  N3  UNL     1      -2.833 -41.944  15.697  1.00  0.00    -0.346 N 
ATOM     28  H3  UNL     1      -3.664 -42.534  15.640  1.00  0.00     0.163 HD
BRANCH  27  29
HETATM   29  C18 UNL     1      -2.817 -40.892  16.692  1.00  0.00     0.176 C 
BRANCH  29  30
HETATM   30  C19 UNL     1      -2.332 -41.397  18.005  1.00  0.00     0.035 C 
BRANCH  30  31
HETATM   31  C20 UNL     1      -1.531 -40.298  18.720  1.00  0.00     0.007 C 
BRANCH  31  32
HETATM   32  C21 UNL     1      -1.406 -40.688  20.169  1.00  0.00    -0.011 C 
HETATM   33  C22 UNL     1      -2.154 -42.022  20.357  1.00  0.00     0.011 C 
BRANCH  32  34
HETATM   34  C23 UNL     1      -2.048 -39.649  21.079  1.00  0.00    -0.048 C 
HETATM   35  C24 UNL     1      -1.692 -39.929  22.504  1.00  0.00     0.015 C 
HETATM   36  C25 UNL     1      -1.520 -38.260  20.731  1.00  0.00     0.015 C 
HETATM   37  C26 UNL     1      -3.543 -39.625  20.878  1.00  0.00     0.015 C 
ENDBRANCH  32  34
ENDBRANCH  31  32
ENDBRANCH  30  31
ENDBRANCH  29  30
BRANCH  29  38
HETATM   38  C27 UNL     1      -4.061 -40.122  16.688  1.00  0.00     0.243 C 
HETATM   39  O6  UNL     1      -5.085 -40.725  16.168  1.00  0.00    -0.271 OA
HETATM   40  N4  UNL     1      -4.327 -38.835  17.153  1.00  0.00    -0.336 N 
HETATM   41  C28 UNL     1      -5.713 -38.274  17.107  1.00  0.00     0.127 C 
HETATM   42  C31 UNL     1      -3.491 -37.789  17.684  1.00  0.00     0.188 C 
HETATM   43  C29 UNL     1      -5.761 -37.373  18.296  1.00  0.00     0.022 C 
HETATM   44  C30 UNL     1      -4.373 -36.883  18.509  1.00  0.00     0.038 C 
BRANCH  42  45
HETATM   45  C32 UNL     1      -2.924 -36.942  16.591  1.00  0.00     0.196 C 
HETATM   46  O7  UNL     1      -2.231 -37.388  15.661  1.00  0.00    -0.646 OA
HETATM   47  O8  UNL     1      -3.188 -35.577  16.619  1.00  0.00    -0.646 OA
ENDBRANCH  42  45
ENDBRANCH  29  38
ENDBRANCH  27  29
ENDBRANCH   1  25
TORSDOF 18
ENDMDL
MODEL 2
REMARK VINA RESULT: -8.165521993      2.309      9.358
REMARK  18 active torsions:
REMARK  status: ('A' for Active; 'I' for Inactive)
REMARK    1  A    between atoms: C2_2  and  C4_4 
REMARK    2  A    between atoms: C4_4  and  C5_5 
REMARK    3  A    between atoms: C5_5  and  N1_6 
REMARK    4  A    between atoms: C5_5  and  C11_15 
REMARK       I    between atoms: N1_6  and  C6_8 
REMARK    5  A    between atoms: C6_8  and  O2_10 
REMARK    6  A    between atoms: O2_10  and  C7_11 
REMARK       I    between atoms: C11_15  and  N2_17 
REMARK    7  A    between atoms: N2_17  and  C12_19 
REMARK    8  A    between atoms: C12_19  and  C13_20 
REMARK    9  A    between atoms: C12_19  and  C17_25 
REMARK   10  A    between atoms: C13_20  and  O4_21 
REMARK   11  A    between atoms: O4_21  and  C14_22 
REMARK       I    between atoms: C17_25  and  N3_27 
REMARK   12  A    between atoms: N3_27  and  C18_29 
REMARK   13  A    between atoms: C18_29  and  C19_30 
REMARK   14  A    between atoms: C18_29  and  C27_38 
REMARK   15  A    between atoms: C19_30  and  C20_31 
REMARK   16  A    between atoms: C20_31  and  C21_32 
REMARK   17  A    between atoms: C21_32  and  C23_34 
REMARK       I    between atoms: C27_38  and  N4_40 
REMARK   18  A    between atoms: C31_44  and  C32_45 
ROOT
HETATM    1  C12 UNL     1      -2.163 -41.460  17.538  1.00  0.00     0.200 C 
ENDROOT
BRANCH   1   2
HETATM    2  N2  UNL     1      -2.663 -40.258  16.922  1.00  0.00    -0.344 N 
HETATM    3  C11 UNL     1      -1.927 -39.120  16.560  1.00  0.00     0.241 C 
HETATM    4  O3  UNL     1      -0.692 -39.080  16.782  1.00  0.00    -0.271 OA
ATOM      5  H2  UNL     1      -3.664 -40.231  16.728  1.00  0.00     0.163 HD
BRANCH   3   6
HETATM    6  C5  UNL     1      -2.588 -37.945  15.914  1.00  0.00     0.179 C 
BRANCH   6   7
HETATM    7  C4  UNL     1      -1.691 -36.745  16.201  1.00  0.00     0.038 C 
BRANCH   7   8
HETATM    8  C2  UNL     1      -2.046 -36.023  17.457  1.00  0.00    -0.020 C 
HETATM    9  C1  UNL     1      -2.749 -34.727  17.027  1.00  0.00     0.009 C 
HETATM   10  C3  UNL     1      -0.862 -35.597  18.281  1.00  0.00     0.009 C 
ENDBRANCH   7   8
ENDBRANCH   6   7
BRANCH   6  11
HETATM   11  N1  UNL     1      -3.887 -37.712  16.557  1.00  0.00    -0.324 N 
HETATM   12  C6  UNL     1      -5.020 -38.373  15.944  1.00  0.00     0.362 C 
HETATM   13  O1  UNL     1      -4.875 -39.082  14.918  1.00  0.00    -0.238 OA
ATOM     14  H1  UNL     1      -3.985 -37.121  17.383  1.00  0.00     0.165 HD
BRANCH  12  15
HETATM   15  O2  UNL     1      -6.311 -38.264  16.452  1.00  0.00    -0.294 OA
BRANCH  15  16
HETATM   16  C7  UNL     1      -6.566 -38.518  17.810  1.00  0.00     0.061 C 
HETATM   17  C8  UNL     1      -8.060 -38.311  18.088  1.00  0.00     0.046 C 
HETATM   18  C9  UNL     1      -5.792 -37.595  18.714  1.00  0.00     0.046 C 
HETATM   19  C10 UNL     1      -6.291 -39.962  18.213  1.00  0.00     0.046 C 
ENDBRANCH  15  16
ENDBRANCH  12  15
ENDBRANCH   6  11
ENDBRANCH   3   6
ENDBRANCH   1   2
BRANCH   1  20
HETATM   20  C13 UNL     1      -3.155 -41.969  18.624  1.00  0.00     0.202 C 
BRANCH  20  21
HETATM   21  O4  UNL     1      -3.285 -43.287  18.424  1.00  0.00    -0.384 OA
BRANCH  21  22
HETATM   22  C14 UNL     1      -3.705 -44.138  19.372  1.00  0.00     0.113 C 
HETATM   23  C15 UNL     1      -4.879 -43.464  20.101  1.00  0.00     0.039 C 
HETATM   24  C16 UNL     1      -4.173 -45.477  18.886  1.00  0.00     0.039 C 
ENDBRANCH  21  22
ENDBRANCH  20  21
ENDBRANCH   1  20
BRANCH   1  25
HETATM   25  C17 UNL     1      -1.928 -42.515  16.550  1.00  0.00     0.243 C 
HETATM   26  O5  UNL     1      -2.550 -42.453  15.441  1.00  0.00    -0.271 OA
HETATM   27  N3  UNL     1      -1.057 -43.611  16.761  1.00  0.00    -0.346 N 
ATOM     28  H3  UNL     1      -0.532 -43.641  17.635  1.00  0.00     0.163 HD
BRANCH  27  29
HETATM   29  C18 UNL     1      -0.862 -44.693  15.818  1.00  0.00     0.176 C 
BRANCH  29  30
HETATM   30  C19 UNL     1      -1.617 -45.909  16.226  1.00  0.00     0.035 C 
BRANCH  30  31
HETATM   31  C20 UNL     1      -2.937 -45.987  15.445  1.00  0.00     0.007 C 
BRANCH  31  32
HETATM   32  C21 UNL     1      -2.919 -47.256  14.635  1.00  0.00    -0.011 C 
HETATM   33  C22 UNL     1      -1.533 -47.904  14.818  1.00  0.00     0.011 C 
BRANCH  32  34
HETATM   34  C23 UNL     1      -3.119 -46.969  13.152  1.00  0.00    -0.048 C 
HETATM   35  C24 UNL     1      -3.057 -45.496  12.904  1.00  0.00     0.015 C 
HETATM   36  C25 UNL     1      -2.003 -47.625  12.344  1.00  0.00     0.015 C 
HETATM   37  C26 UNL     1      -4.424 -47.555  12.674  1.00  0.00     0.015 C 
ENDBRANCH  32  34
ENDBRANCH  31  32
ENDBRANCH  30  31
ENDBRANCH  29  30
BRANCH  29  38
HETATM   38  C27 UNL     1       0.550 -44.865  15.473  1.00  0.00     0.243 C 
HETATM   39  O6  UNL     1       1.372 -44.846  16.476  1.00  0.00    -0.271 OA
HETATM   40  N4  UNL     1       1.160 -45.042  14.232  1.00  0.00    -0.336 N 
HETATM   41  C28 UNL     1       2.635 -45.271  14.129  1.00  0.00     0.127 C 
HETATM   42  C31 UNL     1       0.665 -45.014  12.880  1.00  0.00     0.188 C 
HETATM   43  C29 UNL     1       2.766 -46.149  12.928  1.00  0.00     0.022 C 
HETATM   44  C30 UNL     1       1.631 -45.805  12.030  1.00  0.00     0.038 C 
BRANCH  42  45
HETATM   45  C32 UNL     1       0.666 -43.624  12.332  1.00  0.00     0.196 C 
HETATM   46  O7  UNL     1       1.534 -43.189  11.556  1.00  0.00    -0.646 OA
HETATM   47  O8  UNL     1      -0.362 -42.769  12.715  1.00  0.00    -0.646 OA
ENDBRANCH  42  45
ENDBRANCH  29  38
ENDBRANCH  27  29
ENDBRANCH   1  25
TORSDOF 18
ENDMDL
MODEL 3
REMARK VINA RESULT: -8.127495671      1.222      2.099
REMARK  18 active torsions:
REMARK  status: ('A' for Active; 'I' for Inactive)
REMARK    1  A    between atoms: C2_2  and  C4_4 
REMARK    2  A    between atoms: C4_4  and  C5_5 
REMARK    3  A    between atoms: C5_5  and  N1_6 
REMARK    4  A    between atoms: C5_5  and  C11_15 
REMARK       I    between atoms: N1_6  and  C6_8 
REMARK    5  A    between atoms: C6_8  and  O2_10 
REMARK    6  A    between atoms: O2_10  and  C7_11 
REMARK       I    between atoms: C11_15  and  N2_17 
REMARK    7  A    between atoms: N2_17  and  C12_19 
REMARK    8  A    between atoms: C12_19  and  C13_20 
REMARK    9  A    between atoms: C12_19  and  C17_25 
REMARK   10  A    between atoms: C13_20  and  O4_21 
REMARK   11  A    between atoms: O4_21  and  C14_22 
REMARK       I    between atoms: C17_25  and  N3_27 
REMARK   12  A    between atoms: N3_27  and  C18_29 
REMARK   13  A    between atoms: C18_29  and  C19_30 
REMARK   14  A    between atoms: C18_29  and  C27_38 
REMARK   15  A    between atoms: C19_30  and  C20_31 
REMARK   16  A    between atoms: C20_31  and  C21_32 
REMARK   17  A    between atoms: C21_32  and  C23_34 
REMARK       I    between atoms: C27_38  and  N4_40 
REMARK   18  A    between atoms: C31_44  and  C32_45 
ROOT
HETATM    1  C12 UNL     1      -1.781 -43.350  13.719  1.00  0.00     0.200 C 
ENDROOT
BRANCH   1   2
HETATM    2  N2  UNL     1      -0.497 -43.998  13.661  1.00  0.00    -0.344 N 
HETATM    3  C11 UNL     1       0.404 -44.002  12.586  1.00  0.00     0.241 C 
HETATM    4  O3  UNL     1       0.110 -43.402  11.524  1.00  0.00    -0.271 OA
ATOM      5  H2  UNL     1      -0.210 -44.511  14.495  1.00  0.00     0.163 HD
BRANCH   3   6
HETATM    6  C5  UNL     1       1.715 -44.717  12.678  1.00  0.00     0.179 C 
BRANCH   6   7
HETATM    7  C4  UNL     1       1.538 -46.024  11.913  1.00  0.00     0.038 C 
BRANCH   7   8
HETATM    8  C2  UNL     1       0.286 -46.756  12.264  1.00  0.00    -0.020 C 
HETATM    9  C1  UNL     1       0.642 -47.680  13.438  1.00  0.00     0.009 C 
HETATM   10  C3  UNL     1      -0.232 -47.653  11.174  1.00  0.00     0.009 C 
ENDBRANCH   7   8
ENDBRANCH   6   7
BRANCH   6  11
HETATM   11  N1  UNL     1       1.987 -45.040  14.083  1.00  0.00    -0.324 N 
HETATM   12  C6  UNL     1       2.817 -44.092  14.798  1.00  0.00     0.362 C 
HETATM   13  O1  UNL     1       3.274 -43.074  14.223  1.00  0.00    -0.238 OA
ATOM     14  H1  UNL     1       1.616 -45.880  14.528  1.00  0.00     0.165 HD
BRANCH  12  15
HETATM   15  O2  UNL     1       3.144 -44.253  16.141  1.00  0.00    -0.294 OA
BRANCH  15  16
HETATM   16  C7  UNL     1       3.898 -45.360  16.563  1.00  0.00     0.061 C 
HETATM   17  C8  UNL     1       4.663 -44.990  17.840  1.00  0.00     0.046 C 
HETATM   18  C9  UNL     1       4.904 -45.787  15.525  1.00  0.00     0.046 C 
HETATM   19  C10 UNL     1       3.042 -46.557  16.955  1.00  0.00     0.046 C 
ENDBRANCH  15  16
ENDBRANCH  12  15
ENDBRANCH   6  11
ENDBRANCH   3   6
ENDBRANCH   1   2
BRANCH   1  20
HETATM   20  C13 UNL     1      -2.889 -44.371  14.110  1.00  0.00     0.202 C 
BRANCH  20  21
HETATM   21  O4  UNL     1      -2.852 -45.337  13.183  1.00  0.00    -0.384 OA
BRANCH  21  22
HETATM   22  C14 UNL     1      -3.037 -46.636  13.465  1.00  0.00     0.113 C 
HETATM   23  C15 UNL     1      -2.871 -46.800  14.984  1.00  0.00     0.039 C 
HETATM   24  C16 UNL     1      -4.372 -47.202  13.084  1.00  0.00     0.039 C 
ENDBRANCH  21  22
ENDBRANCH  20  21
ENDBRANCH   1  20
BRANCH   1  25
HETATM   25  C17 UNL     1      -1.781 -42.234  14.668  1.00  0.00     0.243 C 
HETATM   26  O5  UNL     1      -0.793 -41.430  14.654  1.00  0.00    -0.271 OA
HETATM   27  N3  UNL     1      -2.810 -42.003  15.612  1.00  0.00    -0.346 N 
ATOM     28  H3  UNL     1      -3.617 -42.627  15.599  1.00  0.00     0.163 HD
BRANCH  27  29
HETATM   29  C18 UNL     1      -2.793 -40.941  16.596  1.00  0.00     0.176 C 
BRANCH  29  30
HETATM   30  C19 UNL     1      -2.302 -41.431  17.913  1.00  0.00     0.035 C 
BRANCH  30  31
HETATM   31  C20 UNL     1      -2.440 -42.959  17.983  1.00  0.00     0.007 C 
BRANCH  31  32
HETATM   32  C21 UNL     1      -1.612 -43.443  19.143  1.00  0.00    -0.011 C 
HETATM   33  C22 UNL     1      -0.758 -42.257  19.632  1.00  0.00     0.011 C 
BRANCH  32  34
HETATM   34  C23 UNL     1      -0.672 -44.566  18.723  1.00  0.00    -0.048 C 
HETATM   35  C24 UNL     1      -0.334 -44.433  17.273  1.00  0.00     0.015 C 
HETATM   36  C25 UNL     1       0.630 -44.474  19.514  1.00  0.00     0.015 C 
HETATM   37  C26 UNL     1      -1.288 -45.909  19.025  1.00  0.00     0.015 C 
ENDBRANCH  32  34
ENDBRANCH  31  32
ENDBRANCH  30  31
ENDBRANCH  29  30
BRANCH  29  38
HETATM   38  C27 UNL     1      -4.039 -40.174  16.588  1.00  0.00     0.243 C 
HETATM   39  O6  UNL     1      -5.050 -40.764  16.031  1.00  0.00    -0.271 OA
HETATM   40  N4  UNL     1      -4.317 -38.901  17.083  1.00  0.00    -0.336 N 
HETATM   41  C28 UNL     1      -5.704 -38.341  17.024  1.00  0.00     0.127 C 
HETATM   42  C31 UNL     1      -3.495 -37.868  17.660  1.00  0.00     0.188 C 
HETATM   43  C29 UNL     1      -5.779 -37.473  18.237  1.00  0.00     0.022 C 
HETATM   44  C30 UNL     1      -4.396 -36.987  18.492  1.00  0.00     0.038 C 
BRANCH  42  45
HETATM   45  C32 UNL     1      -2.909 -36.989  16.603  1.00  0.00     0.196 C 
HETATM   46  O7  UNL     1      -2.197 -37.408  15.674  1.00  0.00    -0.646 OA
HETATM   47  O8  UNL     1      -3.175 -35.626  16.664  1.00  0.00    -0.646 OA
ENDBRANCH  42  45
ENDBRANCH  29  38
ENDBRANCH  27  29
ENDBRANCH   1  25
TORSDOF 18
ENDMDL
MODEL 4
REMARK VINA RESULT: -8.064265192      2.487      8.255
REMARK  18 active torsions:
REMARK  status: ('A' for Active; 'I' for Inactive)
REMARK    1  A    between atoms: C2_2  and  C4_4 
REMARK    2  A    between atoms: C4_4  and  C5_5 
REMARK    3  A    between atoms: C5_5  and  N1_6 
REMARK    4  A    between atoms: C5_5  and  C11_15 
REMARK       I    between atoms: N1_6  and  C6_8 
REMARK    5  A    between atoms: C6_8  and  O2_10 
REMARK    6  A    between atoms: O2_10  and  C7_11 
REMARK       I    between atoms: C11_15  and  N2_17 
REMARK    7  A    between atoms: N2_17  and  C12_19 
REMARK    8  A    between atoms: C12_19  and  C13_20 
REMARK    9  A    between atoms: C12_19  and  C17_25 
REMARK   10  A    between atoms: C13_20  and  O4_21 
REMARK   11  A    between atoms: O4_21  and  C14_22 
REMARK       I    between atoms: C17_25  and  N3_27 
REMARK   12  A    between atoms: N3_27  and  C18_29 
REMARK   13  A    between atoms: C18_29  and  C19_30 
REMARK   14  A    between atoms: C18_29  and  C27_38 
REMARK   15  A    between atoms: C19_30  and  C20_31 
REMARK   16  A    between atoms: C20_31  and  C21_32 
REMARK   17  A    between atoms: C21_32  and  C23_34 
REMARK       I    between atoms: C27_38  and  N4_40 
REMARK   18  A    between atoms: C31_44  and  C32_45 
ROOT
HETATM    1  C12 UNL     1      -0.441 -42.848  14.780  1.00  0.00     0.200 C 
ENDROOT
BRANCH   1   2
HETATM    2  N2  UNL     1      -0.991 -41.683  15.424  1.00  0.00    -0.344 N 
HETATM    3  C11 UNL     1      -1.988 -40.831  14.929  1.00  0.00     0.241 C 
HETATM    4  O3  UNL     1      -2.489 -41.048  13.799  1.00  0.00    -0.271 OA
ATOM      5  H2  UNL     1      -0.613 -41.453  16.344  1.00  0.00     0.163 HD
BRANCH   3   6
HETATM    6  C5  UNL     1      -2.468 -39.659  15.724  1.00  0.00     0.179 C 
BRANCH   6   7
HETATM    7  C4  UNL     1      -1.282 -39.209  16.571  1.00  0.00     0.038 C 
BRANCH   7   8
HETATM    8  C2  UNL     1      -1.582 -38.032  17.438  1.00  0.00    -0.020 C 
HETATM    9  C1  UNL     1      -2.060 -36.914  16.499  1.00  0.00     0.009 C 
HETATM   10  C3  UNL     1      -0.388 -37.479  18.165  1.00  0.00     0.009 C 
ENDBRANCH   7   8
ENDBRANCH   6   7
BRANCH   6  11
HETATM   11  N1  UNL     1      -3.539 -40.096  16.627  1.00  0.00    -0.324 N 
HETATM   12  C6  UNL     1      -4.878 -39.685  16.261  1.00  0.00     0.362 C 
HETATM   13  O1  UNL     1      -5.081 -38.984  15.240  1.00  0.00    -0.238 OA
ATOM     14  H1  UNL     1      -3.351 -40.655  17.460  1.00  0.00     0.165 HD
BRANCH  12  15
HETATM   15  O2  UNL     1      -5.997 -40.041  17.009  1.00  0.00    -0.294 OA
BRANCH  15  16
HETATM   16  C7  UNL     1      -6.318 -39.346  18.186  1.00  0.00     0.061 C 
HETATM   17  C8  UNL     1      -5.882 -40.180  19.397  1.00  0.00     0.046 C 
HETATM   18  C9  UNL     1      -7.797 -39.089  18.306  1.00  0.00     0.046 C 
HETATM   19  C10 UNL     1      -5.566 -38.028  18.331  1.00  0.00     0.046 C 
ENDBRANCH  15  16
ENDBRANCH  12  15
ENDBRANCH   6  11
ENDBRANCH   3   6
ENDBRANCH   1   2
BRANCH   1  20
HETATM   20  C13 UNL     1       0.976 -42.538  14.213  1.00  0.00     0.202 C 
BRANCH  20  21
HETATM   21  O4  UNL     1       0.897 -42.722  12.888  1.00  0.00    -0.384 OA
BRANCH  21  22
HETATM   22  C14 UNL     1       1.335 -43.830  12.271  1.00  0.00     0.113 C 
HETATM   23  C15 UNL     1       2.437 -44.437  13.153  1.00  0.00     0.039 C 
HETATM   24  C16 UNL     1       0.303 -44.891  12.027  1.00  0.00     0.039 C 
ENDBRANCH  21  22
ENDBRANCH  20  21
ENDBRANCH   1  20
BRANCH   1  25
HETATM   25  C17 UNL     1      -0.367 -43.988  15.696  1.00  0.00     0.243 C 
HETATM   26  O5  UNL     1       0.756 -44.569  15.848  1.00  0.00    -0.271 OA
HETATM   27  N3  UNL     1      -1.477 -44.493  16.416  1.00  0.00    -0.346 N 
ATOM     28  H3  UNL     1      -2.368 -44.005  16.320  1.00  0.00     0.163 HD
BRANCH  27  29
HETATM   29  C18 UNL     1      -1.432 -45.655  17.277  1.00  0.00     0.176 C 
BRANCH  29  30
HETATM   30  C19 UNL     1      -1.825 -46.889  16.542  1.00  0.00     0.035 C 
BRANCH  30  31
HETATM   31  C20 UNL     1      -2.839 -46.539  15.443  1.00  0.00     0.007 C 
BRANCH  31  32
HETATM   32  C21 UNL     1      -2.707 -47.565  14.350  1.00  0.00    -0.011 C 
HETATM   33  C22 UNL     1      -1.212 -47.914  14.219  1.00  0.00     0.011 C 
BRANCH  32  34
HETATM   34  C23 UNL     1      -3.188 -47.015  13.013  1.00  0.00    -0.048 C 
HETATM   35  C24 UNL     1      -2.270 -47.458  11.919  1.00  0.00     0.015 C 
HETATM   36  C25 UNL     1      -4.580 -47.558  12.702  1.00  0.00     0.015 C 
HETATM   37  C26 UNL     1      -3.294 -45.512  13.070  1.00  0.00     0.015 C 
ENDBRANCH  32  34
ENDBRANCH  31  32
ENDBRANCH  30  31
ENDBRANCH  29  30
BRANCH  29  38
HETATM   38  C27 UNL     1      -2.085 -45.405  18.562  1.00  0.00     0.243 C 
HETATM   39  O6  UNL     1      -3.147 -46.112  18.793  1.00  0.00    -0.271 OA
HETATM   40  N4  UNL     1      -1.751 -44.519  19.586  1.00  0.00    -0.336 N 
HETATM   41  C28 UNL     1      -2.537 -44.487  20.859  1.00  0.00     0.127 C 
HETATM   42  C31 UNL     1      -0.751 -43.490  19.709  1.00  0.00     0.188 C 
HETATM   43  C29 UNL     1      -1.521 -44.107  21.884  1.00  0.00     0.022 C 
HETATM   44  C30 UNL     1      -0.509 -43.271  21.184  1.00  0.00     0.038 C 
BRANCH  42  45
HETATM   45  C32 UNL     1      -1.244 -42.188  19.167  1.00  0.00     0.196 C 
HETATM   46  O7  UNL     1      -0.835 -41.080  19.554  1.00  0.00    -0.646 OA
HETATM   47  O8  UNL     1      -2.217 -42.220  18.175  1.00  0.00    -0.646 OA
ENDBRANCH  42  45
ENDBRANCH  29  38
ENDBRANCH  27  29
ENDBRANCH   1  25
TORSDOF 18
ENDMDL
MODEL 5
REMARK VINA RESULT: -8.062480601      2.746      9.715
REMARK  18 active torsions:
REMARK  status: ('A' for Active; 'I' for Inactive)
REMARK    1  A    between atoms: C2_2  and  C4_4 
REMARK    2  A    between atoms: C4_4  and  C5_5 
REMARK    3  A    between atoms: C5_5  and  N1_6 
REMARK    4  A    between atoms: C5_5  and  C11_15 
REMARK       I    between atoms: N1_6  and  C6_8 
REMARK    5  A    between atoms: C6_8  and  O2_10 
REMARK    6  A    between atoms: O2_10  and  C7_11 
REMARK       I    between atoms: C11_15  and  N2_17 
REMARK    7  A    between atoms: N2_17  and  C12_19 
REMARK    8  A    between atoms: C12_19  and  C13_20 
REMARK    9  A    between atoms: C12_19  and  C17_25 
REMARK   10  A    between atoms: C13_20  and  O4_21 
REMARK   11  A    between atoms: O4_21  and  C14_22 
REMARK       I    between atoms: C17_25  and  N3_27 
REMARK   12  A    between atoms: N3_27  and  C18_29 
REMARK   13  A    between atoms: C18_29  and  C19_30 
REMARK   14  A    between atoms: C18_29  and  C27_38 
REMARK   15  A    between atoms: C19_30  and  C20_31 
REMARK   16  A    between atoms: C20_31  and  C21_32 
REMARK   17  A    between atoms: C21_32  and  C23_34 
REMARK       I    between atoms: C27_38  and  N4_40 
REMARK   18  A    between atoms: C31_44  and  C32_45 
ROOT
HETATM    1  C12 UNL     1      -3.891 -40.388  15.551  1.00  0.00     0.200 C 
ENDROOT
BRANCH   1   2
HETATM    2  N2  UNL     1      -3.874 -40.484  16.987  1.00  0.00    -0.344 N 
HETATM    3  C11 UNL     1      -4.981 -40.495  17.850  1.00  0.00     0.241 C 
HETATM    4  O3  UNL     1      -6.139 -40.401  17.378  1.00  0.00    -0.271 OA
ATOM      5  H2  UNL     1      -2.956 -40.553  17.426  1.00  0.00     0.163 HD
BRANCH   3   6
HETATM    6  C5  UNL     1      -4.805 -40.612  19.330  1.00  0.00     0.179 C 
BRANCH   6   7
HETATM    7  C4  UNL     1      -3.313 -40.822  19.564  1.00  0.00     0.038 C 
BRANCH   7   8
HETATM    8  C2  UNL     1      -2.626 -39.629  20.139  1.00  0.00    -0.020 C 
HETATM    9  C1  UNL     1      -1.335 -39.441  19.329  1.00  0.00     0.009 C 
HETATM   10  C3  UNL     1      -2.195 -39.794  21.571  1.00  0.00     0.009 C 
ENDBRANCH   7   8
ENDBRANCH   6   7
BRANCH   6  11
HETATM   11  N1  UNL     1      -5.517 -41.804  19.805  1.00  0.00    -0.324 N 
HETATM   12  C6  UNL     1      -5.816 -41.837  21.222  1.00  0.00     0.362 C 
HETATM   13  O1  UNL     1      -5.461 -40.899  21.977  1.00  0.00    -0.238 OA
ATOM     14  H1  UNL     1      -5.785 -42.563  19.177  1.00  0.00     0.165 HD
BRANCH  12  15
HETATM   15  O2  UNL     1      -6.503 -42.891  21.815  1.00  0.00    -0.294 OA
BRANCH  15  16
HETATM   16  C7  UNL     1      -7.775 -42.688  22.375  1.00  0.00     0.061 C 
HETATM   17  C8  UNL     1      -8.622 -43.950  22.172  1.00  0.00     0.046 C 
HETATM   18  C9  UNL     1      -8.498 -41.534  21.731  1.00  0.00     0.046 C 
HETATM   19  C10 UNL     1      -7.741 -42.480  23.884  1.00  0.00     0.046 C 
ENDBRANCH  15  16
ENDBRANCH  12  15
ENDBRANCH   6  11
ENDBRANCH   3   6
ENDBRANCH   1   2
BRANCH   1  20
HETATM   20  C13 UNL     1      -3.434 -38.971  15.095  1.00  0.00     0.202 C 
BRANCH  20  21
HETATM   21  O4  UNL     1      -2.722 -38.463  16.110  1.00  0.00    -0.384 OA
BRANCH  21  22
HETATM   22  C14 UNL     1      -2.715 -37.159  16.425  1.00  0.00     0.113 C 
HETATM   23  C15 UNL     1      -3.698 -36.968  17.590  1.00  0.00     0.039 C 
HETATM   24  C16 UNL     1      -1.389 -36.596  16.843  1.00  0.00     0.039 C 
ENDBRANCH  21  22
ENDBRANCH  20  21
ENDBRANCH   1  20
BRANCH   1  25
HETATM   25  C17 UNL     1      -3.038 -41.404  14.931  1.00  0.00     0.243 C 
HETATM   26  O5  UNL     1      -2.504 -41.141  13.806  1.00  0.00    -0.271 OA
HETATM   27  N3  UNL     1      -2.781 -42.673  15.506  1.00  0.00    -0.346 N 
ATOM     28  H3  UNL     1      -3.181 -42.870  16.423  1.00  0.00     0.163 HD
BRANCH  27  29
HETATM   29  C18 UNL     1      -1.990 -43.710  14.876  1.00  0.00     0.176 C 
BRANCH  29  30
HETATM   30  C19 UNL     1      -2.856 -44.735  14.231  1.00  0.00     0.035 C 
BRANCH  30  31
HETATM   31  C20 UNL     1      -2.368 -44.999  12.798  1.00  0.00     0.007 C 
BRANCH  31  32
HETATM   32  C21 UNL     1      -2.541 -46.467  12.517  1.00  0.00    -0.011 C 
HETATM   33  C22 UNL     1      -3.187 -47.106  13.761  1.00  0.00     0.011 C 
BRANCH  32  34
HETATM   34  C23 UNL     1      -1.199 -47.147  12.274  1.00  0.00    -0.048 C 
HETATM   35  C24 UNL     1      -1.364 -48.271  11.304  1.00  0.00     0.015 C 
HETATM   36  C25 UNL     1      -0.217 -46.148  11.668  1.00  0.00     0.015 C 
HETATM   37  C26 UNL     1      -0.608 -47.624  13.577  1.00  0.00     0.015 C 
ENDBRANCH  32  34
ENDBRANCH  31  32
ENDBRANCH  30  31
ENDBRANCH  29  30
BRANCH  29  38
HETATM   38  C27 UNL     1      -0.925 -44.190  15.757  1.00  0.00     0.243 C 
HETATM   39  O6  UNL     1      -1.258 -44.333  17.002  1.00  0.00    -0.271 OA
HETATM   40  N4  UNL     1       0.400 -44.518  15.475  1.00  0.00    -0.336 N 
HETATM   41  C28 UNL     1       1.299 -45.064  16.539  1.00  0.00     0.127 C 
HETATM   42  C31 UNL     1       1.209 -44.407  14.288  1.00  0.00     0.188 C 
HETATM   43  C29 UNL     1       2.216 -45.971  15.787  1.00  0.00     0.022 C 
HETATM   44  C30 UNL     1       2.336 -45.404  14.417  1.00  0.00     0.038 C 
BRANCH  42  45
HETATM   45  C32 UNL     1       1.850 -43.060  14.195  1.00  0.00     0.196 C 
HETATM   46  O7  UNL     1       1.237 -42.026  13.879  1.00  0.00    -0.646 OA
HETATM   47  O8  UNL     1       3.207 -42.961  14.476  1.00  0.00    -0.646 OA
ENDBRANCH  42  45
ENDBRANCH  29  38
ENDBRANCH  27  29
ENDBRANCH   1  25
TORSDOF 18
ENDMDL
