MODEL 1
REMARK VINA RESULT: -7.571987368      0.000      0.000
REMARK  14 active torsions:
REMARK  status: ('A' for Active; 'I' for Inactive)
REMARK    1  A    between atoms: C2_2  and  C3_3 
REMARK    2  A    between atoms: C3_3  and  N1_4 
REMARK    3  A    between atoms: C3_3  and  C5_8 
REMARK       I    between atoms: C5_8  and  N2_10 
REMARK    4  A    between atoms: N2_10  and  C6_11 
REMARK    5  A    between atoms: N2_10  and  C14_21 
REMARK    6  A    between atoms: C13_18  and  O2_19 
REMARK    7  A    between atoms: N3_24  and  C17_25 
REMARK    8  A    between atoms: C17_25  and  O3_26 
REMARK    9  A    between atoms: C17_25  and  C18_28 
REMARK   10  A    between atoms: C18_28  and  N4_29 
REMARK   11  A    between atoms: C18_28  and  C23_39 
REMARK   12  A    between atoms: N4_29  and  C19_30 
REMARK   13  A    between atoms: C19_30  and  O4_31 
REMARK   14  A    between atoms: C19_30  and  C20_33 
ROOT
HETATM    1  C14 UNL     1      -1.622 -43.352  15.720  1.00  0.00     0.024 C 
HETATM    2  C15 UNL     1      -2.796 -43.352  14.839  1.00  0.00     0.078 C 
HETATM    3  C16 UNL     1      -3.080 -41.970  14.283  1.00  0.00     0.131 C 
HETATM    4  N3  UNL     1      -2.458 -40.897  14.974  1.00  0.00    -0.355 N 
HETATM    5  C26 UNL     1      -1.082 -40.996  15.491  1.00  0.00     0.165 C 
HETATM    6  C27 UNL     1      -0.518 -42.397  15.355  1.00  0.00    -0.021 C 
HETATM    7  C28 UNL     1       0.386 -42.606  14.254  1.00  0.00    -0.020 C 
HETATM    8  C29 UNL     1      -0.039 -42.728  12.855  1.00  0.00     0.036 C 
ENDROOT
BRANCH   1   9
HETATM    9  N2  UNL     1      -1.200 -44.652  16.207  1.00  0.00    -0.315 N 
HETATM   10  C5  UNL     1      -0.992 -44.767  17.620  1.00  0.00     0.255 C 
HETATM   11  O1  UNL     1      -0.617 -45.920  18.033  1.00  0.00    -0.271 OA
BRANCH  10  12
HETATM   12  C3  UNL     1      -1.155 -43.743  18.634  1.00  0.00     0.276 C 
BRANCH  12  13
HETATM   13  C2  UNL     1      -2.609 -43.390  18.922  1.00  0.00     0.038 C 
HETATM   14  C1  UNL     1      -2.821 -41.893  18.855  1.00  0.00     0.007 C 
ENDBRANCH  12  13
BRANCH  12  15
HETATM   15  N1  UNL     1      -0.712 -44.346  19.928  1.00  0.00    -0.066 N 
HETATM   16  C4  UNL     1       0.372 -43.576  20.496  1.00  0.00     0.267 C 
ATOM     17  H12 UNL     1      -1.486 -44.453  20.584  1.00  0.00     0.277 HD
ATOM     18  H11 UNL     1      -0.465 -45.331  19.824  1.00  0.00     0.277 HD
ENDBRANCH  12  15
ENDBRANCH  10  12
BRANCH   9  19
HETATM   19  C6  UNL     1      -1.043 -45.808  15.364  1.00  0.00     0.093 C 
HETATM   20  C7  UNL     1      -2.116 -46.848  15.674  1.00  0.00     0.033 C 
HETATM   21  C8  UNL     1      -1.953 -48.101  14.892  1.00  0.00     0.017 C 
HETATM   22  C9  UNL     1      -1.800 -47.795  13.407  1.00  0.00     0.007 C 
HETATM   23  C13 UNL     1      -0.608 -48.714  15.209  1.00  0.00     0.126 C 
HETATM   24  C10 UNL     1      -0.343 -47.548  13.171  1.00  0.00     0.007 C 
HETATM   25  C11 UNL     1       0.297 -47.736  14.522  1.00  0.00     0.017 C 
HETATM   26  C12 UNL     1       0.297 -46.383  15.224  1.00  0.00     0.033 C 
BRANCH  23  27
HETATM   27  O2  UNL     1      -0.367 -48.911  16.544  1.00  0.00    -0.395 OA
ATOM     28  H2  UNL     1       0.054 -48.182  16.984  1.00  0.00     0.210 HD
ENDBRANCH  23  27
ENDBRANCH   9  19
ENDBRANCH   1   9
BRANCH   4  29
HETATM   29  C17 UNL     1      -3.065 -39.639  15.184  1.00  0.00     0.180 C 
BRANCH  29  30
HETATM   30  O3  UNL     1      -3.511 -39.132  14.058  1.00  0.00    -0.344 OA
ATOM     31  H3  UNL     1      -4.459 -39.061  14.064  1.00  0.00     0.219 HD
ENDBRANCH  29  30
BRANCH  29  32
HETATM   32  C18 UNL     1      -3.274 -38.815  16.371  1.00  0.00     0.162 C 
BRANCH  32  33
HETATM   33  N4  UNL     1      -2.171 -38.243  17.027  1.00  0.00    -0.373 NA
BRANCH  33  34
HETATM   34  C19 UNL     1      -1.126 -37.752  17.694  1.00  0.00     0.251 C 
BRANCH  34  35
HETATM   35  O4  UNL     1      -0.045 -37.239  17.125  1.00  0.00    -0.333 OA
ATOM     36  H4  UNL     1       0.805 -37.665  17.101  1.00  0.00     0.220 HD
ENDBRANCH  34  35
BRANCH  34  37
HETATM   37  C20 UNL     1      -0.964 -37.668  19.176  1.00  0.00     0.165 A 
HETATM   38  C21 UNL     1      -1.466 -38.386  20.192  1.00  0.00     0.064 A 
HETATM   39  C22 UNL     1      -0.989 -37.877  21.379  1.00  0.00     0.117 A 
HETATM   40  N5  UNL     1      -0.206 -36.854  21.034  1.00  0.00    -0.272 N 
HETATM   41  O5  UNL     1      -0.199 -36.740  19.745  1.00  0.00    -0.233 OA
ATOM     42  H5  UNL     1       0.306 -36.256  21.683  1.00  0.00     0.194 HD
ENDBRANCH  34  37
ENDBRANCH  33  34
ENDBRANCH  32  33
BRANCH  32  43
HETATM   43  C23 UNL     1      -4.646 -38.587  16.827  1.00  0.00    -0.043 C 
HETATM   44  C24 UNL     1      -4.854 -37.340  17.685  1.00  0.00     0.046 C 
HETATM   45  C25 UNL     1      -5.489 -39.691  17.357  1.00  0.00     0.046 C 
ENDBRANCH  32  43
ENDBRANCH  29  32
ENDBRANCH   4  29
TORSDOF 14
ENDMDL
MODEL 2
REMARK VINA RESULT: -7.551154844      2.250      4.574
REMARK  14 active torsions:
REMARK  status: ('A' for Active; 'I' for Inactive)
REMARK    1  A    between atoms: C2_2  and  C3_3 
REMARK    2  A    between atoms: C3_3  and  N1_4 
REMARK    3  A    between atoms: C3_3  and  C5_8 
REMARK       I    between atoms: C5_8  and  N2_10 
REMARK    4  A    between atoms: N2_10  and  C6_11 
REMARK    5  A    between atoms: N2_10  and  C14_21 
REMARK    6  A    between atoms: C13_18  and  O2_19 
REMARK    7  A    between atoms: N3_24  and  C17_25 
REMARK    8  A    between atoms: C17_25  and  O3_26 
REMARK    9  A    between atoms: C17_25  and  C18_28 
REMARK   10  A    between atoms: C18_28  and  N4_29 
REMARK   11  A    between atoms: C18_28  and  C23_39 
REMARK   12  A    between atoms: N4_29  and  C19_30 
REMARK   13  A    between atoms: C19_30  and  O4_31 
REMARK   14  A    between atoms: C19_30  and  C20_33 
ROOT
HETATM    1  C14 UNL     1      -1.856 -43.868  17.155  1.00  0.00     0.024 C 
HETATM    2  C15 UNL     1      -0.441 -43.715  17.516  1.00  0.00     0.078 C 
HETATM    3  C16 UNL     1      -0.266 -43.445  18.998  1.00  0.00     0.131 C 
HETATM    4  N3  UNL     1      -1.435 -43.009  19.678  1.00  0.00    -0.355 N 
HETATM    5  C26 UNL     1      -2.763 -43.575  19.388  1.00  0.00     0.165 C 
HETATM    6  C27 UNL     1      -2.740 -44.506  18.190  1.00  0.00    -0.021 C 
HETATM    7  C28 UNL     1      -2.729 -45.915  18.490  1.00  0.00    -0.020 C 
HETATM    8  C29 UNL     1      -1.551 -46.641  18.976  1.00  0.00     0.036 C 
ENDROOT
BRANCH   1   9
HETATM    9  N2  UNL     1      -2.116 -44.245  15.779  1.00  0.00    -0.315 N 
HETATM   10  C5  UNL     1      -2.706 -43.241  14.942  1.00  0.00     0.255 C 
HETATM   11  O1  UNL     1      -2.932 -43.592  13.732  1.00  0.00    -0.271 OA
BRANCH  10  12
HETATM   12  C3  UNL     1      -3.073 -41.884  15.298  1.00  0.00     0.276 C 
BRANCH  12  13
HETATM   13  C2  UNL     1      -1.978 -40.861  15.029  1.00  0.00     0.038 C 
HETATM   14  C1  UNL     1      -1.517 -40.216  16.318  1.00  0.00     0.007 C 
ENDBRANCH  12  13
BRANCH  12  15
HETATM   15  N1  UNL     1      -4.144 -41.465  14.342  1.00  0.00    -0.066 N 
HETATM   16  C4  UNL     1      -3.707 -40.325  13.567  1.00  0.00     0.267 C 
ATOM     17  H12 UNL     1      -4.445 -42.237  13.746  1.00  0.00     0.277 HD
ATOM     18  H11 UNL     1      -5.029 -41.287  14.817  1.00  0.00     0.277 HD
ENDBRANCH  12  15
ENDBRANCH  10  12
BRANCH   9  19
HETATM   19  C6  UNL     1      -1.766 -45.525  15.221  1.00  0.00     0.093 C 
HETATM   20  C7  UNL     1      -0.668 -45.371  14.171  1.00  0.00     0.033 C 
HETATM   21  C8  UNL     1      -0.324 -46.651  13.500  1.00  0.00     0.017 C 
HETATM   22  C9  UNL     1      -0.048 -47.743  14.528  1.00  0.00     0.007 C 
HETATM   23  C13 UNL     1      -1.552 -47.197  12.809  1.00  0.00     0.126 C 
HETATM   24  C10 UNL     1      -1.370 -48.360  14.858  1.00  0.00     0.007 C 
HETATM   25  C11 UNL     1      -2.361 -47.617  14.000  1.00  0.00     0.017 C 
HETATM   26  C12 UNL     1      -2.851 -46.414  14.798  1.00  0.00     0.033 C 
BRANCH  23  27
HETATM   27  O2  UNL     1      -2.166 -46.320  11.953  1.00  0.00    -0.395 OA
ATOM     28  H2  UNL     1      -1.807 -46.306  11.073  1.00  0.00     0.210 HD
ENDBRANCH  23  27
ENDBRANCH   9  19
ENDBRANCH   1   9
BRANCH   4  29
HETATM   29  C17 UNL     1      -1.430 -42.049  20.714  1.00  0.00     0.180 C 
BRANCH  29  30
HETATM   30  O3  UNL     1      -0.495 -42.308  21.599  1.00  0.00    -0.344 OA
ATOM     31  H3  UNL     1      -0.828 -42.853  22.302  1.00  0.00     0.219 HD
ENDBRANCH  29  30
BRANCH  29  32
HETATM   32  C18 UNL     1      -2.245 -40.868  20.987  1.00  0.00     0.162 C 
BRANCH  32  33
HETATM   33  N4  UNL     1      -1.713 -39.587  20.764  1.00  0.00    -0.373 NA
BRANCH  33  34
HETATM   34  C19 UNL     1      -1.240 -38.349  20.610  1.00  0.00     0.251 C 
BRANCH  34  35
HETATM   35  O4  UNL     1      -1.046 -37.490  21.599  1.00  0.00    -0.333 OA
ATOM     36  H4  UNL     1      -1.691 -37.279  22.263  1.00  0.00     0.220 HD
ENDBRANCH  34  35
BRANCH  34  37
HETATM   37  C20 UNL     1      -0.831 -37.697  19.330  1.00  0.00     0.165 A 
HETATM   38  C21 UNL     1      -1.513 -37.031  18.385  1.00  0.00     0.064 A 
HETATM   39  C22 UNL     1      -0.638 -36.634  17.399  1.00  0.00     0.117 A 
HETATM   40  N5  UNL     1       0.557 -37.082  17.787  1.00  0.00    -0.272 N 
HETATM   41  O5  UNL     1       0.433 -37.702  18.915  1.00  0.00    -0.233 OA
ATOM     42  H5  UNL     1       1.430 -36.956  17.274  1.00  0.00     0.194 HD
ENDBRANCH  34  37
ENDBRANCH  33  34
ENDBRANCH  32  33
BRANCH  32  43
HETATM   43  C23 UNL     1      -3.614 -41.063  21.464  1.00  0.00    -0.043 C 
HETATM   44  C24 UNL     1      -4.714 -40.638  20.491  1.00  0.00     0.046 C 
HETATM   45  C25 UNL     1      -4.020 -40.705  22.848  1.00  0.00     0.046 C 
ENDBRANCH  32  43
ENDBRANCH  29  32
ENDBRANCH   4  29
TORSDOF 14
ENDMDL
MODEL 3
REMARK VINA RESULT: -7.541995183      2.765      5.228
REMARK  14 active torsions:
REMARK  status: ('A' for Active; 'I' for Inactive)
REMARK    1  A    between atoms: C2_2  and  C3_3 
REMARK    2  A    between atoms: C3_3  and  N1_4 
REMARK    3  A    between atoms: C3_3  and  C5_8 
REMARK       I    between atoms: C5_8  and  N2_10 
REMARK    4  A    between atoms: N2_10  and  C6_11 
REMARK    5  A    between atoms: N2_10  and  C14_21 
REMARK    6  A    between atoms: C13_18  and  O2_19 
REMARK    7  A    between atoms: N3_24  and  C17_25 
REMARK    8  A    between atoms: C17_25  and  O3_26 
REMARK    9  A    between atoms: C17_25  and  C18_28 
REMARK   10  A    between atoms: C18_28  and  N4_29 
REMARK   11  A    between atoms: C18_28  and  C23_39 
REMARK   12  A    between atoms: N4_29  and  C19_30 
REMARK   13  A    between atoms: C19_30  and  O4_31 
REMARK   14  A    between atoms: C19_30  and  C20_33 
ROOT
HETATM    1  C14 UNL     1       0.264 -44.994  15.315  1.00  0.00     0.024 C 
HETATM    2  C15 UNL     1       0.791 -43.626  15.247  1.00  0.00     0.078 C 
HETATM    3  C16 UNL     1      -0.070 -42.653  16.029  1.00  0.00     0.131 C 
HETATM    4  N3  UNL     1      -1.377 -43.113  16.341  1.00  0.00    -0.355 N 
HETATM    5  C26 UNL     1      -1.638 -44.505  16.743  1.00  0.00     0.165 C 
HETATM    6  C27 UNL     1      -0.409 -45.383  16.604  1.00  0.00    -0.021 C 
HETATM    7  C28 UNL     1       0.304 -45.664  17.823  1.00  0.00    -0.020 C 
HETATM    8  C29 UNL     1       1.170 -44.698  18.508  1.00  0.00     0.036 C 
ENDROOT
BRANCH   1   9
HETATM    9  N2  UNL     1       1.085 -46.016  14.695  1.00  0.00    -0.315 N 
HETATM   10  C5  UNL     1       0.519 -46.690  13.563  1.00  0.00     0.255 C 
HETATM   11  O1  UNL     1       1.255 -47.591  13.031  1.00  0.00    -0.271 OA
BRANCH  10  12
HETATM   12  C3  UNL     1      -0.779 -46.474  12.952  1.00  0.00     0.276 C 
BRANCH  12  13
HETATM   13  C2  UNL     1      -0.715 -46.205  11.454  1.00  0.00     0.038 C 
HETATM   14  C1  UNL     1      -1.185 -47.411  10.671  1.00  0.00     0.007 C 
ENDBRANCH  12  13
BRANCH  12  15
HETATM   15  N1  UNL     1      -1.502 -47.781  13.010  1.00  0.00    -0.066 N 
HETATM   16  C4  UNL     1      -2.029 -48.006  14.338  1.00  0.00     0.267 C 
ATOM     17  H12 UNL     1      -2.229 -47.846  12.297  1.00  0.00     0.277 HD
ATOM     18  H11 UNL     1      -0.915 -48.555  12.698  1.00  0.00     0.277 HD
ENDBRANCH  12  15
ENDBRANCH  10  12
BRANCH   9  19
HETATM   19  C6  UNL     1       2.423 -46.332  15.120  1.00  0.00     0.093 C 
HETATM   20  C7  UNL     1       3.438 -45.890  14.068  1.00  0.00     0.033 C 
HETATM   21  C8  UNL     1       4.833 -46.266  14.413  1.00  0.00     0.017 C 
HETATM   22  C9  UNL     1       5.177 -45.822  15.831  1.00  0.00     0.007 C 
HETATM   23  C13 UNL     1       4.926 -47.769  14.544  1.00  0.00     0.126 C 
HETATM   24  C10 UNL     1       4.736 -46.923  16.741  1.00  0.00     0.007 C 
HETATM   25  C11 UNL     1       4.167 -47.971  15.821  1.00  0.00     0.017 C 
HETATM   26  C12 UNL     1       2.683 -47.675  15.645  1.00  0.00     0.033 C 
BRANCH  23  27
HETATM   27  O2  UNL     1       4.462 -48.469  13.459  1.00  0.00    -0.395 OA
ATOM     28  H2  UNL     1       4.192 -49.360  13.647  1.00  0.00     0.210 HD
ENDBRANCH  23  27
ENDBRANCH   9  19
ENDBRANCH   1   9
BRANCH   4  29
HETATM   29  C17 UNL     1      -2.522 -42.286  16.346  1.00  0.00     0.180 C 
BRANCH  29  30
HETATM   30  O3  UNL     1      -3.126 -42.316  17.512  1.00  0.00    -0.344 OA
ATOM     31  H3  UNL     1      -3.712 -41.575  17.616  1.00  0.00     0.219 HD
ENDBRANCH  29  30
BRANCH  29  32
HETATM   32  C18 UNL     1      -3.150 -41.440  15.335  1.00  0.00     0.162 C 
BRANCH  32  33
HETATM   33  N4  UNL     1      -3.492 -40.114  15.649  1.00  0.00    -0.373 NA
BRANCH  33  34
HETATM   34  C19 UNL     1      -3.824 -38.843  15.881  1.00  0.00     0.251 C 
BRANCH  34  35
HETATM   35  O4  UNL     1      -5.046 -38.349  15.746  1.00  0.00    -0.333 OA
ATOM     36  H4  UNL     1      -5.491 -37.826  16.402  1.00  0.00     0.220 HD
ENDBRANCH  34  35
BRANCH  34  37
HETATM   37  C20 UNL     1      -2.920 -37.747  16.339  1.00  0.00     0.165 A 
HETATM   38  C21 UNL     1      -2.794 -37.092  17.503  1.00  0.00     0.064 A 
HETATM   39  C22 UNL     1      -1.788 -36.159  17.385  1.00  0.00     0.117 A 
HETATM   40  N5  UNL     1      -1.337 -36.283  16.136  1.00  0.00    -0.272 N 
HETATM   41  O5  UNL     1      -2.004 -37.213  15.533  1.00  0.00    -0.233 OA
ATOM     42  H5  UNL     1      -0.584 -35.733  15.722  1.00  0.00     0.194 HD
ENDBRANCH  34  37
ENDBRANCH  33  34
ENDBRANCH  32  33
BRANCH  32  43
HETATM   43  C23 UNL     1      -3.380 -42.001  14.003  1.00  0.00    -0.043 C 
HETATM   44  C24 UNL     1      -4.591 -41.443  13.257  1.00  0.00     0.046 C 
HETATM   45  C25 UNL     1      -3.270 -43.459  13.737  1.00  0.00     0.046 C 
ENDBRANCH  32  43
ENDBRANCH  29  32
ENDBRANCH   4  29
TORSDOF 14
ENDMDL
MODEL 4
REMARK VINA RESULT: -7.366111520      2.115      2.849
REMARK  14 active torsions:
REMARK  status: ('A' for Active; 'I' for Inactive)
REMARK    1  A    between atoms: C2_2  and  C3_3 
REMARK    2  A    between atoms: C3_3  and  N1_4 
REMARK    3  A    between atoms: C3_3  and  C5_8 
REMARK       I    between atoms: C5_8  and  N2_10 
REMARK    4  A    between atoms: N2_10  and  C6_11 
REMARK    5  A    between atoms: N2_10  and  C14_21 
REMARK    6  A    between atoms: C13_18  and  O2_19 
REMARK    7  A    between atoms: N3_24  and  C17_25 
REMARK    8  A    between atoms: C17_25  and  O3_26 
REMARK    9  A    between atoms: C17_25  and  C18_28 
REMARK   10  A    between atoms: C18_28  and  N4_29 
REMARK   11  A    between atoms: C18_28  and  C23_39 
REMARK   12  A    between atoms: N4_29  and  C19_30 
REMARK   13  A    between atoms: C19_30  and  O4_31 
REMARK   14  A    between atoms: C19_30  and  C20_33 
ROOT
HETATM    1  C14 UNL     1      -1.846 -43.353  15.695  1.00  0.00     0.024 C 
HETATM    2  C15 UNL     1      -2.905 -43.335  14.679  1.00  0.00     0.078 C 
HETATM    3  C16 UNL     1      -3.101 -41.949  14.097  1.00  0.00     0.131 C 
HETATM    4  N3  UNL     1      -2.553 -40.886  14.862  1.00  0.00    -0.355 N 
HETATM    5  C26 UNL     1      -1.251 -41.004  15.542  1.00  0.00     0.165 C 
HETATM    6  C27 UNL     1      -0.694 -42.412  15.470  1.00  0.00    -0.021 C 
HETATM    7  C28 UNL     1       0.334 -42.632  14.486  1.00  0.00    -0.020 C 
HETATM    8  C29 UNL     1       0.080 -42.745  13.045  1.00  0.00     0.036 C 
ENDROOT
BRANCH   1   9
HETATM    9  N2  UNL     1      -1.504 -44.659  16.225  1.00  0.00    -0.315 N 
HETATM   10  C5  UNL     1      -1.580 -44.810  17.649  1.00  0.00     0.255 C 
HETATM   11  O1  UNL     1      -1.271 -45.968  18.100  1.00  0.00    -0.271 OA
BRANCH  10  12
HETATM   12  C3  UNL     1      -1.962 -43.817  18.634  1.00  0.00     0.276 C 
BRANCH  12  13
HETATM   13  C2  UNL     1      -2.556 -44.409  19.905  1.00  0.00     0.038 C 
HETATM   14  C1  UNL     1      -4.015 -44.758  19.704  1.00  0.00     0.007 C 
ENDBRANCH  12  13
BRANCH  12  15
HETATM   15  N1  UNL     1      -0.695 -43.199  19.132  1.00  0.00    -0.066 N 
HETATM   16  C4  UNL     1      -0.987 -42.162  20.097  1.00  0.00     0.267 C 
ATOM     17  H12 UNL     1      -0.053 -43.897  19.508  1.00  0.00     0.277 HD
ATOM     18  H11 UNL     1      -0.113 -42.854  18.368  1.00  0.00     0.277 HD
ENDBRANCH  12  15
ENDBRANCH  10  12
BRANCH   9  19
HETATM   19  C6  UNL     1      -1.159 -45.789  15.403  1.00  0.00     0.093 C 
HETATM   20  C7  UNL     1      -2.207 -46.891  15.539  1.00  0.00     0.033 C 
HETATM   21  C8  UNL     1      -1.861 -48.118  14.777  1.00  0.00     0.017 C 
HETATM   22  C9  UNL     1      -1.505 -47.776  13.334  1.00  0.00     0.007 C 
HETATM   23  C13 UNL     1      -0.546 -48.665  15.284  1.00  0.00     0.126 C 
HETATM   24  C10 UNL     1      -0.045 -47.448  13.322  1.00  0.00     0.007 C 
HETATM   25  C11 UNL     1       0.396 -47.627  14.751  1.00  0.00     0.017 C 
HETATM   26  C12 UNL     1       0.217 -46.290  15.459  1.00  0.00     0.033 C 
BRANCH  23  27
HETATM   27  O2  UNL     1      -0.496 -48.873  16.639  1.00  0.00    -0.395 OA
ATOM     28  H2  UNL     1       0.316 -49.253  16.953  1.00  0.00     0.210 HD
ENDBRANCH  23  27
ENDBRANCH   9  19
ENDBRANCH   1   9
BRANCH   4  29
HETATM   29  C17 UNL     1      -3.164 -39.619  15.002  1.00  0.00     0.180 C 
BRANCH  29  30
HETATM   30  O3  UNL     1      -3.545 -39.144  13.838  1.00  0.00    -0.344 OA
ATOM     31  H3  UNL     1      -3.569 -38.194  13.845  1.00  0.00     0.219 HD
ENDBRANCH  29  30
BRANCH  29  32
HETATM   32  C18 UNL     1      -3.434 -38.760  16.150  1.00  0.00     0.162 C 
BRANCH  32  33
HETATM   33  N4  UNL     1      -4.538 -39.029  16.978  1.00  0.00    -0.373 NA
BRANCH  33  34
HETATM   34  C19 UNL     1      -5.543 -39.314  17.807  1.00  0.00     0.251 C 
BRANCH  34  35
HETATM   35  O4  UNL     1      -6.786 -38.881  17.658  1.00  0.00    -0.333 OA
ATOM     36  H4  UNL     1      -7.558 -39.341  17.968  1.00  0.00     0.220 HD
ENDBRANCH  34  35
BRANCH  34  37
HETATM   37  C20 UNL     1      -5.483 -40.165  19.032  1.00  0.00     0.165 A 
HETATM   38  C21 UNL     1      -4.464 -40.648  19.761  1.00  0.00     0.064 A 
HETATM   39  C22 UNL     1      -4.972 -41.387  20.805  1.00  0.00     0.117 A 
HETATM   40  N5  UNL     1      -6.297 -41.326  20.668  1.00  0.00    -0.272 N 
HETATM   41  O5  UNL     1      -6.585 -40.611  19.629  1.00  0.00    -0.233 OA
ATOM     42  H5  UNL     1      -6.976 -41.773  21.284  1.00  0.00     0.194 HD
ENDBRANCH  34  37
ENDBRANCH  33  34
ENDBRANCH  32  33
BRANCH  32  43
HETATM   43  C23 UNL     1      -2.520 -37.650  16.421  1.00  0.00    -0.043 C 
HETATM   44  C24 UNL     1      -1.311 -37.994  17.290  1.00  0.00     0.046 C 
HETATM   45  C25 UNL     1      -3.016 -36.297  16.785  1.00  0.00     0.046 C 
ENDBRANCH  32  43
ENDBRANCH  29  32
ENDBRANCH   4  29
TORSDOF 14
ENDMDL
MODEL 5
REMARK VINA RESULT: -7.335918170      2.789      4.915
REMARK  14 active torsions:
REMARK  status: ('A' for Active; 'I' for Inactive)
REMARK    1  A    between atoms: C2_2  and  C3_3 
REMARK    2  A    between atoms: C3_3  and  N1_4 
REMARK    3  A    between atoms: C3_3  and  C5_8 
REMARK       I    between atoms: C5_8  and  N2_10 
REMARK    4  A    between atoms: N2_10  and  C6_11 
REMARK    5  A    between atoms: N2_10  and  C14_21 
REMARK    6  A    between atoms: C13_18  and  O2_19 
REMARK    7  A    between atoms: N3_24  and  C17_25 
REMARK    8  A    between atoms: C17_25  and  O3_26 
REMARK    9  A    between atoms: C17_25  and  C18_28 
REMARK   10  A    between atoms: C18_28  and  N4_29 
REMARK   11  A    between atoms: C18_28  and  C23_39 
REMARK   12  A    between atoms: N4_29  and  C19_30 
REMARK   13  A    between atoms: C19_30  and  O4_31 
REMARK   14  A    between atoms: C19_30  and  C20_33 
ROOT
HETATM    1  C14 UNL     1       0.273 -45.012  14.945  1.00  0.00     0.024 C 
HETATM    2  C15 UNL     1       0.821 -43.653  14.855  1.00  0.00     0.078 C 
HETATM    3  C16 UNL     1      -0.108 -42.630  15.480  1.00  0.00     0.131 C 
HETATM    4  N3  UNL     1      -1.447 -43.064  15.673  1.00  0.00    -0.355 N 
HETATM    5  C26 UNL     1      -1.767 -44.429  16.125  1.00  0.00     0.165 C 
HETATM    6  C27 UNL     1      -0.541 -45.320  16.172  1.00  0.00    -0.021 C 
HETATM    7  C28 UNL     1       0.031 -45.532  17.476  1.00  0.00    -0.020 C 
HETATM    8  C29 UNL     1       0.829 -44.532  18.195  1.00  0.00     0.036 C 
ENDROOT
BRANCH   1   9
HETATM    9  N2  UNL     1       1.145 -46.073  14.479  1.00  0.00    -0.315 N 
HETATM   10  C5  UNL     1       0.655 -46.870  13.392  1.00  0.00     0.255 C 
HETATM   11  O1  UNL     1       1.435 -47.805  12.996  1.00  0.00    -0.271 OA
BRANCH  10  12
HETATM   12  C3  UNL     1      -0.609 -46.746  12.692  1.00  0.00     0.276 C 
BRANCH  12  13
HETATM   13  C2  UNL     1      -0.468 -46.700  11.176  1.00  0.00     0.038 C 
HETATM   14  C1  UNL     1      -0.814 -48.040  10.563  1.00  0.00     0.007 C 
ENDBRANCH  12  13
BRANCH  12  15
HETATM   15  N1  UNL     1      -1.344 -48.031  12.904  1.00  0.00    -0.066 N 
HETATM   16  C4  UNL     1      -2.055 -48.000  14.163  1.00  0.00     0.267 C 
ATOM     17  H12 UNL     1      -1.964 -48.248  12.123  1.00  0.00     0.277 HD
ATOM     18  H11 UNL     1      -0.725 -48.839  12.836  1.00  0.00     0.277 HD
ENDBRANCH  12  15
ENDBRANCH  10  12
BRANCH   9  19
HETATM   19  C6  UNL     1       2.462 -46.315  15.007  1.00  0.00     0.093 C 
HETATM   20  C7  UNL     1       3.529 -45.913  13.992  1.00  0.00     0.033 C 
HETATM   21  C8  UNL     1       4.909 -46.218  14.448  1.00  0.00     0.017 C 
HETATM   22  C9  UNL     1       5.148 -45.667  15.850  1.00  0.00     0.007 C 
HETATM   23  C13 UNL     1       5.036 -47.705  14.689  1.00  0.00     0.126 C 
HETATM   24  C10 UNL     1       4.681 -46.718  16.806  1.00  0.00     0.007 C 
HETATM   25  C11 UNL     1       4.203 -47.845  15.928  1.00  0.00     0.017 C 
HETATM   26  C12 UNL     1       2.725 -47.610  15.640  1.00  0.00     0.033 C 
BRANCH  23  27
HETATM   27  O2  UNL     1       4.663 -48.491  13.629  1.00  0.00    -0.395 OA
ATOM     28  H2  UNL     1       5.366 -48.708  13.028  1.00  0.00     0.210 HD
ENDBRANCH  23  27
ENDBRANCH   9  19
ENDBRANCH   1   9
BRANCH   4  29
HETATM   29  C17 UNL     1      -2.576 -42.232  15.505  1.00  0.00     0.180 C 
BRANCH  29  30
HETATM   30  O3  UNL     1      -3.515 -42.837  14.814  1.00  0.00    -0.344 OA
ATOM     31  H3  UNL     1      -4.231 -43.112  15.374  1.00  0.00     0.219 HD
ENDBRANCH  29  30
BRANCH  29  32
HETATM   32  C18 UNL     1      -2.886 -40.869  15.926  1.00  0.00     0.162 C 
BRANCH  32  33
HETATM   33  N4  UNL     1      -2.276 -40.339  17.076  1.00  0.00    -0.373 NA
BRANCH  33  34
HETATM   34  C19 UNL     1      -1.725 -39.886  18.204  1.00  0.00     0.251 C 
BRANCH  34  35
HETATM   35  O4  UNL     1      -1.475 -40.631  19.269  1.00  0.00    -0.333 OA
ATOM     36  H4  UNL     1      -0.894 -40.380  19.978  1.00  0.00     0.220 HD
ENDBRANCH  34  35
BRANCH  34  37
HETATM   37  C20 UNL     1      -1.278 -38.490  18.487  1.00  0.00     0.165 A 
HETATM   38  C21 UNL     1      -1.114 -37.407  17.711  1.00  0.00     0.064 A 
HETATM   39  C22 UNL     1      -0.674 -36.361  18.490  1.00  0.00     0.117 A 
HETATM   40  N5  UNL     1      -0.584 -36.855  19.726  1.00  0.00    -0.272 N 
HETATM   41  O5  UNL     1      -0.938 -38.099  19.713  1.00  0.00    -0.233 OA
ATOM     42  H5  UNL     1      -0.283 -36.335  20.550  1.00  0.00     0.194 HD
ENDBRANCH  34  37
ENDBRANCH  33  34
ENDBRANCH  32  33
BRANCH  32  43
HETATM   43  C23 UNL     1      -3.812 -40.082  15.112  1.00  0.00    -0.043 C 
HETATM   44  C24 UNL     1      -3.515 -40.064  13.613  1.00  0.00     0.046 C 
HETATM   45  C25 UNL     1      -4.277 -38.735  15.535  1.00  0.00     0.046 C 
ENDBRANCH  32  43
ENDBRANCH  29  32
ENDBRANCH   4  29
TORSDOF 14
ENDMDL
