MODEL 1
REMARK VINA RESULT: -7.955167825      0.000      0.000
REMARK  14 active torsions:
REMARK  status: ('A' for Active; 'I' for Inactive)
REMARK    1  A    between atoms: C2_2  and  C4_4 
REMARK    2  A    between atoms: C4_4  and  C5_5 
REMARK    3  A    between atoms: C5_5  and  N1_6 
REMARK    4  A    between atoms: N1_6  and  C6_7 
REMARK    5  A    between atoms: N1_6  and  C24_36 
REMARK    6  A    between atoms: C6_7  and  C7_8 
REMARK    7  A    between atoms: C7_8  and  O1_9 
REMARK    8  A    between atoms: C7_8  and  C8_11 
REMARK    9  A    between atoms: C8_11  and  N2_12 
REMARK   10  A    between atoms: N3_14  and  C10_15 
REMARK   11  A    between atoms: C16_22  and  C17_23 
REMARK   12  A    between atoms: C17_23  and  O2_24 
REMARK   13  A    between atoms: C24_36  and  O5_38 
REMARK   14  A    between atoms: O5_38  and  C26_39 
ROOT
HETATM    1  C10 UNL     1      -2.292 -38.936  18.773  1.00  0.00     0.142 C 
HETATM    2  C11 UNL     1      -1.064 -38.088  18.669  1.00  0.00     0.092 C 
HETATM    3  N4  UNL     1      -0.111 -37.442  18.568  1.00  0.00    -0.195 NA
HETATM    4  C12 UNL     1      -1.822 -40.362  18.748  1.00  0.00     0.049 C 
HETATM    5  C13 UNL     1      -1.999 -41.190  19.941  1.00  0.00     0.013 C 
HETATM    6  C14 UNL     1      -2.843 -40.633  21.053  1.00  0.00     0.026 C 
HETATM    7  C15 UNL     1      -3.878 -39.740  20.443  1.00  0.00     0.031 C 
HETATM    8  C16 UNL     1      -2.964 -38.589  20.007  1.00  0.00     0.064 C 
HETATM    9  C18 UNL     1      -2.022 -38.496  21.149  1.00  0.00     0.034 A 
HETATM   10  N5  UNL     1      -1.271 -37.480  21.643  1.00  0.00    -0.368 N 
ATOM     11  H5  UNL     1      -1.297 -36.572  21.179  1.00  0.00     0.165 HD
HETATM   12  C19 UNL     1      -0.502 -37.635  22.715  1.00  0.00     0.092 A 
HETATM   13  C20 UNL     1      -0.424 -38.825  23.380  1.00  0.00     0.072 A 
HETATM   14  C21 UNL     1      -1.157 -39.880  22.925  1.00  0.00     0.181 A 
HETATM   15  O3  UNL     1      -1.159 -41.010  23.455  1.00  0.00    -0.288 OA
HETATM   16  C22 UNL     1      -1.960 -39.703  21.799  1.00  0.00     0.020 A 
ENDROOT
BRANCH   1  17
HETATM   17  N3  UNL     1      -3.073 -38.751  17.556  1.00  0.00    -0.294 N 
HETATM   18  C9  UNL     1      -4.332 -38.879  16.924  1.00  0.00     0.260 C 
HETATM   19  N2  UNL     1      -3.585 -39.011  15.684  1.00  0.00    -0.315 N 
HETATM   20  C23 UNL     1      -2.583 -38.232  16.300  1.00  0.00     0.324 C 
HETATM   21  O4  UNL     1      -1.675 -37.446  15.933  1.00  0.00    -0.247 OA
BRANCH  19  22
HETATM   22  C8  UNL     1      -3.751 -39.630  14.407  1.00  0.00     0.162 C 
BRANCH  22  23
HETATM   23  C7  UNL     1      -3.955 -41.123  14.574  1.00  0.00     0.164 C 
BRANCH  23  24
HETATM   24  C6  UNL     1      -2.765 -41.866  14.089  1.00  0.00     0.308 C 
BRANCH  24  25
HETATM   25  N1  UNL     1      -2.635 -43.148  14.840  1.00  0.00     0.119 N 
BRANCH  25  26
HETATM   26  C5  UNL     1      -2.802 -44.185  13.821  1.00  0.00     0.276 C 
BRANCH  26  27
HETATM   27  C4  UNL     1      -3.119 -45.483  14.466  1.00  0.00     0.034 C 
BRANCH  27  28
HETATM   28  C2  UNL     1      -2.590 -46.672  13.679  1.00  0.00    -0.021 C 
HETATM   29  C1  UNL     1      -2.341 -47.837  14.610  1.00  0.00     0.009 C 
HETATM   30  C3  UNL     1      -1.219 -46.244  13.142  1.00  0.00     0.009 C 
ENDBRANCH  27  28
ENDBRANCH  26  27
ENDBRANCH  25  26
BRANCH  25  31
HETATM   31  C24 UNL     1      -1.267 -43.191  15.401  1.00  0.00     0.355 C 
HETATM   32  C25 UNL     1      -0.345 -42.192  14.800  1.00  0.00     0.073 C 
BRANCH  31  33
HETATM   33  O5  UNL     1      -1.362 -43.289  16.733  1.00  0.00    -0.347 OA
BRANCH  33  34
HETATM   34  C26 UNL     1      -0.901 -44.377  17.383  1.00  0.00     0.053 C 
HETATM   35  C27 UNL     1      -0.067 -43.946  18.599  1.00  0.00     0.045 C 
HETATM   36  C28 UNL     1      -2.123 -45.077  18.001  1.00  0.00     0.045 C 
HETATM   37  C29 UNL     1      -0.153 -45.398  16.611  1.00  0.00     0.045 C 
ENDBRANCH  33  34
ENDBRANCH  31  33
ENDBRANCH  25  31
ENDBRANCH  24  25
ENDBRANCH  23  24
BRANCH  23  38
HETATM   38  O1  UNL     1      -5.035 -41.498  13.766  1.00  0.00    -0.392 OA
ATOM     39  H1  UNL     1      -5.739 -41.767  14.345  1.00  0.00     0.210 HD
ENDBRANCH  23  38
ENDBRANCH  22  23
ENDBRANCH  19  22
ENDBRANCH   1  17
BRANCH   8  40
HETATM   40  C17 UNL     1      -3.802 -37.340  20.008  1.00  0.00     0.183 C 
BRANCH  40  41
HETATM   41  O2  UNL     1      -4.251 -36.950  21.240  1.00  0.00    -0.400 OA
ATOM     42  H2  UNL     1      -3.675 -36.355  21.705  1.00  0.00     0.209 HD
ENDBRANCH  40  41
ENDBRANCH   8  40
TORSDOF 14
ENDMDL
MODEL 2
REMARK VINA RESULT: -7.952782038      2.772      8.303
REMARK  14 active torsions:
REMARK  status: ('A' for Active; 'I' for Inactive)
REMARK    1  A    between atoms: C2_2  and  C4_4 
REMARK    2  A    between atoms: C4_4  and  C5_5 
REMARK    3  A    between atoms: C5_5  and  N1_6 
REMARK    4  A    between atoms: N1_6  and  C6_7 
REMARK    5  A    between atoms: N1_6  and  C24_36 
REMARK    6  A    between atoms: C6_7  and  C7_8 
REMARK    7  A    between atoms: C7_8  and  O1_9 
REMARK    8  A    between atoms: C7_8  and  C8_11 
REMARK    9  A    between atoms: C8_11  and  N2_12 
REMARK   10  A    between atoms: N3_14  and  C10_15 
REMARK   11  A    between atoms: C16_22  and  C17_23 
REMARK   12  A    between atoms: C17_23  and  O2_24 
REMARK   13  A    between atoms: C24_36  and  O5_38 
REMARK   14  A    between atoms: O5_38  and  C26_39 
ROOT
HETATM    1  C10 UNL     1      -0.540 -44.321  14.326  1.00  0.00     0.142 C 
HETATM    2  C11 UNL     1      -0.966 -45.591  13.659  1.00  0.00     0.092 C 
HETATM    3  N4  UNL     1      -1.313 -46.574  13.159  1.00  0.00    -0.195 NA
HETATM    4  C12 UNL     1      -0.219 -44.680  15.748  1.00  0.00     0.049 C 
HETATM    5  C13 UNL     1       1.163 -44.567  16.215  1.00  0.00     0.013 C 
HETATM    6  C14 UNL     1       2.148 -43.885  15.307  1.00  0.00     0.026 C 
HETATM    7  C15 UNL     1       1.406 -42.862  14.508  1.00  0.00     0.031 C 
HETATM    8  C16 UNL     1       0.604 -43.807  13.605  1.00  0.00     0.064 C 
HETATM    9  C18 UNL     1       1.601 -44.866  13.310  1.00  0.00     0.034 A 
HETATM   10  N5  UNL     1       1.742 -45.737  12.280  1.00  0.00    -0.368 N 
ATOM     11  H5  UNL     1       1.055 -45.730  11.526  1.00  0.00     0.165 HD
HETATM   12  C19 UNL     1       2.751 -46.599  12.225  1.00  0.00     0.092 A 
HETATM   13  C20 UNL     1       3.702 -46.657  13.202  1.00  0.00     0.072 A 
HETATM   14  C21 UNL     1       3.609 -45.806  14.262  1.00  0.00     0.181 A 
HETATM   15  O3  UNL     1       4.421 -45.776  15.208  1.00  0.00    -0.288 OA
HETATM   16  C22 UNL     1       2.544 -44.906  14.307  1.00  0.00     0.020 A 
ENDROOT
BRANCH   1  17
HETATM   17  N3  UNL     1      -1.696 -43.435  14.389  1.00  0.00    -0.294 N 
HETATM   18  C9  UNL     1      -2.999 -43.151  13.916  1.00  0.00     0.260 C 
HETATM   19  N2  UNL     1      -2.698 -41.761  14.218  1.00  0.00    -0.315 N 
HETATM   20  C23 UNL     1      -1.819 -42.252  15.208  1.00  0.00     0.324 C 
HETATM   21  O4  UNL     1      -1.351 -41.850  16.302  1.00  0.00    -0.247 OA
BRANCH  19  22
HETATM   22  C8  UNL     1      -3.089 -40.467  13.756  1.00  0.00     0.162 C 
BRANCH  22  23
HETATM   23  C7  UNL     1      -4.400 -40.059  14.398  1.00  0.00     0.164 C 
BRANCH  23  24
HETATM   24  C6  UNL     1      -4.217 -38.836  15.219  1.00  0.00     0.308 C 
BRANCH  24  25
HETATM   25  N1  UNL     1      -3.429 -39.169  16.442  1.00  0.00     0.119 N 
BRANCH  25  26
HETATM   26  C5  UNL     1      -2.360 -38.170  16.467  1.00  0.00     0.276 C 
BRANCH  26  27
HETATM   27  C4  UNL     1      -1.292 -38.595  17.405  1.00  0.00     0.034 C 
BRANCH  27  28
HETATM   28  C2  UNL     1      -0.747 -37.442  18.233  1.00  0.00    -0.021 C 
HETATM   29  C1  UNL     1      -1.725 -36.288  18.218  1.00  0.00     0.009 C 
HETATM   30  C3  UNL     1       0.510 -36.956  17.501  1.00  0.00     0.009 C 
ENDBRANCH  27  28
ENDBRANCH  26  27
ENDBRANCH  25  26
BRANCH  25  31
HETATM   31  C24 UNL     1      -4.328 -38.992  17.603  1.00  0.00     0.355 C 
HETATM   32  C25 UNL     1      -5.455 -38.057  17.349  1.00  0.00     0.073 C 
BRANCH  31  33
HETATM   33  O5  UNL     1      -4.575 -40.198  18.130  1.00  0.00    -0.347 OA
BRANCH  33  34
HETATM   34  C26 UNL     1      -4.207 -40.490  19.395  1.00  0.00     0.053 C 
HETATM   35  C27 UNL     1      -5.397 -41.085  20.163  1.00  0.00     0.045 C 
HETATM   36  C28 UNL     1      -3.203 -41.654  19.308  1.00  0.00     0.045 C 
HETATM   37  C29 UNL     1      -3.577 -39.426  20.212  1.00  0.00     0.045 C 
ENDBRANCH  33  34
ENDBRANCH  31  33
ENDBRANCH  25  31
ENDBRANCH  24  25
ENDBRANCH  23  24
BRANCH  23  38
HETATM   38  O1  UNL     1      -4.788 -41.087  15.266  1.00  0.00    -0.392 OA
ATOM     39  H1  UNL     1      -4.105 -41.747  15.243  1.00  0.00     0.210 HD
ENDBRANCH  23  38
ENDBRANCH  22  23
ENDBRANCH  19  22
ENDBRANCH   1  17
BRANCH   8  40
HETATM   40  C17 UNL     1       0.337 -43.068  12.323  1.00  0.00     0.183 C 
BRANCH  40  41
HETATM   41  O2  UNL     1       1.446 -42.808  11.567  1.00  0.00    -0.400 OA
ATOM     42  H2  UNL     1       1.327 -42.919  10.630  1.00  0.00     0.209 HD
ENDBRANCH  40  41
ENDBRANCH   8  40
TORSDOF 14
ENDMDL
MODEL 3
REMARK VINA RESULT: -7.885371490      0.981      1.585
REMARK  14 active torsions:
REMARK  status: ('A' for Active; 'I' for Inactive)
REMARK    1  A    between atoms: C2_2  and  C4_4 
REMARK    2  A    between atoms: C4_4  and  C5_5 
REMARK    3  A    between atoms: C5_5  and  N1_6 
REMARK    4  A    between atoms: N1_6  and  C6_7 
REMARK    5  A    between atoms: N1_6  and  C24_36 
REMARK    6  A    between atoms: C6_7  and  C7_8 
REMARK    7  A    between atoms: C7_8  and  O1_9 
REMARK    8  A    between atoms: C7_8  and  C8_11 
REMARK    9  A    between atoms: C8_11  and  N2_12 
REMARK   10  A    between atoms: N3_14  and  C10_15 
REMARK   11  A    between atoms: C16_22  and  C17_23 
REMARK   12  A    between atoms: C17_23  and  O2_24 
REMARK   13  A    between atoms: C24_36  and  O5_38 
REMARK   14  A    between atoms: O5_38  and  C26_39 
ROOT
HETATM    1  C10 UNL     1      -1.997 -39.247  18.917  1.00  0.00     0.142 C 
HETATM    2  C11 UNL     1      -0.832 -38.325  18.742  1.00  0.00     0.092 C 
HETATM    3  N4  UNL     1       0.074 -37.625  18.588  1.00  0.00    -0.195 NA
HETATM    4  C12 UNL     1      -1.423 -40.627  19.068  1.00  0.00     0.049 C 
HETATM    5  C13 UNL     1      -1.575 -41.324  20.346  1.00  0.00     0.013 C 
HETATM    6  C14 UNL     1      -2.491 -40.710  21.366  1.00  0.00     0.026 C 
HETATM    7  C15 UNL     1      -3.570 -39.975  20.635  1.00  0.00     0.031 C 
HETATM    8  C16 UNL     1      -2.730 -38.814  20.087  1.00  0.00     0.064 C 
HETATM    9  C18 UNL     1      -1.833 -38.519  21.231  1.00  0.00     0.034 A 
HETATM   10  N5  UNL     1      -1.174 -37.399  21.621  1.00  0.00    -0.368 N 
ATOM     11  H5  UNL     1      -1.252 -36.555  21.054  1.00  0.00     0.165 HD
HETATM   12  C19 UNL     1      -0.429 -37.372  22.720  1.00  0.00     0.092 A 
HETATM   13  C20 UNL     1      -0.284 -38.468  23.520  1.00  0.00     0.072 A 
HETATM   14  C21 UNL     1      -0.923 -39.622  23.175  1.00  0.00     0.181 A 
HETATM   15  O3  UNL     1      -0.858 -40.680  23.833  1.00  0.00    -0.288 OA
HETATM   16  C22 UNL     1      -1.703 -39.636  22.018  1.00  0.00     0.020 A 
ENDROOT
BRANCH   1  17
HETATM   17  N3  UNL     1      -2.751 -39.263  17.670  1.00  0.00    -0.294 N 
HETATM   18  C9  UNL     1      -3.907 -39.714  16.989  1.00  0.00     0.260 C 
HETATM   19  N2  UNL     1      -3.104 -39.630  15.779  1.00  0.00    -0.315 N 
HETATM   20  C23 UNL     1      -2.370 -38.619  16.435  1.00  0.00     0.324 C 
HETATM   21  O4  UNL     1      -1.690 -37.616  16.104  1.00  0.00    -0.247 OA
BRANCH  19  22
HETATM   22  C8  UNL     1      -3.051 -40.256  14.497  1.00  0.00     0.162 C 
BRANCH  22  23
HETATM   23  C7  UNL     1      -3.756 -41.597  14.543  1.00  0.00     0.164 C 
BRANCH  23  24
HETATM   24  C6  UNL     1      -2.963 -42.625  13.821  1.00  0.00     0.308 C 
BRANCH  24  25
HETATM   25  N1  UNL     1      -2.796 -43.828  14.687  1.00  0.00     0.119 N 
BRANCH  25  26
HETATM   26  C5  UNL     1      -2.653 -44.937  13.744  1.00  0.00     0.276 C 
BRANCH  26  27
HETATM   27  C4  UNL     1      -3.499 -46.078  14.173  1.00  0.00     0.034 C 
BRANCH  27  28
HETATM   28  C2  UNL     1      -2.702 -47.360  14.359  1.00  0.00    -0.021 C 
HETATM   29  C1  UNL     1      -2.038 -47.362  15.718  1.00  0.00     0.009 C 
HETATM   30  C3  UNL     1      -1.572 -47.307  13.323  1.00  0.00     0.009 C 
ENDBRANCH  27  28
ENDBRANCH  26  27
ENDBRANCH  25  26
BRANCH  25  31
HETATM   31  C24 UNL     1      -1.548 -43.641  15.459  1.00  0.00     0.355 C 
HETATM   32  C25 UNL     1      -1.737 -43.732  16.930  1.00  0.00     0.073 C 
BRANCH  31  33
HETATM   33  O5  UNL     1      -0.581 -44.356  14.870  1.00  0.00    -0.347 OA
BRANCH  33  34
HETATM   34  C26 UNL     1       0.603 -43.791  14.554  1.00  0.00     0.053 C 
HETATM   35  C27 UNL     1       1.678 -44.233  15.559  1.00  0.00     0.045 C 
HETATM   36  C28 UNL     1       1.057 -44.422  13.226  1.00  0.00     0.045 C 
HETATM   37  C29 UNL     1       0.663 -42.320  14.386  1.00  0.00     0.045 C 
ENDBRANCH  33  34
ENDBRANCH  31  33
ENDBRANCH  25  31
ENDBRANCH  24  25
ENDBRANCH  23  24
BRANCH  23  38
HETATM   38  O1  UNL     1      -4.974 -41.462  13.864  1.00  0.00    -0.392 OA
ATOM     39  H1  UNL     1      -5.271 -40.570  13.996  1.00  0.00     0.210 HD
ENDBRANCH  23  38
ENDBRANCH  22  23
ENDBRANCH  19  22
ENDBRANCH   1  17
BRANCH   8  40
HETATM   40  C17 UNL     1      -3.657 -37.641  19.925  1.00  0.00     0.183 C 
BRANCH  40  41
HETATM   41  O2  UNL     1      -4.089 -37.082  21.096  1.00  0.00    -0.400 OA
ATOM     42  H2  UNL     1      -4.798 -36.457  21.004  1.00  0.00     0.209 HD
ENDBRANCH  40  41
ENDBRANCH   8  40
TORSDOF 14
ENDMDL
MODEL 4
REMARK VINA RESULT: -7.884098724      1.139      2.348
REMARK  14 active torsions:
REMARK  status: ('A' for Active; 'I' for Inactive)
REMARK    1  A    between atoms: C2_2  and  C4_4 
REMARK    2  A    between atoms: C4_4  and  C5_5 
REMARK    3  A    between atoms: C5_5  and  N1_6 
REMARK    4  A    between atoms: N1_6  and  C6_7 
REMARK    5  A    between atoms: N1_6  and  C24_36 
REMARK    6  A    between atoms: C6_7  and  C7_8 
REMARK    7  A    between atoms: C7_8  and  O1_9 
REMARK    8  A    between atoms: C7_8  and  C8_11 
REMARK    9  A    between atoms: C8_11  and  N2_12 
REMARK   10  A    between atoms: N3_14  and  C10_15 
REMARK   11  A    between atoms: C16_22  and  C17_23 
REMARK   12  A    between atoms: C17_23  and  O2_24 
REMARK   13  A    between atoms: C24_36  and  O5_38 
REMARK   14  A    between atoms: O5_38  and  C26_39 
ROOT
HETATM    1  C10 UNL     1      -2.346 -38.830  18.839  1.00  0.00     0.142 C 
HETATM    2  C11 UNL     1      -1.143 -37.946  18.738  1.00  0.00     0.092 C 
HETATM    3  N4  UNL     1      -0.210 -37.271  18.638  1.00  0.00    -0.195 NA
HETATM    4  C12 UNL     1      -1.838 -40.241  18.767  1.00  0.00     0.049 C 
HETATM    5  C13 UNL     1      -1.970 -41.106  19.940  1.00  0.00     0.013 C 
HETATM    6  C14 UNL     1      -2.809 -40.602  21.081  1.00  0.00     0.026 C 
HETATM    7  C15 UNL     1      -3.878 -39.723  20.514  1.00  0.00     0.031 C 
HETATM    8  C16 UNL     1      -3.005 -38.535  20.093  1.00  0.00     0.064 C 
HETATM    9  C18 UNL     1      -2.045 -38.447  21.221  1.00  0.00     0.034 A 
HETATM   10  N5  UNL     1      -1.313 -37.424  21.730  1.00  0.00    -0.368 N 
ATOM     11  H5  UNL     1      -1.372 -36.505  21.292  1.00  0.00     0.165 HD
HETATM   12  C19 UNL     1      -0.522 -37.587  22.784  1.00  0.00     0.092 A 
HETATM   13  C20 UNL     1      -0.399 -38.791  23.415  1.00  0.00     0.072 A 
HETATM   14  C21 UNL     1      -1.111 -39.854  22.944  1.00  0.00     0.181 A 
HETATM   15  O3  UNL     1      -1.072 -40.996  23.443  1.00  0.00    -0.288 OA
HETATM   16  C22 UNL     1      -1.939 -39.669  21.837  1.00  0.00     0.020 A 
ENDROOT
BRANCH   1  17
HETATM   17  N3  UNL     1      -3.153 -38.634  17.641  1.00  0.00    -0.294 N 
HETATM   18  C9  UNL     1      -4.443 -38.675  17.061  1.00  0.00     0.260 C 
HETATM   19  N2  UNL     1      -3.760 -38.940  15.805  1.00  0.00    -0.315 N 
HETATM   20  C23 UNL     1      -2.667 -38.229  16.343  1.00  0.00     0.324 C 
HETATM   21  O4  UNL     1      -1.705 -37.552  15.903  1.00  0.00    -0.247 OA
BRANCH  19  22
HETATM   22  C8  UNL     1      -4.033 -39.605  14.571  1.00  0.00     0.162 C 
BRANCH  22  23
HETATM   23  C7  UNL     1      -4.101 -41.103  14.789  1.00  0.00     0.164 C 
BRANCH  23  24
HETATM   24  C6  UNL     1      -2.803 -41.613  15.298  1.00  0.00     0.308 C 
BRANCH  24  25
HETATM   25  N1  UNL     1      -2.275 -42.653  14.368  1.00  0.00     0.119 N 
BRANCH  25  26
HETATM   26  C5  UNL     1      -0.988 -42.120  13.919  1.00  0.00     0.276 C 
BRANCH  26  27
HETATM   27  C4  UNL     1      -0.315 -43.102  13.034  1.00  0.00     0.034 C 
BRANCH  27  28
HETATM   28  C2  UNL     1       1.201 -43.053  13.153  1.00  0.00    -0.021 C 
HETATM   29  C1  UNL     1       1.811 -44.259  12.473  1.00  0.00     0.009 C 
HETATM   30  C3  UNL     1       1.510 -43.194  14.648  1.00  0.00     0.009 C 
ENDBRANCH  27  28
ENDBRANCH  26  27
ENDBRANCH  25  26
BRANCH  25  31
HETATM   31  C24 UNL     1      -2.075 -43.887  15.159  1.00  0.00     0.355 C 
HETATM   32  C25 UNL     1      -1.961 -43.646  16.621  1.00  0.00     0.073 C 
BRANCH  31  33
HETATM   33  O5  UNL     1      -2.923 -44.818  14.706  1.00  0.00    -0.347 OA
BRANCH  33  34
HETATM   34  C26 UNL     1      -2.468 -45.976  14.184  1.00  0.00     0.053 C 
HETATM   35  C27 UNL     1      -3.441 -47.118  14.515  1.00  0.00     0.045 C 
HETATM   36  C28 UNL     1      -2.561 -45.842  12.654  1.00  0.00     0.045 C 
HETATM   37  C29 UNL     1      -1.085 -46.401  14.506  1.00  0.00     0.045 C 
ENDBRANCH  33  34
ENDBRANCH  31  33
ENDBRANCH  25  31
ENDBRANCH  24  25
ENDBRANCH  23  24
BRANCH  23  38
HETATM   38  O1  UNL     1      -4.324 -41.706  13.545  1.00  0.00    -0.392 OA
ATOM     39  H1  UNL     1      -3.753 -41.276  12.919  1.00  0.00     0.210 HD
ENDBRANCH  23  38
ENDBRANCH  22  23
ENDBRANCH  19  22
ENDBRANCH   1  17
BRANCH   8  40
HETATM   40  C17 UNL     1      -3.877 -37.311  20.144  1.00  0.00     0.183 C 
BRANCH  40  41
HETATM   41  O2  UNL     1      -4.179 -36.870  21.402  1.00  0.00    -0.400 OA
ATOM     42  H2  UNL     1      -4.581 -36.010  21.439  1.00  0.00     0.209 HD
ENDBRANCH  40  41
ENDBRANCH   8  40
TORSDOF 14
ENDMDL
MODEL 5
REMARK VINA RESULT: -7.710345530      1.167      2.687
REMARK  14 active torsions:
REMARK  status: ('A' for Active; 'I' for Inactive)
REMARK    1  A    between atoms: C2_2  and  C4_4 
REMARK    2  A    between atoms: C4_4  and  C5_5 
REMARK    3  A    between atoms: C5_5  and  N1_6 
REMARK    4  A    between atoms: N1_6  and  C6_7 
REMARK    5  A    between atoms: N1_6  and  C24_36 
REMARK    6  A    between atoms: C6_7  and  C7_8 
REMARK    7  A    between atoms: C7_8  and  O1_9 
REMARK    8  A    between atoms: C7_8  and  C8_11 
REMARK    9  A    between atoms: C8_11  and  N2_12 
REMARK   10  A    between atoms: N3_14  and  C10_15 
REMARK   11  A    between atoms: C16_22  and  C17_23 
REMARK   12  A    between atoms: C17_23  and  O2_24 
REMARK   13  A    between atoms: C24_36  and  O5_38 
REMARK   14  A    between atoms: O5_38  and  C26_39 
ROOT
HETATM    1  C10 UNL     1      -2.075 -39.108  18.885  1.00  0.00     0.142 C 
HETATM    2  C11 UNL     1      -0.874 -38.224  18.762  1.00  0.00     0.092 C 
HETATM    3  N4  UNL     1       0.059 -37.552  18.647  1.00  0.00    -0.195 NA
HETATM    4  C12 UNL     1      -1.557 -40.516  18.952  1.00  0.00     0.049 C 
HETATM    5  C13 UNL     1      -1.735 -41.282  20.186  1.00  0.00     0.013 C 
HETATM    6  C14 UNL     1      -2.625 -40.693  21.244  1.00  0.00     0.026 C 
HETATM    7  C15 UNL     1      -3.674 -39.874  20.561  1.00  0.00     0.031 C 
HETATM    8  C16 UNL     1      -2.789 -38.717  20.081  1.00  0.00     0.064 C 
HETATM    9  C18 UNL     1      -1.880 -38.527  21.238  1.00  0.00     0.034 A 
HETATM   10  N5  UNL     1      -1.177 -37.459  21.692  1.00  0.00    -0.368 N 
ATOM     11  H5  UNL     1      -1.222 -36.580  21.176  1.00  0.00     0.165 HD
HETATM   12  C19 UNL     1      -0.431 -37.527  22.788  1.00  0.00     0.092 A 
HETATM   13  C20 UNL     1      -0.329 -38.674  23.521  1.00  0.00     0.072 A 
HETATM   14  C21 UNL     1      -1.014 -39.779  23.110  1.00  0.00     0.181 A 
HETATM   15  O3  UNL     1      -0.991 -40.876  23.703  1.00  0.00    -0.288 OA
HETATM   16  C22 UNL     1      -1.794 -39.693  21.957  1.00  0.00     0.020 A 
ENDROOT
BRANCH   1  17
HETATM   17  N3  UNL     1      -2.830 -39.019  17.642  1.00  0.00    -0.294 N 
HETATM   18  C9  UNL     1      -4.037 -39.314  16.964  1.00  0.00     0.260 C 
HETATM   19  N2  UNL     1      -3.236 -39.327  15.751  1.00  0.00    -0.315 N 
HETATM   20  C23 UNL     1      -2.374 -38.423  16.409  1.00  0.00     0.324 C 
HETATM   21  O4  UNL     1      -1.572 -37.514  16.079  1.00  0.00    -0.247 OA
BRANCH  19  22
HETATM   22  C8  UNL     1      -3.269 -39.948  14.465  1.00  0.00     0.162 C 
BRANCH  22  23
HETATM   23  C7  UNL     1      -3.728 -41.387  14.593  1.00  0.00     0.164 C 
BRANCH  23  24
HETATM   24  C6  UNL     1      -3.098 -42.228  13.545  1.00  0.00     0.308 C 
BRANCH  24  25
HETATM   25  N1  UNL     1      -2.055 -43.098  14.162  1.00  0.00     0.119 N 
BRANCH  25  26
HETATM   26  C5  UNL     1      -2.420 -43.153  15.578  1.00  0.00     0.276 C 
BRANCH  26  27
HETATM   27  C4  UNL     1      -1.555 -44.129  16.286  1.00  0.00     0.034 C 
BRANCH  27  28
HETATM   28  C2  UNL     1      -0.269 -43.503  16.805  1.00  0.00    -0.021 C 
HETATM   29  C1  UNL     1       0.908 -43.997  15.994  1.00  0.00     0.009 C 
HETATM   30  C3  UNL     1      -0.079 -44.049  18.225  1.00  0.00     0.009 C 
ENDBRANCH  27  28
ENDBRANCH  26  27
ENDBRANCH  25  26
BRANCH  25  31
HETATM   31  C24 UNL     1      -2.179 -44.436  13.545  1.00  0.00     0.355 C 
HETATM   32  C25 UNL     1      -3.576 -44.804  13.196  1.00  0.00     0.073 C 
BRANCH  31  33
HETATM   33  O5  UNL     1      -1.211 -44.567  12.629  1.00  0.00    -0.347 OA
BRANCH  33  34
HETATM   34  C26 UNL     1      -0.465 -45.689  12.565  1.00  0.00     0.053 C 
HETATM   35  C27 UNL     1      -0.815 -46.479  11.295  1.00  0.00     0.045 C 
HETATM   36  C28 UNL     1       0.990 -45.244  12.335  1.00  0.00     0.045 C 
HETATM   37  C29 UNL     1      -0.465 -46.606  13.729  1.00  0.00     0.045 C 
ENDBRANCH  33  34
ENDBRANCH  31  33
ENDBRANCH  25  31
ENDBRANCH  24  25
ENDBRANCH  23  24
BRANCH  23  38
HETATM   38  O1  UNL     1      -5.111 -41.414  14.370  1.00  0.00    -0.392 OA
ATOM     39  H1  UNL     1      -5.532 -41.200  15.193  1.00  0.00     0.210 HD
ENDBRANCH  23  38
ENDBRANCH  22  23
ENDBRANCH  19  22
ENDBRANCH   1  17
BRANCH   8  40
HETATM   40  C17 UNL     1      -3.669 -37.501  19.993  1.00  0.00     0.183 C 
BRANCH  40  41
HETATM   41  O2  UNL     1      -4.085 -37.001  21.196  1.00  0.00    -0.400 OA
ATOM     42  H2  UNL     1      -3.730 -36.149  21.420  1.00  0.00     0.209 HD
ENDBRANCH  40  41
ENDBRANCH   8  40
TORSDOF 14
ENDMDL
