MODEL 1
REMARK VINA RESULT: -7.582205548      0.000      0.000
REMARK  15 active torsions:
REMARK  status: ('A' for Active; 'I' for Inactive)
REMARK    1  A    between atoms: N1_2  and  C2_4 
REMARK    2  A    between atoms: C2_4  and  O1_5 
REMARK    3  A    between atoms: C2_4  and  C3_7 
REMARK    4  A    between atoms: C3_7  and  C4_8 
REMARK    5  A    between atoms: C4_8  and  C5_9 
REMARK    6  A    between atoms: C8_12  and  C9_13 
REMARK       I    between atoms: C9_13  and  N2_15 
REMARK    7  A    between atoms: N2_15  and  C10_17 
REMARK    8  A    between atoms: C10_17  and  C11_18 
REMARK    9  A    between atoms: C10_17  and  C19_31 
REMARK       I    between atoms: C11_18  and  N3_20 
REMARK   10  A    between atoms: N3_20  and  C12_22 
REMARK   11  A    between atoms: C12_22  and  C13_23 
REMARK   12  A    between atoms: C12_22  and  C15_27 
REMARK   13  A    between atoms: C13_23  and  O5_25 
REMARK       I    between atoms: N4_36  and  C24_38 
REMARK   14  A    between atoms: C24_38  and  O7_40 
REMARK   15  A    between atoms: O7_40  and  C25_41 
ROOT
HETATM    1  C5  UNL     1      -1.406 -41.143  15.977  1.00  0.00    -0.078 C 
HETATM    2  C6  UNL     1      -1.088 -42.542  16.495  1.00  0.00     0.035 C 
HETATM    3  C7  UNL     1      -0.233 -43.219  15.448  1.00  0.00     0.018 C 
HETATM    4  C8  UNL     1      -1.126 -43.531  14.269  1.00  0.00     0.078 C 
HETATM    5  C22 UNL     1      -1.832 -42.314  13.775  1.00  0.00     0.018 C 
HETATM    6  C23 UNL     1      -1.445 -41.056  14.512  1.00  0.00     0.035 C 
ENDROOT
BRANCH   4   7
HETATM    7  C9  UNL     1      -0.465 -44.295  13.196  1.00  0.00     0.222 C 
HETATM    8  O2  UNL     1      -0.150 -43.667  12.152  1.00  0.00    -0.273 OA
HETATM    9  N2  UNL     1      -0.165 -45.668  13.258  1.00  0.00    -0.347 N 
ATOM     10  H2  UNL     1      -0.431 -46.156  14.113  1.00  0.00     0.163 HD
BRANCH   9  11
HETATM   11  C10 UNL     1       0.471 -46.445  12.251  1.00  0.00     0.180 C 
BRANCH  11  12
HETATM   12  C11 UNL     1       1.904 -46.634  12.440  1.00  0.00     0.241 C 
HETATM   13  O3  UNL     1       2.671 -46.652  11.440  1.00  0.00    -0.271 OA
HETATM   14  N3  UNL     1       2.479 -46.800  13.733  1.00  0.00    -0.345 N 
ATOM     15  H3  UNL     1       1.854 -46.791  14.539  1.00  0.00     0.163 HD
BRANCH  14  16
HETATM   16  C12 UNL     1       3.895 -46.979  13.974  1.00  0.00     0.191 C 
BRANCH  16  17
HETATM   17  C13 UNL     1       4.263 -48.400  14.101  1.00  0.00     0.282 C 
HETATM   18  O4  UNL     1       3.430 -49.309  14.408  1.00  0.00    -0.263 OA
BRANCH  17  19
HETATM   19  O5  UNL     1       5.564 -48.843  13.889  1.00  0.00    -0.325 OA
HETATM   20  C14 UNL     1       6.288 -49.649  14.797  1.00  0.00     0.213 C 
ENDBRANCH  17  19
ENDBRANCH  16  17
BRANCH  16  21
HETATM   21  C15 UNL     1       4.359 -46.163  15.160  1.00  0.00    -0.022 C 
HETATM   22  C16 UNL     1       5.844 -45.908  15.150  1.00  0.00     0.017 C 
HETATM   23  C17 UNL     1       3.696 -44.799  15.113  1.00  0.00     0.017 C 
HETATM   24  C18 UNL     1       3.990 -46.791  16.474  1.00  0.00     0.017 C 
ENDBRANCH  16  21
ENDBRANCH  14  16
ENDBRANCH  11  12
BRANCH  11  25
HETATM   25  C19 UNL     1      -0.172 -47.833  12.085  1.00  0.00     0.009 C 
HETATM   26  C20 UNL     1      -1.315 -48.057  13.026  1.00  0.00     0.012 C 
HETATM   27  C21 UNL     1      -0.538 -48.056  10.625  1.00  0.00     0.012 C 
ENDBRANCH  11  25
ENDBRANCH   9  11
ENDBRANCH   4   7
BRANCH   1  28
HETATM   28  C4  UNL     1      -2.318 -40.364  16.834  1.00  0.00     0.037 C 
BRANCH  28  29
HETATM   29  C3  UNL     1      -2.232 -38.936  16.940  1.00  0.00     0.087 C 
HETATM   30  N4  UNL     1      -3.179 -38.187  16.344  1.00  0.00    -0.299 N 
HETATM   31  C24 UNL     1      -4.276 -38.728  15.667  1.00  0.00     0.365 C 
ATOM     32  H4  UNL     1      -3.092 -37.172  16.390  1.00  0.00     0.171 HD
HETATM   33  O6  UNL     1      -4.362 -38.870  14.428  1.00  0.00    -0.238 OA
BRANCH  29  34
HETATM   34  C2  UNL     1      -1.223 -38.144  17.568  1.00  0.00     0.163 C 
BRANCH  34  35
HETATM   35  N1  UNL     1      -0.939 -37.899  18.915  1.00  0.00    -0.373 N 
HETATM   36  C1  UNL     1      -1.956 -38.111  19.962  1.00  0.00     0.148 C 
ATOM     37  H1  UNL     1      -0.012 -37.567  19.178  1.00  0.00     0.161 HD
ENDBRANCH  34  35
BRANCH  34  38
HETATM   38  O1  UNL     1      -0.391 -37.519  16.761  1.00  0.00    -0.345 OA
ATOM     39  H1  UNL     1       0.183 -38.120  16.300  1.00  0.00     0.219 HD
ENDBRANCH  34  38
ENDBRANCH  29  34
BRANCH  31  40
HETATM   40  O7  UNL     1      -5.378 -39.151  16.407  1.00  0.00    -0.299 OA
BRANCH  40  41
HETATM   41  C25 UNL     1      -5.702 -38.575  17.637  1.00  0.00     0.125 C 
HETATM   42  C26 UNL     1      -7.106 -38.042  17.695  1.00  0.00     0.040 C 
HETATM   43  C27 UNL     1      -5.481 -39.540  18.793  1.00  0.00     0.040 C 
ENDBRANCH  40  41
ENDBRANCH  31  40
ENDBRANCH  28  29
ENDBRANCH   1  28
TORSDOF 15
ENDMDL
MODEL 2
REMARK VINA RESULT: -7.533458703      1.361      2.018
REMARK  15 active torsions:
REMARK  status: ('A' for Active; 'I' for Inactive)
REMARK    1  A    between atoms: N1_2  and  C2_4 
REMARK    2  A    between atoms: C2_4  and  O1_5 
REMARK    3  A    between atoms: C2_4  and  C3_7 
REMARK    4  A    between atoms: C3_7  and  C4_8 
REMARK    5  A    between atoms: C4_8  and  C5_9 
REMARK    6  A    between atoms: C8_12  and  C9_13 
REMARK       I    between atoms: C9_13  and  N2_15 
REMARK    7  A    between atoms: N2_15  and  C10_17 
REMARK    8  A    between atoms: C10_17  and  C11_18 
REMARK    9  A    between atoms: C10_17  and  C19_31 
REMARK       I    between atoms: C11_18  and  N3_20 
REMARK   10  A    between atoms: N3_20  and  C12_22 
REMARK   11  A    between atoms: C12_22  and  C13_23 
REMARK   12  A    between atoms: C12_22  and  C15_27 
REMARK   13  A    between atoms: C13_23  and  O5_25 
REMARK       I    between atoms: N4_36  and  C24_38 
REMARK   14  A    between atoms: C24_38  and  O7_40 
REMARK   15  A    between atoms: O7_40  and  C25_41 
ROOT
HETATM    1  C5  UNL     1      -2.182 -42.279  16.375  1.00  0.00    -0.078 C 
HETATM    2  C6  UNL     1      -2.844 -42.086  15.013  1.00  0.00     0.035 C 
HETATM    3  C7  UNL     1      -2.306 -43.166  14.103  1.00  0.00     0.018 C 
HETATM    4  C8  UNL     1      -0.869 -42.818  13.790  1.00  0.00     0.078 C 
HETATM    5  C22 UNL     1      -0.065 -42.623  15.032  1.00  0.00     0.018 C 
HETATM    6  C23 UNL     1      -0.846 -42.882  16.296  1.00  0.00     0.035 C 
ENDROOT
BRANCH   4   7
HETATM    7  C9  UNL     1      -0.226 -43.721  12.819  1.00  0.00     0.222 C 
HETATM    8  O2  UNL     1       0.306 -43.195  11.807  1.00  0.00    -0.273 OA
HETATM    9  N2  UNL     1      -0.168 -45.121  12.944  1.00  0.00    -0.347 N 
ATOM     10  H2  UNL     1      -0.607 -45.525  13.771  1.00  0.00     0.163 HD
BRANCH   9  11
HETATM   11  C10 UNL     1       0.440 -46.032  12.036  1.00  0.00     0.180 C 
BRANCH  11  12
HETATM   12  C11 UNL     1       1.834 -46.346  12.328  1.00  0.00     0.241 C 
HETATM   13  O3  UNL     1       2.625 -46.622  11.388  1.00  0.00    -0.271 OA
HETATM   14  N3  UNL     1       2.341 -46.351  13.659  1.00  0.00    -0.345 N 
ATOM     15  H3  UNL     1       1.696 -46.133  14.419  1.00  0.00     0.163 HD
BRANCH  14  16
HETATM   16  C12 UNL     1       3.717 -46.645  14.001  1.00  0.00     0.191 C 
BRANCH  16  17
HETATM   17  C13 UNL     1       3.971 -48.093  14.092  1.00  0.00     0.282 C 
HETATM   18  O4  UNL     1       3.080 -48.937  14.422  1.00  0.00    -0.263 OA
BRANCH  17  19
HETATM   19  O5  UNL     1       5.221 -48.638  13.818  1.00  0.00    -0.325 OA
HETATM   20  C14 UNL     1       5.903 -49.535  14.673  1.00  0.00     0.213 C 
ENDBRANCH  17  19
ENDBRANCH  16  17
BRANCH  16  21
HETATM   21  C15 UNL     1       4.142 -45.913  15.254  1.00  0.00    -0.022 C 
HETATM   22  C16 UNL     1       5.639 -45.789  15.381  1.00  0.00     0.017 C 
HETATM   23  C17 UNL     1       3.603 -44.496  15.207  1.00  0.00     0.017 C 
HETATM   24  C18 UNL     1       3.606 -46.549  16.506  1.00  0.00     0.017 C 
ENDBRANCH  16  21
ENDBRANCH  14  16
ENDBRANCH  11  12
BRANCH  11  25
HETATM   25  C19 UNL     1      -0.332 -47.358  11.926  1.00  0.00     0.009 C 
HETATM   26  C20 UNL     1      -1.162 -47.646  13.139  1.00  0.00     0.012 C 
HETATM   27  C21 UNL     1      -1.129 -47.380  10.629  1.00  0.00     0.012 C 
ENDBRANCH  11  25
ENDBRANCH   9  11
ENDBRANCH   4   7
BRANCH   1  28
HETATM   28  C4  UNL     1      -2.520 -41.247  17.373  1.00  0.00     0.037 C 
BRANCH  28  29
HETATM   29  C3  UNL     1      -2.890 -39.914  16.997  1.00  0.00     0.087 C 
HETATM   30  N4  UNL     1      -4.136 -39.487  17.279  1.00  0.00    -0.299 N 
HETATM   31  C24 UNL     1      -5.078 -40.257  17.966  1.00  0.00     0.365 C 
ATOM     32  H4  UNL     1      -4.406 -38.551  16.974  1.00  0.00     0.171 HD
HETATM   33  O6  UNL     1      -5.997 -40.918  17.436  1.00  0.00    -0.238 OA
BRANCH  29  34
HETATM   34  C2  UNL     1      -2.123 -38.937  16.292  1.00  0.00     0.163 C 
BRANCH  34  35
HETATM   35  N1  UNL     1      -0.892 -38.340  16.579  1.00  0.00    -0.373 N 
HETATM   36  C1  UNL     1      -0.585 -37.827  17.928  1.00  0.00     0.148 C 
ATOM     37  H1  UNL     1      -0.193 -38.257  15.841  1.00  0.00     0.161 HD
ENDBRANCH  34  35
BRANCH  34  38
HETATM   38  O1  UNL     1      -2.639 -38.499  15.163  1.00  0.00    -0.345 OA
ATOM     39  H1  UNL     1      -3.371 -37.910  15.307  1.00  0.00     0.219 HD
ENDBRANCH  34  38
ENDBRANCH  29  34
BRANCH  31  40
HETATM   40  O7  UNL     1      -5.012 -40.312  19.357  1.00  0.00    -0.299 OA
BRANCH  40  41
HETATM   41  C25 UNL     1      -4.968 -41.527  20.043  1.00  0.00     0.125 C 
HETATM   42  C26 UNL     1      -3.647 -41.787  20.711  1.00  0.00     0.040 C 
HETATM   43  C27 UNL     1      -6.084 -41.640  21.073  1.00  0.00     0.040 C 
ENDBRANCH  40  41
ENDBRANCH  31  40
ENDBRANCH  28  29
ENDBRANCH   1  28
TORSDOF 15
ENDMDL
MODEL 3
REMARK VINA RESULT: -7.475435835      1.531      2.406
REMARK  15 active torsions:
REMARK  status: ('A' for Active; 'I' for Inactive)
REMARK    1  A    between atoms: N1_2  and  C2_4 
REMARK    2  A    between atoms: C2_4  and  O1_5 
REMARK    3  A    between atoms: C2_4  and  C3_7 
REMARK    4  A    between atoms: C3_7  and  C4_8 
REMARK    5  A    between atoms: C4_8  and  C5_9 
REMARK    6  A    between atoms: C8_12  and  C9_13 
REMARK       I    between atoms: C9_13  and  N2_15 
REMARK    7  A    between atoms: N2_15  and  C10_17 
REMARK    8  A    between atoms: C10_17  and  C11_18 
REMARK    9  A    between atoms: C10_17  and  C19_31 
REMARK       I    between atoms: C11_18  and  N3_20 
REMARK   10  A    between atoms: N3_20  and  C12_22 
REMARK   11  A    between atoms: C12_22  and  C13_23 
REMARK   12  A    between atoms: C12_22  and  C15_27 
REMARK   13  A    between atoms: C13_23  and  O5_25 
REMARK       I    between atoms: N4_36  and  C24_38 
REMARK   14  A    between atoms: C24_38  and  O7_40 
REMARK   15  A    between atoms: O7_40  and  C25_41 
ROOT
HETATM    1  C5  UNL     1      -1.700 -42.321  16.158  1.00  0.00    -0.078 C 
HETATM    2  C6  UNL     1      -2.645 -43.291  15.455  1.00  0.00     0.035 C 
HETATM    3  C7  UNL     1      -1.786 -44.260  14.677  1.00  0.00     0.018 C 
HETATM    4  C8  UNL     1      -1.202 -43.506  13.504  1.00  0.00     0.078 C 
HETATM    5  C22 UNL     1      -0.477 -42.278  13.944  1.00  0.00     0.018 C 
HETATM    6  C23 UNL     1      -0.436 -42.112  15.442  1.00  0.00     0.035 C 
ENDROOT
BRANCH   4   7
HETATM    7  C9  UNL     1      -0.419 -44.342  12.577  1.00  0.00     0.222 C 
HETATM    8  O2  UNL     1      -0.018 -43.802  11.514  1.00  0.00    -0.273 OA
HETATM    9  N2  UNL     1      -0.091 -45.692  12.798  1.00  0.00    -0.347 N 
ATOM     10  H2  UNL     1      -0.428 -46.109  13.666  1.00  0.00     0.163 HD
BRANCH   9  11
HETATM   11  C10 UNL     1       0.660 -46.537  11.936  1.00  0.00     0.180 C 
BRANCH  11  12
HETATM   12  C11 UNL     1       2.082 -46.621  12.250  1.00  0.00     0.241 C 
HETATM   13  O3  UNL     1       2.937 -46.450  11.341  1.00  0.00    -0.271 OA
HETATM   14  N3  UNL     1       2.546 -46.890  13.570  1.00  0.00    -0.345 N 
ATOM     15  H3  UNL     1       1.851 -47.033  14.302  1.00  0.00     0.163 HD
BRANCH  14  16
HETATM   16  C12 UNL     1       3.945 -46.972  13.936  1.00  0.00     0.191 C 
BRANCH  16  17
HETATM   17  C13 UNL     1       4.391 -48.363  14.124  1.00  0.00     0.282 C 
HETATM   18  O4  UNL     1       3.602 -49.310  14.436  1.00  0.00    -0.263 OA
BRANCH  17  19
HETATM   19  O5  UNL     1       5.722 -48.735  13.970  1.00  0.00    -0.325 OA
HETATM   20  C14 UNL     1       6.365 -49.730  14.742  1.00  0.00     0.213 C 
ENDBRANCH  17  19
ENDBRANCH  16  17
BRANCH  16  21
HETATM   21  C15 UNL     1       4.250 -46.109  15.140  1.00  0.00    -0.022 C 
HETATM   22  C16 UNL     1       5.726 -45.862  15.324  1.00  0.00     0.017 C 
HETATM   23  C17 UNL     1       3.616 -44.745  14.946  1.00  0.00     0.017 C 
HETATM   24  C18 UNL     1       3.697 -46.678  16.416  1.00  0.00     0.017 C 
ENDBRANCH  16  21
ENDBRANCH  14  16
ENDBRANCH  11  12
BRANCH  11  25
HETATM   25  C19 UNL     1       0.102 -47.969  11.881  1.00  0.00     0.009 C 
HETATM   26  C20 UNL     1      -1.128 -48.143  12.716  1.00  0.00     0.012 C 
HETATM   27  C21 UNL     1      -0.088 -48.389  10.430  1.00  0.00     0.012 C 
ENDBRANCH  11  25
ENDBRANCH   9  11
ENDBRANCH   4   7
BRANCH   1  28
HETATM   28  C4  UNL     1      -2.372 -41.236  16.897  1.00  0.00     0.037 C 
BRANCH  28  29
HETATM   29  C3  UNL     1      -3.247 -40.301  16.250  1.00  0.00     0.087 C 
HETATM   30  N4  UNL     1      -4.380 -39.936  16.880  1.00  0.00    -0.299 N 
HETATM   31  C24 UNL     1      -4.729 -40.383  18.158  1.00  0.00     0.365 C 
ATOM     32  H4  UNL     1      -5.017 -39.301  16.399  1.00  0.00     0.171 HD
HETATM   33  O6  UNL     1      -5.521 -41.317  18.407  1.00  0.00    -0.238 OA
BRANCH  29  34
HETATM   34  C2  UNL     1      -3.122 -39.704  14.959  1.00  0.00     0.163 C 
BRANCH  34  35
HETATM   35  N1  UNL     1      -3.349 -40.210  13.676  1.00  0.00    -0.373 N 
HETATM   36  C1  UNL     1      -4.556 -41.002  13.368  1.00  0.00     0.148 C 
ATOM     37  H1  UNL     1      -2.668 -40.028  12.939  1.00  0.00     0.161 HD
ENDBRANCH  34  35
BRANCH  34  38
HETATM   38  O1  UNL     1      -2.725 -38.449  14.937  1.00  0.00    -0.345 OA
ATOM     39  H1  UNL     1      -2.539 -38.146  14.056  1.00  0.00     0.219 HD
ENDBRANCH  34  38
ENDBRANCH  29  34
BRANCH  31  40
HETATM   40  O7  UNL     1      -4.164 -39.752  19.265  1.00  0.00    -0.299 OA
BRANCH  40  41
HETATM   41  C25 UNL     1      -3.479 -38.541  19.150  1.00  0.00     0.125 C 
HETATM   42  C26 UNL     1      -4.336 -37.342  19.445  1.00  0.00     0.040 C 
HETATM   43  C27 UNL     1      -2.238 -38.503  20.031  1.00  0.00     0.040 C 
ENDBRANCH  40  41
ENDBRANCH  31  40
ENDBRANCH  28  29
ENDBRANCH   1  28
TORSDOF 15
ENDMDL
MODEL 4
REMARK VINA RESULT: -7.433394890      2.260     10.163
REMARK  15 active torsions:
REMARK  status: ('A' for Active; 'I' for Inactive)
REMARK    1  A    between atoms: N1_2  and  C2_4 
REMARK    2  A    between atoms: C2_4  and  O1_5 
REMARK    3  A    between atoms: C2_4  and  C3_7 
REMARK    4  A    between atoms: C3_7  and  C4_8 
REMARK    5  A    between atoms: C4_8  and  C5_9 
REMARK    6  A    between atoms: C8_12  and  C9_13 
REMARK       I    between atoms: C9_13  and  N2_15 
REMARK    7  A    between atoms: N2_15  and  C10_17 
REMARK    8  A    between atoms: C10_17  and  C11_18 
REMARK    9  A    between atoms: C10_17  and  C19_31 
REMARK       I    between atoms: C11_18  and  N3_20 
REMARK   10  A    between atoms: N3_20  and  C12_22 
REMARK   11  A    between atoms: C12_22  and  C13_23 
REMARK   12  A    between atoms: C12_22  and  C15_27 
REMARK   13  A    between atoms: C13_23  and  O5_25 
REMARK       I    between atoms: N4_36  and  C24_38 
REMARK   14  A    between atoms: C24_38  and  O7_40 
REMARK   15  A    between atoms: O7_40  and  C25_41 
ROOT
HETATM    1  C5  UNL     1       1.488 -44.846  13.107  1.00  0.00    -0.078 C 
HETATM    2  C6  UNL     1       0.786 -43.809  12.235  1.00  0.00     0.035 C 
HETATM    3  C7  UNL     1       0.047 -42.876  13.167  1.00  0.00     0.018 C 
HETATM    4  C8  UNL     1      -1.129 -43.638  13.731  1.00  0.00     0.078 C 
HETATM    5  C22 UNL     1      -0.701 -44.915  14.373  1.00  0.00     0.018 C 
HETATM    6  C23 UNL     1       0.794 -45.114  14.372  1.00  0.00     0.035 C 
ENDROOT
BRANCH   4   7
HETATM    7  C9  UNL     1      -2.021 -42.831  14.581  1.00  0.00     0.222 C 
HETATM    8  O2  UNL     1      -2.792 -43.451  15.359  1.00  0.00    -0.273 OA
HETATM    9  N2  UNL     1      -2.070 -41.425  14.584  1.00  0.00    -0.347 N 
ATOM     10  H2  UNL     1      -1.438 -40.945  13.944  1.00  0.00     0.163 HD
BRANCH   9  11
HETATM   11  C10 UNL     1      -2.912 -40.605  15.385  1.00  0.00     0.180 C 
BRANCH  11  12
HETATM   12  C11 UNL     1      -2.266 -40.033  16.560  1.00  0.00     0.241 C 
HETATM   13  O3  UNL     1      -1.230 -39.328  16.427  1.00  0.00    -0.271 OA
HETATM   14  N3  UNL     1      -2.774 -40.243  17.875  1.00  0.00    -0.345 N 
ATOM     15  H3  UNL     1      -3.609 -40.818  17.979  1.00  0.00     0.163 HD
BRANCH  14  16
HETATM   16  C12 UNL     1      -2.178 -39.688  19.072  1.00  0.00     0.191 C 
BRANCH  16  17
HETATM   17  C13 UNL     1      -1.993 -40.703  20.124  1.00  0.00     0.282 C 
HETATM   18  O4  UNL     1      -0.890 -40.885  20.729  1.00  0.00    -0.263 OA
BRANCH  17  19
HETATM   19  O5  UNL     1      -3.028 -41.540  20.527  1.00  0.00    -0.325 OA
HETATM   20  C14 UNL     1      -3.292 -41.887  21.873  1.00  0.00     0.213 C 
ENDBRANCH  17  19
ENDBRANCH  16  17
BRANCH  16  21
HETATM   21  C15 UNL     1      -2.953 -38.489  19.569  1.00  0.00    -0.022 C 
HETATM   22  C16 UNL     1      -2.803 -38.268  21.053  1.00  0.00     0.017 C 
HETATM   23  C17 UNL     1      -2.416 -37.239  18.900  1.00  0.00     0.017 C 
HETATM   24  C18 UNL     1      -4.418 -38.572  19.243  1.00  0.00     0.017 C 
ENDBRANCH  16  21
ENDBRANCH  14  16
ENDBRANCH  11  12
BRANCH  11  25
HETATM   25  C19 UNL     1      -3.546 -39.454  14.585  1.00  0.00     0.009 C 
HETATM   26  C20 UNL     1      -4.195 -39.918  13.319  1.00  0.00     0.012 C 
HETATM   27  C21 UNL     1      -4.479 -38.658  15.487  1.00  0.00     0.012 C 
ENDBRANCH  11  25
ENDBRANCH   9  11
ENDBRANCH   4   7
BRANCH   1  28
HETATM   28  C4  UNL     1       2.189 -45.905  12.357  1.00  0.00     0.037 C 
BRANCH  28  29
HETATM   29  C3  UNL     1       1.726 -47.262  12.339  1.00  0.00     0.087 C 
HETATM   30  N4  UNL     1       2.404 -48.183  13.051  1.00  0.00    -0.299 N 
HETATM   31  C24 UNL     1       3.509 -47.879  13.850  1.00  0.00     0.365 C 
ATOM     32  H4  UNL     1       2.093 -49.154  13.004  1.00  0.00     0.171 HD
HETATM   33  O6  UNL     1       4.705 -48.031  13.518  1.00  0.00    -0.238 OA
BRANCH  29  34
HETATM   34  C2  UNL     1       0.635 -47.826  11.612  1.00  0.00     0.163 C 
BRANCH  34  35
HETATM   35  N1  UNL     1      -0.747 -47.639  11.715  1.00  0.00    -0.373 N 
HETATM   36  C1  UNL     1      -1.415 -46.499  11.058  1.00  0.00     0.148 C 
ATOM     37  H1  UNL     1      -1.303 -48.301  12.255  1.00  0.00     0.161 HD
ENDBRANCH  34  35
BRANCH  34  38
HETATM   38  O1  UNL     1       0.952 -48.682  10.663  1.00  0.00    -0.345 OA
ATOM     39  H1  UNL     1       0.419 -49.469  10.695  1.00  0.00     0.219 HD
ENDBRANCH  34  38
ENDBRANCH  29  34
BRANCH  31  40
HETATM   40  O7  UNL     1       3.292 -47.365  15.127  1.00  0.00    -0.299 OA
BRANCH  40  41
HETATM   41  C25 UNL     1       4.288 -46.674  15.819  1.00  0.00     0.125 C 
HETATM   42  C26 UNL     1       4.324 -45.205  15.504  1.00  0.00     0.040 C 
HETATM   43  C27 UNL     1       4.170 -46.863  17.325  1.00  0.00     0.040 C 
ENDBRANCH  40  41
ENDBRANCH  31  40
ENDBRANCH  28  29
ENDBRANCH   1  28
TORSDOF 15
ENDMDL
MODEL 5
REMARK VINA RESULT: -7.428621157      1.557      2.086
REMARK  15 active torsions:
REMARK  status: ('A' for Active; 'I' for Inactive)
REMARK    1  A    between atoms: N1_2  and  C2_4 
REMARK    2  A    between atoms: C2_4  and  O1_5 
REMARK    3  A    between atoms: C2_4  and  C3_7 
REMARK    4  A    between atoms: C3_7  and  C4_8 
REMARK    5  A    between atoms: C4_8  and  C5_9 
REMARK    6  A    between atoms: C8_12  and  C9_13 
REMARK       I    between atoms: C9_13  and  N2_15 
REMARK    7  A    between atoms: N2_15  and  C10_17 
REMARK    8  A    between atoms: C10_17  and  C11_18 
REMARK    9  A    between atoms: C10_17  and  C19_31 
REMARK       I    between atoms: C11_18  and  N3_20 
REMARK   10  A    between atoms: N3_20  and  C12_22 
REMARK   11  A    between atoms: C12_22  and  C13_23 
REMARK   12  A    between atoms: C12_22  and  C15_27 
REMARK   13  A    between atoms: C13_23  and  O5_25 
REMARK       I    between atoms: N4_36  and  C24_38 
REMARK   14  A    between atoms: C24_38  and  O7_40 
REMARK   15  A    between atoms: O7_40  and  C25_41 
ROOT
HETATM    1  C5  UNL     1      -1.727 -40.502  17.706  1.00  0.00    -0.078 C 
HETATM    2  C6  UNL     1      -1.923 -41.968  18.084  1.00  0.00     0.035 C 
HETATM    3  C7  UNL     1      -1.252 -42.794  17.011  1.00  0.00     0.018 C 
HETATM    4  C8  UNL     1      -2.099 -42.690  15.764  1.00  0.00     0.078 C 
HETATM    5  C22 UNL     1      -2.332 -41.269  15.372  1.00  0.00     0.018 C 
HETATM    6  C23 UNL     1      -1.619 -40.280  16.260  1.00  0.00     0.035 C 
ENDROOT
BRANCH   4   7
HETATM    7  C9  UNL     1      -1.637 -43.532  14.647  1.00  0.00     0.222 C 
HETATM    8  O2  UNL     1      -1.368 -42.954  13.562  1.00  0.00    -0.273 OA
HETATM    9  N2  UNL     1      -1.478 -44.929  14.709  1.00  0.00    -0.347 N 
ATOM     10  H2  UNL     1      -1.704 -45.376  15.597  1.00  0.00     0.163 HD
BRANCH   9  11
HETATM   11  C10 UNL     1      -1.036 -45.781  13.660  1.00  0.00     0.180 C 
BRANCH  11  12
HETATM   12  C11 UNL     1       0.399 -45.740  13.404  1.00  0.00     0.241 C 
HETATM   13  O3  UNL     1       0.830 -45.238  12.331  1.00  0.00    -0.271 OA
HETATM   14  N3  UNL     1       1.346 -46.251  14.337  1.00  0.00    -0.345 N 
ATOM     15  H3  UNL     1       0.993 -46.661  15.201  1.00  0.00     0.163 HD
BRANCH  14  16
HETATM   16  C12 UNL     1       2.779 -46.223  14.136  1.00  0.00     0.191 C 
BRANCH  16  17
HETATM   17  C13 UNL     1       3.366 -47.575  14.120  1.00  0.00     0.282 C 
HETATM   18  O4  UNL     1       4.324 -47.909  13.355  1.00  0.00    -0.263 OA
BRANCH  17  19
HETATM   19  O5  UNL     1       2.902 -48.586  14.955  1.00  0.00    -0.325 OA
HETATM   20  C14 UNL     1       3.680 -49.209  15.959  1.00  0.00     0.213 C 
ENDBRANCH  17  19
ENDBRANCH  16  17
BRANCH  16  21
HETATM   21  C15 UNL     1       3.459 -45.319  15.139  1.00  0.00    -0.022 C 
HETATM   22  C16 UNL     1       3.259 -43.855  14.838  1.00  0.00     0.017 C 
HETATM   23  C17 UNL     1       2.853 -45.555  16.509  1.00  0.00     0.017 C 
HETATM   24  C18 UNL     1       4.933 -45.587  15.254  1.00  0.00     0.017 C 
ENDBRANCH  16  21
ENDBRANCH  14  16
ENDBRANCH  11  12
BRANCH  11  25
HETATM   25  C19 UNL     1      -1.434 -47.250  13.888  1.00  0.00     0.009 C 
HETATM   26  C20 UNL     1      -2.789 -47.392  14.508  1.00  0.00     0.012 C 
HETATM   27  C21 UNL     1      -1.279 -48.029  12.589  1.00  0.00     0.012 C 
ENDBRANCH  11  25
ENDBRANCH   9  11
ENDBRANCH   4   7
BRANCH   1  28
HETATM   28  C4  UNL     1      -2.404 -39.544  18.600  1.00  0.00     0.037 C 
BRANCH  28  29
HETATM   29  C3  UNL     1      -1.960 -38.187  18.740  1.00  0.00     0.087 C 
HETATM   30  N4  UNL     1      -2.662 -37.213  18.131  1.00  0.00    -0.299 N 
HETATM   31  C24 UNL     1      -3.836 -37.445  17.408  1.00  0.00     0.365 C 
ATOM     32  H4  UNL     1      -2.320 -36.254  18.202  1.00  0.00     0.171 HD
HETATM   33  O6  UNL     1      -3.911 -37.544  16.164  1.00  0.00    -0.238 OA
BRANCH  29  34
HETATM   34  C2  UNL     1      -0.805 -37.689  19.416  1.00  0.00     0.163 C 
BRANCH  34  35
HETATM   35  N1  UNL     1      -0.615 -37.250  20.730  1.00  0.00    -0.373 N 
HETATM   36  C1  UNL     1      -1.127 -38.026  21.877  1.00  0.00     0.148 C 
ATOM     37  H1  UNL     1      -0.114 -36.378  20.899  1.00  0.00     0.161 HD
ENDBRANCH  34  35
BRANCH  34  38
HETATM   38  O1  UNL     1       0.299 -37.617  18.702  1.00  0.00    -0.345 OA
ATOM     39  H1  UNL     1       0.300 -38.232  17.978  1.00  0.00     0.219 HD
ENDBRANCH  34  38
ENDBRANCH  29  34
BRANCH  31  40
HETATM   40  O7  UNL     1      -5.035 -37.581  18.104  1.00  0.00    -0.299 OA
BRANCH  40  41
HETATM   41  C25 UNL     1      -6.053 -38.425  17.655  1.00  0.00     0.125 C 
HETATM   42  C26 UNL     1      -6.066 -39.762  18.342  1.00  0.00     0.040 C 
HETATM   43  C27 UNL     1      -7.426 -37.779  17.783  1.00  0.00     0.040 C 
ENDBRANCH  40  41
ENDBRANCH  31  40
ENDBRANCH  28  29
ENDBRANCH   1  28
TORSDOF 15
ENDMDL
