MODEL 1
REMARK VINA RESULT: -6.584507246      0.000      0.000
REMARK  4 active torsions:
REMARK  status: ('A' for Active; 'I' for Inactive)
REMARK    1  A    between atoms: C2_2  and  O2_4 
REMARK    2  A    between atoms: O2_4  and  C3_5 
REMARK    3  A    between atoms: N1_8  and  C6_9 
REMARK    4  A    between atoms: C6_9  and  C7_10 
ROOT
HETATM    1  C3  UNL     1      -4.643 -18.990  36.637  1.00  0.00     0.135 C 
HETATM    2  C4  UNL     1      -4.433 -20.408  37.064  1.00  0.00     0.062 C 
HETATM    3  C5  UNL     1      -3.564 -21.150  36.070  1.00  0.00     0.275 C 
HETATM    4  N1  UNL     1      -2.453 -20.264  35.744  1.00  0.00     0.088 N 
HETATM    5  C13 UNL     1      -2.915 -19.207  34.890  1.00  0.00     0.275 C 
HETATM    6  C14 UNL     1      -4.339 -18.780  35.165  1.00  0.00     0.062 C 
ENDROOT
BRANCH   4   7
HETATM    7  C6  UNL     1      -1.419 -20.998  35.009  1.00  0.00     0.277 C 
BRANCH   7   8
HETATM    8  C7  UNL     1      -0.415 -21.477  36.048  1.00  0.00     0.014 C 
HETATM    9  C8  UNL     1      -0.735 -22.924  36.338  1.00  0.00     0.006 C 
HETATM   10  C9  UNL     1       0.131 -23.425  37.467  1.00  0.00     0.000 C 
HETATM   11  C10 UNL     1       1.549 -22.921  37.319  1.00  0.00     0.000 C 
HETATM   12  C11 UNL     1       1.853 -22.481  35.901  1.00  0.00     0.000 C 
HETATM   13  C12 UNL     1       0.972 -21.343  35.449  1.00  0.00     0.006 C 
ENDBRANCH   7   8
ENDBRANCH   4   7
BRANCH   1  14
HETATM   14  O2  UNL     1      -5.942 -18.537  36.947  1.00  0.00    -0.316 OA
BRANCH  14  15
HETATM   15  C2  UNL     1      -6.594 -18.813  38.122  1.00  0.00     0.255 C 
HETATM   16  C1  UNL     1      -6.181 -18.189  39.398  1.00  0.00     0.126 C 
HETATM   17  O1  UNL     1      -7.560 -19.609  38.128  1.00  0.00    -0.266 OA
ENDBRANCH  14  15
ENDBRANCH   1  14
TORSDOF 4
ENDMDL
MODEL 2
REMARK VINA RESULT: -6.401778763      0.890      1.187
REMARK  4 active torsions:
REMARK  status: ('A' for Active; 'I' for Inactive)
REMARK    1  A    between atoms: C2_2  and  O2_4 
REMARK    2  A    between atoms: O2_4  and  C3_5 
REMARK    3  A    between atoms: N1_8  and  C6_9 
REMARK    4  A    between atoms: C6_9  and  C7_10 
ROOT
HETATM    1  C3  UNL     1      -4.649 -18.912  36.609  1.00  0.00     0.135 C 
HETATM    2  C4  UNL     1      -4.482 -20.332  37.046  1.00  0.00     0.062 C 
HETATM    3  C5  UNL     1      -3.628 -21.106  36.062  1.00  0.00     0.275 C 
HETATM    4  N1  UNL     1      -2.490 -20.254  35.738  1.00  0.00     0.088 N 
HETATM    5  C13 UNL     1      -2.916 -19.189  34.874  1.00  0.00     0.275 C 
HETATM    6  C14 UNL     1      -4.329 -18.720  35.137  1.00  0.00     0.062 C 
ENDROOT
BRANCH   4   7
HETATM    7  C6  UNL     1      -1.473 -21.021  35.014  1.00  0.00     0.277 C 
BRANCH   7   8
HETATM    8  C7  UNL     1      -0.468 -21.487  36.057  1.00  0.00     0.014 C 
HETATM    9  C8  UNL     1      -0.778 -22.935  36.355  1.00  0.00     0.006 C 
HETATM   10  C9  UNL     1       0.089 -23.423  37.488  1.00  0.00     0.000 C 
HETATM   11  C10 UNL     1       1.505 -22.911  37.339  1.00  0.00     0.000 C 
HETATM   12  C11 UNL     1       1.808 -22.478  35.919  1.00  0.00     0.000 C 
HETATM   13  C12 UNL     1       0.919 -21.348  35.459  1.00  0.00     0.006 C 
ENDBRANCH   7   8
ENDBRANCH   4   7
BRANCH   1  14
HETATM   14  O2  UNL     1      -5.936 -18.420  36.907  1.00  0.00    -0.316 OA
BRANCH  14  15
HETATM   15  C2  UNL     1      -7.102 -19.033  36.525  1.00  0.00     0.255 C 
HETATM   16  C1  UNL     1      -7.712 -18.772  35.203  1.00  0.00     0.126 C 
HETATM   17  O1  UNL     1      -7.672 -19.831  37.302  1.00  0.00    -0.266 OA
ENDBRANCH  14  15
ENDBRANCH   1  14
TORSDOF 4
ENDMDL
MODEL 3
REMARK VINA RESULT: -6.349183891      0.867      1.143
REMARK  4 active torsions:
REMARK  status: ('A' for Active; 'I' for Inactive)
REMARK    1  A    between atoms: C2_2  and  O2_4 
REMARK    2  A    between atoms: O2_4  and  C3_5 
REMARK    3  A    between atoms: N1_8  and  C6_9 
REMARK    4  A    between atoms: C6_9  and  C7_10 
ROOT
HETATM    1  C3  UNL     1      -4.637 -18.798  36.672  1.00  0.00     0.135 C 
HETATM    2  C4  UNL     1      -4.518 -20.209  37.151  1.00  0.00     0.062 C 
HETATM    3  C5  UNL     1      -3.730 -21.051  36.169  1.00  0.00     0.275 C 
HETATM    4  N1  UNL     1      -2.567 -20.261  35.781  1.00  0.00     0.088 N 
HETATM    5  C13 UNL     1      -2.974 -19.208  34.895  1.00  0.00     0.275 C 
HETATM    6  C14 UNL     1      -4.357 -18.669  35.185  1.00  0.00     0.062 C 
ENDROOT
BRANCH   4   7
HETATM    7  C6  UNL     1      -1.607 -21.096  35.053  1.00  0.00     0.277 C 
BRANCH   7   8
HETATM    8  C7  UNL     1      -0.555 -21.520  36.067  1.00  0.00     0.014 C 
HETATM    9  C8  UNL     1      -0.795 -22.980  36.370  1.00  0.00     0.006 C 
HETATM   10  C9  UNL     1       0.123 -23.432  37.479  1.00  0.00     0.000 C 
HETATM   11  C10 UNL     1       1.510 -22.859  37.293  1.00  0.00     0.000 C 
HETATM   12  C11 UNL     1       1.756 -22.412  35.865  1.00  0.00     0.000 C 
HETATM   13  C12 UNL     1       0.808 -21.322  35.432  1.00  0.00     0.006 C 
ENDBRANCH   7   8
ENDBRANCH   4   7
BRANCH   1  14
HETATM   14  O2  UNL     1      -5.891 -18.240  36.992  1.00  0.00    -0.316 OA
BRANCH  14  15
HETATM   15  C2  UNL     1      -6.077 -17.240  37.914  1.00  0.00     0.255 C 
HETATM   16  C1  UNL     1      -7.349 -17.101  38.654  1.00  0.00     0.126 C 
HETATM   17  O1  UNL     1      -5.158 -16.422  38.141  1.00  0.00    -0.266 OA
ENDBRANCH  14  15
ENDBRANCH   1  14
TORSDOF 4
ENDMDL
MODEL 4
REMARK VINA RESULT: -6.182674900      1.752      2.022
REMARK  4 active torsions:
REMARK  status: ('A' for Active; 'I' for Inactive)
REMARK    1  A    between atoms: C2_2  and  O2_4 
REMARK    2  A    between atoms: O2_4  and  C3_5 
REMARK    3  A    between atoms: N1_8  and  C6_9 
REMARK    4  A    between atoms: C6_9  and  C7_10 
ROOT
HETATM    1  C3  UNL     1      -3.908 -18.259  35.585  1.00  0.00     0.135 C 
HETATM    2  C4  UNL     1      -3.952 -19.599  36.246  1.00  0.00     0.062 C 
HETATM    3  C5  UNL     1      -3.105 -20.604  35.493  1.00  0.00     0.275 C 
HETATM    4  N1  UNL     1      -1.849 -19.935  35.176  1.00  0.00     0.088 N 
HETATM    5  C13 UNL     1      -2.061 -18.986  34.120  1.00  0.00     0.275 C 
HETATM    6  C14 UNL     1      -3.428 -18.340  34.147  1.00  0.00     0.062 C 
ENDROOT
BRANCH   4   7
HETATM    7  C6  UNL     1      -0.863 -20.908  34.696  1.00  0.00     0.277 C 
BRANCH   7   8
HETATM    8  C7  UNL     1      -0.144 -21.431  35.930  1.00  0.00     0.014 C 
HETATM    9  C8  UNL     1      -0.602 -22.855  36.139  1.00  0.00     0.006 C 
HETATM   10  C9  UNL     1      -0.038 -23.392  37.431  1.00  0.00     0.000 C 
HETATM   11  C10 UNL     1       1.404 -22.970  37.603  1.00  0.00     0.000 C 
HETATM   12  C11 UNL     1       2.039 -22.564  36.288  1.00  0.00     0.000 C 
HETATM   13  C12 UNL     1       1.346 -21.383  35.655  1.00  0.00     0.006 C 
ENDBRANCH   7   8
ENDBRANCH   4   7
BRANCH   1  14
HETATM   14  O2  UNL     1      -5.151 -17.597  35.658  1.00  0.00    -0.316 OA
BRANCH  14  15
HETATM   15  C2  UNL     1      -5.321 -16.331  36.158  1.00  0.00     0.255 C 
HETATM   16  C1  UNL     1      -5.762 -15.214  35.293  1.00  0.00     0.126 C 
HETATM   17  O1  UNL     1      -5.102 -16.102  37.368  1.00  0.00    -0.266 OA
ENDBRANCH  14  15
ENDBRANCH   1  14
TORSDOF 4
ENDMDL
MODEL 5
REMARK VINA RESULT: -6.174910303      2.868      6.665
REMARK  4 active torsions:
REMARK  status: ('A' for Active; 'I' for Inactive)
REMARK    1  A    between atoms: C2_2  and  O2_4 
REMARK    2  A    between atoms: O2_4  and  C3_5 
REMARK    3  A    between atoms: N1_8  and  C6_9 
REMARK    4  A    between atoms: C6_9  and  C7_10 
ROOT
HETATM    1  C3  UNL     1      -1.100 -21.406  35.946  1.00  0.00     0.135 C 
HETATM    2  C4  UNL     1      -0.963 -20.452  34.802  1.00  0.00     0.062 C 
HETATM    3  C5  UNL     1      -2.310 -19.882  34.408  1.00  0.00     0.275 C 
HETATM    4  N1  UNL     1      -2.988 -19.518  35.646  1.00  0.00     0.088 N 
HETATM    5  C13 UNL     1      -3.437 -20.705  36.317  1.00  0.00     0.275 C 
HETATM    6  C14 UNL     1      -2.526 -21.897  36.121  1.00  0.00     0.062 C 
ENDROOT
BRANCH   4   7
HETATM    7  C6  UNL     1      -4.174 -18.708  35.355  1.00  0.00     0.277 C 
BRANCH   7   8
HETATM    8  C7  UNL     1      -5.221 -19.098  36.388  1.00  0.00     0.014 C 
HETATM    9  C8  UNL     1      -5.292 -17.973  37.393  1.00  0.00     0.006 C 
HETATM   10  C9  UNL     1      -6.208 -18.355  38.529  1.00  0.00     0.000 C 
HETATM   11  C10 UNL     1      -7.443 -19.057  38.008  1.00  0.00     0.000 C 
HETATM   12  C11 UNL     1      -7.681 -18.775  36.537  1.00  0.00     0.000 C 
HETATM   13  C12 UNL     1      -6.546 -19.257  35.668  1.00  0.00     0.006 C 
ENDBRANCH   7   8
ENDBRANCH   4   7
BRANCH   1  14
HETATM   14  O2  UNL     1      -0.210 -22.493  35.831  1.00  0.00    -0.316 OA
BRANCH  14  15
HETATM   15  C2  UNL     1      -0.182 -23.560  36.693  1.00  0.00     0.255 C 
HETATM   16  C1  UNL     1      -0.361 -24.946  36.210  1.00  0.00     0.126 C 
HETATM   17  O1  UNL     1      -0.002 -23.370  37.917  1.00  0.00    -0.266 OA
ENDBRANCH  14  15
ENDBRANCH   1  14
TORSDOF 4
ENDMDL
