MODEL 1
REMARK VINA RESULT: -5.745726566      0.000      0.000
REMARK  3 active torsions:
REMARK  status: ('A' for Active; 'I' for Inactive)
REMARK    1  A    between atoms: C2_2  and  C4_4 
REMARK    2  A    between atoms: C4_4  and  C5_5 
REMARK    3  A    between atoms: N1_9  and  C9_10 
ROOT
HETATM    1  C5  UNL     1      -3.426 -18.669  34.050  1.00  0.00     0.080 C 
HETATM    2  C6  UNL     1      -3.085 -17.530  33.077  1.00  0.00     0.026 C 
HETATM    3  C7  UNL     1      -4.039 -16.402  33.401  1.00  0.00     0.021 C 
HETATM    4  C8  UNL     1      -4.479 -16.778  34.828  1.00  0.00     0.118 C 
HETATM    5  N1  UNL     1      -4.527 -18.178  34.742  1.00  0.00    -0.401 N 
ENDROOT
BRANCH   5   6
HETATM    6  C9  UNL     1      -5.350 -18.950  35.518  1.00  0.00     0.111 C 
HETATM    7  C10 UNL     1      -6.856 -18.647  35.397  1.00  0.00     0.059 C 
HETATM    8  C11 UNL     1      -7.317 -19.049  36.778  1.00  0.00     0.124 C 
HETATM    9  C12 UNL     1      -7.284 -17.788  37.640  1.00  0.00     0.034 C 
HETATM   10  O1  UNL     1      -6.231 -19.729  37.378  1.00  0.00    -0.379 OA
HETATM   11  C13 UNL     1      -5.771 -17.531  37.561  1.00  0.00     0.036 C 
HETATM   12  C14 UNL     1      -5.209 -18.813  37.012  1.00  0.00     0.144 C 
ENDBRANCH   5   6
BRANCH   1  13
HETATM   13  C4  UNL     1      -2.198 -18.986  34.815  1.00  0.00     0.028 C 
BRANCH  13  14
HETATM   14  C2  UNL     1      -1.924 -20.472  34.845  1.00  0.00    -0.021 C 
HETATM   15  C1  UNL     1      -2.487 -21.091  36.127  1.00  0.00     0.009 C 
HETATM   16  C3  UNL     1      -0.421 -20.687  34.823  1.00  0.00     0.009 C 
ENDBRANCH  13  14
ENDBRANCH   1  13
TORSDOF 3
ENDMDL
MODEL 2
REMARK VINA RESULT: -5.719226562      3.872      5.958
REMARK  3 active torsions:
REMARK  status: ('A' for Active; 'I' for Inactive)
REMARK    1  A    between atoms: C2_2  and  C4_4 
REMARK    2  A    between atoms: C4_4  and  C5_5 
REMARK    3  A    between atoms: N1_9  and  C9_10 
ROOT
HETATM    1  C5  UNL     1      -7.214 -18.884  38.734  1.00  0.00     0.080 C 
HETATM    2  C6  UNL     1      -8.268 -19.165  37.651  1.00  0.00     0.026 C 
HETATM    3  C7  UNL     1      -9.520 -18.437  38.085  1.00  0.00     0.021 C 
HETATM    4  C8  UNL     1      -8.945 -17.407  39.075  1.00  0.00     0.118 C 
HETATM    5  N1  UNL     1      -7.920 -18.150  39.680  1.00  0.00    -0.401 N 
ENDROOT
BRANCH   5   6
HETATM    6  C9  UNL     1      -7.474 -17.914  40.954  1.00  0.00     0.111 C 
HETATM    7  C10 UNL     1      -6.654 -19.051  41.594  1.00  0.00     0.059 C 
HETATM    8  C11 UNL     1      -6.983 -18.825  43.051  1.00  0.00     0.124 C 
HETATM    9  C12 UNL     1      -8.186 -19.710  43.375  1.00  0.00     0.034 C 
HETATM   10  O1  UNL     1      -7.634 -17.570  43.122  1.00  0.00    -0.379 OA
HETATM   11  C13 UNL     1      -9.188 -19.044  42.421  1.00  0.00     0.036 C 
HETATM   12  C14 UNL     1      -8.520 -17.756  42.027  1.00  0.00     0.144 C 
ENDBRANCH   5   6
BRANCH   1  13
HETATM   13  C4  UNL     1      -6.052 -18.247  38.073  1.00  0.00     0.028 C 
BRANCH  13  14
HETATM   14  C2  UNL     1      -5.776 -18.855  36.717  1.00  0.00    -0.021 C 
HETATM   15  C1  UNL     1      -4.783 -20.014  36.846  1.00  0.00     0.009 C 
HETATM   16  C3  UNL     1      -5.164 -17.790  35.824  1.00  0.00     0.009 C 
ENDBRANCH  13  14
ENDBRANCH   1  13
TORSDOF 3
ENDMDL
MODEL 3
REMARK VINA RESULT: -5.695872872      4.884      6.756
REMARK  3 active torsions:
REMARK  status: ('A' for Active; 'I' for Inactive)
REMARK    1  A    between atoms: C2_2  and  C4_4 
REMARK    2  A    between atoms: C4_4  and  C5_5 
REMARK    3  A    between atoms: N1_9  and  C9_10 
ROOT
HETATM    1  C5  UNL     1      -7.262 -18.695  40.293  1.00  0.00     0.080 C 
HETATM    2  C6  UNL     1      -5.790 -18.308  40.080  1.00  0.00     0.026 C 
HETATM    3  C7  UNL     1      -5.779 -17.306  38.949  1.00  0.00     0.021 C 
HETATM    4  C8  UNL     1      -7.241 -16.822  38.957  1.00  0.00     0.118 C 
HETATM    5  N1  UNL     1      -7.920 -18.007  39.280  1.00  0.00    -0.401 N 
ENDROOT
BRANCH   5   6
HETATM    6  C9  UNL     1      -9.210 -18.261  38.895  1.00  0.00     0.111 C 
HETATM    7  C10 UNL     1      -9.632 -19.742  38.918  1.00  0.00     0.059 C 
HETATM    8  C11 UNL     1     -10.673 -19.736  37.823  1.00  0.00     0.124 C 
HETATM    9  C12 UNL     1      -9.955 -20.114  36.528  1.00  0.00     0.034 C 
HETATM   10  O1  UNL     1     -10.925 -18.377  37.521  1.00  0.00    -0.379 OA
HETATM   11  C13 UNL     1      -9.007 -18.906  36.465  1.00  0.00     0.036 C 
HETATM   12  C14 UNL     1      -9.574 -17.941  37.469  1.00  0.00     0.144 C 
ENDBRANCH   5   6
BRANCH   1  13
HETATM   13  C4  UNL     1      -7.608 -18.381  41.698  1.00  0.00     0.028 C 
BRANCH  13  14
HETATM   14  C2  UNL     1      -8.190 -19.579  42.412  1.00  0.00    -0.021 C 
HETATM   15  C1  UNL     1      -9.465 -19.183  43.163  1.00  0.00     0.009 C 
HETATM   16  C3  UNL     1      -7.172 -20.083  43.420  1.00  0.00     0.009 C 
ENDBRANCH  13  14
ENDBRANCH   1  13
TORSDOF 3
ENDMDL
MODEL 4
REMARK VINA RESULT: -5.672932785      3.956      6.377
REMARK  3 active torsions:
REMARK  status: ('A' for Active; 'I' for Inactive)
REMARK    1  A    between atoms: C2_2  and  C4_4 
REMARK    2  A    between atoms: C4_4  and  C5_5 
REMARK    3  A    between atoms: N1_9  and  C9_10 
ROOT
HETATM    1  C5  UNL     1      -7.956 -18.967  38.508  1.00  0.00     0.080 C 
HETATM    2  C6  UNL     1      -9.028 -19.694  37.680  1.00  0.00     0.026 C 
HETATM    3  C7  UNL     1     -10.321 -19.548  38.450  1.00  0.00     0.021 C 
HETATM    4  C8  UNL     1     -10.001 -18.346  39.357  1.00  0.00     0.118 C 
HETATM    5  N1  UNL     1      -8.647 -18.573  39.647  1.00  0.00    -0.401 N 
ENDROOT
BRANCH   5   6
HETATM    6  C9  UNL     1      -8.043 -18.137  40.797  1.00  0.00     0.111 C 
HETATM    7  C10 UNL     1      -6.749 -18.875  41.190  1.00  0.00     0.059 C 
HETATM    8  C11 UNL     1      -6.803 -18.719  42.691  1.00  0.00     0.124 C 
HETATM    9  C12 UNL     1      -7.502 -19.961  43.242  1.00  0.00     0.034 C 
HETATM   10  O1  UNL     1      -7.826 -17.779  42.958  1.00  0.00    -0.379 OA
HETATM   11  C13 UNL     1      -8.863 -19.740  42.564  1.00  0.00     0.036 C 
HETATM   12  C14 UNL     1      -8.808 -18.317  42.083  1.00  0.00     0.144 C 
ENDBRANCH   5   6
BRANCH   1  13
HETATM   13  C4  UNL     1      -7.361 -17.919  37.647  1.00  0.00     0.028 C 
BRANCH  13  14
HETATM   14  C2  UNL     1      -5.852 -18.006  37.620  1.00  0.00    -0.021 C 
HETATM   15  C1  UNL     1      -5.271 -16.890  36.746  1.00  0.00     0.009 C 
HETATM   16  C3  UNL     1      -5.456 -19.345  37.022  1.00  0.00     0.009 C 
ENDBRANCH  13  14
ENDBRANCH   1  13
TORSDOF 3
ENDMDL
MODEL 5
REMARK VINA RESULT: -5.577443045      4.372      7.698
REMARK  3 active torsions:
REMARK  status: ('A' for Active; 'I' for Inactive)
REMARK    1  A    between atoms: C2_2  and  C4_4 
REMARK    2  A    between atoms: C4_4  and  C5_5 
REMARK    3  A    between atoms: N1_9  and  C9_10 
ROOT
HETATM    1  C5  UNL     1      -9.202 -17.984  41.642  1.00  0.00     0.080 C 
HETATM    2  C6  UNL     1     -10.403 -17.029  41.726  1.00  0.00     0.026 C 
HETATM    3  C7  UNL     1     -10.976 -16.952  40.329  1.00  0.00     0.021 C 
HETATM    4  C8  UNL     1     -10.400 -18.231  39.694  1.00  0.00     0.118 C 
HETATM    5  N1  UNL     1      -9.129 -18.283  40.287  1.00  0.00    -0.401 N 
ENDROOT
BRANCH   5   6
HETATM    6  C9  UNL     1      -8.047 -18.876  39.691  1.00  0.00     0.111 C 
HETATM    7  C10 UNL     1      -6.674 -18.290  40.070  1.00  0.00     0.059 C 
HETATM    8  C11 UNL     1      -5.904 -18.585  38.804  1.00  0.00     0.124 C 
HETATM    9  C12 UNL     1      -6.021 -17.347  37.915  1.00  0.00     0.034 C 
HETATM   10  O1  UNL     1      -6.714 -19.457  38.039  1.00  0.00    -0.379 OA
HETATM   11  C13 UNL     1      -7.544 -17.388  37.717  1.00  0.00     0.036 C 
HETATM   12  C14 UNL     1      -7.940 -18.758  38.193  1.00  0.00     0.144 C 
ENDBRANCH   5   6
BRANCH   1  13
HETATM   13  C4  UNL     1      -9.443 -19.091  42.596  1.00  0.00     0.028 C 
BRANCH  13  14
HETATM   14  C2  UNL     1      -8.382 -19.144  43.671  1.00  0.00    -0.021 C 
HETATM   15  C1  UNL     1      -7.704 -17.778  43.817  1.00  0.00     0.009 C 
HETATM   16  C3  UNL     1      -7.333 -20.165  43.266  1.00  0.00     0.009 C 
ENDBRANCH  13  14
ENDBRANCH   1  13
TORSDOF 3
ENDMDL
