MODEL 1
REMARK VINA RESULT: -5.629366559      0.000      0.000
REMARK  3 active torsions:
REMARK  status: ('A' for Active; 'I' for Inactive)
REMARK    1  A    between atoms: C2_2  and  C3_3 
REMARK    2  A    between atoms: C3_3  and  C4_4 
REMARK    3  A    between atoms: C4_4  and  N1_5 
ROOT
HETATM    1  N1  UNL     1      -7.440 -18.248  40.673  1.00  0.00     0.091 N 
HETATM    2  C5  UNL     1      -8.770 -18.683  40.862  1.00  0.00     0.272 C 
HETATM    3  C6  UNL     1      -9.662 -18.679  39.654  1.00  0.00     0.033 C 
HETATM    4  C7  UNL     1      -8.943 -19.520  38.623  1.00  0.00     0.041 C 
HETATM    5  C8  UNL     1      -7.696 -18.752  38.235  1.00  0.00     0.087 C 
HETATM    6  C9  UNL     1      -8.019 -17.518  37.427  1.00  0.00     0.040 C 
HETATM    7  C10 UNL     1      -8.556 -17.987  36.098  1.00  0.00     0.003 C 
HETATM    8  C11 UNL     1      -7.476 -17.792  35.061  1.00  0.00     0.002 C 
HETATM    9  C12 UNL     1      -6.360 -18.780  35.197  1.00  0.00     0.026 C 
HETATM   10  C13 UNL     1      -6.013 -19.082  36.644  1.00  0.00     0.168 C 
HETATM   11  O1  UNL     1      -7.033 -19.631  37.362  1.00  0.00    -0.378 OA
HETATM   12  C14 UNL     1      -6.854 -18.398  39.388  1.00  0.00     0.310 C 
ENDROOT
BRANCH   1  13
HETATM   13  C4  UNL     1      -6.635 -19.074  41.594  1.00  0.00     0.272 C 
BRANCH  13  14
HETATM   14  C3  UNL     1      -7.476 -19.751  42.643  1.00  0.00     0.030 C 
BRANCH  14  15
HETATM   15  C2  UNL     1      -6.591 -20.185  43.817  1.00  0.00    -0.003 C 
HETATM   16  C1  UNL     1      -5.376 -20.927  43.306  1.00  0.00     0.005 C 
ENDBRANCH  14  15
ENDBRANCH  13  14
ENDBRANCH   1  13
TORSDOF 3
ENDMDL
MODEL 2
REMARK VINA RESULT: -5.600494007      0.912      1.021
REMARK  3 active torsions:
REMARK  status: ('A' for Active; 'I' for Inactive)
REMARK    1  A    between atoms: C2_2  and  C3_3 
REMARK    2  A    between atoms: C3_3  and  C4_4 
REMARK    3  A    between atoms: C4_4  and  N1_5 
ROOT
HETATM    1  N1  UNL     1      -8.470 -17.616  40.431  1.00  0.00     0.091 N 
HETATM    2  C5  UNL     1      -9.730 -18.244  40.322  1.00  0.00     0.272 C 
HETATM    3  C6  UNL     1     -10.146 -18.693  38.951  1.00  0.00     0.033 C 
HETATM    4  C7  UNL     1      -9.032 -19.596  38.470  1.00  0.00     0.041 C 
HETATM    5  C8  UNL     1      -7.816 -18.712  38.278  1.00  0.00     0.087 C 
HETATM    6  C9  UNL     1      -7.968 -17.786  37.095  1.00  0.00     0.040 C 
HETATM    7  C10 UNL     1      -7.962 -18.646  35.856  1.00  0.00     0.003 C 
HETATM    8  C11 UNL     1      -6.618 -18.492  35.186  1.00  0.00     0.002 C 
HETATM    9  C12 UNL     1      -5.520 -19.187  35.929  1.00  0.00     0.026 C 
HETATM   10  C13 UNL     1      -5.663 -19.071  37.436  1.00  0.00     0.168 C 
HETATM   11  O1  UNL     1      -6.803 -19.625  37.935  1.00  0.00    -0.378 OA
HETATM   12  C14 UNL     1      -7.465 -17.943  39.483  1.00  0.00     0.310 C 
ENDROOT
BRANCH   1  13
HETATM   13  C4  UNL     1      -7.949 -18.032  41.747  1.00  0.00     0.272 C 
BRANCH  13  14
HETATM   14  C3  UNL     1      -8.349 -19.440  42.102  1.00  0.00     0.030 C 
BRANCH  14  15
HETATM   15  C2  UNL     1      -7.890 -19.764  43.529  1.00  0.00    -0.003 C 
HETATM   16  C1  UNL     1      -6.480 -20.314  43.510  1.00  0.00     0.005 C 
ENDBRANCH  14  15
ENDBRANCH  13  14
ENDBRANCH   1  13
TORSDOF 3
ENDMDL
MODEL 3
REMARK VINA RESULT: -5.575190478      2.582      5.425
REMARK  3 active torsions:
REMARK  status: ('A' for Active; 'I' for Inactive)
REMARK    1  A    between atoms: C2_2  and  C3_3 
REMARK    2  A    between atoms: C3_3  and  C4_4 
REMARK    3  A    between atoms: C4_4  and  N1_5 
ROOT
HETATM    1  N1  UNL     1      -5.462 -19.136  36.410  1.00  0.00     0.091 N 
HETATM    2  C5  UNL     1      -5.484 -17.850  35.827  1.00  0.00     0.272 C 
HETATM    3  C6  UNL     1      -6.323 -16.810  36.511  1.00  0.00     0.033 C 
HETATM    4  C7  UNL     1      -5.822 -16.765  37.937  1.00  0.00     0.041 C 
HETATM    5  C8  UNL     1      -6.193 -18.093  38.565  1.00  0.00     0.087 C 
HETATM    6  C9  UNL     1      -7.681 -18.220  38.786  1.00  0.00     0.040 C 
HETATM    7  C10 UNL     1      -8.056 -17.222  39.854  1.00  0.00     0.003 C 
HETATM    8  C11 UNL     1      -8.292 -17.978  41.140  1.00  0.00     0.002 C 
HETATM    9  C12 UNL     1      -7.022 -18.477  41.756  1.00  0.00     0.026 C 
HETATM   10  C13 UNL     1      -6.022 -18.971  40.727  1.00  0.00     0.168 C 
HETATM   11  O1  UNL     1      -5.610 -18.020  39.843  1.00  0.00    -0.378 OA
HETATM   12  C14 UNL     1      -5.692 -19.250  37.808  1.00  0.00     0.310 C 
ENDROOT
BRANCH   1  13
HETATM   13  C4  UNL     1      -4.096 -19.639  36.173  1.00  0.00     0.272 C 
BRANCH  13  14
HETATM   14  C3  UNL     1      -3.883 -21.013  36.752  1.00  0.00     0.030 C 
BRANCH  14  15
HETATM   15  C2  UNL     1      -2.472 -21.507  36.409  1.00  0.00    -0.003 C 
HETATM   16  C1  UNL     1      -1.883 -20.668  35.297  1.00  0.00     0.005 C 
ENDBRANCH  14  15
ENDBRANCH  13  14
ENDBRANCH   1  13
TORSDOF 3
ENDMDL
MODEL 4
REMARK VINA RESULT: -5.501530671      1.873      5.251
REMARK  3 active torsions:
REMARK  status: ('A' for Active; 'I' for Inactive)
REMARK    1  A    between atoms: C2_2  and  C3_3 
REMARK    2  A    between atoms: C3_3  and  C4_4 
REMARK    3  A    between atoms: C4_4  and  N1_5 
ROOT
HETATM    1  N1  UNL     1      -7.962 -18.250  37.975  1.00  0.00     0.091 N 
HETATM    2  C5  UNL     1      -8.617 -17.000  37.959  1.00  0.00     0.272 C 
HETATM    3  C6  UNL     1      -9.350 -16.602  39.207  1.00  0.00     0.033 C 
HETATM    4  C7  UNL     1      -8.323 -16.677  40.315  1.00  0.00     0.041 C 
HETATM    5  C8  UNL     1      -7.970 -18.142  40.476  1.00  0.00     0.087 C 
HETATM    6  C9  UNL     1      -9.104 -18.936  41.079  1.00  0.00     0.040 C 
HETATM    7  C10 UNL     1      -9.264 -18.467  42.504  1.00  0.00     0.003 C 
HETATM    8  C11 UNL     1      -8.684 -19.524  43.413  1.00  0.00     0.002 C 
HETATM    9  C12 UNL     1      -7.188 -19.562  43.372  1.00  0.00     0.026 C 
HETATM   10  C13 UNL     1      -6.631 -19.334  41.978  1.00  0.00     0.168 C 
HETATM   11  O1  UNL     1      -6.947 -18.124  41.439  1.00  0.00    -0.378 OA
HETATM   12  C14 UNL     1      -7.522 -18.768  39.223  1.00  0.00     0.310 C 
ENDROOT
BRANCH   1  13
HETATM   13  C4  UNL     1      -6.749 -18.056  37.157  1.00  0.00     0.272 C 
BRANCH  13  14
HETATM   14  C3  UNL     1      -5.607 -18.927  37.609  1.00  0.00     0.030 C 
BRANCH  14  15
HETATM   15  C2  UNL     1      -4.953 -19.596  36.394  1.00  0.00    -0.003 C 
HETATM   16  C1  UNL     1      -4.101 -20.764  36.839  1.00  0.00     0.005 C 
ENDBRANCH  14  15
ENDBRANCH  13  14
ENDBRANCH   1  13
TORSDOF 3
ENDMDL
MODEL 5
REMARK VINA RESULT: -5.377930679      1.556      1.928
REMARK  3 active torsions:
REMARK  status: ('A' for Active; 'I' for Inactive)
REMARK    1  A    between atoms: C2_2  and  C3_3 
REMARK    2  A    between atoms: C3_3  and  C4_4 
REMARK    3  A    between atoms: C4_4  and  N1_5 
ROOT
HETATM    1  N1  UNL     1      -7.886 -18.338  42.564  1.00  0.00     0.091 N 
HETATM    2  C5  UNL     1      -9.285 -18.507  42.479  1.00  0.00     0.272 C 
HETATM    3  C6  UNL     1      -9.947 -18.047  41.213  1.00  0.00     0.033 C 
HETATM    4  C7  UNL     1      -9.231 -18.775  40.098  1.00  0.00     0.041 C 
HETATM    5  C8  UNL     1      -7.819 -18.227  40.064  1.00  0.00     0.087 C 
HETATM    6  C9  UNL     1      -7.774 -16.806  39.556  1.00  0.00     0.040 C 
HETATM    7  C10 UNL     1      -8.158 -16.845  38.098  1.00  0.00     0.003 C 
HETATM    8  C11 UNL     1      -6.903 -16.665  37.277  1.00  0.00     0.002 C 
HETATM    9  C12 UNL     1      -6.023 -17.875  37.295  1.00  0.00     0.026 C 
HETATM   10  C13 UNL     1      -5.983 -18.555  38.652  1.00  0.00     0.168 C 
HETATM   11  O1  UNL     1      -7.189 -19.015  39.085  1.00  0.00    -0.378 OA
HETATM   12  C14 UNL     1      -7.131 -18.324  41.361  1.00  0.00     0.310 C 
ENDROOT
BRANCH   1  13
HETATM   13  C4  UNL     1      -7.408 -19.498  43.339  1.00  0.00     0.272 C 
BRANCH  13  14
HETATM   14  C3  UNL     1      -6.212 -20.158  42.705  1.00  0.00     0.030 C 
BRANCH  14  15
HETATM   15  C2  UNL     1      -5.479 -21.013  43.746  1.00  0.00    -0.003 C 
HETATM   16  C1  UNL     1      -4.158 -21.495  43.187  1.00  0.00     0.005 C 
ENDBRANCH  14  15
ENDBRANCH  13  14
ENDBRANCH   1  13
TORSDOF 3
ENDMDL
