MODEL 1
REMARK VINA RESULT: -8.528563232      0.000      0.000
REMARK  9 active torsions:
REMARK  status: ('A' for Active; 'I' for Inactive)
REMARK       I    between atoms: C1_2  and  N1_3 
REMARK       I    between atoms: C1_2  and  N2_7 
REMARK    1  A    between atoms: N1_3  and  O2_5 
REMARK    2  A    between atoms: N2_7  and  S1_9 
REMARK    3  A    between atoms: S1_9  and  O5_12 
REMARK    4  A    between atoms: O5_12  and  N3_13 
REMARK       I    between atoms: N3_13  and  C2_15 
REMARK    5  A    between atoms: C2_15  and  C3_17 
REMARK    6  A    between atoms: C3_17  and  C4_19 
REMARK    7  A    between atoms: C4_19  and  O8_20 
REMARK    8  A    between atoms: C4_19  and  C5_22 
REMARK    9  A    between atoms: C8_25  and  N4_26 
ROOT
HETATM    1  N3  UNL     1     -61.521  30.248  -9.715  1.00  0.00    -0.209 N 
ATOM      2  H3  UNL     1     -61.508  29.233  -9.616  1.00  0.00     0.199 HD
HETATM    3  C2  UNL     1     -62.675  31.006  -9.352  1.00  0.00     0.315 C 
HETATM    4  O6  UNL     1     -62.685  32.247  -9.497  1.00  0.00    -0.262 OA
ENDROOT
BRANCH   3   5
HETATM    5  C3  UNL     1     -63.833  30.305  -8.801  1.00  0.00     0.251 C 
HETATM    6  O7  UNL     1     -64.523  29.556  -9.548  1.00  0.00    -0.284 OA
BRANCH   5   7
HETATM    7  C4  UNL     1     -64.180  30.469  -7.388  1.00  0.00     0.231 C 
BRANCH   7   8
HETATM    8  O8  UNL     1     -64.264  31.876  -7.119  1.00  0.00    -0.383 OA
ATOM      9  H8  UNL     1     -64.670  31.984  -6.266  1.00  0.00     0.211 HD
ENDBRANCH   7   8
BRANCH   7  10
HETATM   10  C5  UNL     1     -63.120  29.938  -6.468  1.00  0.00    -0.022 A 
HETATM   11  C6  UNL     1     -63.088  28.678  -5.949  1.00  0.00     0.012 A 
HETATM   12  C7  UNL     1     -62.100  28.326  -5.039  1.00  0.00     0.037 A 
HETATM   13  C8  UNL     1     -61.135  29.219  -4.638  1.00  0.00     0.102 A 
HETATM   14  C9  UNL     1     -61.166  30.506  -5.170  1.00  0.00     0.037 A 
HETATM   15  C10 UNL     1     -62.154  30.846  -6.075  1.00  0.00     0.012 A 
BRANCH  13  16
HETATM   16  N4  UNL     1     -60.153  28.857  -3.689  1.00  0.00    -0.116 N 
HETATM   17  O9  UNL     1     -60.401  28.826  -2.492  1.00  0.00    -0.532 OA
HETATM   18  O10 UNL     1     -58.873  28.523  -4.105  1.00  0.00    -0.532 OA
ENDBRANCH  13  16
ENDBRANCH   7  10
ENDBRANCH   5   7
ENDBRANCH   3   5
BRANCH   1  19
HETATM   19  O5  UNL     1     -60.440  30.916 -10.196  1.00  0.00    -0.131 OA
BRANCH  19  20
HETATM   20  S1  UNL     1     -59.312  31.113  -8.945  1.00  0.00     0.386 S 
HETATM   21  O3  UNL     1     -59.351  29.898  -8.027  1.00  0.00    -0.173 OA
HETATM   22  O4  UNL     1     -59.555  32.377  -8.172  1.00  0.00    -0.173 OA
BRANCH  20  23
HETATM   23  N2  UNL     1     -57.744  31.147  -9.630  1.00  0.00    -0.210 N 
HETATM   24  C1  UNL     1     -57.150  29.932 -10.087  1.00  0.00     0.354 C 
HETATM   25  O1  UNL     1     -57.806  28.876  -9.962  1.00  0.00    -0.244 OA
HETATM   26  N1  UNL     1     -55.839  29.966 -10.663  1.00  0.00    -0.218 N 
ATOM     27  H1  UNL     1     -55.330  30.845 -10.753  1.00  0.00     0.199 HD
ATOM     28  H2  UNL     1     -57.238  32.028  -9.711  1.00  0.00     0.185 HD
BRANCH  26  29
HETATM   29  O2  UNL     1     -55.300  28.815 -11.082  1.00  0.00    -0.286 OA
ATOM     30  H2  UNL     1     -55.335  28.612 -12.009  1.00  0.00     0.244 HD
ENDBRANCH  26  29
ENDBRANCH  20  23
ENDBRANCH  19  20
ENDBRANCH   1  19
TORSDOF 9
ENDMDL
MODEL 2
REMARK VINA RESULT: -8.436047473      3.461      6.422
REMARK  9 active torsions:
REMARK  status: ('A' for Active; 'I' for Inactive)
REMARK       I    between atoms: C1_2  and  N1_3 
REMARK       I    between atoms: C1_2  and  N2_7 
REMARK    1  A    between atoms: N1_3  and  O2_5 
REMARK    2  A    between atoms: N2_7  and  S1_9 
REMARK    3  A    between atoms: S1_9  and  O5_12 
REMARK    4  A    between atoms: O5_12  and  N3_13 
REMARK       I    between atoms: N3_13  and  C2_15 
REMARK    5  A    between atoms: C2_15  and  C3_17 
REMARK    6  A    between atoms: C3_17  and  C4_19 
REMARK    7  A    between atoms: C4_19  and  O8_20 
REMARK    8  A    between atoms: C4_19  and  C5_22 
REMARK    9  A    between atoms: C8_25  and  N4_26 
ROOT
HETATM    1  N3  UNL     1     -64.639  29.178  -8.597  1.00  0.00    -0.209 N 
ATOM      2  H3  UNL     1     -64.715  29.693  -7.720  1.00  0.00     0.199 HD
HETATM    3  C2  UNL     1     -63.935  29.727  -9.711  1.00  0.00     0.315 C 
HETATM    4  O6  UNL     1     -63.865  29.096 -10.787  1.00  0.00    -0.262 OA
ENDROOT
BRANCH   3   5
HETATM    5  C3  UNL     1     -63.292  31.032  -9.564  1.00  0.00     0.251 C 
HETATM    6  O7  UNL     1     -63.980  32.084  -9.684  1.00  0.00    -0.284 OA
BRANCH   5   7
HETATM    7  C4  UNL     1     -61.861  31.110  -9.270  1.00  0.00     0.231 C 
BRANCH   7   8
HETATM    8  O8  UNL     1     -61.185  30.184 -10.134  1.00  0.00    -0.383 OA
ATOM      9  H8  UNL     1     -60.387  29.909  -9.698  1.00  0.00     0.211 HD
ENDBRANCH   7   8
BRANCH   7  10
HETATM   10  C5  UNL     1     -61.534  30.677  -7.872  1.00  0.00    -0.022 A 
HETATM   11  C6  UNL     1     -62.287  30.947  -6.768  1.00  0.00     0.012 A 
HETATM   12  C7  UNL     1     -61.839  30.566  -5.510  1.00  0.00     0.037 A 
HETATM   13  C8  UNL     1     -60.642  29.913  -5.336  1.00  0.00     0.102 A 
HETATM   14  C9  UNL     1     -59.873  29.635  -6.464  1.00  0.00     0.037 A 
HETATM   15  C10 UNL     1     -60.328  30.019  -7.711  1.00  0.00     0.012 A 
BRANCH  13  16
HETATM   16  N4  UNL     1     -60.184  29.558  -4.048  1.00  0.00    -0.116 N 
HETATM   17  O9  UNL     1     -59.434  30.284  -3.412  1.00  0.00    -0.532 OA
HETATM   18  O10 UNL     1     -60.584  28.361  -3.472  1.00  0.00    -0.532 OA
ENDBRANCH  13  16
ENDBRANCH   7  10
ENDBRANCH   5   7
ENDBRANCH   3   5
BRANCH   1  19
HETATM   19  O5  UNL     1     -65.204  27.950  -8.738  1.00  0.00    -0.131 OA
BRANCH  19  20
HETATM   20  S1  UNL     1     -66.286  27.691  -7.459  1.00  0.00     0.386 S 
HETATM   21  O3  UNL     1     -65.519  27.225  -6.227  1.00  0.00    -0.173 OA
HETATM   22  O4  UNL     1     -67.356  26.704  -7.828  1.00  0.00    -0.173 OA
BRANCH  20  23
HETATM   23  N2  UNL     1     -67.000  29.188  -7.041  1.00  0.00    -0.210 N 
HETATM   24  C1  UNL     1     -67.776  29.892  -8.009  1.00  0.00     0.354 C 
HETATM   25  O1  UNL     1     -67.900  29.383  -9.144  1.00  0.00    -0.244 OA
HETATM   26  N1  UNL     1     -68.374  31.144  -7.653  1.00  0.00    -0.218 N 
ATOM     27  H1  UNL     1     -68.255  31.534  -6.718  1.00  0.00     0.199 HD
ATOM     28  H2  UNL     1     -66.872  29.575  -6.106  1.00  0.00     0.185 HD
BRANCH  26  29
HETATM   29  O2  UNL     1     -69.095  31.790  -8.579  1.00  0.00    -0.286 OA
ATOM     30  H2  UNL     1     -69.010  32.734  -8.637  1.00  0.00     0.244 HD
ENDBRANCH  26  29
ENDBRANCH  20  23
ENDBRANCH  19  20
ENDBRANCH   1  19
TORSDOF 9
ENDMDL
MODEL 3
REMARK VINA RESULT: -8.360059288      3.654      7.265
REMARK  9 active torsions:
REMARK  status: ('A' for Active; 'I' for Inactive)
REMARK       I    between atoms: C1_2  and  N1_3 
REMARK       I    between atoms: C1_2  and  N2_7 
REMARK    1  A    between atoms: N1_3  and  O2_5 
REMARK    2  A    between atoms: N2_7  and  S1_9 
REMARK    3  A    between atoms: S1_9  and  O5_12 
REMARK    4  A    between atoms: O5_12  and  N3_13 
REMARK       I    between atoms: N3_13  and  C2_15 
REMARK    5  A    between atoms: C2_15  and  C3_17 
REMARK    6  A    between atoms: C3_17  and  C4_19 
REMARK    7  A    between atoms: C4_19  and  O8_20 
REMARK    8  A    between atoms: C4_19  and  C5_22 
REMARK    9  A    between atoms: C8_25  and  N4_26 
ROOT
HETATM    1  N3  UNL     1     -64.976  28.100  -7.868  1.00  0.00    -0.209 N 
ATOM      2  H3  UNL     1     -64.267  28.579  -8.425  1.00  0.00     0.199 HD
HETATM    3  C2  UNL     1     -64.801  27.912  -6.464  1.00  0.00     0.315 C 
HETATM    4  O6  UNL     1     -65.667  27.306  -5.797  1.00  0.00    -0.262 OA
ENDROOT
BRANCH   3   5
HETATM    5  C3  UNL     1     -63.601  28.447  -5.825  1.00  0.00     0.251 C 
HETATM    6  O7  UNL     1     -62.816  27.666  -5.217  1.00  0.00    -0.284 OA
BRANCH   5   7
HETATM    7  C4  UNL     1     -63.311  29.879  -5.904  1.00  0.00     0.231 C 
BRANCH   7   8
HETATM    8  O8  UNL     1     -64.439  30.521  -6.516  1.00  0.00    -0.383 OA
ATOM      9  H8  UNL     1     -64.604  31.330  -6.044  1.00  0.00     0.211 HD
ENDBRANCH   7   8
BRANCH   7  10
HETATM   10  C5  UNL     1     -62.138  30.184  -6.786  1.00  0.00    -0.022 A 
HETATM   11  C6  UNL     1     -60.852  29.797  -6.549  1.00  0.00     0.012 A 
HETATM   12  C7  UNL     1     -59.833  30.211  -7.396  1.00  0.00     0.037 A 
HETATM   13  C8  UNL     1     -60.080  31.011  -8.487  1.00  0.00     0.102 A 
HETATM   14  C9  UNL     1     -61.393  31.405  -8.731  1.00  0.00     0.037 A 
HETATM   15  C10 UNL     1     -62.400  30.988  -7.881  1.00  0.00     0.012 A 
BRANCH  13  16
HETATM   16  N4  UNL     1     -59.030  31.450  -9.324  1.00  0.00    -0.116 N 
HETATM   17  O9  UNL     1     -59.042  32.558  -9.839  1.00  0.00    -0.532 OA
HETATM   18  O10 UNL     1     -57.950  30.618  -9.578  1.00  0.00    -0.532 OA
ENDBRANCH  13  16
ENDBRANCH   7  10
ENDBRANCH   5   7
ENDBRANCH   3   5
BRANCH   1  19
HETATM   19  O5  UNL     1     -66.112  27.625  -8.443  1.00  0.00    -0.131 OA
BRANCH  19  20
HETATM   20  S1  UNL     1     -66.867  28.882  -9.296  1.00  0.00     0.386 S 
HETATM   21  O3  UNL     1     -68.253  28.433  -9.744  1.00  0.00    -0.173 OA
HETATM   22  O4  UNL     1     -66.043  29.330 -10.469  1.00  0.00    -0.173 OA
BRANCH  20  23
HETATM   23  N2  UNL     1     -67.110  30.193  -8.224  1.00  0.00    -0.210 N 
HETATM   24  C1  UNL     1     -67.915  30.011  -7.060  1.00  0.00     0.354 C 
HETATM   25  O1  UNL     1     -68.423  28.885  -6.870  1.00  0.00    -0.244 OA
HETATM   26  N1  UNL     1     -68.113  31.111  -6.165  1.00  0.00    -0.218 N 
ATOM     27  H1  UNL     1     -67.684  32.018  -6.348  1.00  0.00     0.199 HD
ATOM     28  H2  UNL     1     -66.683  31.099  -8.417  1.00  0.00     0.185 HD
BRANCH  26  29
HETATM   29  O2  UNL     1     -68.875  30.918  -5.081  1.00  0.00    -0.286 OA
ATOM     30  H2  UNL     1     -68.919  31.611  -4.432  1.00  0.00     0.244 HD
ENDBRANCH  26  29
ENDBRANCH  20  23
ENDBRANCH  19  20
ENDBRANCH   1  19
TORSDOF 9
ENDMDL
MODEL 4
REMARK VINA RESULT: -8.289736435      3.284      6.473
REMARK  9 active torsions:
REMARK  status: ('A' for Active; 'I' for Inactive)
REMARK       I    between atoms: C1_2  and  N1_3 
REMARK       I    between atoms: C1_2  and  N2_7 
REMARK    1  A    between atoms: N1_3  and  O2_5 
REMARK    2  A    between atoms: N2_7  and  S1_9 
REMARK    3  A    between atoms: S1_9  and  O5_12 
REMARK    4  A    between atoms: O5_12  and  N3_13 
REMARK       I    between atoms: N3_13  and  C2_15 
REMARK    5  A    between atoms: C2_15  and  C3_17 
REMARK    6  A    between atoms: C3_17  and  C4_19 
REMARK    7  A    between atoms: C4_19  and  O8_20 
REMARK    8  A    between atoms: C4_19  and  C5_22 
REMARK    9  A    between atoms: C8_25  and  N4_26 
ROOT
HETATM    1  N3  UNL     1     -65.074  28.115  -7.957  1.00  0.00    -0.209 N 
ATOM      2  H3  UNL     1     -64.393  28.653  -8.495  1.00  0.00     0.199 HD
HETATM    3  C2  UNL     1     -64.881  27.876  -6.563  1.00  0.00     0.315 C 
HETATM    4  O6  UNL     1     -65.711  27.198  -5.920  1.00  0.00    -0.262 OA
ENDROOT
BRANCH   3   5
HETATM    5  C3  UNL     1     -63.706  28.444  -5.906  1.00  0.00     0.251 C 
HETATM    6  O7  UNL     1     -62.905  27.684  -5.293  1.00  0.00    -0.284 OA
BRANCH   5   7
HETATM    7  C4  UNL     1     -63.460  29.885  -5.972  1.00  0.00     0.231 C 
BRANCH   7   8
HETATM    8  O8  UNL     1     -64.602  30.496  -6.590  1.00  0.00    -0.383 OA
ATOM      9  H8  UNL     1     -65.068  30.983  -5.920  1.00  0.00     0.211 HD
ENDBRANCH   7   8
BRANCH   7  10
HETATM   10  C5  UNL     1     -62.288  30.232  -6.841  1.00  0.00    -0.022 A 
HETATM   11  C6  UNL     1     -60.990  29.910  -6.579  1.00  0.00     0.012 A 
HETATM   12  C7  UNL     1     -59.978  30.358  -7.417  1.00  0.00     0.037 A 
HETATM   13  C8  UNL     1     -60.246  31.131  -8.523  1.00  0.00     0.102 A 
HETATM   14  C9  UNL     1     -61.572  31.459  -8.793  1.00  0.00     0.037 A 
HETATM   15  C10 UNL     1     -62.571  31.006  -7.952  1.00  0.00     0.012 A 
BRANCH  13  16
HETATM   16  N4  UNL     1     -59.204  31.606  -9.350  1.00  0.00    -0.116 N 
HETATM   17  O9  UNL     1     -59.269  32.698  -9.898  1.00  0.00    -0.532 OA
HETATM   18  O10 UNL     1     -58.072  30.833  -9.558  1.00  0.00    -0.532 OA
ENDBRANCH  13  16
ENDBRANCH   7  10
ENDBRANCH   5   7
ENDBRANCH   3   5
BRANCH   1  19
HETATM   19  O5  UNL     1     -66.187  27.608  -8.548  1.00  0.00    -0.131 OA
BRANCH  19  20
HETATM   20  S1  UNL     1     -67.349  28.836  -8.682  1.00  0.00     0.386 S 
HETATM   21  O3  UNL     1     -68.023  29.050  -7.332  1.00  0.00    -0.173 OA
HETATM   22  O4  UNL     1     -68.365  28.526  -9.744  1.00  0.00    -0.173 OA
BRANCH  20  23
HETATM   23  N2  UNL     1     -66.549  30.301  -9.057  1.00  0.00    -0.210 N 
HETATM   24  C1  UNL     1     -65.997  30.487 -10.359  1.00  0.00     0.354 C 
HETATM   25  O1  UNL     1     -66.117  29.557 -11.186  1.00  0.00    -0.244 OA
HETATM   26  N1  UNL     1     -65.331  31.718 -10.669  1.00  0.00    -0.218 N 
ATOM     27  H1  UNL     1     -65.250  32.458  -9.973  1.00  0.00     0.199 HD
ATOM     28  H2  UNL     1     -66.466  31.035  -8.354  1.00  0.00     0.185 HD
BRANCH  26  29
HETATM   29  O2  UNL     1     -64.818  31.870 -11.896  1.00  0.00    -0.286 OA
ATOM     30  H2  UNL     1     -64.368  32.682 -12.099  1.00  0.00     0.244 HD
ENDBRANCH  26  29
ENDBRANCH  20  23
ENDBRANCH  19  20
ENDBRANCH   1  19
TORSDOF 9
ENDMDL
MODEL 5
REMARK VINA RESULT: -8.250609600      4.300      6.743
REMARK  9 active torsions:
REMARK  status: ('A' for Active; 'I' for Inactive)
REMARK       I    between atoms: C1_2  and  N1_3 
REMARK       I    between atoms: C1_2  and  N2_7 
REMARK    1  A    between atoms: N1_3  and  O2_5 
REMARK    2  A    between atoms: N2_7  and  S1_9 
REMARK    3  A    between atoms: S1_9  and  O5_12 
REMARK    4  A    between atoms: O5_12  and  N3_13 
REMARK       I    between atoms: N3_13  and  C2_15 
REMARK    5  A    between atoms: C2_15  and  C3_17 
REMARK    6  A    between atoms: C3_17  and  C4_19 
REMARK    7  A    between atoms: C4_19  and  O8_20 
REMARK    8  A    between atoms: C4_19  and  C5_22 
REMARK    9  A    between atoms: C8_25  and  N4_26 
ROOT
HETATM    1  N3  UNL     1     -67.256  28.854  -7.958  1.00  0.00    -0.209 N 
ATOM      2  H3  UNL     1     -67.299  29.801  -7.581  1.00  0.00     0.199 HD
HETATM    3  C2  UNL     1     -66.110  28.403  -8.680  1.00  0.00     0.315 C 
HETATM    4  O6  UNL     1     -66.078  27.248  -9.155  1.00  0.00    -0.262 OA
ENDROOT
BRANCH   3   5
HETATM    5  C3  UNL     1     -64.977  29.312  -8.842  1.00  0.00     0.251 C 
HETATM    6  O7  UNL     1     -64.258  29.235  -9.877  1.00  0.00    -0.284 OA
BRANCH   5   7
HETATM    7  C4  UNL     1     -64.691  30.311  -7.811  1.00  0.00     0.231 C 
BRANCH   7   8
HETATM    8  O8  UNL     1     -64.204  31.490  -8.468  1.00  0.00    -0.383 OA
ATOM      9  H8  UNL     1     -63.255  31.474  -8.428  1.00  0.00     0.211 HD
ENDBRANCH   7   8
BRANCH   7  10
HETATM   10  C5  UNL     1     -63.599  29.881  -6.878  1.00  0.00    -0.022 A 
HETATM   11  C6  UNL     1     -63.630  28.771  -6.088  1.00  0.00     0.012 A 
HETATM   12  C7  UNL     1     -62.593  28.520  -5.200  1.00  0.00     0.037 A 
HETATM   13  C8  UNL     1     -61.516  29.367  -5.088  1.00  0.00     0.102 A 
HETATM   14  C9  UNL     1     -61.482  30.500  -5.896  1.00  0.00     0.037 A 
HETATM   15  C10 UNL     1     -62.520  30.741  -6.777  1.00  0.00     0.012 A 
BRANCH  13  16
HETATM   16  N4  UNL     1     -60.482  29.115  -4.158  1.00  0.00    -0.116 N 
HETATM   17  O9  UNL     1     -60.518  28.153  -3.406  1.00  0.00    -0.532 OA
HETATM   18  O10 UNL     1     -59.391  29.968  -4.083  1.00  0.00    -0.532 OA
ENDBRANCH  13  16
ENDBRANCH   7  10
ENDBRANCH   5   7
ENDBRANCH   3   5
BRANCH   1  19
HETATM   19  O5  UNL     1     -68.289  27.987  -7.788  1.00  0.00    -0.131 OA
BRANCH  19  20
HETATM   20  S1  UNL     1     -68.461  27.652  -6.135  1.00  0.00     0.386 S 
HETATM   21  O3  UNL     1     -69.416  26.478  -5.949  1.00  0.00    -0.173 OA
HETATM   22  O4  UNL     1     -68.936  28.854  -5.371  1.00  0.00    -0.173 OA
BRANCH  20  23
HETATM   23  N2  UNL     1     -66.947  27.140  -5.525  1.00  0.00    -0.210 N 
HETATM   24  C1  UNL     1     -66.449  25.849  -5.873  1.00  0.00     0.354 C 
HETATM   25  O1  UNL     1     -67.151  25.130  -6.616  1.00  0.00    -0.244 OA
HETATM   26  N1  UNL     1     -65.178  25.427  -5.363  1.00  0.00    -0.218 N 
ATOM     27  H1  UNL     1     -64.628  26.037  -4.759  1.00  0.00     0.199 HD
ATOM     28  H2  UNL     1     -66.405  27.753  -4.917  1.00  0.00     0.185 HD
BRANCH  26  29
HETATM   29  O2  UNL     1     -64.732  24.210  -5.699  1.00  0.00    -0.286 OA
ATOM     30  H2  UNL     1     -65.071  23.459  -5.226  1.00  0.00     0.244 HD
ENDBRANCH  26  29
ENDBRANCH  20  23
ENDBRANCH  19  20
ENDBRANCH   1  19
TORSDOF 9
ENDMDL
