MODEL 1
REMARK VINA RESULT: -8.473671491      0.000      0.000
REMARK  10 active torsions:
REMARK  status: ('A' for Active; 'I' for Inactive)
REMARK    1  A    between atoms: C3_3  and  C4_4 
REMARK    2  A    between atoms: C4_4  and  S1_5 
REMARK    3  A    between atoms: S1_5  and  N1_6 
REMARK    4  A    between atoms: N2_10  and  C5_11 
REMARK    5  A    between atoms: C5_11  and  C6_12 
REMARK    6  A    between atoms: C6_12  and  C7_13 
REMARK    7  A    between atoms: C7_13  and  O2_14 
REMARK    8  A    between atoms: O2_14  and  S2_15 
REMARK    9  A    between atoms: N4_24  and  N5_25 
REMARK   10  A    between atoms: C10_28  and  N6_29 
ROOT
HETATM    1  C1  UNL     1     -64.199  30.653  -7.419  1.00  0.00     0.051 C 
HETATM    2  C2  UNL     1     -62.712  30.510  -7.390  1.00  0.00    -0.021 A 
HETATM    3  C3  UNL     1     -61.892  30.988  -8.392  1.00  0.00     0.033 A 
HETATM    4  N2  UNL     1     -60.638  30.659  -8.038  1.00  0.00    -0.334 N 
HETATM    5  C8  UNL     1     -60.635  29.997  -6.850  1.00  0.00     0.126 A 
HETATM    6  N3  UNL     1     -59.677  29.482  -6.096  1.00  0.00    -0.292 N 
ATOM      7  H3  UNL     1     -58.703  29.542  -6.394  1.00  0.00     0.172 HD
HETATM    8  C9  UNL     1     -59.990  28.880  -4.935  1.00  0.00     0.348 A 
HETATM    9  O6  UNL     1     -59.065  28.381  -4.209  1.00  0.00    -0.245 OA
HETATM   10  N4  UNL     1     -61.245  28.771  -4.493  1.00  0.00    -0.195 N 
HETATM   11  C10 UNL     1     -62.296  29.270  -5.207  1.00  0.00     0.140 A 
HETATM   12  C11 UNL     1     -61.950  29.888  -6.412  1.00  0.00     0.062 A 
ENDROOT
BRANCH   4  13
HETATM   13  C5  UNL     1     -59.457  30.905  -8.868  1.00  0.00     0.133 C 
BRANCH  13  14
HETATM   14  C6  UNL     1     -59.170  29.688  -9.702  1.00  0.00     0.048 C 
BRANCH  14  15
HETATM   15  C7  UNL     1     -57.733  29.335  -9.885  1.00  0.00     0.194 C 
BRANCH  15  16
HETATM   16  O2  UNL     1     -57.045  30.125  -8.933  1.00  0.00    -0.257 OA
BRANCH  16  17
HETATM   17  S2  UNL     1     -55.708  30.871  -9.598  1.00  0.00     0.251 S 
HETATM   18  O3  UNL     1     -54.570  30.715  -8.608  1.00  0.00    -0.572 OA
HETATM   19  O4  UNL     1     -55.291  30.154 -10.829  1.00  0.00    -0.572 OA
HETATM   20  O5  UNL     1     -56.020  32.478  -9.930  1.00  0.00    -0.572 OA
ENDBRANCH  16  17
ENDBRANCH  15  16
ENDBRANCH  14  15
ENDBRANCH  13  14
ENDBRANCH   4  13
BRANCH   3  21
HETATM   21  C4  UNL     1     -62.290  31.624  -9.646  1.00  0.00     0.189 C 
BRANCH  21  22
HETATM   22  S1  UNL     1     -61.233  32.914 -10.200  1.00  0.00     0.113 S 
HETATM   23  O1  UNL     1     -60.850  33.967  -8.949  1.00  0.00    -0.236 OA
BRANCH  22  24
HETATM   24  N1  UNL     1     -61.676  33.709 -11.647  1.00  0.00    -0.349 NA
ATOM     25  H12 UNL     1     -61.043  33.519 -12.423  1.00  0.00     0.166 HD
ATOM     26  H11 UNL     1     -61.891  34.703 -11.579  1.00  0.00     0.166 HD
ENDBRANCH  22  24
ENDBRANCH  21  22
ENDBRANCH   3  21
BRANCH  11  27
HETATM   27  N6  UNL     1     -63.455  29.201  -4.812  1.00  0.00    -0.383 N 
ATOM     28  H62 UNL     1     -63.959  30.011  -4.448  1.00  0.00     0.157 HD
ATOM     29  H61 UNL     1     -63.982  28.327  -4.804  1.00  0.00     0.157 HD
ENDBRANCH  11  27
BRANCH  10  30
HETATM   30  N5  UNL     1     -61.605  28.127  -3.294  1.00  0.00    -0.333 N 
ATOM     31  H52 UNL     1     -61.894  27.154  -3.405  1.00  0.00     0.177 HD
ATOM     32  H51 UNL     1     -61.571  28.570  -2.376  1.00  0.00     0.177 HD
ENDBRANCH  10  30
TORSDOF 10
ENDMDL
MODEL 2
REMARK VINA RESULT: -8.393810421      3.387      4.336
REMARK  10 active torsions:
REMARK  status: ('A' for Active; 'I' for Inactive)
REMARK    1  A    between atoms: C3_3  and  C4_4 
REMARK    2  A    between atoms: C4_4  and  S1_5 
REMARK    3  A    between atoms: S1_5  and  N1_6 
REMARK    4  A    between atoms: N2_10  and  C5_11 
REMARK    5  A    between atoms: C5_11  and  C6_12 
REMARK    6  A    between atoms: C6_12  and  C7_13 
REMARK    7  A    between atoms: C7_13  and  O2_14 
REMARK    8  A    between atoms: O2_14  and  S2_15 
REMARK    9  A    between atoms: N4_24  and  N5_25 
REMARK   10  A    between atoms: C10_28  and  N6_29 
ROOT
HETATM    1  C1  UNL     1     -65.383  27.074  -6.897  1.00  0.00     0.051 C 
HETATM    2  C2  UNL     1     -64.596  28.345  -6.893  1.00  0.00    -0.021 A 
HETATM    3  C3  UNL     1     -64.888  29.410  -7.721  1.00  0.00     0.033 A 
HETATM    4  N2  UNL     1     -63.966  30.352  -7.457  1.00  0.00    -0.334 N 
HETATM    5  C8  UNL     1     -63.109  29.924  -6.492  1.00  0.00     0.126 A 
HETATM    6  N3  UNL     1     -62.061  30.471  -5.896  1.00  0.00    -0.292 N 
ATOM      7  H3  UNL     1     -61.755  31.408  -6.157  1.00  0.00     0.172 HD
HETATM    8  C9  UNL     1     -61.401  29.788  -4.944  1.00  0.00     0.348 A 
HETATM    9  O6  UNL     1     -60.388  30.315  -4.371  1.00  0.00    -0.245 OA
HETATM   10  N4  UNL     1     -61.755  28.559  -4.560  1.00  0.00    -0.195 N 
HETATM   11  C10 UNL     1     -62.820  27.918  -5.123  1.00  0.00     0.140 A 
HETATM   12  C11 UNL     1     -63.490  28.642  -6.112  1.00  0.00     0.062 A 
ENDROOT
BRANCH   4  13
HETATM   13  C5  UNL     1     -63.857  31.621  -8.178  1.00  0.00     0.133 C 
BRANCH  13  14
HETATM   14  C6  UNL     1     -62.774  31.515  -9.215  1.00  0.00     0.048 C 
BRANCH  14  15
HETATM   15  C7  UNL     1     -61.730  32.579  -9.192  1.00  0.00     0.194 C 
BRANCH  15  16
HETATM   16  O2  UNL     1     -60.697  32.089 -10.026  1.00  0.00    -0.257 OA
BRANCH  16  17
HETATM   17  S2  UNL     1     -59.601  31.162  -9.174  1.00  0.00     0.251 S 
HETATM   18  O3  UNL     1     -58.221  31.715  -9.472  1.00  0.00    -0.572 OA
HETATM   19  O4  UNL     1     -59.817  31.339  -7.716  1.00  0.00    -0.572 OA
HETATM   20  O5  UNL     1     -59.724  29.550  -9.595  1.00  0.00    -0.572 OA
ENDBRANCH  16  17
ENDBRANCH  15  16
ENDBRANCH  14  15
ENDBRANCH  13  14
ENDBRANCH   4  13
BRANCH   3  21
HETATM   21  C4  UNL     1     -65.913  29.481  -8.760  1.00  0.00     0.189 C 
BRANCH  21  22
HETATM   22  S1  UNL     1     -67.550  29.751  -8.180  1.00  0.00     0.113 S 
HETATM   23  O1  UNL     1     -68.385  28.302  -8.015  1.00  0.00    -0.236 OA
BRANCH  22  24
HETATM   24  N1  UNL     1     -68.455  30.972  -8.961  1.00  0.00    -0.349 NA
ATOM     25  H12 UNL     1     -68.637  30.775  -9.945  1.00  0.00     0.166 HD
ATOM     26  H11 UNL     1     -68.144  31.933  -8.828  1.00  0.00     0.166 HD
ENDBRANCH  22  24
ENDBRANCH  21  22
ENDBRANCH   3  21
BRANCH  11  27
HETATM   27  N6  UNL     1     -63.177  26.797  -4.771  1.00  0.00    -0.383 N 
ATOM     28  H62 UNL     1     -62.642  26.235  -4.109  1.00  0.00     0.157 HD
ATOM     29  H61 UNL     1     -64.020  26.351  -5.133  1.00  0.00     0.157 HD
ENDBRANCH  11  27
BRANCH  10  30
HETATM   30  N5  UNL     1     -61.070  27.812  -3.583  1.00  0.00    -0.333 N 
ATOM     31  H52 UNL     1     -61.184  28.155  -2.629  1.00  0.00     0.177 HD
ATOM     32  H51 UNL     1     -60.514  26.980  -3.786  1.00  0.00     0.177 HD
ENDBRANCH  10  30
TORSDOF 10
ENDMDL
MODEL 3
REMARK VINA RESULT: -8.251853142      3.394      5.562
REMARK  10 active torsions:
REMARK  status: ('A' for Active; 'I' for Inactive)
REMARK    1  A    between atoms: C3_3  and  C4_4 
REMARK    2  A    between atoms: C4_4  and  S1_5 
REMARK    3  A    between atoms: S1_5  and  N1_6 
REMARK    4  A    between atoms: N2_10  and  C5_11 
REMARK    5  A    between atoms: C5_11  and  C6_12 
REMARK    6  A    between atoms: C6_12  and  C7_13 
REMARK    7  A    between atoms: C7_13  and  O2_14 
REMARK    8  A    between atoms: O2_14  and  S2_15 
REMARK    9  A    between atoms: N4_24  and  N5_25 
REMARK   10  A    between atoms: C10_28  and  N6_29 
ROOT
HETATM    1  C1  UNL     1     -62.917  27.321  -4.825  1.00  0.00     0.051 C 
HETATM    2  C2  UNL     1     -63.612  28.234  -5.782  1.00  0.00    -0.021 A 
HETATM    3  C3  UNL     1     -63.124  29.480  -6.119  1.00  0.00     0.033 A 
HETATM    4  N2  UNL     1     -64.016  30.013  -6.972  1.00  0.00    -0.334 N 
HETATM    5  C8  UNL     1     -65.043  29.149  -7.190  1.00  0.00     0.126 A 
HETATM    6  N3  UNL     1     -66.137  29.203  -7.934  1.00  0.00    -0.292 N 
ATOM      7  H3  UNL     1     -66.337  30.034  -8.490  1.00  0.00     0.172 HD
HETATM    8  C9  UNL     1     -66.983  28.159  -7.954  1.00  0.00     0.348 A 
HETATM    9  O6  UNL     1     -68.041  28.212  -8.669  1.00  0.00    -0.245 OA
HETATM   10  N4  UNL     1     -66.775  27.045  -7.248  1.00  0.00    -0.195 N 
HETATM   11  C10 UNL     1     -65.675  26.904  -6.452  1.00  0.00     0.140 A 
HETATM   12  C11 UNL     1     -64.809  28.001  -6.441  1.00  0.00     0.062 A 
ENDROOT
BRANCH   4  13
HETATM   13  C5  UNL     1     -63.927  31.370  -7.513  1.00  0.00     0.133 C 
BRANCH  13  14
HETATM   14  C6  UNL     1     -63.746  31.303  -9.004  1.00  0.00     0.048 C 
BRANCH  14  15
HETATM   15  C7  UNL     1     -62.353  31.092  -9.492  1.00  0.00     0.194 C 
BRANCH  15  16
HETATM   16  O2  UNL     1     -61.550  31.895  -8.648  1.00  0.00    -0.257 OA
BRANCH  16  17
HETATM   17  S2  UNL     1     -60.478  32.831  -9.521  1.00  0.00     0.251 S 
HETATM   18  O3  UNL     1     -61.038  32.963 -10.924  1.00  0.00    -0.572 OA
HETATM   19  O4  UNL     1     -60.432  34.203  -8.958  1.00  0.00    -0.572 OA
HETATM   20  O5  UNL     1     -58.953  32.147  -9.528  1.00  0.00    -0.572 OA
ENDBRANCH  16  17
ENDBRANCH  15  16
ENDBRANCH  14  15
ENDBRANCH  13  14
ENDBRANCH   4  13
BRANCH   3  21
HETATM   21  C4  UNL     1     -61.942  30.152  -5.583  1.00  0.00     0.189 C 
BRANCH  21  22
HETATM   22  S1  UNL     1     -60.406  29.397  -5.981  1.00  0.00     0.113 S 
HETATM   23  O1  UNL     1     -59.330  29.490  -4.695  1.00  0.00    -0.236 OA
BRANCH  22  24
HETATM   24  N1  UNL     1     -59.707  29.812  -7.485  1.00  0.00    -0.349 NA
ATOM     25  H12 UNL     1     -59.284  29.019  -7.967  1.00  0.00     0.166 HD
ATOM     26  H11 UNL     1     -59.092  30.624  -7.498  1.00  0.00     0.166 HD
ENDBRANCH  22  24
ENDBRANCH  21  22
ENDBRANCH   3  21
BRANCH  11  27
HETATM   27  N6  UNL     1     -65.451  25.882  -5.811  1.00  0.00    -0.383 N 
ATOM     28  H62 UNL     1     -65.581  24.949  -6.204  1.00  0.00     0.157 HD
ATOM     29  H61 UNL     1     -65.139  25.901  -4.840  1.00  0.00     0.157 HD
ENDBRANCH  11  27
BRANCH  10  30
HETATM   30  N5  UNL     1     -67.654  25.945  -7.232  1.00  0.00    -0.333 N 
ATOM     31  H52 UNL     1     -68.643  26.192  -7.274  1.00  0.00     0.177 HD
ATOM     32  H51 UNL     1     -67.350  24.972  -7.201  1.00  0.00     0.177 HD
ENDBRANCH  10  30
TORSDOF 10
ENDMDL
MODEL 4
REMARK VINA RESULT: -8.231457067      1.665      1.835
REMARK  10 active torsions:
REMARK  status: ('A' for Active; 'I' for Inactive)
REMARK    1  A    between atoms: C3_3  and  C4_4 
REMARK    2  A    between atoms: C4_4  and  S1_5 
REMARK    3  A    between atoms: S1_5  and  N1_6 
REMARK    4  A    between atoms: N2_10  and  C5_11 
REMARK    5  A    between atoms: C5_11  and  C6_12 
REMARK    6  A    between atoms: C6_12  and  C7_13 
REMARK    7  A    between atoms: C7_13  and  O2_14 
REMARK    8  A    between atoms: O2_14  and  S2_15 
REMARK    9  A    between atoms: N4_24  and  N5_25 
REMARK   10  A    between atoms: C10_28  and  N6_29 
ROOT
HETATM    1  C1  UNL     1     -64.632  30.464  -7.232  1.00  0.00     0.051 C 
HETATM    2  C2  UNL     1     -63.140  30.539  -7.260  1.00  0.00    -0.021 A 
HETATM    3  C3  UNL     1     -62.442  31.223  -8.235  1.00  0.00     0.033 A 
HETATM    4  N2  UNL     1     -61.139  31.050  -7.952  1.00  0.00    -0.334 N 
HETATM    5  C8  UNL     1     -60.990  30.290  -6.835  1.00  0.00     0.126 A 
HETATM    6  N3  UNL     1     -59.936  29.855  -6.162  1.00  0.00    -0.292 N 
ATOM      7  H3  UNL     1     -58.995  30.085  -6.482  1.00  0.00     0.172 HD
HETATM    8  C9  UNL     1     -60.109  29.110  -5.057  1.00  0.00     0.348 A 
HETATM    9  O6  UNL     1     -59.091  28.688  -4.410  1.00  0.00    -0.245 OA
HETATM   10  N4  UNL     1     -61.315  28.778  -4.590  1.00  0.00    -0.195 N 
HETATM   11  C10 UNL     1     -62.456  29.180  -5.221  1.00  0.00     0.140 A 
HETATM   12  C11 UNL     1     -62.255  29.950  -6.370  1.00  0.00     0.062 A 
ENDROOT
BRANCH   4  13
HETATM   13  C5  UNL     1     -60.044  31.542  -8.789  1.00  0.00     0.133 C 
BRANCH  13  14
HETATM   14  C6  UNL     1     -59.596  30.449  -9.720  1.00  0.00     0.048 C 
BRANCH  14  15
HETATM   15  C7  UNL     1     -58.251  29.864  -9.455  1.00  0.00     0.194 C 
BRANCH  15  16
HETATM   16  O2  UNL     1     -57.360  30.961  -9.531  1.00  0.00    -0.257 OA
BRANCH  16  17
HETATM   17  S2  UNL     1     -55.779  30.462  -9.727  1.00  0.00     0.251 S 
HETATM   18  O3  UNL     1     -54.928  31.711  -9.855  1.00  0.00    -0.572 OA
HETATM   19  O4  UNL     1     -55.316  29.765  -8.502  1.00  0.00    -0.572 OA
HETATM   20  O5  UNL     1     -55.624  29.471 -11.063  1.00  0.00    -0.572 OA
ENDBRANCH  16  17
ENDBRANCH  15  16
ENDBRANCH  14  15
ENDBRANCH  13  14
ENDBRANCH   4  13
BRANCH   3  21
HETATM   21  C4  UNL     1     -62.982  31.905  -9.410  1.00  0.00     0.189 C 
BRANCH  21  22
HETATM   22  S1  UNL     1     -64.273  31.053 -10.243  1.00  0.00     0.113 S 
HETATM   23  O1  UNL     1     -63.857  29.452 -10.536  1.00  0.00    -0.236 OA
BRANCH  22  24
HETATM   24  N1  UNL     1     -64.968  31.833 -11.595  1.00  0.00    -0.349 NA
ATOM     25  H12 UNL     1     -64.348  31.870 -12.404  1.00  0.00     0.166 HD
ATOM     26  H11 UNL     1     -65.413  32.736 -11.429  1.00  0.00     0.166 HD
ENDBRANCH  22  24
ENDBRANCH  21  22
ENDBRANCH   3  21
BRANCH  11  27
HETATM   27  N6  UNL     1     -63.575  28.906  -4.800  1.00  0.00    -0.383 N 
ATOM     28  H62 UNL     1     -63.737  28.584  -3.845  1.00  0.00     0.157 HD
ATOM     29  H61 UNL     1     -64.411  28.964  -5.383  1.00  0.00     0.157 HD
ENDBRANCH  11  27
BRANCH  10  30
HETATM   30  N5  UNL     1     -61.526  27.981  -3.449  1.00  0.00    -0.333 N 
ATOM     31  H52 UNL     1     -61.131  27.042  -3.507  1.00  0.00     0.177 HD
ATOM     32  H51 UNL     1     -62.016  28.300  -2.613  1.00  0.00     0.177 HD
ENDBRANCH  10  30
TORSDOF 10
ENDMDL
MODEL 5
REMARK VINA RESULT: -8.207525696      2.847      3.807
REMARK  10 active torsions:
REMARK  status: ('A' for Active; 'I' for Inactive)
REMARK    1  A    between atoms: C3_3  and  C4_4 
REMARK    2  A    between atoms: C4_4  and  S1_5 
REMARK    3  A    between atoms: S1_5  and  N1_6 
REMARK    4  A    between atoms: N2_10  and  C5_11 
REMARK    5  A    between atoms: C5_11  and  C6_12 
REMARK    6  A    between atoms: C6_12  and  C7_13 
REMARK    7  A    between atoms: C7_13  and  O2_14 
REMARK    8  A    between atoms: O2_14  and  S2_15 
REMARK    9  A    between atoms: N4_24  and  N5_25 
REMARK   10  A    between atoms: C10_28  and  N6_29 
ROOT
HETATM    1  C1  UNL     1     -65.441  27.287  -6.816  1.00  0.00     0.051 C 
HETATM    2  C2  UNL     1     -64.590  28.516  -6.846  1.00  0.00    -0.021 A 
HETATM    3  C3  UNL     1     -64.861  29.595  -7.662  1.00  0.00     0.033 A 
HETATM    4  N2  UNL     1     -63.881  30.488  -7.438  1.00  0.00    -0.334 N 
HETATM    5  C8  UNL     1     -63.007  30.014  -6.510  1.00  0.00     0.126 A 
HETATM    6  N3  UNL     1     -61.909  30.506  -5.959  1.00  0.00    -0.292 N 
ATOM      7  H3  UNL     1     -61.566  31.426  -6.233  1.00  0.00     0.172 HD
HETATM    8  C9  UNL     1     -61.246  29.789  -5.035  1.00  0.00     0.348 A 
HETATM    9  O6  UNL     1     -60.183  30.262  -4.505  1.00  0.00    -0.245 OA
HETATM   10  N4  UNL     1     -61.646  28.579  -4.635  1.00  0.00    -0.195 N 
HETATM   11  C10 UNL     1     -62.765  27.994  -5.152  1.00  0.00     0.140 A 
HETATM   12  C11 UNL     1     -63.438  28.754  -6.113  1.00  0.00     0.062 A 
ENDROOT
BRANCH   4  13
HETATM   13  C5  UNL     1     -63.737  31.750  -8.164  1.00  0.00     0.133 C 
BRANCH  13  14
HETATM   14  C6  UNL     1     -62.619  31.628  -9.162  1.00  0.00     0.048 C 
BRANCH  14  15
HETATM   15  C7  UNL     1     -61.596  32.713  -9.146  1.00  0.00     0.194 C 
BRANCH  15  16
HETATM   16  O2  UNL     1     -60.563  32.246  -9.993  1.00  0.00    -0.257 OA
BRANCH  16  17
HETATM   17  S2  UNL     1     -59.510  31.235  -9.184  1.00  0.00     0.251 S 
HETATM   18  O3  UNL     1     -58.104  31.702  -9.507  1.00  0.00    -0.572 OA
HETATM   19  O4  UNL     1     -59.678  31.398  -7.719  1.00  0.00    -0.572 OA
HETATM   20  O5  UNL     1     -59.747  29.642  -9.629  1.00  0.00    -0.572 OA
ENDBRANCH  16  17
ENDBRANCH  15  16
ENDBRANCH  14  15
ENDBRANCH  13  14
ENDBRANCH   4  13
BRANCH   3  21
HETATM   21  C4  UNL     1     -65.924  29.720  -8.657  1.00  0.00     0.189 C 
BRANCH  21  22
HETATM   22  S1  UNL     1     -65.512  29.148 -10.267  1.00  0.00     0.113 S 
HETATM   23  O1  UNL     1     -64.575  27.756 -10.198  1.00  0.00    -0.236 OA
BRANCH  22  24
HETATM   24  N1  UNL     1     -64.922  30.310 -11.373  1.00  0.00    -0.349 NA
ATOM     25  H12 UNL     1     -64.880  29.971 -12.334  1.00  0.00     0.166 HD
ATOM     26  H11 UNL     1     -64.065  30.799 -11.116  1.00  0.00     0.166 HD
ENDBRANCH  22  24
ENDBRANCH  21  22
ENDBRANCH   3  21
BRANCH  11  27
HETATM   27  N6  UNL     1     -63.165  26.894  -4.785  1.00  0.00    -0.383 N 
ATOM     28  H62 UNL     1     -62.530  26.122  -4.577  1.00  0.00     0.157 HD
ATOM     29  H61 UNL     1     -64.156  26.676  -4.683  1.00  0.00     0.157 HD
ENDBRANCH  11  27
BRANCH  10  30
HETATM   30  N5  UNL     1     -60.960  27.796  -3.687  1.00  0.00    -0.333 N 
ATOM     31  H52 UNL     1     -59.943  27.861  -3.737  1.00  0.00     0.177 HD
ATOM     32  H51 UNL     1     -61.421  27.217  -2.985  1.00  0.00     0.177 HD
ENDBRANCH  10  30
TORSDOF 10
ENDMDL
