MODEL 1
REMARK VINA RESULT: -8.110531628      0.000      0.000
REMARK  11 active torsions:
REMARK  status: ('A' for Active; 'I' for Inactive)
REMARK    1  A    between atoms: C2_2  and  O1_3 
REMARK    2  A    between atoms: O1_3  and  C3_4 
REMARK    3  A    between atoms: C3_4  and  C4_5 
REMARK    4  A    between atoms: C3_4  and  C6_8 
REMARK    5  A    between atoms: C6_8  and  N1_9 
REMARK    6  A    between atoms: C6_8  and  C9_15 
REMARK       I    between atoms: N1_9  and  C7_11 
REMARK    7  A    between atoms: C7_11  and  O4_13 
REMARK    8  A    between atoms: C9_15  and  O5_16 
REMARK    9  A    between atoms: C9_15  and  N2_18 
REMARK       I    between atoms: N2_18  and  C10_20 
REMARK   10  A    between atoms: C10_20  and  C11_22 
REMARK   11  A    between atoms: C13_27  and  O8_28 
ROOT
HETATM    1  C9  UNL     1     -66.519  27.722  -6.421  1.00  0.00     0.144 C 
ENDROOT
BRANCH   1   2
HETATM    2  C6  UNL     1     -67.498  28.044  -7.447  1.00  0.00     0.197 C 
BRANCH   2   3
HETATM    3  C3  UNL     1     -66.930  27.957  -8.884  1.00  0.00     0.221 C 
BRANCH   3   4
HETATM    4  O1  UNL     1     -66.943  26.639  -9.225  1.00  0.00    -0.376 OA
BRANCH   4   5
HETATM    5  C2  UNL     1     -66.149  26.183 -10.215  1.00  0.00     0.164 C 
HETATM    6  C1  UNL     1     -66.783  25.679 -11.460  1.00  0.00     0.033 C 
ENDBRANCH   4   5
ENDBRANCH   3   4
BRANCH   3   7
HETATM    7  C4  UNL     1     -67.735  28.800  -9.823  1.00  0.00     0.154 C 
HETATM    8  C5  UNL     1     -67.136  29.854 -10.658  1.00  0.00     0.093 C 
HETATM    9  O2  UNL     1     -68.933  28.614  -9.903  1.00  0.00    -0.295 OA
ENDBRANCH   3   7
ENDBRANCH   2   3
BRANCH   2  10
HETATM   10  N1  UNL     1     -67.956  29.441  -7.294  1.00  0.00    -0.322 N 
HETATM   11  C7  UNL     1     -68.720  29.901  -6.221  1.00  0.00     0.360 C 
HETATM   12  O3  UNL     1     -69.094  29.138  -5.268  1.00  0.00    -0.239 OA
ATOM     13  H1  UNL     1     -67.697  30.112  -8.018  1.00  0.00     0.165 HD
BRANCH  11  14
HETATM   14  O4  UNL     1     -69.123  31.224  -6.125  1.00  0.00    -0.309 OA
HETATM   15  C8  UNL     1     -69.502  31.838  -4.925  1.00  0.00     0.215 C 
ENDBRANCH  11  14
ENDBRANCH   2  10
ENDBRANCH   1   2
BRANCH   1  16
HETATM   16  O5  UNL     1     -66.886  26.761  -5.616  1.00  0.00    -0.348 OA
ATOM     17  H5  UNL     1     -66.163  26.290  -5.220  1.00  0.00     0.219 HD
ENDBRANCH   1  16
BRANCH   1  18
HETATM   18  N2  UNL     1     -65.257  28.273  -6.161  1.00  0.00    -0.303 N 
HETATM   19  C10 UNL     1     -64.165  27.575  -5.644  1.00  0.00     0.291 C 
HETATM   20  O6  UNL     1     -64.207  26.372  -5.363  1.00  0.00    -0.264 OA
ATOM     21  H2  UNL     1     -65.126  29.264  -6.365  1.00  0.00     0.171 HD
BRANCH  19  22
HETATM   22  C11 UNL     1     -62.867  28.248  -5.398  1.00  0.00     0.179 A 
HETATM   23  N3  UNL     1     -62.175  27.979  -4.264  1.00  0.00    -0.302 N 
HETATM   24  C12 UNL     1     -60.986  28.574  -4.005  1.00  0.00     0.283 A 
ATOM     25  H3  UNL     1     -62.558  27.314  -3.593  1.00  0.00     0.171 HD
HETATM   26  O7  UNL     1     -60.336  28.341  -2.970  1.00  0.00    -0.265 OA
HETATM   27  C13 UNL     1     -60.453  29.482  -4.913  1.00  0.00     0.176 A 
HETATM   28  C14 UNL     1     -61.165  29.739  -6.049  1.00  0.00     0.157 A 
HETATM   29  N4  UNL     1     -60.656  30.660  -7.003  1.00  0.00    -0.079 NA
HETATM   30  N5  UNL     1     -62.340  29.119  -6.254  1.00  0.00    -0.324 N 
ATOM     31  H5  UNL     1     -62.855  29.326  -7.110  1.00  0.00     0.169 HD
BRANCH  27  32
HETATM   32  O8  UNL     1     -59.236  30.095  -4.652  1.00  0.00    -0.353 OA
ATOM     33  H8  UNL     1     -59.200  31.026  -4.471  1.00  0.00     0.218 HD
ENDBRANCH  27  32
ENDBRANCH  19  22
ENDBRANCH   1  18
TORSDOF 11
ENDMDL
MODEL 2
REMARK VINA RESULT: -8.057155642      4.550      6.865
REMARK  11 active torsions:
REMARK  status: ('A' for Active; 'I' for Inactive)
REMARK    1  A    between atoms: C2_2  and  O1_3 
REMARK    2  A    between atoms: O1_3  and  C3_4 
REMARK    3  A    between atoms: C3_4  and  C4_5 
REMARK    4  A    between atoms: C3_4  and  C6_8 
REMARK    5  A    between atoms: C6_8  and  N1_9 
REMARK    6  A    between atoms: C6_8  and  C9_15 
REMARK       I    between atoms: N1_9  and  C7_11 
REMARK    7  A    between atoms: C7_11  and  O4_13 
REMARK    8  A    between atoms: C9_15  and  O5_16 
REMARK    9  A    between atoms: C9_15  and  N2_18 
REMARK       I    between atoms: N2_18  and  C10_20 
REMARK   10  A    between atoms: C10_20  and  C11_22 
REMARK   11  A    between atoms: C13_27  and  O8_28 
ROOT
HETATM    1  C9  UNL     1     -62.218  31.943  -9.515  1.00  0.00     0.144 C 
ENDROOT
BRANCH   1   2
HETATM    2  C6  UNL     1     -63.467  31.429  -8.975  1.00  0.00     0.197 C 
BRANCH   2   3
HETATM    3  C3  UNL     1     -63.266  30.445  -7.799  1.00  0.00     0.221 C 
BRANCH   3   4
HETATM    4  O1  UNL     1     -62.700  31.161  -6.788  1.00  0.00    -0.376 OA
BRANCH   4   5
HETATM    5  C2  UNL     1     -61.898  30.554  -5.890  1.00  0.00     0.164 C 
HETATM    6  C1  UNL     1     -60.797  29.691  -6.390  1.00  0.00     0.033 C 
ENDBRANCH   4   5
ENDBRANCH   3   4
BRANCH   3   7
HETATM    7  C4  UNL     1     -64.569  29.823  -7.402  1.00  0.00     0.154 C 
HETATM    8  C5  UNL     1     -64.665  28.466  -6.841  1.00  0.00     0.093 C 
HETATM    9  O2  UNL     1     -65.594  30.460  -7.546  1.00  0.00    -0.295 OA
ENDBRANCH   3   7
ENDBRANCH   2   3
BRANCH   2  10
HETATM   10  N1  UNL     1     -64.189  30.658 -10.009  1.00  0.00    -0.322 N 
HETATM   11  C7  UNL     1     -64.931  31.236 -11.040  1.00  0.00     0.360 C 
HETATM   12  O3  UNL     1     -65.049  32.500 -11.176  1.00  0.00    -0.239 OA
ATOM     13  H1  UNL     1     -64.142  29.640  -9.966  1.00  0.00     0.165 HD
BRANCH  11  14
HETATM   14  O4  UNL     1     -65.590  30.465 -11.986  1.00  0.00    -0.309 OA
HETATM   15  C8  UNL     1     -65.145  29.207 -12.412  1.00  0.00     0.215 C 
ENDBRANCH  11  14
ENDBRANCH   2  10
ENDBRANCH   1   2
BRANCH   1  16
HETATM   16  O5  UNL     1     -62.251  33.211  -9.824  1.00  0.00    -0.348 OA
ATOM     17  H5  UNL     1     -62.269  33.793  -9.074  1.00  0.00     0.219 HD
ENDBRANCH   1  16
BRANCH   1  18
HETATM   18  N2  UNL     1     -60.995  31.300  -9.753  1.00  0.00    -0.303 N 
HETATM   19  C10 UNL     1     -59.765  31.683  -9.216  1.00  0.00     0.291 C 
HETATM   20  O6  UNL     1     -59.635  32.649  -8.455  1.00  0.00    -0.264 OA
ATOM     21  H2  UNL     1     -61.005  30.487 -10.369  1.00  0.00     0.171 HD
BRANCH  19  22
HETATM   22  C11 UNL     1     -58.522  30.940  -9.532  1.00  0.00     0.179 A 
HETATM   23  N3  UNL     1     -57.341  31.601  -9.589  1.00  0.00    -0.302 N 
HETATM   24  C12 UNL     1     -56.184  30.957  -9.875  1.00  0.00     0.283 A 
ATOM     25  H3  UNL     1     -57.323  32.606  -9.414  1.00  0.00     0.171 HD
HETATM   26  O7  UNL     1     -55.090  31.546  -9.933  1.00  0.00    -0.265 OA
HETATM   27  C13 UNL     1     -56.195  29.587 -10.115  1.00  0.00     0.176 A 
HETATM   28  C14 UNL     1     -57.395  28.939 -10.051  1.00  0.00     0.157 A 
HETATM   29  N4  UNL     1     -57.451  27.540 -10.291  1.00  0.00    -0.079 NA
HETATM   30  N5  UNL     1     -58.512  29.631  -9.764  1.00  0.00    -0.324 N 
ATOM     31  H5  UNL     1     -59.397  29.126  -9.722  1.00  0.00     0.169 HD
BRANCH  27  32
HETATM   32  O8  UNL     1     -55.013  28.922 -10.408  1.00  0.00    -0.353 OA
ATOM     33  H8  UNL     1     -54.699  28.234  -9.834  1.00  0.00     0.218 HD
ENDBRANCH  27  32
ENDBRANCH  19  22
ENDBRANCH   1  18
TORSDOF 11
ENDMDL
MODEL 3
REMARK VINA RESULT: -8.036588198      3.070      5.128
REMARK  11 active torsions:
REMARK  status: ('A' for Active; 'I' for Inactive)
REMARK    1  A    between atoms: C2_2  and  O1_3 
REMARK    2  A    between atoms: O1_3  and  C3_4 
REMARK    3  A    between atoms: C3_4  and  C4_5 
REMARK    4  A    between atoms: C3_4  and  C6_8 
REMARK    5  A    between atoms: C6_8  and  N1_9 
REMARK    6  A    between atoms: C6_8  and  C9_15 
REMARK       I    between atoms: N1_9  and  C7_11 
REMARK    7  A    between atoms: C7_11  and  O4_13 
REMARK    8  A    between atoms: C9_15  and  O5_16 
REMARK    9  A    between atoms: C9_15  and  N2_18 
REMARK       I    between atoms: N2_18  and  C10_20 
REMARK   10  A    between atoms: C10_20  and  C11_22 
REMARK   11  A    between atoms: C13_27  and  O8_28 
ROOT
HETATM    1  C9  UNL     1     -65.831  29.870  -7.718  1.00  0.00     0.144 C 
ENDROOT
BRANCH   1   2
HETATM    2  C6  UNL     1     -66.519  28.629  -8.038  1.00  0.00     0.197 C 
BRANCH   2   3
HETATM    3  C3  UNL     1     -65.909  27.393  -7.335  1.00  0.00     0.221 C 
BRANCH   3   4
HETATM    4  O1  UNL     1     -65.343  27.844  -6.181  1.00  0.00    -0.376 OA
BRANCH   4   5
HETATM    5  C2  UNL     1     -64.167  27.341  -5.757  1.00  0.00     0.164 C 
HETATM    6  C1  UNL     1     -63.086  28.286  -5.376  1.00  0.00     0.033 C 
ENDBRANCH   4   5
ENDBRANCH   3   4
BRANCH   3   7
HETATM    7  C4  UNL     1     -66.957  26.353  -7.091  1.00  0.00     0.154 C 
HETATM    8  C5  UNL     1     -67.475  26.044  -5.748  1.00  0.00     0.093 C 
HETATM    9  O2  UNL     1     -67.404  25.733  -8.036  1.00  0.00    -0.295 OA
ENDBRANCH   3   7
ENDBRANCH   2   3
BRANCH   2  10
HETATM   10  N1  UNL     1     -66.412  28.346  -9.485  1.00  0.00    -0.322 N 
HETATM   11  C7  UNL     1     -67.497  28.340 -10.363  1.00  0.00     0.360 C 
HETATM   12  O3  UNL     1     -68.690  28.583  -9.981  1.00  0.00    -0.239 OA
ATOM     13  H1  UNL     1     -65.488  28.141  -9.865  1.00  0.00     0.165 HD
BRANCH  11  14
HETATM   14  O4  UNL     1     -67.341  28.068 -11.714  1.00  0.00    -0.309 OA
HETATM   15  C8  UNL     1     -67.562  26.808 -12.285  1.00  0.00     0.215 C 
ENDBRANCH  11  14
ENDBRANCH   2  10
ENDBRANCH   1   2
BRANCH   1  16
HETATM   16  O5  UNL     1     -66.577  30.753  -7.112  1.00  0.00    -0.348 OA
ATOM     17  H5  UNL     1     -67.366  30.395  -6.725  1.00  0.00     0.219 HD
ENDBRANCH   1  16
BRANCH   1  18
HETATM   18  N2  UNL     1     -64.507  30.266  -7.955  1.00  0.00    -0.303 N 
HETATM   19  C10 UNL     1     -64.036  30.836  -9.138  1.00  0.00     0.291 C 
HETATM   20  O6  UNL     1     -64.763  31.056 -10.114  1.00  0.00    -0.264 OA
ATOM     21  H2  UNL     1     -63.834  30.125  -7.201  1.00  0.00     0.171 HD
BRANCH  19  22
HETATM   22  C11 UNL     1     -62.612  31.220  -9.295  1.00  0.00     0.179 A 
HETATM   23  N3  UNL     1     -61.681  30.262  -9.520  1.00  0.00    -0.302 N 
HETATM   24  C12 UNL     1     -60.371  30.573  -9.669  1.00  0.00     0.283 A 
ATOM     25  H3  UNL     1     -61.972  29.286  -9.578  1.00  0.00     0.171 HD
HETATM   26  O7  UNL     1     -59.500  29.709  -9.875  1.00  0.00    -0.265 OA
HETATM   27  C13 UNL     1     -59.961  31.900  -9.592  1.00  0.00     0.176 A 
HETATM   28  C14 UNL     1     -60.915  32.849  -9.366  1.00  0.00     0.157 A 
HETATM   29  N4  UNL     1     -60.539  34.216  -9.280  1.00  0.00    -0.079 NA
HETATM   30  N5  UNL     1     -62.201  32.482  -9.226  1.00  0.00    -0.324 N 
ATOM     31  H5  UNL     1     -62.897  33.208  -9.057  1.00  0.00     0.169 HD
BRANCH  27  32
HETATM   32  O8  UNL     1     -58.620  32.224  -9.743  1.00  0.00    -0.353 OA
ATOM     33  H8  UNL     1     -58.084  32.402  -8.980  1.00  0.00     0.218 HD
ENDBRANCH  27  32
ENDBRANCH  19  22
ENDBRANCH   1  18
TORSDOF 11
ENDMDL
MODEL 4
REMARK VINA RESULT: -8.034278884      3.065      5.249
REMARK  11 active torsions:
REMARK  status: ('A' for Active; 'I' for Inactive)
REMARK    1  A    between atoms: C2_2  and  O1_3 
REMARK    2  A    between atoms: O1_3  and  C3_4 
REMARK    3  A    between atoms: C3_4  and  C4_5 
REMARK    4  A    between atoms: C3_4  and  C6_8 
REMARK    5  A    between atoms: C6_8  and  N1_9 
REMARK    6  A    between atoms: C6_8  and  C9_15 
REMARK       I    between atoms: N1_9  and  C7_11 
REMARK    7  A    between atoms: C7_11  and  O4_13 
REMARK    8  A    between atoms: C9_15  and  O5_16 
REMARK    9  A    between atoms: C9_15  and  N2_18 
REMARK       I    between atoms: N2_18  and  C10_20 
REMARK   10  A    between atoms: C10_20  and  C11_22 
REMARK   11  A    between atoms: C13_27  and  O8_28 
ROOT
HETATM    1  C9  UNL     1     -65.553  29.437  -7.698  1.00  0.00     0.144 C 
ENDROOT
BRANCH   1   2
HETATM    2  C6  UNL     1     -66.119  28.104  -7.558  1.00  0.00     0.197 C 
BRANCH   2   3
HETATM    3  C3  UNL     1     -65.239  27.153  -6.713  1.00  0.00     0.221 C 
BRANCH   3   4
HETATM    4  O1  UNL     1     -64.565  27.935  -5.825  1.00  0.00    -0.376 OA
BRANCH   4   5
HETATM    5  C2  UNL     1     -63.340  27.575  -5.392  1.00  0.00     0.164 C 
HETATM    6  C1  UNL     1     -62.274  28.606  -5.339  1.00  0.00     0.033 C 
ENDBRANCH   4   5
ENDBRANCH   3   4
BRANCH   3   7
HETATM    7  C4  UNL     1     -66.081  26.114  -6.038  1.00  0.00     0.154 C 
HETATM    8  C5  UNL     1     -67.479  26.354  -5.647  1.00  0.00     0.093 C 
HETATM    9  O2  UNL     1     -65.596  25.026  -5.800  1.00  0.00    -0.295 OA
ENDBRANCH   3   7
ENDBRANCH   2   3
BRANCH   2  10
HETATM   10  N1  UNL     1     -66.231  27.457  -8.882  1.00  0.00    -0.322 N 
HETATM   11  C7  UNL     1     -67.310  27.632  -9.750  1.00  0.00     0.360 C 
HETATM   12  O3  UNL     1     -68.305  28.379  -9.465  1.00  0.00    -0.239 OA
ATOM     13  H1  UNL     1     -65.472  26.843  -9.181  1.00  0.00     0.165 HD
BRANCH  11  14
HETATM   14  O4  UNL     1     -67.364  27.001 -10.984  1.00  0.00    -0.309 OA
HETATM   15  C8  UNL     1     -67.959  27.563 -12.120  1.00  0.00     0.215 C 
ENDBRANCH  11  14
ENDBRANCH   2  10
ENDBRANCH   1   2
BRANCH   1  16
HETATM   16  O5  UNL     1     -66.337  30.396  -7.284  1.00  0.00    -0.348 OA
ATOM     17  H5  UNL     1     -66.106  30.745  -6.431  1.00  0.00     0.219 HD
ENDBRANCH   1  16
BRANCH   1  18
HETATM   18  N2  UNL     1     -64.314  29.853  -8.202  1.00  0.00    -0.303 N 
HETATM   19  C10 UNL     1     -63.598  30.967  -7.763  1.00  0.00     0.291 C 
HETATM   20  O6  UNL     1     -64.000  31.711  -6.860  1.00  0.00    -0.264 OA
ATOM     21  H2  UNL     1     -63.901  29.296  -8.951  1.00  0.00     0.171 HD
BRANCH  19  22
HETATM   22  C11 UNL     1     -62.292  31.330  -8.363  1.00  0.00     0.179 A 
HETATM   23  N3  UNL     1     -61.979  32.635  -8.552  1.00  0.00    -0.302 N 
HETATM   24  C12 UNL     1     -60.796  33.006  -9.097  1.00  0.00     0.283 A 
ATOM     25  H3  UNL     1     -62.650  33.353  -8.277  1.00  0.00     0.171 HD
HETATM   26  O7  UNL     1     -60.491  34.198  -9.279  1.00  0.00    -0.265 OA
HETATM   27  C13 UNL     1     -59.873  32.036  -9.475  1.00  0.00     0.176 A 
HETATM   28  C14 UNL     1     -60.207  30.728  -9.275  1.00  0.00     0.157 A 
HETATM   29  N4  UNL     1     -59.294  29.706  -9.648  1.00  0.00    -0.079 NA
HETATM   30  N5  UNL     1     -61.397  30.419  -8.730  1.00  0.00    -0.324 N 
ATOM     31  H5  UNL     1     -61.625  29.434  -8.591  1.00  0.00     0.169 HD
BRANCH  27  32
HETATM   32  O8  UNL     1     -58.660  32.411 -10.034  1.00  0.00    -0.353 OA
ATOM     33  H8  UNL     1     -57.845  32.103  -9.654  1.00  0.00     0.218 HD
ENDBRANCH  27  32
ENDBRANCH  19  22
ENDBRANCH   1  18
TORSDOF 11
ENDMDL
MODEL 5
REMARK VINA RESULT: -8.028422872      4.512      6.734
REMARK  11 active torsions:
REMARK  status: ('A' for Active; 'I' for Inactive)
REMARK    1  A    between atoms: C2_2  and  O1_3 
REMARK    2  A    between atoms: O1_3  and  C3_4 
REMARK    3  A    between atoms: C3_4  and  C4_5 
REMARK    4  A    between atoms: C3_4  and  C6_8 
REMARK    5  A    between atoms: C6_8  and  N1_9 
REMARK    6  A    between atoms: C6_8  and  C9_15 
REMARK       I    between atoms: N1_9  and  C7_11 
REMARK    7  A    between atoms: C7_11  and  O4_13 
REMARK    8  A    between atoms: C9_15  and  O5_16 
REMARK    9  A    between atoms: C9_15  and  N2_18 
REMARK       I    between atoms: N2_18  and  C10_20 
REMARK   10  A    between atoms: C10_20  and  C11_22 
REMARK   11  A    between atoms: C13_27  and  O8_28 
ROOT
HETATM    1  C9  UNL     1     -62.386  31.812  -9.610  1.00  0.00     0.144 C 
ENDROOT
BRANCH   1   2
HETATM    2  C6  UNL     1     -63.604  31.298  -9.006  1.00  0.00     0.197 C 
BRANCH   2   3
HETATM    3  C3  UNL     1     -63.342  30.372  -7.795  1.00  0.00     0.221 C 
BRANCH   3   4
HETATM    4  O1  UNL     1     -62.782  31.149  -6.827  1.00  0.00    -0.376 OA
BRANCH   4   5
HETATM    5  C2  UNL     1     -61.973  30.603  -5.897  1.00  0.00     0.164 C 
HETATM    6  C1  UNL     1     -60.805  29.806  -6.352  1.00  0.00     0.033 C 
ENDBRANCH   4   5
ENDBRANCH   3   4
BRANCH   3   7
HETATM    7  C4  UNL     1     -64.612  29.720  -7.343  1.00  0.00     0.154 C 
HETATM    8  C5  UNL     1     -64.645  28.383  -6.727  1.00  0.00     0.093 C 
HETATM    9  O2  UNL     1     -65.662  30.312  -7.488  1.00  0.00    -0.295 OA
ENDBRANCH   3   7
ENDBRANCH   2   3
BRANCH   2  10
HETATM   10  N1  UNL     1     -64.344  30.466  -9.978  1.00  0.00    -0.322 N 
HETATM   11  C7  UNL     1     -65.141  30.982 -11.001  1.00  0.00     0.360 C 
HETATM   12  O3  UNL     1     -65.300  32.235 -11.182  1.00  0.00    -0.239 OA
ATOM     13  H1  UNL     1     -64.267  29.452  -9.897  1.00  0.00     0.165 HD
BRANCH  11  14
HETATM   14  O4  UNL     1     -65.814  30.155 -11.889  1.00  0.00    -0.309 OA
HETATM   15  C8  UNL     1     -65.189  29.164 -12.656  1.00  0.00     0.215 C 
ENDBRANCH  11  14
ENDBRANCH   2  10
ENDBRANCH   1   2
BRANCH   1  16
HETATM   16  O5  UNL     1     -62.486  33.036 -10.056  1.00  0.00    -0.348 OA
ATOM     17  H5  UNL     1     -62.604  33.098 -10.996  1.00  0.00     0.219 HD
ENDBRANCH   1  16
BRANCH   1  18
HETATM   18  N2  UNL     1     -61.133  31.211  -9.789  1.00  0.00    -0.303 N 
HETATM   19  C10 UNL     1     -59.922  31.713  -9.309  1.00  0.00     0.291 C 
HETATM   20  O6  UNL     1     -59.840  32.762  -8.660  1.00  0.00    -0.264 OA
ATOM     21  H2  UNL     1     -61.103  30.336 -10.313  1.00  0.00     0.171 HD
BRANCH  19  22
HETATM   22  C11 UNL     1     -58.643  31.005  -9.554  1.00  0.00     0.179 A 
HETATM   23  N3  UNL     1     -58.644  29.662  -9.737  1.00  0.00    -0.302 N 
HETATM   24  C12 UNL     1     -57.495  28.980  -9.963  1.00  0.00     0.283 A 
ATOM     25  H3  UNL     1     -59.528  29.155  -9.704  1.00  0.00     0.171 HD
HETATM   26  O7  UNL     1     -57.474  27.748 -10.133  1.00  0.00    -0.265 OA
HETATM   27  C13 UNL     1     -56.283  29.661 -10.011  1.00  0.00     0.176 A 
HETATM   28  C14 UNL     1     -56.305  31.013  -9.825  1.00  0.00     0.157 A 
HETATM   29  N4  UNL     1     -55.089  31.746  -9.866  1.00  0.00    -0.079 NA
HETATM   30  N5  UNL     1     -57.475  31.637  -9.604  1.00  0.00    -0.324 N 
ATOM     31  H5  UNL     1     -57.466  32.648  -9.467  1.00  0.00     0.169 HD
BRANCH  27  32
HETATM   32  O8  UNL     1     -55.104  28.967 -10.242  1.00  0.00    -0.353 OA
ATOM     33  H8  UNL     1     -54.267  29.368 -10.039  1.00  0.00     0.218 HD
ENDBRANCH  27  32
ENDBRANCH  19  22
ENDBRANCH   1  18
TORSDOF 11
ENDMDL
