MODEL 1
REMARK VINA RESULT: -8.347773037      0.000      0.000
REMARK  11 active torsions:
REMARK  status: ('A' for Active; 'I' for Inactive)
REMARK    1  A    between atoms: C2_3  and  C3_4 
REMARK       I    between atoms: C3_4  and  N2_6 
REMARK    2  A    between atoms: N2_6  and  N3_8 
REMARK    3  A    between atoms: C4_10  and  C5_11 
REMARK       I    between atoms: C5_11  and  N4_13 
REMARK    4  A    between atoms: N4_13  and  O3_15 
REMARK    5  A    between atoms: O3_15  and  C6_16 
REMARK    6  A    between atoms: C6_16  and  O4_17 
REMARK    7  A    between atoms: C9_21  and  C10_22 
REMARK    8  A    between atoms: C10_22  and  O6_24 
REMARK    9  A    between atoms: O6_24  and  N5_25 
REMARK       I    between atoms: N5_25  and  C11_27 
REMARK   10  A    between atoms: C11_27  and  C12_29 
REMARK   11  A    between atoms: C12_29  and  N6_32 
ROOT
HETATM    1  C1  UNL     1     -65.325  29.950  -8.019  1.00  0.00     0.157 C 
HETATM    2  N1  UNL     1     -65.324  30.503  -9.352  1.00  0.00    -0.342 N 
HETATM    3  C2  UNL     1     -64.309  31.094  -9.995  1.00  0.00     0.104 A 
HETATM    4  C7  UNL     1     -64.808  31.466 -11.263  1.00  0.00     0.038 A 
HETATM    5  C8  UNL     1     -66.122  31.079 -11.338  1.00  0.00     0.038 A 
HETATM    6  C9  UNL     1     -66.434  30.481 -10.146  1.00  0.00     0.112 A 
ENDROOT
BRANCH   3   7
HETATM    7  C3  UNL     1     -62.962  31.338  -9.560  1.00  0.00     0.286 C 
HETATM    8  O1  UNL     1     -62.580  32.440  -9.150  1.00  0.00    -0.264 OA
HETATM    9  N2  UNL     1     -61.984  30.279  -9.587  1.00  0.00    -0.265 N 
ATOM     10  H2  UNL     1     -62.272  29.358  -9.918  1.00  0.00     0.190 HD
BRANCH   9  11
HETATM   11  N3  UNL     1     -60.705  30.452  -9.195  1.00  0.00    -0.304 N 
HETATM   12  C4  UNL     1     -60.168  30.361  -8.072  1.00  0.00     0.183 C 
ATOM     13  H3  UNL     1     -60.064  30.700  -9.949  1.00  0.00     0.186 HD
BRANCH  12  14
HETATM   14  C5  UNL     1     -60.733  30.033  -6.785  1.00  0.00     0.281 C 
HETATM   15  O2  UNL     1     -61.928  29.540  -6.747  1.00  0.00    -0.265 OA
HETATM   16  N4  UNL     1     -60.104  30.202  -5.547  1.00  0.00    -0.228 N 
ATOM     17  H4  UNL     1     -59.162  30.592  -5.553  1.00  0.00     0.198 HD
BRANCH  16  18
HETATM   18  O3  UNL     1     -60.639  29.891  -4.339  1.00  0.00    -0.252 OA
BRANCH  18  19
HETATM   19  C6  UNL     1     -60.186  28.727  -3.783  1.00  0.00     0.366 C 
BRANCH  19  20
HETATM   20  O4  UNL     1     -61.186  27.968  -3.157  1.00  0.00    -0.375 OA
ATOM     21  H4  UNL     1     -61.707  28.458  -2.533  1.00  0.00     0.212 HD
ENDBRANCH  19  20
ENDBRANCH  18  19
ENDBRANCH  16  18
ENDBRANCH  12  14
ENDBRANCH   9  11
ENDBRANCH   3   7
BRANCH   6  22
HETATM   22  C10 UNL     1     -67.707  29.906  -9.765  1.00  0.00     0.332 C 
HETATM   23  O5  UNL     1     -68.769  30.551  -9.612  1.00  0.00    -0.256 OA
BRANCH  22  24
HETATM   24  O6  UNL     1     -67.786  28.527  -9.542  1.00  0.00    -0.191 OA
BRANCH  24  25
HETATM   25  N5  UNL     1     -68.153  27.992  -8.322  1.00  0.00    -0.223 N 
HETATM   26  C11 UNL     1     -67.378  27.004  -7.684  1.00  0.00     0.277 C 
HETATM   27  O7  UNL     1     -66.332  26.601  -8.237  1.00  0.00    -0.269 OA
ATOM     28  H5  UNL     1     -69.007  28.321  -7.872  1.00  0.00     0.198 HD
BRANCH  26  29
HETATM   29  C12 UNL     1     -67.800  26.454  -6.371  1.00  0.00     0.198 C 
HETATM   30  C13 UNL     1     -66.633  25.916  -5.617  1.00  0.00     0.056 C 
HETATM   31  C14 UNL     1     -68.463  27.609  -5.610  1.00  0.00     0.056 C 
BRANCH  29  32
HETATM   32  N6  UNL     1     -68.830  25.446  -6.521  1.00  0.00    -0.062 N 
ATOM     33  H63 UNL     1     -68.501  24.658  -7.080  1.00  0.00     0.275 HD
ATOM     34  H62 UNL     1     -69.002  24.957  -5.643  1.00  0.00     0.275 HD
ATOM     35  H61 UNL     1     -69.689  25.842  -6.903  1.00  0.00     0.275 HD
ENDBRANCH  29  32
ENDBRANCH  26  29
ENDBRANCH  24  25
ENDBRANCH  22  24
ENDBRANCH   6  22
TORSDOF 11
ENDMDL
MODEL 2
REMARK VINA RESULT: -8.263900960      2.246      3.239
REMARK  11 active torsions:
REMARK  status: ('A' for Active; 'I' for Inactive)
REMARK    1  A    between atoms: C2_3  and  C3_4 
REMARK       I    between atoms: C3_4  and  N2_6 
REMARK    2  A    between atoms: N2_6  and  N3_8 
REMARK    3  A    between atoms: C4_10  and  C5_11 
REMARK       I    between atoms: C5_11  and  N4_13 
REMARK    4  A    between atoms: N4_13  and  O3_15 
REMARK    5  A    between atoms: O3_15  and  C6_16 
REMARK    6  A    between atoms: C6_16  and  O4_17 
REMARK    7  A    between atoms: C9_21  and  C10_22 
REMARK    8  A    between atoms: C10_22  and  O6_24 
REMARK    9  A    between atoms: O6_24  and  N5_25 
REMARK       I    between atoms: N5_25  and  C11_27 
REMARK   10  A    between atoms: C11_27  and  C12_29 
REMARK   11  A    between atoms: C12_29  and  N6_32 
ROOT
HETATM    1  C1  UNL     1     -65.249  29.671  -8.189  1.00  0.00     0.157 C 
HETATM    2  N1  UNL     1     -65.307  30.474  -9.386  1.00  0.00    -0.342 N 
HETATM    3  C2  UNL     1     -64.322  31.191  -9.943  1.00  0.00     0.104 A 
HETATM    4  C7  UNL     1     -64.875  31.798 -11.091  1.00  0.00     0.038 A 
HETATM    5  C8  UNL     1     -66.190  31.419 -11.186  1.00  0.00     0.038 A 
HETATM    6  C9  UNL     1     -66.450  30.596 -10.123  1.00  0.00     0.112 A 
ENDROOT
BRANCH   3   7
HETATM    7  C3  UNL     1     -62.958  31.360  -9.524  1.00  0.00     0.286 C 
HETATM    8  O1  UNL     1     -62.518  32.431  -9.092  1.00  0.00    -0.264 OA
HETATM    9  N2  UNL     1     -62.032  30.257  -9.597  1.00  0.00    -0.265 N 
ATOM     10  H2  UNL     1     -62.369  29.360  -9.947  1.00  0.00     0.190 HD
BRANCH   9  11
HETATM   11  N3  UNL     1     -60.740  30.359  -9.222  1.00  0.00    -0.304 N 
HETATM   12  C4  UNL     1     -60.197  30.271  -8.101  1.00  0.00     0.183 C 
ATOM     13  H3  UNL     1     -60.092  30.540  -9.990  1.00  0.00     0.186 HD
BRANCH  12  14
HETATM   14  C5  UNL     1     -60.769  30.024  -6.799  1.00  0.00     0.281 C 
HETATM   15  O2  UNL     1     -62.018  29.696  -6.729  1.00  0.00    -0.265 OA
HETATM   16  N4  UNL     1     -60.090  30.108  -5.578  1.00  0.00    -0.228 N 
ATOM     17  H4  UNL     1     -59.105  30.369  -5.610  1.00  0.00     0.198 HD
BRANCH  16  18
HETATM   18  O3  UNL     1     -60.631  29.874  -4.356  1.00  0.00    -0.252 OA
BRANCH  18  19
HETATM   19  C6  UNL     1     -60.154  28.768  -3.710  1.00  0.00     0.366 C 
BRANCH  19  20
HETATM   20  O4  UNL     1     -61.155  27.960  -3.150  1.00  0.00    -0.375 OA
ATOM     21  H4  UNL     1     -61.251  28.062  -2.210  1.00  0.00     0.212 HD
ENDBRANCH  19  20
ENDBRANCH  18  19
ENDBRANCH  16  18
ENDBRANCH  12  14
ENDBRANCH   9  11
ENDBRANCH   3   7
BRANCH   6  22
HETATM   22  C10 UNL     1     -67.704  29.943  -9.809  1.00  0.00     0.332 C 
HETATM   23  O5  UNL     1     -67.989  28.759 -10.100  1.00  0.00    -0.256 OA
BRANCH  22  24
HETATM   24  O6  UNL     1     -68.690  30.666  -9.129  1.00  0.00    -0.191 OA
BRANCH  24  25
HETATM   25  N5  UNL     1     -68.540  31.075  -7.818  1.00  0.00    -0.223 N 
HETATM   26  C11 UNL     1     -69.334  32.099  -7.266  1.00  0.00     0.277 C 
HETATM   27  O7  UNL     1     -70.195  32.653  -7.983  1.00  0.00    -0.269 OA
ATOM     28  H5  UNL     1     -67.836  30.622  -7.234  1.00  0.00     0.198 HD
BRANCH  26  29
HETATM   29  C12 UNL     1     -69.148  32.511  -5.852  1.00  0.00     0.198 C 
HETATM   30  C13 UNL     1     -70.036  33.657  -5.509  1.00  0.00     0.056 C 
HETATM   31  C14 UNL     1     -69.477  31.282  -4.996  1.00  0.00     0.056 C 
BRANCH  29  32
HETATM   32  N6  UNL     1     -67.763  32.823  -5.565  1.00  0.00    -0.062 N 
ATOM     33  H63 UNL     1     -67.429  33.597  -6.140  1.00  0.00     0.275 HD
ATOM     34  H62 UNL     1     -67.662  33.254  -4.646  1.00  0.00     0.275 HD
ATOM     35  H61 UNL     1     -67.165  32.002  -5.660  1.00  0.00     0.275 HD
ENDBRANCH  29  32
ENDBRANCH  26  29
ENDBRANCH  24  25
ENDBRANCH  22  24
ENDBRANCH   6  22
TORSDOF 11
ENDMDL
MODEL 3
REMARK VINA RESULT: -8.038283006      2.315      5.222
REMARK  11 active torsions:
REMARK  status: ('A' for Active; 'I' for Inactive)
REMARK    1  A    between atoms: C2_3  and  C3_4 
REMARK       I    between atoms: C3_4  and  N2_6 
REMARK    2  A    between atoms: N2_6  and  N3_8 
REMARK    3  A    between atoms: C4_10  and  C5_11 
REMARK       I    between atoms: C5_11  and  N4_13 
REMARK    4  A    between atoms: N4_13  and  O3_15 
REMARK    5  A    between atoms: O3_15  and  C6_16 
REMARK    6  A    between atoms: C6_16  and  O4_17 
REMARK    7  A    between atoms: C9_21  and  C10_22 
REMARK    8  A    between atoms: C10_22  and  O6_24 
REMARK    9  A    between atoms: O6_24  and  N5_25 
REMARK       I    between atoms: N5_25  and  C11_27 
REMARK   10  A    between atoms: C11_27  and  C12_29 
REMARK   11  A    between atoms: C12_29  and  N6_32 
ROOT
HETATM    1  C1  UNL     1     -65.075  29.262  -7.416  1.00  0.00     0.157 C 
HETATM    2  N1  UNL     1     -65.112  27.996  -6.724  1.00  0.00    -0.342 N 
HETATM    3  C2  UNL     1     -64.218  27.510  -5.852  1.00  0.00     0.104 A 
HETATM    4  C7  UNL     1     -64.698  26.241  -5.462  1.00  0.00     0.038 A 
HETATM    5  C8  UNL     1     -65.878  26.006  -6.121  1.00  0.00     0.038 A 
HETATM    6  C9  UNL     1     -66.127  27.102  -6.903  1.00  0.00     0.112 A 
ENDROOT
BRANCH   3   7
HETATM    7  C3  UNL     1     -63.001  28.094  -5.361  1.00  0.00     0.286 C 
HETATM    8  O1  UNL     1     -62.568  27.880  -4.223  1.00  0.00    -0.264 OA
HETATM    9  N2  UNL     1     -62.225  28.974  -6.199  1.00  0.00    -0.265 N 
ATOM     10  H2  UNL     1     -62.558  29.167  -7.144  1.00  0.00     0.190 HD
BRANCH   9  11
HETATM   11  N3  UNL     1     -61.078  29.554  -5.788  1.00  0.00    -0.304 N 
HETATM   12  C4  UNL     1     -60.230  30.231  -6.406  1.00  0.00     0.183 C 
ATOM     13  H3  UNL     1     -60.866  29.415  -4.800  1.00  0.00     0.186 HD
BRANCH  12  14
HETATM   14  C5  UNL     1     -60.182  30.637  -7.790  1.00  0.00     0.281 C 
HETATM   15  O2  UNL     1     -60.700  29.854  -8.679  1.00  0.00    -0.265 OA
HETATM   16  N4  UNL     1     -59.614  31.820  -8.277  1.00  0.00    -0.228 N 
ATOM     17  H4  UNL     1     -59.196  32.452  -7.593  1.00  0.00     0.198 HD
BRANCH  16  18
HETATM   18  O3  UNL     1     -59.570  32.199  -9.579  1.00  0.00    -0.252 OA
BRANCH  18  19
HETATM   19  C6  UNL     1     -60.625  32.960  -9.999  1.00  0.00     0.366 C 
BRANCH  19  20
HETATM   20  O4  UNL     1     -60.614  34.272  -9.502  1.00  0.00    -0.375 OA
ATOM     21  H4  UNL     1     -61.391  34.502  -9.005  1.00  0.00     0.212 HD
ENDBRANCH  19  20
ENDBRANCH  18  19
ENDBRANCH  16  18
ENDBRANCH  12  14
ENDBRANCH   9  11
ENDBRANCH   3   7
BRANCH   6  22
HETATM   22  C10 UNL     1     -67.266  27.314  -7.773  1.00  0.00     0.332 C 
HETATM   23  O5  UNL     1     -68.305  27.936  -7.455  1.00  0.00    -0.256 OA
BRANCH  22  24
HETATM   24  O6  UNL     1     -67.230  26.795  -9.071  1.00  0.00    -0.191 OA
BRANCH  24  25
HETATM   25  N5  UNL     1     -67.054  27.594 -10.185  1.00  0.00    -0.223 N 
HETATM   26  C11 UNL     1     -65.795  27.739 -10.800  1.00  0.00     0.277 C 
HETATM   27  O7  UNL     1     -64.813  27.129 -10.325  1.00  0.00    -0.269 OA
ATOM     28  H5  UNL     1     -67.856  28.091 -10.572  1.00  0.00     0.198 HD
BRANCH  26  29
HETATM   29  C12 UNL     1     -65.641  28.602 -11.998  1.00  0.00     0.198 C 
HETATM   30  C13 UNL     1     -66.312  27.996 -13.182  1.00  0.00     0.056 C 
HETATM   31  C14 UNL     1     -66.271  29.955 -11.640  1.00  0.00     0.056 C 
BRANCH  29  32
HETATM   32  N6  UNL     1     -64.249  28.885 -12.277  1.00  0.00    -0.062 N 
ATOM     33  H63 UNL     1     -63.743  29.140 -11.429  1.00  0.00     0.275 HD
ATOM     34  H62 UNL     1     -63.737  28.037 -12.518  1.00  0.00     0.275 HD
ATOM     35  H61 UNL     1     -64.148  29.599 -12.999  1.00  0.00     0.275 HD
ENDBRANCH  29  32
ENDBRANCH  26  29
ENDBRANCH  24  25
ENDBRANCH  22  24
ENDBRANCH   6  22
TORSDOF 11
ENDMDL
MODEL 4
REMARK VINA RESULT: -8.002338363      3.088      4.785
REMARK  11 active torsions:
REMARK  status: ('A' for Active; 'I' for Inactive)
REMARK    1  A    between atoms: C2_3  and  C3_4 
REMARK       I    between atoms: C3_4  and  N2_6 
REMARK    2  A    between atoms: N2_6  and  N3_8 
REMARK    3  A    between atoms: C4_10  and  C5_11 
REMARK       I    between atoms: C5_11  and  N4_13 
REMARK    4  A    between atoms: N4_13  and  O3_15 
REMARK    5  A    between atoms: O3_15  and  C6_16 
REMARK    6  A    between atoms: C6_16  and  O4_17 
REMARK    7  A    between atoms: C9_21  and  C10_22 
REMARK    8  A    between atoms: C10_22  and  O6_24 
REMARK    9  A    between atoms: O6_24  and  N5_25 
REMARK       I    between atoms: N5_25  and  C11_27 
REMARK   10  A    between atoms: C11_27  and  C12_29 
REMARK   11  A    between atoms: C12_29  and  N6_32 
ROOT
HETATM    1  C1  UNL     1     -65.860  29.868  -8.177  1.00  0.00     0.157 C 
HETATM    2  N1  UNL     1     -64.847  29.369  -7.279  1.00  0.00    -0.342 N 
HETATM    3  C2  UNL     1     -63.649  29.906  -7.012  1.00  0.00     0.104 A 
HETATM    4  C7  UNL     1     -63.030  29.045  -6.078  1.00  0.00     0.038 A 
HETATM    5  C8  UNL     1     -63.890  28.009  -5.814  1.00  0.00     0.038 A 
HETATM    6  C9  UNL     1     -65.016  28.219  -6.564  1.00  0.00     0.112 A 
ENDROOT
BRANCH   3   7
HETATM    7  C3  UNL     1     -63.044  31.104  -7.523  1.00  0.00     0.286 C 
HETATM    8  O1  UNL     1     -63.173  32.204  -6.975  1.00  0.00    -0.264 OA
HETATM    9  N2  UNL     1     -62.246  31.063  -8.722  1.00  0.00    -0.265 N 
ATOM     10  H2  UNL     1     -62.121  30.167  -9.194  1.00  0.00     0.190 HD
BRANCH   9  11
HETATM   11  N3  UNL     1     -61.658  32.157  -9.250  1.00  0.00    -0.304 N 
HETATM   12  C4  UNL     1     -60.475  32.377  -9.582  1.00  0.00     0.183 C 
ATOM     13  H3  UNL     1     -62.291  32.942  -9.404  1.00  0.00     0.186 HD
BRANCH  12  14
HETATM   14  C5  UNL     1     -59.310  31.528  -9.521  1.00  0.00     0.281 C 
HETATM   15  O2  UNL     1     -59.485  30.247  -9.478  1.00  0.00    -0.265 OA
HETATM   16  N4  UNL     1     -57.980  31.963  -9.500  1.00  0.00    -0.228 N 
ATOM     17  H4  UNL     1     -57.819  32.969  -9.530  1.00  0.00     0.198 HD
BRANCH  16  18
HETATM   18  O3  UNL     1     -56.886  31.161  -9.444  1.00  0.00    -0.252 OA
BRANCH  18  19
HETATM   19  C6  UNL     1     -55.707  31.760  -9.785  1.00  0.00     0.366 C 
BRANCH  19  20
HETATM   20  O4  UNL     1     -55.859  32.919 -10.561  1.00  0.00    -0.375 OA
ATOM     21  H4  UNL     1     -55.446  33.689 -10.189  1.00  0.00     0.212 HD
ENDBRANCH  19  20
ENDBRANCH  18  19
ENDBRANCH  16  18
ENDBRANCH  12  14
ENDBRANCH   9  11
ENDBRANCH   3   7
BRANCH   6  22
HETATM   22  C10 UNL     1     -66.203  27.390  -6.608  1.00  0.00     0.332 C 
HETATM   23  O5  UNL     1     -67.130  27.419  -5.766  1.00  0.00    -0.256 OA
BRANCH  22  24
HETATM   24  O6  UNL     1     -66.353  26.479  -7.659  1.00  0.00    -0.191 OA
BRANCH  24  25
HETATM   25  N5  UNL     1     -66.990  26.808  -8.840  1.00  0.00    -0.223 N 
HETATM   26  C11 UNL     1     -66.271  27.035 -10.030  1.00  0.00     0.277 C 
HETATM   27  O7  UNL     1     -65.025  26.937 -10.015  1.00  0.00    -0.269 OA
ATOM     28  H5  UNL     1     -68.007  26.888  -8.851  1.00  0.00     0.198 HD
BRANCH  26  29
HETATM   29  C12 UNL     1     -66.988  27.383 -11.283  1.00  0.00     0.198 C 
HETATM   30  C13 UNL     1     -66.163  28.282 -12.138  1.00  0.00     0.056 C 
HETATM   31  C14 UNL     1     -67.279  26.057 -11.998  1.00  0.00     0.056 C 
BRANCH  29  32
HETATM   32  N6  UNL     1     -68.284  27.969 -11.011  1.00  0.00    -0.062 N 
ATOM     33  H63 UNL     1     -69.011  27.548 -11.590  1.00  0.00     0.275 HD
ATOM     34  H62 UNL     1     -68.632  27.694 -10.093  1.00  0.00     0.275 HD
ATOM     35  H61 UNL     1     -68.266  28.984 -11.115  1.00  0.00     0.275 HD
ENDBRANCH  29  32
ENDBRANCH  26  29
ENDBRANCH  24  25
ENDBRANCH  22  24
ENDBRANCH   6  22
TORSDOF 11
ENDMDL
MODEL 5
REMARK VINA RESULT: -7.997547503      1.137      1.500
REMARK  11 active torsions:
REMARK  status: ('A' for Active; 'I' for Inactive)
REMARK    1  A    between atoms: C2_3  and  C3_4 
REMARK       I    between atoms: C3_4  and  N2_6 
REMARK    2  A    between atoms: N2_6  and  N3_8 
REMARK    3  A    between atoms: C4_10  and  C5_11 
REMARK       I    between atoms: C5_11  and  N4_13 
REMARK    4  A    between atoms: N4_13  and  O3_15 
REMARK    5  A    between atoms: O3_15  and  C6_16 
REMARK    6  A    between atoms: C6_16  and  O4_17 
REMARK    7  A    between atoms: C9_21  and  C10_22 
REMARK    8  A    between atoms: C10_22  and  O6_24 
REMARK    9  A    between atoms: O6_24  and  N5_25 
REMARK       I    between atoms: N5_25  and  C11_27 
REMARK   10  A    between atoms: C11_27  and  C12_29 
REMARK   11  A    between atoms: C12_29  and  N6_32 
ROOT
HETATM    1  C1  UNL     1     -64.964  28.348  -9.208  1.00  0.00     0.157 C 
HETATM    2  N1  UNL     1     -65.431  29.463  -9.996  1.00  0.00    -0.342 N 
HETATM    3  C2  UNL     1     -64.806  30.626 -10.225  1.00  0.00     0.104 A 
HETATM    4  C7  UNL     1     -65.670  31.383 -11.046  1.00  0.00     0.038 A 
HETATM    5  C8  UNL     1     -66.798  30.640 -11.285  1.00  0.00     0.038 A 
HETATM    6  C9  UNL     1     -66.640  29.448 -10.629  1.00  0.00     0.112 A 
ENDROOT
BRANCH   3   7
HETATM    7  C3  UNL     1     -63.523  31.085  -9.771  1.00  0.00     0.286 C 
HETATM    8  O1  UNL     1     -63.339  32.224  -9.327  1.00  0.00    -0.264 OA
HETATM    9  N2  UNL     1     -62.377  30.211  -9.819  1.00  0.00    -0.265 N 
ATOM     10  H2  UNL     1     -62.501  29.264 -10.178  1.00  0.00     0.190 HD
BRANCH   9  11
HETATM   11  N3  UNL     1     -61.148  30.591  -9.410  1.00  0.00    -0.304 N 
HETATM   12  C4  UNL     1     -60.617  30.585  -8.281  1.00  0.00     0.183 C 
ATOM     13  H3  UNL     1     -60.548  30.944 -10.156  1.00  0.00     0.186 HD
BRANCH  12  14
HETATM   14  C5  UNL     1     -61.137  30.162  -7.002  1.00  0.00     0.281 C 
HETATM   15  O2  UNL     1     -62.344  29.700  -6.952  1.00  0.00    -0.265 OA
HETATM   16  N4  UNL     1     -60.449  30.207  -5.784  1.00  0.00    -0.228 N 
ATOM     17  H4  UNL     1     -59.497  30.571  -5.800  1.00  0.00     0.198 HD
BRANCH  16  18
HETATM   18  O3  UNL     1     -60.941  29.808  -4.583  1.00  0.00    -0.252 OA
BRANCH  18  19
HETATM   19  C6  UNL     1     -60.303  28.740  -4.019  1.00  0.00     0.366 C 
BRANCH  19  20
HETATM   20  O4  UNL     1     -61.102  28.003  -3.132  1.00  0.00    -0.375 OA
ATOM     21  H4  UNL     1     -60.621  27.359  -2.625  1.00  0.00     0.212 HD
ENDBRANCH  19  20
ENDBRANCH  18  19
ENDBRANCH  16  18
ENDBRANCH  12  14
ENDBRANCH   9  11
ENDBRANCH   3   7
BRANCH   6  22
HETATM   22  C10 UNL     1     -67.570  28.338 -10.598  1.00  0.00     0.332 C 
HETATM   23  O5  UNL     1     -67.552  27.365 -11.386  1.00  0.00    -0.256 OA
BRANCH  22  24
HETATM   24  O6  UNL     1     -68.575  28.325  -9.625  1.00  0.00    -0.191 OA
BRANCH  24  25
HETATM   25  N5  UNL     1     -68.301  28.407  -8.273  1.00  0.00    -0.223 N 
HETATM   26  C11 UNL     1     -67.751  27.321  -7.563  1.00  0.00     0.277 C 
HETATM   27  O7  UNL     1     -67.507  26.258  -8.173  1.00  0.00    -0.269 OA
ATOM     28  H5  UNL     1     -68.500  29.275  -7.777  1.00  0.00     0.198 HD
BRANCH  26  29
HETATM   29  C12 UNL     1     -67.465  27.445  -6.111  1.00  0.00     0.198 C 
HETATM   30  C13 UNL     1     -68.625  28.035  -5.387  1.00  0.00     0.056 C 
HETATM   31  C14 UNL     1     -67.164  26.028  -5.607  1.00  0.00     0.056 C 
BRANCH  29  32
HETATM   32  N6  UNL     1     -66.258  28.207  -5.868  1.00  0.00    -0.062 N 
ATOM     33  H63 UNL     1     -65.557  27.649  -5.380  1.00  0.00     0.275 HD
ATOM     34  H62 UNL     1     -65.747  28.381  -6.733  1.00  0.00     0.275 HD
ATOM     35  H61 UNL     1     -66.456  29.075  -5.370  1.00  0.00     0.275 HD
ENDBRANCH  29  32
ENDBRANCH  26  29
ENDBRANCH  24  25
ENDBRANCH  22  24
ENDBRANCH   6  22
TORSDOF 11
ENDMDL
