MODEL 1
REMARK VINA RESULT: -7.658827395      0.000      0.000
REMARK  3 active torsions:
REMARK  status: ('A' for Active; 'I' for Inactive)
REMARK    1  A    between atoms: C3_3  and  O1_4 
REMARK    2  A    between atoms: C4_6  and  C5_7 
REMARK    3  A    between atoms: C14_19  and  O3_20 
ROOT
HETATM    1  C1  UNL     1      40.952  14.882   6.855  1.00  0.00     0.017 C 
HETATM    2  C2  UNL     1      41.580  15.411   7.896  1.00  0.00    -0.050 A 
HETATM    3  C3  UNL     1      42.210  16.697   8.222  1.00  0.00     0.183 A 
HETATM    4  C4  UNL     1      42.479  16.235   9.641  1.00  0.00     0.111 A 
HETATM    5  O2  UNL     1      41.741  16.987  10.524  1.00  0.00    -0.372 OA
HETATM    6  C7  UNL     1      41.114  16.279  11.505  1.00  0.00     0.217 C 
HETATM    7  C8  UNL     1      40.084  15.291  10.932  1.00  0.00     0.151 C 
HETATM    8  F1  UNL     1      39.181  15.997  10.192  1.00  0.00    -0.235 F 
HETATM    9  C9  UNL     1      39.474  14.679  12.117  1.00  0.00    -0.048 C 
HETATM   10  C10 UNL     1      38.164  14.652  12.003  1.00  0.00     0.017 C 
HETATM   11  C11 UNL     1      39.878  14.081  13.430  1.00  0.00     0.037 C 
HETATM   12  C12 UNL     1      39.730  12.624  13.400  1.00  0.00     0.012 C 
HETATM   13  C13 UNL     1      39.385  11.918  12.160  1.00  0.00     0.022 A 
HETATM   14  C14 UNL     1      40.214  10.822  11.594  1.00  0.00     0.127 A 
HETATM   15  C15 UNL     1      39.988  12.175  10.899  1.00  0.00     0.022 A 
HETATM   16  C16 UNL     1      41.166  13.050  10.757  1.00  0.00     0.016 C 
HETATM   17  C17 UNL     1      40.821  14.364  10.034  1.00  0.00     0.044 C 
HETATM   18  C18 UNL     1      41.954  14.928   9.273  1.00  0.00     0.063 A 
ENDROOT
BRANCH   4  19
HETATM   19  C5  UNL     1      43.951  16.349   9.945  1.00  0.00     0.092 C 
HETATM   20  C6  UNL     1      44.280  17.615  10.706  1.00  0.00     0.025 C 
HETATM   21 BR1  UNL     1      44.592  14.848  10.975  1.00  0.00    -0.088 Br
ENDBRANCH   4  19
BRANCH   3  22
HETATM   22  O1  UNL     1      43.365  16.998   7.488  1.00  0.00    -0.388 OA
ATOM     23  H1  UNL     1      44.182  16.714   7.883  1.00  0.00     0.210 HD
ENDBRANCH   3  22
BRANCH  14  24
HETATM   24  O3  UNL     1      39.610   9.708  11.012  1.00  0.00    -0.395 OA
ATOM     25  H3  UNL     1      39.112   9.795  10.208  1.00  0.00     0.210 HD
ENDBRANCH  14  24
TORSDOF 3
ENDMDL
MODEL 2
REMARK VINA RESULT: -7.657979970      2.651      5.569
REMARK  3 active torsions:
REMARK  status: ('A' for Active; 'I' for Inactive)
REMARK    1  A    between atoms: C3_3  and  O1_4 
REMARK    2  A    between atoms: C4_6  and  C5_7 
REMARK    3  A    between atoms: C14_19  and  O3_20 
ROOT
HETATM    1  C1  UNL     1      38.494  13.304  10.599  1.00  0.00     0.017 C 
HETATM    2  C2  UNL     1      38.856  14.247  11.458  1.00  0.00    -0.050 A 
HETATM    3  C3  UNL     1      38.654  14.525  12.886  1.00  0.00     0.183 A 
HETATM    4  C4  UNL     1      39.566  15.734  12.807  1.00  0.00     0.111 A 
HETATM    5  O2  UNL     1      40.693  15.517  13.563  1.00  0.00    -0.372 OA
HETATM    6  C7  UNL     1      41.866  15.876  12.969  1.00  0.00     0.217 C 
HETATM    7  C8  UNL     1      42.134  15.065  11.690  1.00  0.00     0.151 C 
HETATM    8  F1  UNL     1      42.143  13.742  12.017  1.00  0.00    -0.235 F 
HETATM    9  C9  UNL     1      43.448  15.534  11.236  1.00  0.00    -0.048 C 
HETATM   10  C10 UNL     1      44.218  14.518  10.915  1.00  0.00     0.017 C 
HETATM   11  C11 UNL     1      44.195  16.817  11.032  1.00  0.00     0.037 C 
HETATM   12  C12 UNL     1      44.312  17.123   9.604  1.00  0.00     0.012 C 
HETATM   13  C13 UNL     1      43.621  16.317   8.592  1.00  0.00     0.022 A 
HETATM   14  C14 UNL     1      42.684  16.897   7.595  1.00  0.00     0.127 A 
HETATM   15  C15 UNL     1      42.264  15.901   8.689  1.00  0.00     0.022 A 
HETATM   16  C16 UNL     1      41.362  16.412   9.737  1.00  0.00     0.016 C 
HETATM   17  C17 UNL     1      41.001  15.324  10.764  1.00  0.00     0.044 C 
HETATM   18  C18 UNL     1      39.669  15.513  11.372  1.00  0.00     0.063 A 
ENDROOT
BRANCH   4  19
HETATM   19  C5  UNL     1      38.831  16.959  13.285  1.00  0.00     0.092 C 
HETATM   20  C6  UNL     1      39.279  17.391  14.665  1.00  0.00     0.025 C 
HETATM   21 BR1  UNL     1      39.065  18.453  12.086  1.00  0.00    -0.088 Br
ENDBRANCH   4  19
BRANCH   3  22
HETATM   22  O1  UNL     1      37.334  14.824  13.254  1.00  0.00    -0.388 OA
ATOM     23  H1  UNL     1      37.056  15.715  13.074  1.00  0.00     0.210 HD
ENDBRANCH   3  22
BRANCH  14  24
HETATM   24  O3  UNL     1      42.671  16.430   6.281  1.00  0.00    -0.395 OA
ATOM     25  H3  UNL     1      42.459  15.522   6.095  1.00  0.00     0.210 HD
ENDBRANCH  14  24
TORSDOF 3
ENDMDL
MODEL 3
REMARK VINA RESULT: -7.304500386      2.241      3.336
REMARK  3 active torsions:
REMARK  status: ('A' for Active; 'I' for Inactive)
REMARK    1  A    between atoms: C3_3  and  O1_4 
REMARK    2  A    between atoms: C4_6  and  C5_7 
REMARK    3  A    between atoms: C14_19  and  O3_20 
ROOT
HETATM    1  C1  UNL     1      39.302  17.865  12.288  1.00  0.00     0.017 C 
HETATM    2  C2  UNL     1      40.217  17.215  11.583  1.00  0.00    -0.050 A 
HETATM    3  C3  UNL     1      41.649  17.367  11.295  1.00  0.00     0.183 A 
HETATM    4  C4  UNL     1      41.660  16.062  10.524  1.00  0.00     0.111 A 
HETATM    5  O2  UNL     1      42.442  15.140  11.179  1.00  0.00    -0.372 OA
HETATM    6  C7  UNL     1      41.906  13.891  11.274  1.00  0.00     0.217 C 
HETATM    7  C8  UNL     1      40.598  13.888  12.084  1.00  0.00     0.151 C 
HETATM    8  F1  UNL     1      40.860  14.398  13.321  1.00  0.00    -0.235 F 
HETATM    9  C9  UNL     1      40.212  12.473  12.137  1.00  0.00    -0.048 C 
HETATM   10  C10 UNL     1      39.868  12.132  13.359  1.00  0.00     0.017 C 
HETATM   11  C11 UNL     1      40.096  11.286  11.230  1.00  0.00     0.037 C 
HETATM   12  C12 UNL     1      38.689  10.991  10.945  1.00  0.00     0.012 C 
HETATM   13  C13 UNL     1      37.616  11.885  11.394  1.00  0.00     0.022 A 
HETATM   14  C14 UNL     1      36.618  12.482  10.467  1.00  0.00     0.127 A 
HETATM   15  C15 UNL     1      37.648  13.301  11.263  1.00  0.00     0.022 A 
HETATM   16  C16 UNL     1      38.689  13.993  10.481  1.00  0.00     0.016 C 
HETATM   17  C17 UNL     1      39.649  14.791  11.383  1.00  0.00     0.044 C 
HETATM   18  C18 UNL     1      40.220  15.980  10.720  1.00  0.00     0.063 A 
ENDROOT
BRANCH   4  19
HETATM   19  C5  UNL     1      42.173  16.300   9.127  1.00  0.00     0.092 C 
HETATM   20  C6  UNL     1      43.649  15.986   9.000  1.00  0.00     0.025 C 
HETATM   21 BR1  UNL     1      41.223  15.243   7.821  1.00  0.00    -0.088 Br
ENDBRANCH   4  19
BRANCH   3  22
HETATM   22  O1  UNL     1      41.987  18.491  10.528  1.00  0.00    -0.388 OA
ATOM     23  H1  UNL     1      41.251  18.968  10.162  1.00  0.00     0.210 HD
ENDBRANCH   3  22
BRANCH  14  24
HETATM   24  O3  UNL     1      35.284  12.606  10.852  1.00  0.00    -0.395 OA
ATOM     25  H3  UNL     1      34.747  13.309  10.504  1.00  0.00     0.210 HD
ENDBRANCH  14  24
TORSDOF 3
ENDMDL
MODEL 4
REMARK VINA RESULT: -6.965736454      8.230     10.555
REMARK  3 active torsions:
REMARK  status: ('A' for Active; 'I' for Inactive)
REMARK    1  A    between atoms: C3_3  and  O1_4 
REMARK    2  A    between atoms: C4_6  and  C5_7 
REMARK    3  A    between atoms: C14_19  and  O3_20 
ROOT
HETATM    1  C1  UNL     1      32.534   9.995  11.739  1.00  0.00     0.017 C 
HETATM    2  C2  UNL     1      33.043  11.113  11.239  1.00  0.00    -0.050 A 
HETATM    3  C3  UNL     1      34.304  11.522  10.608  1.00  0.00     0.183 A 
HETATM    4  C4  UNL     1      33.756  12.913  10.352  1.00  0.00     0.111 A 
HETATM    5  O2  UNL     1      33.637  13.125   8.999  1.00  0.00    -0.372 OA
HETATM    6  C7  UNL     1      32.470  13.707   8.606  1.00  0.00     0.217 C 
HETATM    7  C8  UNL     1      31.250  12.831   8.936  1.00  0.00     0.151 C 
HETATM    8  F1  UNL     1      31.416  11.621   8.329  1.00  0.00    -0.235 F 
HETATM    9  C9  UNL     1      30.112  13.576   8.387  1.00  0.00    -0.048 C 
HETATM   10  C10 UNL     1      29.320  12.778   7.706  1.00  0.00     0.017 C 
HETATM   11  C11 UNL     1      29.572  14.973   8.351  1.00  0.00     0.037 C 
HETATM   12  C12 UNL     1      28.400  15.095   9.223  1.00  0.00     0.012 C 
HETATM   13  C13 UNL     1      27.983  13.995  10.099  1.00  0.00     0.022 A 
HETATM   14  C14 UNL     1      27.819  14.147  11.568  1.00  0.00     0.127 A 
HETATM   15  C15 UNL     1      28.872  13.238  10.911  1.00  0.00     0.022 A 
HETATM   16  C16 UNL     1      30.284  13.622  11.095  1.00  0.00     0.016 C 
HETATM   17  C17 UNL     1      31.242  12.632  10.409  1.00  0.00     0.044 C 
HETATM   18  C18 UNL     1      32.554  12.529  11.078  1.00  0.00     0.063 A 
ENDROOT
BRANCH   4  19
HETATM   19  C5  UNL     1      34.663  13.942  10.976  1.00  0.00     0.092 C 
HETATM   20  C6  UNL     1      35.628  14.535   9.972  1.00  0.00     0.025 C 
HETATM   21 BR1  UNL     1      33.668  15.389  11.775  1.00  0.00    -0.088 Br
ENDBRANCH   4  19
BRANCH   3  22
HETATM   22  O1  UNL     1      35.428  11.494  11.447  1.00  0.00    -0.388 OA
ATOM     23  H1  UNL     1      36.254  11.693  11.022  1.00  0.00     0.210 HD
ENDBRANCH   3  22
BRANCH  14  24
HETATM   24  O3  UNL     1      26.769  13.513  12.231  1.00  0.00    -0.395 OA
ATOM     25  H3  UNL     1      26.269  12.830  11.799  1.00  0.00     0.210 HD
ENDBRANCH  14  24
TORSDOF 3
ENDMDL
MODEL 5
REMARK VINA RESULT: -6.736301867      2.691      5.618
REMARK  3 active torsions:
REMARK  status: ('A' for Active; 'I' for Inactive)
REMARK    1  A    between atoms: C3_3  and  O1_4 
REMARK    2  A    between atoms: C4_6  and  C5_7 
REMARK    3  A    between atoms: C14_19  and  O3_20 
ROOT
HETATM    1  C1  UNL     1      38.553  16.994  13.141  1.00  0.00     0.017 C 
HETATM    2  C2  UNL     1      38.607  15.825  12.518  1.00  0.00    -0.050 A 
HETATM    3  C3  UNL     1      37.688  14.990  11.734  1.00  0.00     0.183 A 
HETATM    4  C4  UNL     1      38.797  13.997  11.444  1.00  0.00     0.111 A 
HETATM    5  O2  UNL     1      39.083  13.997  10.099  1.00  0.00    -0.372 OA
HETATM    6  C7  UNL     1      40.410  14.007   9.790  1.00  0.00     0.217 C 
HETATM    7  C8  UNL     1      41.110  15.277  10.303  1.00  0.00     0.151 C 
HETATM    8  F1  UNL     1      40.479  16.359   9.764  1.00  0.00    -0.235 F 
HETATM    9  C9  UNL     1      42.491  15.144   9.826  1.00  0.00    -0.048 C 
HETATM   10  C10 UNL     1      42.905  16.269   9.286  1.00  0.00     0.017 C 
HETATM   11  C11 UNL     1      43.580  14.118   9.752  1.00  0.00     0.037 C 
HETATM   12  C12 UNL     1      44.631  14.411  10.731  1.00  0.00     0.012 C 
HETATM   13  C13 UNL     1      44.477  15.487  11.717  1.00  0.00     0.022 A 
HETATM   14  C14 UNL     1      44.595  15.266  13.182  1.00  0.00     0.127 A 
HETATM   15  C15 UNL     1      43.298  15.707  12.482  1.00  0.00     0.022 A 
HETATM   16  C16 UNL     1      42.180  14.746  12.493  1.00  0.00     0.016 C 
HETATM   17  C17 UNL     1      40.936  15.304  11.779  1.00  0.00     0.044 C 
HETATM   18  C18 UNL     1      39.667  14.774  12.314  1.00  0.00     0.063 A 
ENDROOT
BRANCH   4  19
HETATM   19  C5  UNL     1      38.382  12.622  11.900  1.00  0.00     0.092 C 
HETATM   20  C6  UNL     1      37.751  11.817  10.785  1.00  0.00     0.025 C 
HETATM   21 BR1  UNL     1      39.873  11.613  12.595  1.00  0.00    -0.088 Br
ENDBRANCH   4  19
BRANCH   3  22
HETATM   22  O1  UNL     1      36.610  14.454  12.452  1.00  0.00    -0.388 OA
ATOM     23  H1  UNL     1      36.133  15.075  12.989  1.00  0.00     0.210 HD
ENDBRANCH   3  22
BRANCH  14  24
HETATM   24  O3  UNL     1      45.225  16.210  13.991  1.00  0.00    -0.395 OA
ATOM     25  H3  UNL     1      44.722  16.726  14.611  1.00  0.00     0.210 HD
ENDBRANCH  14  24
TORSDOF 3
ENDMDL
