MODEL 1
REMARK VINA RESULT: -7.346512965      0.000      0.000
REMARK  5 active torsions:
REMARK  status: ('A' for Active; 'I' for Inactive)
REMARK    1  A    between atoms: C2_2  and  C3_3 
REMARK    2  A    between atoms: C3_3  and  N2_7 
REMARK    3  A    between atoms: C11_18  and  C12_19 
REMARK       I    between atoms: C12_19  and  N3_21 
REMARK    4  A    between atoms: N3_21  and  C13_23 
REMARK    5  A    between atoms: C17_27  and  O2_28 
ROOT
HETATM    1  N2  UNL     1      41.637  15.135  10.969  1.00  0.00    -0.351 N 
HETATM    2  C4  UNL     1      41.165  15.505   9.618  1.00  0.00     0.127 C 
HETATM    3  C5  UNL     1      41.805  16.799   9.238  1.00  0.00     0.030 C 
HETATM    4  C6  UNL     1      41.769  17.857  10.289  1.00  0.00     0.078 C 
HETATM    5  S1  UNL     1      40.764  17.471  11.720  1.00  0.00    -0.136 SA
HETATM    6  C7  UNL     1      40.868  15.647  12.026  1.00  0.00     0.100 C 
HETATM    7  C8  UNL     1      41.424  15.536  13.415  1.00  0.00     0.122 C 
HETATM    8  C9  UNL     1      40.316  16.246  14.210  1.00  0.00     0.247 C 
HETATM    9  F1  UNL     1      40.116  15.657  15.428  1.00  0.00    -0.206 F 
HETATM   10  F2  UNL     1      40.617  17.579  14.400  1.00  0.00    -0.206 F 
HETATM   11  C10 UNL     1      39.046  16.095  13.371  1.00  0.00     0.096 C 
HETATM   12  C11 UNL     1      39.469  15.207  12.200  1.00  0.00     0.122 C 
ENDROOT
BRANCH  12  13
HETATM   13  C12 UNL     1      39.181  13.813  12.430  1.00  0.00     0.225 C 
HETATM   14  O1  UNL     1      38.608  13.499  13.538  1.00  0.00    -0.273 OA
HETATM   15  N3  UNL     1      39.439  12.705  11.600  1.00  0.00    -0.356 N 
ATOM     16  H3  UNL     1      39.891  12.894  10.705  1.00  0.00     0.162 HD
BRANCH  15  17
HETATM   17  C13 UNL     1      39.125  11.335  11.895  1.00  0.00     0.086 C 
HETATM   18  C14 UNL     1      40.324  10.463  12.061  1.00  0.00     0.025 C 
HETATM   19  C15 UNL     1      40.317   9.239  11.182  1.00  0.00     0.004 C 
HETATM   20  C16 UNL     1      39.039   8.445  11.309  1.00  0.00     0.032 C 
HETATM   21  C17 UNL     1      37.829   9.331  11.485  1.00  0.00     0.120 C 
HETATM   22  C18 UNL     1      38.196  10.700  10.897  1.00  0.00     0.056 C 
BRANCH  21  23
HETATM   23  O2  UNL     1      36.698   8.844  10.870  1.00  0.00    -0.396 OA
ATOM     24  H2  UNL     1      36.675   9.007   9.934  1.00  0.00     0.210 HD
ENDBRANCH  21  23
ENDBRANCH  15  17
ENDBRANCH  12  13
BRANCH   1  25
HETATM   25  C3  UNL     1      42.795  14.333  10.996  1.00  0.00     0.073 C 
HETATM   26  N1  UNL     1      42.630  13.113  10.539  1.00  0.00    -0.389 N 
ATOM     27  H12 UNL     1      43.468  12.532  10.559  1.00  0.00     0.157 HD
ATOM     28  H11 UNL     1      41.701  12.846  10.213  1.00  0.00     0.157 HD
BRANCH  25  29
HETATM   29  C2  UNL     1      44.119  14.714  11.461  1.00  0.00     0.071 C 
HETATM   30  C1  UNL     1      45.152  14.480  10.361  1.00  0.00     0.013 C 
ENDBRANCH  25  29
ENDBRANCH   1  25
TORSDOF 5
ENDMDL
MODEL 2
REMARK VINA RESULT: -7.140395588      6.668      8.545
REMARK  5 active torsions:
REMARK  status: ('A' for Active; 'I' for Inactive)
REMARK    1  A    between atoms: C2_2  and  C3_3 
REMARK    2  A    between atoms: C3_3  and  N2_7 
REMARK    3  A    between atoms: C11_18  and  C12_19 
REMARK       I    between atoms: C12_19  and  N3_21 
REMARK    4  A    between atoms: N3_21  and  C13_23 
REMARK    5  A    between atoms: C17_27  and  O2_28 
ROOT
HETATM    1  N2  UNL     1      32.659  12.154  11.801  1.00  0.00    -0.351 N 
HETATM    2  C4  UNL     1      32.911  12.677  13.161  1.00  0.00     0.127 C 
HETATM    3  C5  UNL     1      31.959  13.799  13.413  1.00  0.00     0.030 C 
HETATM    4  C6  UNL     1      31.843  14.793  12.307  1.00  0.00     0.078 C 
HETATM    5  S1  UNL     1      33.033  14.598  10.983  1.00  0.00    -0.136 SA
HETATM    6  C7  UNL     1      33.381  12.790  10.778  1.00  0.00     0.100 C 
HETATM    7  C8  UNL     1      32.992  12.496   9.359  1.00  0.00     0.122 C 
HETATM    8  C9  UNL     1      33.972  13.415   8.612  1.00  0.00     0.247 C 
HETATM    9  F1  UNL     1      34.410  12.842   7.450  1.00  0.00    -0.206 F 
HETATM   10  F2  UNL     1      33.389  14.631   8.320  1.00  0.00    -0.206 F 
HETATM   11  C10 UNL     1      35.162  13.600   9.554  1.00  0.00     0.096 C 
HETATM   12  C11 UNL     1      34.853  12.684  10.740  1.00  0.00     0.122 C 
ENDROOT
BRANCH  12  13
HETATM   13  C12 UNL     1      35.475  11.389  10.615  1.00  0.00     0.225 C 
HETATM   14  O1  UNL     1      36.758  11.350  10.542  1.00  0.00    -0.273 OA
HETATM   15  N3  UNL     1      34.872  10.118  10.560  1.00  0.00    -0.356 N 
ATOM     16  H3  UNL     1      33.854  10.086  10.615  1.00  0.00     0.162 HD
BRANCH  15  17
HETATM   17  C13 UNL     1      35.556   8.862  10.432  1.00  0.00     0.086 C 
HETATM   18  C14 UNL     1      34.656   7.674  10.496  1.00  0.00     0.025 C 
HETATM   19  C15 UNL     1      35.056   6.657  11.533  1.00  0.00     0.004 C 
HETATM   20  C16 UNL     1      36.503   6.242  11.407  1.00  0.00     0.032 C 
HETATM   21  C17 UNL     1      37.395   7.392  11.002  1.00  0.00     0.120 C 
HETATM   22  C18 UNL     1      36.673   8.679  11.423  1.00  0.00     0.056 C 
BRANCH  21  23
HETATM   23  O2  UNL     1      38.645   7.346  11.577  1.00  0.00    -0.396 OA
ATOM     24  H2  UNL     1      38.625   7.297  12.526  1.00  0.00     0.210 HD
ENDBRANCH  21  23
ENDBRANCH  15  17
ENDBRANCH  12  13
BRANCH   1  25
HETATM   25  C3  UNL     1      31.726  11.102  11.732  1.00  0.00     0.073 C 
HETATM   26  N1  UNL     1      32.073  10.014  12.380  1.00  0.00    -0.389 N 
ATOM     27  H12 UNL     1      31.396   9.252  12.330  1.00  0.00     0.157 HD
ATOM     28  H11 UNL     1      32.970  10.013  12.866  1.00  0.00     0.157 HD
BRANCH  25  29
HETATM   29  C2  UNL     1      30.446  11.104  11.039  1.00  0.00     0.071 C 
HETATM   30  C1  UNL     1      29.492  12.098  11.695  1.00  0.00     0.013 C 
ENDBRANCH  25  29
ENDBRANCH   1  25
TORSDOF 5
ENDMDL
MODEL 3
REMARK VINA RESULT: -7.002031535      4.391      7.316
REMARK  5 active torsions:
REMARK  status: ('A' for Active; 'I' for Inactive)
REMARK    1  A    between atoms: C2_2  and  C3_3 
REMARK    2  A    between atoms: C3_3  and  N2_7 
REMARK    3  A    between atoms: C11_18  and  C12_19 
REMARK       I    between atoms: C12_19  and  N3_21 
REMARK    4  A    between atoms: N3_21  and  C13_23 
REMARK    5  A    between atoms: C17_27  and  O2_28 
ROOT
HETATM    1  N2  UNL     1      40.599  16.617  11.841  1.00  0.00    -0.351 N 
HETATM    2  C4  UNL     1      41.181  16.324  13.167  1.00  0.00     0.127 C 
HETATM    3  C5  UNL     1      42.097  15.154  13.026  1.00  0.00     0.030 C 
HETATM    4  C6  UNL     1      41.543  14.005  12.252  1.00  0.00     0.078 C 
HETATM    5  S1  UNL     1      39.807  14.136  11.836  1.00  0.00    -0.136 SA
HETATM    6  C7  UNL     1      39.414  15.924  11.547  1.00  0.00     0.100 C 
HETATM    7  C8  UNL     1      38.907  15.967  10.135  1.00  0.00     0.122 C 
HETATM    8  C9  UNL     1      37.671  15.062  10.261  1.00  0.00     0.247 C 
HETATM    9  F1  UNL     1      36.642  15.508   9.478  1.00  0.00    -0.206 F 
HETATM   10  F2  UNL     1      37.970  13.761   9.913  1.00  0.00    -0.206 F 
HETATM   11  C10 UNL     1      37.249  15.144  11.729  1.00  0.00     0.096 C 
HETATM   12  C11 UNL     1      38.194  16.181  12.338  1.00  0.00     0.122 C 
ENDROOT
BRANCH  12  13
HETATM   13  C12 UNL     1      37.622  17.504  12.361  1.00  0.00     0.225 C 
HETATM   14  O1  UNL     1      37.054  17.887  13.450  1.00  0.00    -0.273 OA
HETATM   15  N3  UNL     1      37.589  18.474  11.341  1.00  0.00    -0.356 N 
ATOM     16  H3  UNL     1      38.027  18.226  10.453  1.00  0.00     0.162 HD
BRANCH  15  17
HETATM   17  C13 UNL     1      36.997  19.779  11.433  1.00  0.00     0.086 C 
HETATM   18  C14 UNL     1      36.273  20.202  10.199  1.00  0.00     0.025 C 
HETATM   19  C15 UNL     1      36.722  21.532   9.651  1.00  0.00     0.004 C 
HETATM   20  C16 UNL     1      36.707  22.622  10.696  1.00  0.00     0.032 C 
HETATM   21  C17 UNL     1      37.124  22.116  12.057  1.00  0.00     0.120 C 
HETATM   22  C18 UNL     1      37.971  20.858  11.819  1.00  0.00     0.056 C 
BRANCH  21  23
HETATM   23  O2  UNL     1      37.842  23.035  12.789  1.00  0.00    -0.396 OA
ATOM     24  H2  UNL     1      38.389  22.642  13.459  1.00  0.00     0.210 HD
ENDBRANCH  21  23
ENDBRANCH  15  17
ENDBRANCH  12  13
BRANCH   1  25
HETATM   25  C3  UNL     1      41.324  17.541  11.063  1.00  0.00     0.073 C 
HETATM   26  N1  UNL     1      41.073  18.802  11.331  1.00  0.00    -0.389 N 
ATOM     27  H12 UNL     1      41.598  19.472  10.768  1.00  0.00     0.157 HD
ATOM     28  H11 UNL     1      40.388  19.009  12.059  1.00  0.00     0.157 HD
BRANCH  25  29
HETATM   29  C2  UNL     1      42.301  17.246  10.027  1.00  0.00     0.071 C 
HETATM   30  C1  UNL     1      43.715  17.488  10.550  1.00  0.00     0.013 C 
ENDBRANCH  25  29
ENDBRANCH   1  25
TORSDOF 5
ENDMDL
MODEL 4
REMARK VINA RESULT: -6.980612738      2.482      3.984
REMARK  5 active torsions:
REMARK  status: ('A' for Active; 'I' for Inactive)
REMARK    1  A    between atoms: C2_2  and  C3_3 
REMARK    2  A    between atoms: C3_3  and  N2_7 
REMARK    3  A    between atoms: C11_18  and  C12_19 
REMARK       I    between atoms: C12_19  and  N3_21 
REMARK    4  A    between atoms: N3_21  and  C13_23 
REMARK    5  A    between atoms: C17_27  and  O2_28 
ROOT
HETATM    1  N2  UNL     1      37.474  16.030  11.349  1.00  0.00    -0.351 N 
HETATM    2  C4  UNL     1      36.442  16.594  12.244  1.00  0.00     0.127 C 
HETATM    3  C5  UNL     1      36.242  18.028  11.880  1.00  0.00     0.030 C 
HETATM    4  C6  UNL     1      37.495  18.816  11.697  1.00  0.00     0.078 C 
HETATM    5  S1  UNL     1      39.000  17.971  12.174  1.00  0.00    -0.136 SA
HETATM    6  C7  UNL     1      38.794  16.168  11.805  1.00  0.00     0.100 C 
HETATM    7  C8  UNL     1      39.904  15.858  10.844  1.00  0.00     0.122 C 
HETATM    8  C9  UNL     1      41.124  16.187  11.721  1.00  0.00     0.247 C 
HETATM    9  F1  UNL     1      42.159  15.327  11.481  1.00  0.00    -0.206 F 
HETATM   10  F2  UNL     1      41.555  17.480  11.507  1.00  0.00    -0.206 F 
HETATM   11  C10 UNL     1      40.652  16.007  13.164  1.00  0.00     0.096 C 
HETATM   12  C11 UNL     1      39.226  15.473  13.034  1.00  0.00     0.122 C 
ENDROOT
BRANCH  12  13
HETATM   13  C12 UNL     1      39.165  14.034  13.101  1.00  0.00     0.225 C 
HETATM   14  O1  UNL     1      38.982  13.499  14.257  1.00  0.00    -0.273 OA
HETATM   15  N3  UNL     1      39.281  13.092  12.061  1.00  0.00    -0.356 N 
ATOM     16  H3  UNL     1      39.427  13.458  11.120  1.00  0.00     0.162 HD
BRANCH  15  17
HETATM   17  C13 UNL     1      39.214  11.664  12.200  1.00  0.00     0.086 C 
HETATM   18  C14 UNL     1      40.548  11.004  12.300  1.00  0.00     0.025 C 
HETATM   19  C15 UNL     1      40.762   9.901  11.296  1.00  0.00     0.004 C 
HETATM   20  C16 UNL     1      39.645   8.885  11.306  1.00  0.00     0.032 C 
HETATM   21  C17 UNL     1      38.295   9.520  11.547  1.00  0.00     0.120 C 
HETATM   22  C18 UNL     1      38.417  10.989  11.118  1.00  0.00     0.056 C 
BRANCH  21  23
HETATM   23  O2  UNL     1      37.271   8.912  10.857  1.00  0.00    -0.396 OA
ATOM     24  H2  UNL     1      36.408   9.200  11.130  1.00  0.00     0.210 HD
ENDBRANCH  21  23
ENDBRANCH  15  17
ENDBRANCH  12  13
BRANCH   1  25
HETATM   25  C3  UNL     1      36.981  15.446  10.166  1.00  0.00     0.073 C 
HETATM   26  N1  UNL     1      36.978  16.240   9.120  1.00  0.00    -0.389 N 
ATOM     27  H12 UNL     1      36.620  15.817   8.263  1.00  0.00     0.157 HD
ATOM     28  H11 UNL     1      37.319  17.194   9.243  1.00  0.00     0.157 HD
BRANCH  25  29
HETATM   29  C2  UNL     1      36.495  14.086   9.990  1.00  0.00     0.071 C 
HETATM   30  C1  UNL     1      35.077  14.101   9.423  1.00  0.00     0.013 C 
ENDBRANCH  25  29
ENDBRANCH   1  25
TORSDOF 5
ENDMDL
MODEL 5
REMARK VINA RESULT: -6.980102691      3.672      6.076
REMARK  5 active torsions:
REMARK  status: ('A' for Active; 'I' for Inactive)
REMARK    1  A    between atoms: C2_2  and  C3_3 
REMARK    2  A    between atoms: C3_3  and  N2_7 
REMARK    3  A    between atoms: C11_18  and  C12_19 
REMARK       I    between atoms: C12_19  and  N3_21 
REMARK    4  A    between atoms: N3_21  and  C13_23 
REMARK    5  A    between atoms: C17_27  and  O2_28 
ROOT
HETATM    1  N2  UNL     1      38.916  16.979  12.016  1.00  0.00    -0.351 N 
HETATM    2  C4  UNL     1      38.355  18.286  11.613  1.00  0.00     0.127 C 
HETATM    3  C5  UNL     1      37.186  18.582  12.492  1.00  0.00     0.030 C 
HETATM    4  C6  UNL     1      36.228  17.453  12.676  1.00  0.00     0.078 C 
HETATM    5  S1  UNL     1      36.522  16.030  11.629  1.00  0.00    -0.136 SA
HETATM    6  C7  UNL     1      38.349  15.867  11.373  1.00  0.00     0.100 C 
HETATM    7  C8  UNL     1      38.677  14.504  11.909  1.00  0.00     0.122 C 
HETATM    8  C9  UNL     1      37.828  13.630  10.971  1.00  0.00     0.247 C 
HETATM    9  F1  UNL     1      38.462  12.456  10.671  1.00  0.00    -0.206 F 
HETATM   10  F2  UNL     1      36.600  13.347  11.532  1.00  0.00    -0.206 F 
HETATM   11  C10 UNL     1      37.661  14.446   9.689  1.00  0.00     0.096 C 
HETATM   12  C11 UNL     1      38.518  15.692   9.917  1.00  0.00     0.122 C 
ENDROOT
BRANCH  12  13
HETATM   13  C12 UNL     1      39.843  15.561   9.361  1.00  0.00     0.225 C 
HETATM   14  O1  UNL     1      39.986  15.799   8.105  1.00  0.00    -0.273 OA
HETATM   15  N3  UNL     1      41.042  15.200  10.003  1.00  0.00    -0.356 N 
ATOM     16  H3  UNL     1      40.990  15.000  11.003  1.00  0.00     0.162 HD
BRANCH  15  17
HETATM   17  C13 UNL     1      42.333  15.086   9.384  1.00  0.00     0.086 C 
HETATM   18  C14 UNL     1      43.138  13.929   9.873  1.00  0.00     0.025 C 
HETATM   19  C15 UNL     1      44.510  14.304  10.371  1.00  0.00     0.004 C 
HETATM   20  C16 UNL     1      45.283  15.125   9.367  1.00  0.00     0.032 C 
HETATM   21  C17 UNL     1      44.398  16.086   8.609  1.00  0.00     0.120 C 
HETATM   22  C18 UNL     1      43.165  16.335   9.487  1.00  0.00     0.056 C 
BRANCH  21  23
HETATM   23  O2  UNL     1      45.013  17.282   8.313  1.00  0.00    -0.396 OA
ATOM     24  H2  UNL     1      45.275  17.774   9.082  1.00  0.00     0.210 HD
ENDBRANCH  21  23
ENDBRANCH  15  17
ENDBRANCH  12  13
BRANCH   1  25
HETATM   25  C3  UNL     1      39.929  17.041  12.992  1.00  0.00     0.073 C 
HETATM   26  N1  UNL     1      41.122  17.336  12.529  1.00  0.00    -0.389 N 
ATOM     27  H12 UNL     1      41.857  17.381  13.237  1.00  0.00     0.157 HD
ATOM     28  H11 UNL     1      41.221  17.487  11.525  1.00  0.00     0.157 HD
BRANCH  25  29
HETATM   29  C2  UNL     1      39.788  16.826  14.424  1.00  0.00     0.071 C 
HETATM   30  C1  UNL     1      39.578  18.158  15.140  1.00  0.00     0.013 C 
ENDBRANCH  25  29
ENDBRANCH   1  25
TORSDOF 5
ENDMDL
