MODEL 1
REMARK VINA RESULT: -8.960837672      0.000      0.000
REMARK  14 active torsions:
REMARK  status: ('A' for Active; 'I' for Inactive)
REMARK    1  A    between atoms: C2_2  and  O2_4 
REMARK    2  A    between atoms: O2_4  and  C3_5 
REMARK    3  A    between atoms: C4_6  and  O3_7 
REMARK    4  A    between atoms: O3_7  and  C5_8 
REMARK    5  A    between atoms: C5_8  and  C6_10 
REMARK    6  A    between atoms: C6_10  and  O5_11 
REMARK    7  A    between atoms: C6_10  and  C7_13 
REMARK    8  A    between atoms: C10_16  and  O6_18 
REMARK    9  A    between atoms: C16_25  and  C17_26 
REMARK   10  A    between atoms: C17_26  and  C18_27 
REMARK   11  A    between atoms: C18_27  and  O8_28 
REMARK   12  A    between atoms: C18_27  and  C19_30 
REMARK   13  A    between atoms: C20_31  and  C21_32 
REMARK   14  A    between atoms: C21_32  and  C22_33 
ROOT
HETATM    1  C3  UNL     1      45.761 -28.202  15.133  1.00  0.00     0.183 C 
HETATM    2  C4  UNL     1      45.953 -26.840  14.515  1.00  0.00     0.198 C 
HETATM    3  C10 UNL     1      46.599 -27.591  13.337  1.00  0.00     0.101 C 
HETATM    4  C11 UNL     1      45.637 -28.018  12.280  1.00  0.00     0.050 C 
HETATM    5  C12 UNL     1      46.983 -28.649  14.360  1.00  0.00     0.086 C 
HETATM    6  C13 UNL     1      46.843 -30.040  13.959  1.00  0.00     0.145 C 
HETATM    7  O7  UNL     1      45.704 -30.445  13.670  1.00  0.00    -0.296 OA
HETATM    8  C14 UNL     1      47.956 -30.993  13.876  1.00  0.00     0.056 C 
HETATM    9  C15 UNL     1      47.767 -31.760  12.579  1.00  0.00     0.018 C 
HETATM   10  C16 UNL     1      49.312 -30.383  13.929  1.00  0.00    -0.001 C 
HETATM   11  C30 UNL     1      49.402 -28.923  14.166  1.00  0.00     0.011 C 
HETATM   12  C31 UNL     1      48.304 -28.324  14.976  1.00  0.00     0.003 C 
HETATM   13  C32 UNL     1      48.428 -28.684  16.426  1.00  0.00     0.011 C 
ENDROOT
BRANCH   1  14
HETATM   14  O2  UNL     1      45.822 -28.299  16.517  1.00  0.00    -0.312 OA
BRANCH  14  15
HETATM   15  C2  UNL     1      44.807 -27.783  17.311  1.00  0.00     0.255 C 
HETATM   16  C1  UNL     1      44.422 -26.350  17.343  1.00  0.00     0.126 C 
HETATM   17  O1  UNL     1      44.171 -28.573  18.051  1.00  0.00    -0.266 OA
ENDBRANCH  14  15
ENDBRANCH   1  14
BRANCH   3  18
HETATM   18  O6  UNL     1      47.648 -26.806  12.868  1.00  0.00    -0.386 OA
ATOM     19  H6  UNL     1      48.122 -27.319  12.224  1.00  0.00     0.210 HD
ENDBRANCH   3  18
BRANCH   2  20
HETATM   20  O3  UNL     1      44.765 -26.153  14.165  1.00  0.00    -0.308 OA
BRANCH  20  21
HETATM   21  C5  UNL     1      44.907 -24.792  13.872  1.00  0.00     0.288 C 
HETATM   22  O4  UNL     1      46.036 -24.316  13.593  1.00  0.00    -0.262 OA
BRANCH  21  23
HETATM   23  C6  UNL     1      43.686 -23.947  13.902  1.00  0.00     0.221 C 
BRANCH  23  24
HETATM   24  O5  UNL     1      43.982 -22.651  14.314  1.00  0.00    -0.385 OA
ATOM     25  H5  UNL     1      44.566 -22.220  13.701  1.00  0.00     0.210 HD
ENDBRANCH  23  24
BRANCH  23  26
HETATM   26  C7  UNL     1      42.693 -24.557  14.894  1.00  0.00     0.016 C 
HETATM   27  C8  UNL     1      42.668 -23.751  16.172  1.00  0.00     0.012 C 
HETATM   28  C9  UNL     1      41.352 -24.602  14.206  1.00  0.00     0.012 C 
ENDBRANCH  23  26
ENDBRANCH  21  23
ENDBRANCH  20  21
ENDBRANCH   2  20
BRANCH  10  29
HETATM   29  C17 UNL     1      50.222 -31.134  14.864  1.00  0.00     0.041 C 
BRANCH  29  30
HETATM   30  C18 UNL     1      51.345 -31.887  14.153  1.00  0.00     0.141 C 
BRANCH  30  31
HETATM   31  O8  UNL     1      51.024 -32.178  12.867  1.00  0.00    -0.392 OA
ATOM     32  H8  UNL     1      51.755 -32.031  12.278  1.00  0.00     0.210 HD
ENDBRANCH  30  31
BRANCH  30  33
HETATM   33  C19 UNL     1      52.619 -31.213  14.310  1.00  0.00     0.000 C 
HETATM   34  C20 UNL     1      53.694 -31.591  14.902  1.00  0.00    -0.027 C 
BRANCH  34  35
HETATM   35  C21 UNL     1      54.074 -32.800  15.638  1.00  0.00     0.039 C 
BRANCH  35  36
HETATM   36  C22 UNL     1      55.518 -32.757  16.042  1.00  0.00     0.051 C 
HETATM   37  C23 UNL     1      56.402 -33.805  15.575  1.00  0.00    -0.078 C 
HETATM   38  C24 UNL     1      56.510 -34.241  14.145  1.00  0.00     0.043 C 
HETATM   39  C25 UNL     1      57.196 -34.399  16.501  1.00  0.00     0.008 C 
HETATM   40  C26 UNL     1      57.073 -33.906  17.887  1.00  0.00     0.148 C 
HETATM   41  C27 UNL     1      57.082 -32.390  17.904  1.00  0.00     0.074 C 
HETATM   42  O9  UNL     1      55.722 -33.858  18.198  1.00  0.00    -0.370 OA
HETATM   43  C28 UNL     1      55.634 -32.649  17.557  1.00  0.00     0.068 C 
HETATM   44  C29 UNL     1      54.718 -31.619  18.147  1.00  0.00     0.047 C 
ENDBRANCH  35  36
ENDBRANCH  34  35
ENDBRANCH  30  33
ENDBRANCH  29  30
ENDBRANCH  10  29
TORSDOF 14
ENDMDL
MODEL 2
REMARK VINA RESULT: -8.948127490      0.857      1.273
REMARK  14 active torsions:
REMARK  status: ('A' for Active; 'I' for Inactive)
REMARK    1  A    between atoms: C2_2  and  O2_4 
REMARK    2  A    between atoms: O2_4  and  C3_5 
REMARK    3  A    between atoms: C4_6  and  O3_7 
REMARK    4  A    between atoms: O3_7  and  C5_8 
REMARK    5  A    between atoms: C5_8  and  C6_10 
REMARK    6  A    between atoms: C6_10  and  O5_11 
REMARK    7  A    between atoms: C6_10  and  C7_13 
REMARK    8  A    between atoms: C10_16  and  O6_18 
REMARK    9  A    between atoms: C16_25  and  C17_26 
REMARK   10  A    between atoms: C17_26  and  C18_27 
REMARK   11  A    between atoms: C18_27  and  O8_28 
REMARK   12  A    between atoms: C18_27  and  C19_30 
REMARK   13  A    between atoms: C20_31  and  C21_32 
REMARK   14  A    between atoms: C21_32  and  C22_33 
ROOT
HETATM    1  C3  UNL     1      45.521 -27.970  15.092  1.00  0.00     0.183 C 
HETATM    2  C4  UNL     1      45.659 -26.639  14.397  1.00  0.00     0.198 C 
HETATM    3  C10 UNL     1      46.151 -27.452  13.185  1.00  0.00     0.101 C 
HETATM    4  C11 UNL     1      45.064 -27.903  12.268  1.00  0.00     0.050 C 
HETATM    5  C12 UNL     1      46.637 -28.475  14.202  1.00  0.00     0.086 C 
HETATM    6  C13 UNL     1      46.428 -29.877  13.882  1.00  0.00     0.145 C 
HETATM    7  O7  UNL     1      45.257 -30.271  13.746  1.00  0.00    -0.296 OA
HETATM    8  C14 UNL     1      47.508 -30.856  13.711  1.00  0.00     0.056 C 
HETATM    9  C15 UNL     1      47.156 -31.672  12.479  1.00  0.00     0.018 C 
HETATM   10  C16 UNL     1      48.870 -30.272  13.578  1.00  0.00    -0.001 C 
HETATM   11  C30 UNL     1      49.011 -28.806  13.738  1.00  0.00     0.011 C 
HETATM   12  C31 UNL     1      48.025 -28.151  14.644  1.00  0.00     0.003 C 
HETATM   13  C32 UNL     1      48.314 -28.453  16.084  1.00  0.00     0.011 C 
ENDROOT
BRANCH   1  14
HETATM   14  O2  UNL     1      45.743 -28.010  16.462  1.00  0.00    -0.312 OA
BRANCH  14  15
HETATM   15  C2  UNL     1      44.762 -27.599  17.354  1.00  0.00     0.255 C 
HETATM   16  C1  UNL     1      44.311 -26.193  17.504  1.00  0.00     0.126 C 
HETATM   17  O1  UNL     1      44.219 -28.466  18.082  1.00  0.00    -0.266 OA
ENDBRANCH  14  15
ENDBRANCH   1  14
BRANCH   3  18
HETATM   18  O6  UNL     1      47.149 -26.709  12.563  1.00  0.00    -0.386 OA
ATOM     19  H6  UNL     1      47.966 -27.182  12.673  1.00  0.00     0.210 HD
ENDBRANCH   3  18
BRANCH   2  20
HETATM   20  O3  UNL     1      44.449 -25.943  14.158  1.00  0.00    -0.308 OA
BRANCH  20  21
HETATM   21  C5  UNL     1      44.573 -24.581  13.863  1.00  0.00     0.288 C 
HETATM   22  O4  UNL     1      45.624 -24.138  13.336  1.00  0.00    -0.262 OA
BRANCH  21  23
HETATM   23  C6  UNL     1      43.428 -23.695  14.193  1.00  0.00     0.221 C 
BRANCH  23  24
HETATM   24  O5  UNL     1      43.838 -22.609  14.961  1.00  0.00    -0.385 OA
ATOM     25  H5  UNL     1      44.577 -22.166  14.563  1.00  0.00     0.210 HD
ENDBRANCH  23  24
BRANCH  23  26
HETATM   26  C7  UNL     1      42.402 -24.499  14.996  1.00  0.00     0.016 C 
HETATM   27  C8  UNL     1      42.187 -23.866  16.351  1.00  0.00     0.012 C 
HETATM   28  C9  UNL     1      41.141 -24.557  14.171  1.00  0.00     0.012 C 
ENDBRANCH  23  26
ENDBRANCH  21  23
ENDBRANCH  20  21
ENDBRANCH   2  20
BRANCH  10  29
HETATM   29  C17 UNL     1      49.873 -31.002  14.432  1.00  0.00     0.041 C 
BRANCH  29  30
HETATM   30  C18 UNL     1      50.864 -31.844  13.630  1.00  0.00     0.141 C 
BRANCH  30  31
HETATM   31  O8  UNL     1      50.430 -32.067  12.364  1.00  0.00    -0.392 OA
ATOM     32  H8  UNL     1      51.125 -31.953  11.726  1.00  0.00     0.210 HD
ENDBRANCH  30  31
BRANCH  30  33
HETATM   33  C19 UNL     1      52.207 -31.304  13.712  1.00  0.00     0.000 C 
HETATM   34  C20 UNL     1      53.178 -31.602  14.497  1.00  0.00    -0.027 C 
BRANCH  34  35
HETATM   35  C21 UNL     1      53.336 -32.563  15.594  1.00  0.00     0.039 C 
BRANCH  35  36
HETATM   36  C22 UNL     1      54.240 -32.022  16.661  1.00  0.00     0.051 C 
HETATM   37  C23 UNL     1      55.443 -32.759  16.993  1.00  0.00    -0.078 C 
HETATM   38  C24 UNL     1      56.438 -33.245  15.983  1.00  0.00     0.043 C 
HETATM   39  C25 UNL     1      55.681 -32.989  18.309  1.00  0.00     0.008 C 
HETATM   40  C26 UNL     1      54.686 -32.457  19.260  1.00  0.00     0.148 C 
HETATM   41  C27 UNL     1      54.340 -31.024  18.908  1.00  0.00     0.074 C 
HETATM   42  O9  UNL     1      53.428 -32.827  18.805  1.00  0.00    -0.370 OA
HETATM   43  C28 UNL     1      53.449 -31.765  17.937  1.00  0.00     0.068 C 
HETATM   44  C29 UNL     1      52.155 -31.047  17.695  1.00  0.00     0.047 C 
ENDBRANCH  35  36
ENDBRANCH  34  35
ENDBRANCH  30  33
ENDBRANCH  29  30
ENDBRANCH  10  29
TORSDOF 14
ENDMDL
MODEL 3
REMARK VINA RESULT: -8.535530909      1.419      2.165
REMARK  14 active torsions:
REMARK  status: ('A' for Active; 'I' for Inactive)
REMARK    1  A    between atoms: C2_2  and  O2_4 
REMARK    2  A    between atoms: O2_4  and  C3_5 
REMARK    3  A    between atoms: C4_6  and  O3_7 
REMARK    4  A    between atoms: O3_7  and  C5_8 
REMARK    5  A    between atoms: C5_8  and  C6_10 
REMARK    6  A    between atoms: C6_10  and  O5_11 
REMARK    7  A    between atoms: C6_10  and  C7_13 
REMARK    8  A    between atoms: C10_16  and  O6_18 
REMARK    9  A    between atoms: C16_25  and  C17_26 
REMARK   10  A    between atoms: C17_26  and  C18_27 
REMARK   11  A    between atoms: C18_27  and  O8_28 
REMARK   12  A    between atoms: C18_27  and  C19_30 
REMARK   13  A    between atoms: C20_31  and  C21_32 
REMARK   14  A    between atoms: C21_32  and  C22_33 
ROOT
HETATM    1  C3  UNL     1      45.654 -27.558  14.786  1.00  0.00     0.183 C 
HETATM    2  C4  UNL     1      45.913 -26.298  14.000  1.00  0.00     0.198 C 
HETATM    3  C10 UNL     1      46.335 -27.235  12.853  1.00  0.00     0.101 C 
HETATM    4  C11 UNL     1      45.216 -27.652  11.960  1.00  0.00     0.050 C 
HETATM    5  C12 UNL     1      46.724 -28.221  13.945  1.00  0.00     0.086 C 
HETATM    6  C13 UNL     1      46.393 -29.619  13.723  1.00  0.00     0.145 C 
HETATM    7  O7  UNL     1      45.192 -29.916  13.603  1.00  0.00    -0.296 OA
HETATM    8  C14 UNL     1      47.382 -30.700  13.632  1.00  0.00     0.056 C 
HETATM    9  C15 UNL     1      46.964 -31.567  12.458  1.00  0.00     0.018 C 
HETATM   10  C16 UNL     1      48.791 -30.249  13.472  1.00  0.00    -0.001 C 
HETATM   11  C30 UNL     1      49.061 -28.794  13.529  1.00  0.00     0.011 C 
HETATM   12  C31 UNL     1      48.134 -27.991  14.377  1.00  0.00     0.003 C 
HETATM   13  C32 UNL     1      48.389 -28.214  15.837  1.00  0.00     0.011 C 
ENDROOT
BRANCH   1  14
HETATM   14  O2  UNL     1      45.867 -27.520  16.158  1.00  0.00    -0.312 OA
BRANCH  14  15
HETATM   15  C2  UNL     1      44.827 -27.235  17.031  1.00  0.00     0.255 C 
HETATM   16  C1  UNL     1      44.123 -25.929  17.090  1.00  0.00     0.126 C 
HETATM   17  O1  UNL     1      44.452 -28.135  17.823  1.00  0.00    -0.266 OA
ENDBRANCH  14  15
ENDBRANCH   1  14
BRANCH   3  18
HETATM   18  O6  UNL     1      47.398 -26.630  12.190  1.00  0.00    -0.386 OA
ATOM     19  H6  UNL     1      47.516 -27.087  11.365  1.00  0.00     0.210 HD
ENDBRANCH   3  18
BRANCH   2  20
HETATM   20  O3  UNL     1      44.771 -25.516  13.700  1.00  0.00    -0.308 OA
BRANCH  20  21
HETATM   21  C5  UNL     1      44.966 -24.130  13.671  1.00  0.00     0.288 C 
HETATM   22  O4  UNL     1      44.133 -23.360  14.211  1.00  0.00    -0.262 OA
BRANCH  21  23
HETATM   23  C6  UNL     1      46.179 -23.617  12.986  1.00  0.00     0.221 C 
BRANCH  23  24
HETATM   24  O5  UNL     1      46.806 -22.633  13.744  1.00  0.00    -0.385 OA
ATOM     25  H5  UNL     1      47.434 -22.145  13.223  1.00  0.00     0.210 HD
ENDBRANCH  23  24
BRANCH  23  26
HETATM   26  C7  UNL     1      45.763 -23.006  11.645  1.00  0.00     0.016 C 
HETATM   27  C8  UNL     1      45.633 -21.507  11.773  1.00  0.00     0.012 C 
HETATM   28  C9  UNL     1      46.800 -23.418  10.630  1.00  0.00     0.012 C 
ENDBRANCH  23  26
ENDBRANCH  21  23
ENDBRANCH  20  21
ENDBRANCH   2  20
BRANCH  10  29
HETATM   29  C17 UNL     1      49.721 -31.002  14.385  1.00  0.00     0.041 C 
BRANCH  29  30
HETATM   30  C18 UNL     1      50.739 -31.870  13.645  1.00  0.00     0.141 C 
BRANCH  30  31
HETATM   31  O8  UNL     1      50.327 -32.169  12.387  1.00  0.00    -0.392 OA
ATOM     32  H8  UNL     1      49.489 -32.617  12.387  1.00  0.00     0.210 HD
ENDBRANCH  30  31
BRANCH  30  33
HETATM   33  C19 UNL     1      52.071 -31.304  13.717  1.00  0.00     0.000 C 
HETATM   34  C20 UNL     1      53.056 -31.586  14.492  1.00  0.00    -0.027 C 
BRANCH  34  35
HETATM   35  C21 UNL     1      53.244 -32.547  15.582  1.00  0.00     0.039 C 
BRANCH  35  36
HETATM   36  C22 UNL     1      54.169 -32.004  16.631  1.00  0.00     0.051 C 
HETATM   37  C23 UNL     1      55.383 -32.734  16.932  1.00  0.00    -0.078 C 
HETATM   38  C24 UNL     1      56.358 -33.211  15.897  1.00  0.00     0.043 C 
HETATM   39  C25 UNL     1      55.653 -32.967  18.241  1.00  0.00     0.008 C 
HETATM   40  C26 UNL     1      54.677 -32.444  19.217  1.00  0.00     0.148 C 
HETATM   41  C27 UNL     1      54.314 -31.012  18.877  1.00  0.00     0.074 C 
HETATM   42  O9  UNL     1      53.412 -32.821  18.790  1.00  0.00    -0.370 OA
HETATM   43  C28 UNL     1      53.405 -31.756  17.925  1.00  0.00     0.068 C 
HETATM   44  C29 UNL     1      52.102 -31.045  17.715  1.00  0.00     0.047 C 
ENDBRANCH  35  36
ENDBRANCH  34  35
ENDBRANCH  30  33
ENDBRANCH  29  30
ENDBRANCH  10  29
TORSDOF 14
ENDMDL
MODEL 4
REMARK VINA RESULT: -8.299325089      1.101      1.702
REMARK  14 active torsions:
REMARK  status: ('A' for Active; 'I' for Inactive)
REMARK    1  A    between atoms: C2_2  and  O2_4 
REMARK    2  A    between atoms: O2_4  and  C3_5 
REMARK    3  A    between atoms: C4_6  and  O3_7 
REMARK    4  A    between atoms: O3_7  and  C5_8 
REMARK    5  A    between atoms: C5_8  and  C6_10 
REMARK    6  A    between atoms: C6_10  and  O5_11 
REMARK    7  A    between atoms: C6_10  and  C7_13 
REMARK    8  A    between atoms: C10_16  and  O6_18 
REMARK    9  A    between atoms: C16_25  and  C17_26 
REMARK   10  A    between atoms: C17_26  and  C18_27 
REMARK   11  A    between atoms: C18_27  and  O8_28 
REMARK   12  A    between atoms: C18_27  and  C19_30 
REMARK   13  A    between atoms: C20_31  and  C21_32 
REMARK   14  A    between atoms: C21_32  and  C22_33 
ROOT
HETATM    1  C3  UNL     1      45.862 -27.900  14.765  1.00  0.00     0.183 C 
HETATM    2  C4  UNL     1      46.125 -26.646  13.968  1.00  0.00     0.198 C 
HETATM    3  C10 UNL     1      46.684 -27.588  12.887  1.00  0.00     0.101 C 
HETATM    4  C11 UNL     1      45.665 -28.081  11.916  1.00  0.00     0.050 C 
HETATM    5  C12 UNL     1      47.028 -28.528  14.033  1.00  0.00     0.086 C 
HETATM    6  C13 UNL     1      46.784 -29.946  13.822  1.00  0.00     0.145 C 
HETATM    7  O7  UNL     1      45.612 -30.304  13.613  1.00  0.00    -0.296 OA
HETATM    8  C14 UNL     1      47.827 -30.977  13.843  1.00  0.00     0.056 C 
HETATM    9  C15 UNL     1      47.549 -31.892  12.662  1.00  0.00     0.018 C 
HETATM   10  C16 UNL     1      49.222 -30.461  13.787  1.00  0.00    -0.001 C 
HETATM   11  C30 UNL     1      49.416 -28.994  13.826  1.00  0.00     0.011 C 
HETATM   12  C31 UNL     1      48.385 -28.218  14.573  1.00  0.00     0.003 C 
HETATM   13  C32 UNL     1      48.528 -28.394  16.054  1.00  0.00     0.011 C 
ENDROOT
BRANCH   1  14
HETATM   14  O2  UNL     1      45.958 -27.819  16.148  1.00  0.00    -0.312 OA
BRANCH  14  15
HETATM   15  C2  UNL     1      44.854 -27.483  16.919  1.00  0.00     0.255 C 
HETATM   16  C1  UNL     1      44.054 -26.246  16.734  1.00  0.00     0.126 C 
HETATM   17  O1  UNL     1      44.504 -28.271  17.832  1.00  0.00    -0.266 OA
ENDBRANCH  14  15
ENDBRANCH   1  14
BRANCH   3  18
HETATM   18  O6  UNL     1      47.769 -26.946  12.296  1.00  0.00    -0.386 OA
ATOM     19  H6  UNL     1      47.484 -26.073  12.052  1.00  0.00     0.210 HD
ENDBRANCH   3  18
BRANCH   2  20
HETATM   20  O3  UNL     1      44.976 -25.929  13.556  1.00  0.00    -0.308 OA
BRANCH  20  21
HETATM   21  C5  UNL     1      45.086 -24.534  13.565  1.00  0.00     0.288 C 
HETATM   22  O4  UNL     1      44.769 -23.879  14.590  1.00  0.00    -0.262 OA
BRANCH  21  23
HETATM   23  C6  UNL     1      45.587 -23.871  12.335  1.00  0.00     0.221 C 
BRANCH  23  24
HETATM   24  O5  UNL     1      46.729 -24.502  11.853  1.00  0.00    -0.385 OA
ATOM     25  H5  UNL     1      46.515 -25.325  11.429  1.00  0.00     0.210 HD
ENDBRANCH  23  24
BRANCH  23  26
HETATM   26  C7  UNL     1      45.938 -22.419  12.669  1.00  0.00     0.016 C 
HETATM   27  C8  UNL     1      47.436 -22.255  12.775  1.00  0.00     0.012 C 
HETATM   28  C9  UNL     1      45.331 -21.557  11.590  1.00  0.00     0.012 C 
ENDBRANCH  23  26
ENDBRANCH  21  23
ENDBRANCH  20  21
ENDBRANCH   2  20
BRANCH  10  29
HETATM   29  C17 UNL     1      50.108 -31.146  14.793  1.00  0.00     0.041 C 
BRANCH  29  30
HETATM   30  C18 UNL     1      51.270 -31.914  14.165  1.00  0.00     0.141 C 
BRANCH  30  31
HETATM   31  O8  UNL     1      51.006 -32.270  12.882  1.00  0.00    -0.392 OA
ATOM     32  H8  UNL     1      50.174 -32.722  12.805  1.00  0.00     0.210 HD
ENDBRANCH  30  31
BRANCH  30  33
HETATM   33  C19 UNL     1      52.527 -31.215  14.343  1.00  0.00     0.000 C 
HETATM   34  C20 UNL     1      53.611 -31.585  14.924  1.00  0.00    -0.027 C 
BRANCH  34  35
HETATM   35  C21 UNL     1      54.020 -32.807  15.623  1.00  0.00     0.039 C 
BRANCH  35  36
HETATM   36  C22 UNL     1      55.461 -32.739  16.033  1.00  0.00     0.051 C 
HETATM   37  C23 UNL     1      56.358 -33.789  15.595  1.00  0.00    -0.078 C 
HETATM   38  C24 UNL     1      56.478 -34.257  14.176  1.00  0.00     0.043 C 
HETATM   39  C25 UNL     1      57.154 -34.352  16.538  1.00  0.00     0.008 C 
HETATM   40  C26 UNL     1      57.019 -33.829  17.912  1.00  0.00     0.148 C 
HETATM   41  C27 UNL     1      57.012 -32.313  17.894  1.00  0.00     0.074 C 
HETATM   42  O9  UNL     1      55.666 -33.788  18.215  1.00  0.00    -0.370 OA
HETATM   43  C28 UNL     1      55.568 -32.595  17.545  1.00  0.00     0.068 C 
HETATM   44  C29 UNL     1      54.639 -31.561  18.108  1.00  0.00     0.047 C 
ENDBRANCH  35  36
ENDBRANCH  34  35
ENDBRANCH  30  33
ENDBRANCH  29  30
ENDBRANCH  10  29
TORSDOF 14
ENDMDL
MODEL 5
REMARK VINA RESULT: -8.180459064      2.630     10.960
REMARK  14 active torsions:
REMARK  status: ('A' for Active; 'I' for Inactive)
REMARK    1  A    between atoms: C2_2  and  O2_4 
REMARK    2  A    between atoms: O2_4  and  C3_5 
REMARK    3  A    between atoms: C4_6  and  O3_7 
REMARK    4  A    between atoms: O3_7  and  C5_8 
REMARK    5  A    between atoms: C5_8  and  C6_10 
REMARK    6  A    between atoms: C6_10  and  O5_11 
REMARK    7  A    between atoms: C6_10  and  C7_13 
REMARK    8  A    between atoms: C10_16  and  O6_18 
REMARK    9  A    between atoms: C16_25  and  C17_26 
REMARK   10  A    between atoms: C17_26  and  C18_27 
REMARK   11  A    between atoms: C18_27  and  O8_28 
REMARK   12  A    between atoms: C18_27  and  C19_30 
REMARK   13  A    between atoms: C20_31  and  C21_32 
REMARK   14  A    between atoms: C21_32  and  C22_33 
ROOT
HETATM    1  C3  UNL     1      48.141 -29.871  14.500  1.00  0.00     0.183 C 
HETATM    2  C4  UNL     1      49.532 -29.448  14.899  1.00  0.00     0.198 C 
HETATM    3  C10 UNL     1      48.838 -28.560  15.948  1.00  0.00     0.101 C 
HETATM    4  C11 UNL     1      48.587 -29.236  17.254  1.00  0.00     0.050 C 
HETATM    5  C12 UNL     1      47.665 -28.516  14.980  1.00  0.00     0.086 C 
HETATM    6  C13 UNL     1      46.332 -28.626  15.550  1.00  0.00     0.145 C 
HETATM    7  O7  UNL     1      46.049 -29.671  16.160  1.00  0.00    -0.296 OA
HETATM    8  C14 UNL     1      45.302 -27.586  15.449  1.00  0.00     0.056 C 
HETATM    9  C15 UNL     1      44.671 -27.472  16.826  1.00  0.00     0.018 C 
HETATM   10  C16 UNL     1      45.791 -26.258  14.988  1.00  0.00    -0.001 C 
HETATM   11  C30 UNL     1      47.212 -26.150  14.582  1.00  0.00     0.011 C 
HETATM   12  C31 UNL     1      47.825 -27.386  14.018  1.00  0.00     0.003 C 
HETATM   13  C32 UNL     1      47.328 -27.665  12.631  1.00  0.00     0.011 C 
ENDROOT
BRANCH   1  14
HETATM   14  O2  UNL     1      47.917 -30.178  13.164  1.00  0.00    -0.312 OA
BRANCH  14  15
HETATM   15  C2  UNL     1      47.132 -31.265  12.806  1.00  0.00     0.255 C 
HETATM   16  C1  UNL     1      47.625 -32.424  12.019  1.00  0.00     0.126 C 
HETATM   17  O1  UNL     1      45.930 -31.276  13.168  1.00  0.00    -0.266 OA
ENDBRANCH  14  15
ENDBRANCH   1  14
BRANCH   3  18
HETATM   18  O6  UNL     1      49.573 -27.383  16.048  1.00  0.00    -0.386 OA
ATOM     19  H6  UNL     1      50.219 -27.508  16.734  1.00  0.00     0.210 HD
ENDBRANCH   3  18
BRANCH   2  20
HETATM   20  O3  UNL     1      50.343 -30.462  15.463  1.00  0.00    -0.308 OA
BRANCH  20  21
HETATM   21  C5  UNL     1      51.212 -31.115  14.582  1.00  0.00     0.288 C 
HETATM   22  O4  UNL     1      50.775 -31.627  13.521  1.00  0.00    -0.262 OA
BRANCH  21  23
HETATM   23  C6  UNL     1      52.650 -31.176  14.946  1.00  0.00     0.221 C 
BRANCH  23  24
HETATM   24  O5  UNL     1      53.428 -31.568  13.861  1.00  0.00    -0.385 OA
ATOM     25  H5  UNL     1      54.338 -31.676  14.112  1.00  0.00     0.210 HD
ENDBRANCH  23  24
BRANCH  23  26
HETATM   26  C7  UNL     1      52.828 -32.203  16.068  1.00  0.00     0.016 C 
HETATM   27  C8  UNL     1      54.264 -32.670  16.125  1.00  0.00     0.012 C 
HETATM   28  C9  UNL     1      52.378 -31.543  17.347  1.00  0.00     0.012 C 
ENDBRANCH  23  26
ENDBRANCH  21  23
ENDBRANCH  20  21
ENDBRANCH   2  20
BRANCH  10  29
HETATM   29  C17 UNL     1      44.888 -25.667  13.939  1.00  0.00     0.041 C 
BRANCH  29  30
HETATM   30  C18 UNL     1      43.685 -24.920  14.515  1.00  0.00     0.141 C 
BRANCH  30  31
HETATM   31  O8  UNL     1      43.147 -25.572  15.576  1.00  0.00    -0.392 OA
ATOM     32  H8  UNL     1      42.429 -25.085  15.963  1.00  0.00     0.210 HD
ENDBRANCH  30  31
BRANCH  30  33
HETATM   33  C19 UNL     1      43.996 -23.528  14.768  1.00  0.00     0.000 C 
HETATM   34  C20 UNL     1      44.310 -22.583  13.956  1.00  0.00    -0.027 C 
BRANCH  34  35
HETATM   35  C21 UNL     1      44.483 -22.513  12.502  1.00  0.00     0.039 C 
BRANCH  35  36
HETATM   36  C22 UNL     1      45.369 -21.366  12.116  1.00  0.00     0.051 C 
HETATM   37  C23 UNL     1      44.806 -20.286  11.331  1.00  0.00    -0.078 C 
HETATM   38  C24 UNL     1      43.532 -19.573  11.670  1.00  0.00     0.043 C 
HETATM   39  C25 UNL     1      45.506 -19.890  10.238  1.00  0.00     0.008 C 
HETATM   40  C26 UNL     1      46.770 -20.604   9.972  1.00  0.00     0.148 C 
HETATM   41  C27 UNL     1      47.579 -20.726  11.248  1.00  0.00     0.074 C 
HETATM   42  O9  UNL     1      46.512 -21.964  10.057  1.00  0.00    -0.370 OA
HETATM   43  C28 UNL     1      46.622 -21.883  11.422  1.00  0.00     0.068 C 
HETATM   44  C29 UNL     1      47.257 -23.040  12.134  1.00  0.00     0.047 C 
ENDBRANCH  35  36
ENDBRANCH  34  35
ENDBRANCH  30  33
ENDBRANCH  29  30
ENDBRANCH  10  29
TORSDOF 14
ENDMDL
