MODEL 1
REMARK VINA RESULT: -8.789914756      0.000      0.000
REMARK  12 active torsions:
REMARK  status: ('A' for Active; 'I' for Inactive)
REMARK    1  A    between atoms: C2_2  and  N1_3 
REMARK    2  A    between atoms: N1_3  and  C3_4 
REMARK    3  A    between atoms: N1_3  and  C5_10 
REMARK    4  A    between atoms: C3_4  and  C4_5 
REMARK    5  A    between atoms: C4_5  and  N2_6 
REMARK    6  A    between atoms: C5_10  and  C6_11 
REMARK    7  A    between atoms: C6_11  and  O1_12 
REMARK    8  A    between atoms: O1_12  and  C7_13 
REMARK    9  A    between atoms: C7_13  and  C8_14 
REMARK   10  A    between atoms: C12_18  and  O2_19 
REMARK   11  A    between atoms: C22_30  and  C23_31 
REMARK   12  A    between atoms: C25_36  and  O6_37 
ROOT
HETATM    1  C8  UNL     1      47.173 -27.697  13.326  1.00  0.00     0.068 C 
HETATM    2  C9  UNL     1      48.502 -28.468  13.389  1.00  0.00     0.032 C 
HETATM    3  C10 UNL     1      48.392 -29.105  14.746  1.00  0.00    -0.029 C 
HETATM    4  C11 UNL     1      47.720 -28.049  15.577  1.00  0.00     0.043 C 
HETATM    5  C12 UNL     1      47.241 -26.966  14.631  1.00  0.00     0.137 C 
HETATM    6  C13 UNL     1      47.473 -30.297  14.619  1.00  0.00     0.001 C 
HETATM    7  C14 UNL     1      48.022 -31.256  13.564  1.00  0.00     0.006 C 
HETATM    8  C15 UNL     1      49.531 -31.384  13.654  1.00  0.00     0.006 C 
HETATM    9  C16 UNL     1      49.924 -30.979  15.038  1.00  0.00    -0.001 C 
HETATM   10  C17 UNL     1      49.707 -29.525  15.340  1.00  0.00    -0.001 C 
HETATM   11  C18 UNL     1      49.543 -29.423  16.863  1.00  0.00     0.006 C 
HETATM   12  C19 UNL     1      50.281 -30.572  17.563  1.00  0.00     0.006 C 
HETATM   13  C20 UNL     1      51.561 -30.841  16.800  1.00  0.00    -0.005 C 
HETATM   14  C21 UNL     1      52.542 -31.560  17.644  1.00  0.00     0.021 C 
HETATM   15  C22 UNL     1      53.978 -31.441  17.233  1.00  0.00     0.071 C 
HETATM   16  C26 UNL     1      54.308 -31.752  15.856  1.00  0.00    -0.019 C 
HETATM   17  C27 UNL     1      53.649 -31.568  14.732  1.00  0.00    -0.029 C 
HETATM   18  C28 UNL     1      52.333 -30.970  14.521  1.00  0.00     0.036 C 
HETATM   19  C29 UNL     1      51.287 -31.481  15.469  1.00  0.00    -0.033 C 
HETATM   20  C30 UNL     1      51.226 -32.967  15.471  1.00  0.00     0.016 C 
HETATM   21  C31 UNL     1      46.101 -29.888  14.181  1.00  0.00     0.084 C 
HETATM   22  C32 UNL     1      46.061 -28.690  13.339  1.00  0.00     0.140 C 
HETATM   23  O7  UNL     1      45.056 -28.538  12.635  1.00  0.00    -0.297 OA
ENDROOT
BRANCH   1  24
HETATM   24  C7  UNL     1      47.114 -26.826  12.109  1.00  0.00     0.187 C 
BRANCH  24  25
HETATM   25  O1  UNL     1      46.403 -25.684  12.242  1.00  0.00    -0.388 OA
BRANCH  25  26
HETATM   26  C6  UNL     1      46.790 -24.614  11.481  1.00  0.00     0.198 C 
BRANCH  26  27
HETATM   27  C5  UNL     1      46.415 -23.282  12.067  1.00  0.00     0.298 C 
BRANCH  27  28
HETATM   28  N1  UNL     1      46.771 -22.165  11.236  1.00  0.00     0.091 N 
BRANCH  28  29
HETATM   29  C2  UNL     1      47.910 -21.426  11.737  1.00  0.00     0.268 C 
HETATM   30  C1  UNL     1      48.101 -21.793  13.190  1.00  0.00     0.037 C 
ENDBRANCH  28  29
BRANCH  28  31
HETATM   31  C3  UNL     1      45.663 -21.200  11.254  1.00  0.00     0.299 C 
BRANCH  31  32
HETATM   32  C4  UNL     1      45.938 -19.946  10.491  1.00  0.00     0.259 C 
BRANCH  32  33
HETATM   33  N2  UNL     1      45.197 -18.885  11.212  1.00  0.00    -0.078 N 
ATOM     34  H23 UNL     1      44.188 -19.035  11.244  1.00  0.00     0.274 HD
ATOM     35  H22 UNL     1      45.348 -18.889  12.220  1.00  0.00     0.274 HD
ATOM     36  H21 UNL     1      45.470 -18.015  10.755  1.00  0.00     0.274 HD
ENDBRANCH  32  33
ENDBRANCH  31  32
ENDBRANCH  28  31
ENDBRANCH  27  28
ENDBRANCH  26  27
ENDBRANCH  25  26
ENDBRANCH  24  25
ENDBRANCH   1  24
BRANCH   5  37
HETATM   37  O2  UNL     1      46.031 -26.426  15.024  1.00  0.00    -0.394 OA
ATOM     38  H2  UNL     1      46.003 -25.478  14.973  1.00  0.00     0.210 HD
ENDBRANCH   5  37
BRANCH  15  39
HETATM   39  C23 UNL     1      54.771 -32.347  18.103  1.00  0.00     0.125 A 
HETATM   40  O3  UNL     1      54.457 -32.655  19.331  1.00  0.00    -0.254 OA
HETATM   41  C24 UNL     1      55.322 -33.469  19.865  1.00  0.00     0.418 A 
HETATM   42  O4  UNL     1      55.225 -33.902  21.043  1.00  0.00    -0.229 OA
HETATM   43  O5  UNL     1      56.221 -33.689  18.943  1.00  0.00    -0.229 OA
HETATM   44  C25 UNL     1      55.938 -33.028  17.835  1.00  0.00     0.219 A 
BRANCH  44  45
HETATM   45  O6  UNL     1      56.633 -33.000  16.654  1.00  0.00    -0.339 OA
ATOM     46  H6  UNL     1      57.568 -32.865  16.560  1.00  0.00     0.220 HD
ENDBRANCH  44  45
ENDBRANCH  15  39
TORSDOF 12
ENDMDL
MODEL 2
REMARK VINA RESULT: -8.758489556      0.913      1.482
REMARK  12 active torsions:
REMARK  status: ('A' for Active; 'I' for Inactive)
REMARK    1  A    between atoms: C2_2  and  N1_3 
REMARK    2  A    between atoms: N1_3  and  C3_4 
REMARK    3  A    between atoms: N1_3  and  C5_10 
REMARK    4  A    between atoms: C3_4  and  C4_5 
REMARK    5  A    between atoms: C4_5  and  N2_6 
REMARK    6  A    between atoms: C5_10  and  C6_11 
REMARK    7  A    between atoms: C6_11  and  O1_12 
REMARK    8  A    between atoms: O1_12  and  C7_13 
REMARK    9  A    between atoms: C7_13  and  C8_14 
REMARK   10  A    between atoms: C12_18  and  O2_19 
REMARK   11  A    between atoms: C22_30  and  C23_31 
REMARK   12  A    between atoms: C25_36  and  O6_37 
ROOT
HETATM    1  C8  UNL     1      47.086 -27.598  13.253  1.00  0.00     0.068 C 
HETATM    2  C9  UNL     1      48.394 -28.405  13.319  1.00  0.00     0.032 C 
HETATM    3  C10 UNL     1      48.299 -28.977  14.706  1.00  0.00    -0.029 C 
HETATM    4  C11 UNL     1      47.679 -27.865  15.504  1.00  0.00     0.043 C 
HETATM    5  C12 UNL     1      47.208 -26.811  14.521  1.00  0.00     0.137 C 
HETATM    6  C13 UNL     1      47.343 -30.146  14.654  1.00  0.00     0.001 C 
HETATM    7  C14 UNL     1      47.838 -31.167  13.632  1.00  0.00     0.006 C 
HETATM    8  C15 UNL     1      49.345 -31.335  13.692  1.00  0.00     0.006 C 
HETATM    9  C16 UNL     1      49.784 -30.881  15.046  1.00  0.00    -0.001 C 
HETATM   10  C17 UNL     1      49.616 -29.410  15.287  1.00  0.00    -0.001 C 
HETATM   11  C18 UNL     1      49.493 -29.235  16.807  1.00  0.00     0.006 C 
HETATM   12  C19 UNL     1      50.215 -30.373  17.541  1.00  0.00     0.006 C 
HETATM   13  C20 UNL     1      51.466 -30.714  16.761  1.00  0.00    -0.005 C 
HETATM   14  C21 UNL     1      52.447 -31.423  17.614  1.00  0.00     0.021 C 
HETATM   15  C22 UNL     1      53.876 -31.366  17.163  1.00  0.00     0.071 C 
HETATM   16  C26 UNL     1      54.162 -31.748  15.795  1.00  0.00    -0.019 C 
HETATM   17  C27 UNL     1      53.481 -31.595  14.679  1.00  0.00    -0.029 C 
HETATM   18  C28 UNL     1      52.178 -30.967  14.472  1.00  0.00     0.036 C 
HETATM   19  C29 UNL     1      51.141 -31.404  15.467  1.00  0.00    -0.033 C 
HETATM   20  C30 UNL     1      51.038 -32.886  15.538  1.00  0.00     0.016 C 
HETATM   21  C31 UNL     1      45.973 -29.715  14.231  1.00  0.00     0.084 C 
HETATM   22  C32 UNL     1      45.946 -28.556  13.337  1.00  0.00     0.140 C 
HETATM   23  O7  UNL     1      44.929 -28.405  12.651  1.00  0.00    -0.297 OA
ENDROOT
BRANCH   1  24
HETATM   24  C7  UNL     1      47.022 -26.780  11.999  1.00  0.00     0.187 C 
BRANCH  24  25
HETATM   25  O1  UNL     1      46.691 -25.481  12.166  1.00  0.00    -0.388 OA
BRANCH  25  26
HETATM   26  C6  UNL     1      46.781 -24.667  11.069  1.00  0.00     0.198 C 
BRANCH  26  27
HETATM   27  C5  UNL     1      46.852 -23.203  11.401  1.00  0.00     0.298 C 
BRANCH  27  28
HETATM   28  N1  UNL     1      45.604 -22.652  11.854  1.00  0.00     0.091 N 
BRANCH  28  29
HETATM   29  C2  UNL     1      45.390 -21.292  11.410  1.00  0.00     0.268 C 
HETATM   30  C1  UNL     1      46.316 -21.030  10.246  1.00  0.00     0.037 C 
ENDBRANCH  28  29
BRANCH  28  31
HETATM   31  C3  UNL     1      45.641 -22.564  13.321  1.00  0.00     0.299 C 
BRANCH  31  32
HETATM   32  C4  UNL     1      44.346 -22.907  13.981  1.00  0.00     0.259 C 
BRANCH  32  33
HETATM   33  N2  UNL     1      44.169 -24.359  13.751  1.00  0.00    -0.078 N 
ATOM     34  H23 UNL     1      44.898 -24.778  13.173  1.00  0.00     0.274 HD
ATOM     35  H22 UNL     1      44.333 -24.931  14.579  1.00  0.00     0.274 HD
ATOM     36  H21 UNL     1      43.230 -24.453  13.362  1.00  0.00     0.274 HD
ENDBRANCH  32  33
ENDBRANCH  31  32
ENDBRANCH  28  31
ENDBRANCH  27  28
ENDBRANCH  26  27
ENDBRANCH  25  26
ENDBRANCH  24  25
ENDBRANCH   1  24
BRANCH   5  37
HETATM   37  O2  UNL     1      46.024 -26.219  14.918  1.00  0.00    -0.394 OA
ATOM     38  H2  UNL     1      45.841 -25.400  14.472  1.00  0.00     0.210 HD
ENDBRANCH   5  37
BRANCH  15  39
HETATM   39  C23 UNL     1      54.664 -32.256  18.055  1.00  0.00     0.125 A 
HETATM   40  O3  UNL     1      54.294 -32.618  19.252  1.00  0.00    -0.254 OA
HETATM   41  C24 UNL     1      55.169 -33.401  19.815  1.00  0.00     0.418 A 
HETATM   42  O4  UNL     1      55.025 -33.876  20.972  1.00  0.00    -0.229 OA
HETATM   43  O5  UNL     1      56.132 -33.545  18.944  1.00  0.00    -0.229 OA
HETATM   44  C25 UNL     1      55.880 -32.865  17.840  1.00  0.00     0.219 A 
BRANCH  44  45
HETATM   45  O6  UNL     1      56.642 -32.764  16.705  1.00  0.00    -0.339 OA
ATOM     46  H6  UNL     1      56.594 -33.335  15.948  1.00  0.00     0.220 HD
ENDBRANCH  44  45
ENDBRANCH  15  39
TORSDOF 12
ENDMDL
MODEL 3
REMARK VINA RESULT: -7.863354950      2.296      3.016
REMARK  12 active torsions:
REMARK  status: ('A' for Active; 'I' for Inactive)
REMARK    1  A    between atoms: C2_2  and  N1_3 
REMARK    2  A    between atoms: N1_3  and  C3_4 
REMARK    3  A    between atoms: N1_3  and  C5_10 
REMARK    4  A    between atoms: C3_4  and  C4_5 
REMARK    5  A    between atoms: C4_5  and  N2_6 
REMARK    6  A    between atoms: C5_10  and  C6_11 
REMARK    7  A    between atoms: C6_11  and  O1_12 
REMARK    8  A    between atoms: O1_12  and  C7_13 
REMARK    9  A    between atoms: C7_13  and  C8_14 
REMARK   10  A    between atoms: C12_18  and  O2_19 
REMARK   11  A    between atoms: C22_30  and  C23_31 
REMARK   12  A    between atoms: C25_36  and  O6_37 
ROOT
HETATM    1  C8  UNL     1      47.539 -28.145  14.028  1.00  0.00     0.068 C 
HETATM    2  C9  UNL     1      48.945 -28.766  13.958  1.00  0.00     0.032 C 
HETATM    3  C10 UNL     1      48.890 -29.713  15.124  1.00  0.00    -0.029 C 
HETATM    4  C11 UNL     1      48.097 -28.959  16.154  1.00  0.00     0.043 C 
HETATM    5  C12 UNL     1      47.512 -27.739  15.468  1.00  0.00     0.137 C 
HETATM    6  C13 UNL     1      48.110 -30.931  14.689  1.00  0.00     0.001 C 
HETATM    7  C14 UNL     1      48.773 -31.551  13.461  1.00  0.00     0.006 C 
HETATM    8  C15 UNL     1      50.286 -31.538  13.574  1.00  0.00     0.006 C 
HETATM    9  C16 UNL     1      50.617 -31.432  15.028  1.00  0.00    -0.001 C 
HETATM   10  C17 UNL     1      50.237 -30.121  15.652  1.00  0.00    -0.001 C 
HETATM   11  C18 UNL     1      50.046 -30.398  17.150  1.00  0.00     0.006 C 
HETATM   12  C19 UNL     1      50.899 -31.596  17.589  1.00  0.00     0.006 C 
HETATM   13  C20 UNL     1      52.208 -31.543  16.832  1.00  0.00    -0.005 C 
HETATM   14  C21 UNL     1      53.253 -32.333  17.521  1.00  0.00     0.021 C 
HETATM   15  C22 UNL     1      54.672 -31.970  17.202  1.00  0.00     0.071 C 
HETATM   16  C26 UNL     1      55.049 -31.912  15.803  1.00  0.00    -0.019 C 
HETATM   17  C27 UNL     1      54.387 -31.539  14.730  1.00  0.00    -0.029 C 
HETATM   18  C28 UNL     1      53.015 -31.049  14.615  1.00  0.00     0.036 C 
HETATM   19  C29 UNL     1      52.022 -31.876  15.380  1.00  0.00    -0.033 C 
HETATM   20  C30 UNL     1      52.125 -33.318  15.033  1.00  0.00     0.016 C 
HETATM   21  C31 UNL     1      46.706 -30.576  14.308  1.00  0.00     0.084 C 
HETATM   22  C32 UNL     1      46.543 -29.224  13.768  1.00  0.00     0.140 C 
HETATM   23  O7  UNL     1      45.535 -29.017  13.083  1.00  0.00    -0.297 OA
ENDROOT
BRANCH   1  24
HETATM   24  C7  UNL     1      47.398 -27.023  13.046  1.00  0.00     0.187 C 
BRANCH  24  25
HETATM   25  O1  UNL     1      47.025 -25.834  13.568  1.00  0.00    -0.388 OA
BRANCH  25  26
HETATM   26  C6  UNL     1      45.819 -25.324  13.166  1.00  0.00     0.198 C 
BRANCH  26  27
HETATM   27  C5  UNL     1      44.640 -25.897  13.900  1.00  0.00     0.298 C 
BRANCH  27  28
HETATM   28  N1  UNL     1      44.186 -25.079  14.991  1.00  0.00     0.091 N 
BRANCH  28  29
HETATM   29  C2  UNL     1      43.524 -25.836  16.031  1.00  0.00     0.268 C 
HETATM   30  C1  UNL     1      44.012 -25.324  17.365  1.00  0.00     0.037 C 
ENDBRANCH  28  29
BRANCH  28  31
HETATM   31  C3  UNL     1      43.156 -24.160  14.486  1.00  0.00     0.299 C 
BRANCH  31  32
HETATM   32  C4  UNL     1      41.803 -24.382  15.078  1.00  0.00     0.259 C 
BRANCH  32  33
HETATM   33  N2  UNL     1      40.886 -24.477  13.918  1.00  0.00    -0.078 N 
ATOM     34  H23 UNL     1      40.819 -23.617  13.373  1.00  0.00     0.274 HD
ATOM     35  H22 UNL     1      41.236 -25.066  13.163  1.00  0.00     0.274 HD
ATOM     36  H21 UNL     1      39.997 -24.789  14.309  1.00  0.00     0.274 HD
ENDBRANCH  32  33
ENDBRANCH  31  32
ENDBRANCH  28  31
ENDBRANCH  27  28
ENDBRANCH  26  27
ENDBRANCH  25  26
ENDBRANCH  24  25
ENDBRANCH   1  24
BRANCH   5  37
HETATM   37  O2  UNL     1      46.245 -27.437  15.932  1.00  0.00    -0.394 OA
ATOM     38  H2  UNL     1      45.562 -27.972  15.544  1.00  0.00     0.210 HD
ENDBRANCH   5  37
BRANCH  15  39
HETATM   39  C23 UNL     1      55.551 -32.969  17.865  1.00  0.00     0.125 A 
HETATM   40  O3  UNL     1      56.550 -33.576  17.287  1.00  0.00    -0.254 OA
HETATM   41  C24 UNL     1      57.152 -34.400  18.095  1.00  0.00     0.418 A 
HETATM   42  O4  UNL     1      58.145 -35.096  17.756  1.00  0.00    -0.229 OA
HETATM   43  O5  UNL     1      56.514 -34.316  19.232  1.00  0.00    -0.229 OA
HETATM   44  C25 UNL     1      55.518 -33.451  19.155  1.00  0.00     0.219 A 
BRANCH  44  45
HETATM   45  O6  UNL     1      54.623 -33.087  20.128  1.00  0.00    -0.339 OA
ATOM     46  H6  UNL     1      54.721 -33.239  21.060  1.00  0.00     0.220 HD
ENDBRANCH  44  45
ENDBRANCH  15  39
TORSDOF 12
ENDMDL
MODEL 4
REMARK VINA RESULT: -7.080495237     11.417     14.593
REMARK  12 active torsions:
REMARK  status: ('A' for Active; 'I' for Inactive)
REMARK    1  A    between atoms: C2_2  and  N1_3 
REMARK    2  A    between atoms: N1_3  and  C3_4 
REMARK    3  A    between atoms: N1_3  and  C5_10 
REMARK    4  A    between atoms: C3_4  and  C4_5 
REMARK    5  A    between atoms: C4_5  and  N2_6 
REMARK    6  A    between atoms: C5_10  and  C6_11 
REMARK    7  A    between atoms: C6_11  and  O1_12 
REMARK    8  A    between atoms: O1_12  and  C7_13 
REMARK    9  A    between atoms: C7_13  and  C8_14 
REMARK   10  A    between atoms: C12_18  and  O2_19 
REMARK   11  A    between atoms: C22_30  and  C23_31 
REMARK   12  A    between atoms: C25_36  and  O6_37 
ROOT
HETATM    1  C8  UNL     1      38.818 -37.841  10.351  1.00  0.00     0.068 C 
HETATM    2  C9  UNL     1      38.968 -37.819  11.882  1.00  0.00     0.032 C 
HETATM    3  C10 UNL     1      38.989 -36.338  12.139  1.00  0.00    -0.029 C 
HETATM    4  C11 UNL     1      39.764 -35.789  10.975  1.00  0.00     0.043 C 
HETATM    5  C12 UNL     1      39.933 -36.915   9.974  1.00  0.00     0.137 C 
HETATM    6  C13 UNL     1      37.565 -35.841  12.069  1.00  0.00     0.001 C 
HETATM    7  C14 UNL     1      36.707 -36.599  13.080  1.00  0.00     0.006 C 
HETATM    8  C15 UNL     1      37.442 -36.813  14.390  1.00  0.00     0.006 C 
HETATM    9  C16 UNL     1      38.516 -35.776  14.465  1.00  0.00    -0.001 C 
HETATM   10  C17 UNL     1      39.610 -35.949  13.452  1.00  0.00    -0.001 C 
HETATM   11  C18 UNL     1      40.222 -34.557  13.241  1.00  0.00     0.006 C 
HETATM   12  C19 UNL     1      40.039 -33.692  14.495  1.00  0.00     0.006 C 
HETATM   13  C20 UNL     1      40.199 -34.584  15.708  1.00  0.00    -0.005 C 
HETATM   14  C21 UNL     1      40.524 -33.789  16.913  1.00  0.00     0.021 C 
HETATM   15  C22 UNL     1      41.200 -34.528  18.029  1.00  0.00     0.071 C 
HETATM   16  C26 UNL     1      40.578 -35.752  18.493  1.00  0.00    -0.019 C 
HETATM   17  C27 UNL     1      39.909 -36.692  17.861  1.00  0.00    -0.029 C 
HETATM   18  C28 UNL     1      39.578 -36.794  16.442  1.00  0.00     0.036 C 
HETATM   19  C29 UNL     1      39.034 -35.518  15.864  1.00  0.00    -0.033 C 
HETATM   20  C30 UNL     1      37.894 -34.995  16.663  1.00  0.00     0.016 C 
HETATM   21  C31 UNL     1      36.970 -36.072  10.714  1.00  0.00     0.084 C 
HETATM   22  C32 UNL     1      37.498 -37.240  10.006  1.00  0.00     0.140 C 
HETATM   23  O7  UNL     1      36.796 -37.708   9.103  1.00  0.00    -0.297 OA
ENDROOT
BRANCH   1  24
HETATM   24  C7  UNL     1      38.940 -39.236   9.819  1.00  0.00     0.187 C 
BRANCH  24  25
HETATM   25  O1  UNL     1      39.735 -39.381   8.736  1.00  0.00    -0.388 OA
BRANCH  25  26
HETATM   26  C6  UNL     1      40.662 -40.387   8.771  1.00  0.00     0.198 C 
BRANCH  26  27
HETATM   27  C5  UNL     1      42.011 -39.956   9.274  1.00  0.00     0.298 C 
BRANCH  27  28
HETATM   28  N1  UNL     1      42.542 -40.808  10.303  1.00  0.00     0.091 N 
BRANCH  28  29
HETATM   29  C2  UNL     1      41.937 -40.577  11.597  1.00  0.00     0.268 C 
HETATM   30  C1  UNL     1      42.253 -39.160  12.015  1.00  0.00     0.037 C 
ENDBRANCH  28  29
BRANCH  28  31
HETATM   31  C3  UNL     1      43.962 -40.479  10.492  1.00  0.00     0.299 C 
BRANCH  31  32
HETATM   32  C4  UNL     1      44.724 -40.327   9.215  1.00  0.00     0.259 C 
BRANCH  32  33
HETATM   33  N2  UNL     1      45.577 -39.133   9.416  1.00  0.00    -0.078 N 
ATOM     34  H23 UNL     1      46.440 -39.146   8.872  1.00  0.00     0.274 HD
ATOM     35  H22 UNL     1      45.194 -38.280   9.008  1.00  0.00     0.274 HD
ATOM     36  H21 UNL     1      45.725 -39.080  10.423  1.00  0.00     0.274 HD
ENDBRANCH  32  33
ENDBRANCH  31  32
ENDBRANCH  28  31
ENDBRANCH  27  28
ENDBRANCH  26  27
ENDBRANCH  25  26
ENDBRANCH  24  25
ENDBRANCH   1  24
BRANCH   5  37
HETATM   37  O2  UNL     1      39.860 -36.468   8.668  1.00  0.00    -0.394 OA
ATOM     38  H2  UNL     1      39.178 -35.822   8.526  1.00  0.00     0.210 HD
ENDBRANCH   5  37
BRANCH  15  39
HETATM   39  C23 UNL     1      41.296 -33.602  19.187  1.00  0.00     0.125 A 
HETATM   40  O3  UNL     1      40.525 -33.651  20.239  1.00  0.00    -0.254 OA
HETATM   41  C24 UNL     1      40.824 -32.724  21.104  1.00  0.00     0.418 A 
HETATM   42  O4  UNL     1      40.215 -32.578  22.195  1.00  0.00    -0.229 OA
HETATM   43  O5  UNL     1      41.823 -32.060  20.585  1.00  0.00    -0.229 OA
HETATM   44  C25 UNL     1      42.159 -32.552  19.406  1.00  0.00     0.219 A 
BRANCH  44  45
HETATM   45  O6  UNL     1      43.150 -32.133  18.555  1.00  0.00    -0.339 OA
ATOM     46  H6  UNL     1      43.594 -32.669  17.910  1.00  0.00     0.220 HD
ENDBRANCH  44  45
ENDBRANCH  15  39
TORSDOF 12
ENDMDL
MODEL 5
REMARK VINA RESULT: -7.029202805     11.413     14.809
REMARK  12 active torsions:
REMARK  status: ('A' for Active; 'I' for Inactive)
REMARK    1  A    between atoms: C2_2  and  N1_3 
REMARK    2  A    between atoms: N1_3  and  C3_4 
REMARK    3  A    between atoms: N1_3  and  C5_10 
REMARK    4  A    between atoms: C3_4  and  C4_5 
REMARK    5  A    between atoms: C4_5  and  N2_6 
REMARK    6  A    between atoms: C5_10  and  C6_11 
REMARK    7  A    between atoms: C6_11  and  O1_12 
REMARK    8  A    between atoms: O1_12  and  C7_13 
REMARK    9  A    between atoms: C7_13  and  C8_14 
REMARK   10  A    between atoms: C12_18  and  O2_19 
REMARK   11  A    between atoms: C22_30  and  C23_31 
REMARK   12  A    between atoms: C25_36  and  O6_37 
ROOT
HETATM    1  C8  UNL     1      38.389 -37.701  10.278  1.00  0.00     0.068 C 
HETATM    2  C9  UNL     1      38.523 -37.690  11.810  1.00  0.00     0.032 C 
HETATM    3  C10 UNL     1      38.711 -36.221  12.064  1.00  0.00    -0.029 C 
HETATM    4  C11 UNL     1      39.557 -35.769  10.908  1.00  0.00     0.043 C 
HETATM    5  C12 UNL     1      39.607 -36.911   9.911  1.00  0.00     0.137 C 
HETATM    6  C13 UNL     1      37.355 -35.563  11.976  1.00  0.00     0.001 C 
HETATM    7  C14 UNL     1      36.404 -36.214  12.979  1.00  0.00     0.006 C 
HETATM    8  C15 UNL     1      37.095 -36.506  14.298  1.00  0.00     0.006 C 
HETATM    9  C16 UNL     1      38.280 -35.600  14.383  1.00  0.00    -0.001 C 
HETATM   10  C17 UNL     1      39.358 -35.901  13.383  1.00  0.00    -0.001 C 
HETATM   11  C18 UNL     1      40.129 -34.589  13.176  1.00  0.00     0.006 C 
HETATM   12  C19 UNL     1      40.033 -33.704  14.426  1.00  0.00     0.006 C 
HETATM   13  C20 UNL     1      40.075 -34.604  15.642  1.00  0.00    -0.005 C 
HETATM   14  C21 UNL     1      40.476 -33.847  16.849  1.00  0.00     0.021 C 
HETATM   15  C22 UNL     1      41.050 -34.655  17.974  1.00  0.00     0.071 C 
HETATM   16  C26 UNL     1      40.286 -35.798  18.434  1.00  0.00    -0.019 C 
HETATM   17  C27 UNL     1      39.520 -36.658  17.796  1.00  0.00    -0.029 C 
HETATM   18  C28 UNL     1      39.195 -36.725  16.374  1.00  0.00     0.036 C 
HETATM   19  C29 UNL     1      38.809 -35.398  15.788  1.00  0.00    -0.033 C 
HETATM   20  C30 UNL     1      37.728 -34.745  16.572  1.00  0.00     0.016 C 
HETATM   21  C31 UNL     1      36.753 -35.729  10.615  1.00  0.00     0.084 C 
HETATM   22  C32 UNL     1      37.151 -36.953   9.916  1.00  0.00     0.140 C 
HETATM   23  O7  UNL     1      36.409 -37.341   9.006  1.00  0.00    -0.297 OA
ENDROOT
BRANCH   1  24
HETATM   24  C7  UNL     1      38.355 -39.102   9.750  1.00  0.00     0.187 C 
BRANCH  24  25
HETATM   25  O1  UNL     1      39.432 -39.480   9.026  1.00  0.00    -0.388 OA
BRANCH  25  26
HETATM   26  C6  UNL     1      40.172 -40.527   9.506  1.00  0.00     0.198 C 
BRANCH  26  27
HETATM   27  C5  UNL     1      41.268 -40.116  10.449  1.00  0.00     0.298 C 
BRANCH  27  28
HETATM   28  N1  UNL     1      41.377 -40.959  11.608  1.00  0.00     0.091 N 
BRANCH  28  29
HETATM   29  C2  UNL     1      40.099 -41.249  12.221  1.00  0.00     0.268 C 
HETATM   30  C1  UNL     1      40.356 -42.008  13.501  1.00  0.00     0.037 C 
ENDBRANCH  28  29
BRANCH  28  31
HETATM   31  C3  UNL     1      42.130 -40.233  12.641  1.00  0.00     0.299 C 
BRANCH  31  32
HETATM   32  C4  UNL     1      41.935 -38.753  12.605  1.00  0.00     0.259 C 
BRANCH  32  33
HETATM   33  N2  UNL     1      41.612 -38.372  13.999  1.00  0.00    -0.078 N 
ATOM     34  H23 UNL     1      40.896 -38.958  14.432  1.00  0.00     0.274 HD
ATOM     35  H22 UNL     1      42.353 -38.582  14.667  1.00  0.00     0.274 HD
ATOM     36  H21 UNL     1      41.364 -37.384  13.953  1.00  0.00     0.274 HD
ENDBRANCH  32  33
ENDBRANCH  31  32
ENDBRANCH  28  31
ENDBRANCH  27  28
ENDBRANCH  26  27
ENDBRANCH  25  26
ENDBRANCH  24  25
ENDBRANCH   1  24
BRANCH   5  37
HETATM   37  O2  UNL     1      39.601 -36.463   8.603  1.00  0.00    -0.394 OA
ATOM     38  H2  UNL     1      39.052 -36.983   8.027  1.00  0.00     0.210 HD
ENDBRANCH   5  37
BRANCH  15  39
HETATM   39  C23 UNL     1      41.238 -33.742  19.132  1.00  0.00     0.125 A 
HETATM   40  O3  UNL     1      40.487 -33.735  20.198  1.00  0.00    -0.254 OA
HETATM   41  C24 UNL     1      40.873 -32.836  21.058  1.00  0.00     0.418 A 
HETATM   42  O4  UNL     1      40.298 -32.647  22.162  1.00  0.00    -0.229 OA
HETATM   43  O5  UNL     1      41.909 -32.248  20.520  1.00  0.00    -0.229 OA
HETATM   44  C25 UNL     1      42.184 -32.761  19.335  1.00  0.00     0.219 A 
BRANCH  44  45
HETATM   45  O6  UNL     1      43.186 -32.417  18.465  1.00  0.00    -0.339 OA
ATOM     46  H6  UNL     1      43.080 -32.214  17.544  1.00  0.00     0.220 HD
ENDBRANCH  44  45
ENDBRANCH  15  39
TORSDOF 12
ENDMDL
