MODEL 1
REMARK VINA RESULT: -6.130558368      0.000      0.000
REMARK  12 active torsions:
REMARK  status: ('A' for Active; 'I' for Inactive)
REMARK    1  A    between atoms: C2_2  and  C3_3 
REMARK    2  A    between atoms: C12_14  and  O3_15 
REMARK    3  A    between atoms: C20_26  and  O6_27 
REMARK    4  A    between atoms: O6_27  and  C21_28 
REMARK    5  A    between atoms: C21_28  and  C22_30 
REMARK    6  A    between atoms: C22_30  and  C23_31 
REMARK    7  A    between atoms: C23_31  and  C24_32 
REMARK    8  A    between atoms: C24_32  and  C25_33 
REMARK    9  A    between atoms: C25_33  and  C26_34 
REMARK   10  A    between atoms: C26_34  and  C27_35 
REMARK   11  A    between atoms: C30_38  and  O8_39 
REMARK   12  A    between atoms: C31_41  and  O9_42 
ROOT
HETATM    1  C3  UNL     1      38.062 -39.811   9.376  1.00  0.00    -0.014 C 
HETATM    2  C4  UNL     1      36.664 -39.662   8.853  1.00  0.00     0.020 C 
HETATM    3  C5  UNL     1      38.051 -40.365  10.744  1.00  0.00     0.092 C 
HETATM    4  C6  UNL     1      37.767 -39.483  11.867  1.00  0.00     0.133 C 
HETATM    5  O1  UNL     1      36.784 -38.778  11.859  1.00  0.00    -0.298 OA
HETATM    6  C7  UNL     1      38.647 -39.414  13.038  1.00  0.00     0.067 C 
HETATM    7  C8  UNL     1      39.341 -40.726  13.185  1.00  0.00     0.019 C 
HETATM    8  C9  UNL     1      39.565 -38.197  13.076  1.00  0.00     0.038 C 
HETATM    9  C10 UNL     1      40.815 -38.666  13.843  1.00  0.00     0.025 C 
HETATM   10  C11 UNL     1      40.095 -37.855  11.724  1.00  0.00     0.186 C 
HETATM   11  O2  UNL     1      41.103 -38.440  11.275  1.00  0.00    -0.293 OA
HETATM   12  C12 UNL     1      39.549 -36.856  10.802  1.00  0.00     0.241 C 
HETATM   13  C13 UNL     1      38.683 -37.389   9.726  1.00  0.00     0.177 C 
HETATM   14  O4  UNL     1      37.715 -36.697   9.395  1.00  0.00    -0.294 OA
HETATM   15  C14 UNL     1      38.963 -38.661   9.093  1.00  0.00     0.096 C 
HETATM   16  C15 UNL     1      38.883 -35.811  11.609  1.00  0.00     0.185 C 
HETATM   17  O5  UNL     1      38.230 -35.015  10.972  1.00  0.00    -0.293 OA
HETATM   18  C16 UNL     1      38.985 -35.713  13.072  1.00  0.00     0.034 C 
HETATM   19  C17 UNL     1      40.276 -34.948  13.346  1.00  0.00     0.025 C 
HETATM   20  C18 UNL     1      37.880 -34.760  13.498  1.00  0.00     0.027 C 
HETATM   21  C19 UNL     1      36.554 -35.004  12.875  1.00  0.00     0.014 C 
HETATM   22  C20 UNL     1      37.735 -34.548  14.957  1.00  0.00     0.139 C 
HETATM   23  C29 UNL     1      37.064 -35.745  15.574  1.00  0.00     0.067 C 
HETATM   24  C30 UNL     1      38.040 -36.726  16.145  1.00  0.00     0.149 C 
HETATM   25  C31 UNL     1      39.222 -36.988  15.242  1.00  0.00     0.153 C 
HETATM   26  C32 UNL     1      38.904 -37.017  13.777  1.00  0.00     0.049 C 
ENDROOT
BRANCH  22  27
HETATM   27  O6  UNL     1      36.797 -33.465  15.113  1.00  0.00    -0.316 OA
BRANCH  27  28
HETATM   28  C21 UNL     1      36.948 -32.493  16.103  1.00  0.00     0.259 C 
HETATM   29  O7  UNL     1      36.424 -32.768  17.212  1.00  0.00    -0.265 OA
BRANCH  28  30
HETATM   30  C22 UNL     1      37.675 -31.224  15.860  1.00  0.00     0.111 C 
BRANCH  30  31
HETATM   31  C23 UNL     1      39.142 -31.535  15.707  1.00  0.00     0.010 C 
BRANCH  31  32
HETATM   32  C24 UNL     1      39.855 -31.826  16.986  1.00  0.00     0.000 C 
BRANCH  32  33
HETATM   33  C25 UNL     1      40.560 -33.154  16.970  1.00  0.00     0.000 C 
BRANCH  33  34
HETATM   34  C26 UNL     1      41.624 -33.180  18.052  1.00  0.00    -0.000 C 
BRANCH  34  35
HETATM   35  C27 UNL     1      42.017 -34.620  18.346  1.00  0.00    -0.005 C 
HETATM   36  C28 UNL     1      40.817 -35.353  18.909  1.00  0.00     0.005 C 
ENDBRANCH  34  35
ENDBRANCH  33  34
ENDBRANCH  32  33
ENDBRANCH  31  32
ENDBRANCH  30  31
ENDBRANCH  28  30
ENDBRANCH  27  28
ENDBRANCH  22  27
BRANCH  24  37
HETATM   37  O8  UNL     1      37.374 -37.916  16.411  1.00  0.00    -0.393 OA
ATOM     38  H8  UNL     1      37.949 -38.641  16.202  1.00  0.00     0.210 HD
ENDBRANCH  24  37
BRANCH  25  39
HETATM   39  O9  UNL     1      40.320 -36.204  15.589  1.00  0.00    -0.393 OA
ATOM     40  H9  UNL     1      41.090 -36.733  15.764  1.00  0.00     0.210 HD
ENDBRANCH  25  39
BRANCH  12  41
HETATM   41  O3  UNL     1      40.615 -36.217  10.087  1.00  0.00    -0.369 OA
ATOM     42  H3  UNL     1      40.517 -35.273  10.138  1.00  0.00     0.212 HD
ENDBRANCH  12  41
BRANCH   1  43
HETATM   43  C2  UNL     1      38.643 -40.944   8.518  1.00  0.00    -0.027 C 
HETATM   44  C1  UNL     1      39.861 -41.398   8.705  1.00  0.00     0.007 C 
ENDBRANCH   1  43
TORSDOF 12
ENDMDL
MODEL 2
REMARK VINA RESULT: -5.954552390     18.317     20.663
REMARK  12 active torsions:
REMARK  status: ('A' for Active; 'I' for Inactive)
REMARK    1  A    between atoms: C2_2  and  C3_3 
REMARK    2  A    between atoms: C12_14  and  O3_15 
REMARK    3  A    between atoms: C20_26  and  O6_27 
REMARK    4  A    between atoms: O6_27  and  C21_28 
REMARK    5  A    between atoms: C21_28  and  C22_30 
REMARK    6  A    between atoms: C22_30  and  C23_31 
REMARK    7  A    between atoms: C23_31  and  C24_32 
REMARK    8  A    between atoms: C24_32  and  C25_33 
REMARK    9  A    between atoms: C25_33  and  C26_34 
REMARK   10  A    between atoms: C26_34  and  C27_35 
REMARK   11  A    between atoms: C30_38  and  O8_39 
REMARK   12  A    between atoms: C31_41  and  O9_42 
ROOT
HETATM    1  C3  UNL     1      61.322 -33.591   7.198  1.00  0.00    -0.014 C 
HETATM    2  C4  UNL     1      61.616 -32.776   8.422  1.00  0.00     0.020 C 
HETATM    3  C5  UNL     1      59.937 -33.363   6.738  1.00  0.00     0.092 C 
HETATM    4  C6  UNL     1      58.843 -34.049   7.410  1.00  0.00     0.133 C 
HETATM    5  O1  UNL     1      58.735 -33.998   8.614  1.00  0.00    -0.298 OA
HETATM    6  C7  UNL     1      57.840 -34.818   6.667  1.00  0.00     0.067 C 
HETATM    7  C8  UNL     1      57.725 -34.241   5.296  1.00  0.00     0.019 C 
HETATM    8  C9  UNL     1      58.033 -36.330   6.711  1.00  0.00     0.038 C 
HETATM    9  C10 UNL     1      57.454 -36.844   5.379  1.00  0.00     0.025 C 
HETATM   10  C11 UNL     1      59.474 -36.712   6.633  1.00  0.00     0.186 C 
HETATM   11  O2  UNL     1      60.044 -36.801   5.525  1.00  0.00    -0.293 OA
HETATM   12  C12 UNL     1      60.356 -37.015   7.762  1.00  0.00     0.241 C 
HETATM   13  C13 UNL     1      61.238 -35.908   8.197  1.00  0.00     0.177 C 
HETATM   14  O4  UNL     1      61.449 -35.806   9.409  1.00  0.00    -0.294 OA
HETATM   15  C14 UNL     1      61.824 -34.991   7.241  1.00  0.00     0.096 C 
HETATM   16  C15 UNL     1      59.520 -37.547   8.860  1.00  0.00     0.185 C 
HETATM   17  O5  UNL     1      60.091 -37.671   9.920  1.00  0.00    -0.293 OA
HETATM   18  C16 UNL     1      58.103 -37.910   8.712  1.00  0.00     0.034 C 
HETATM   19  C17 UNL     1      58.096 -39.333   8.164  1.00  0.00     0.025 C 
HETATM   20  C18 UNL     1      57.564 -38.044  10.127  1.00  0.00     0.027 C 
HETATM   21  C19 UNL     1      57.943 -36.952  11.059  1.00  0.00     0.014 C 
HETATM   22  C20 UNL     1      56.118 -38.346  10.242  1.00  0.00     0.139 C 
HETATM   23  C29 UNL     1      55.322 -37.099   9.961  1.00  0.00     0.067 C 
HETATM   24  C30 UNL     1      54.857 -37.017   8.541  1.00  0.00     0.149 C 
HETATM   25  C31 UNL     1      55.924 -37.395   7.540  1.00  0.00     0.153 C 
HETATM   26  C32 UNL     1      57.311 -36.954   7.898  1.00  0.00     0.049 C 
ENDROOT
BRANCH  22  27
HETATM   27  O6  UNL     1      55.881 -38.641  11.633  1.00  0.00    -0.316 OA
BRANCH  27  28
HETATM   28  C21 UNL     1      56.418 -39.772  12.250  1.00  0.00     0.259 C 
HETATM   29  O7  UNL     1      56.242 -40.855  11.638  1.00  0.00    -0.265 OA
BRANCH  28  30
HETATM   30  C22 UNL     1      57.145 -39.697  13.540  1.00  0.00     0.111 C 
BRANCH  30  31
HETATM   31  C23 UNL     1      56.452 -38.692  14.423  1.00  0.00     0.010 C 
BRANCH  31  32
HETATM   32  C24 UNL     1      57.160 -37.385  14.557  1.00  0.00     0.000 C 
BRANCH  32  33
HETATM   33  C25 UNL     1      56.309 -36.216  14.146  1.00  0.00     0.000 C 
BRANCH  33  34
HETATM   34  C26 UNL     1      57.170 -34.970  14.042  1.00  0.00    -0.000 C 
BRANCH  34  35
HETATM   35  C27 UNL     1      56.466 -33.805  14.720  1.00  0.00    -0.005 C 
HETATM   36  C28 UNL     1      57.194 -33.471  16.005  1.00  0.00     0.005 C 
ENDBRANCH  34  35
ENDBRANCH  33  34
ENDBRANCH  32  33
ENDBRANCH  31  32
ENDBRANCH  30  31
ENDBRANCH  28  30
ENDBRANCH  27  28
ENDBRANCH  22  27
BRANCH  24  37
HETATM   37  O8  UNL     1      54.408 -35.727   8.291  1.00  0.00    -0.393 OA
ATOM     38  H8  UNL     1      55.152 -35.183   8.062  1.00  0.00     0.210 HD
ENDBRANCH  24  37
BRANCH  25  39
HETATM   39  O9  UNL     1      55.814 -38.727   7.146  1.00  0.00    -0.393 OA
ATOM     40  H9  UNL     1      56.410 -38.934   6.436  1.00  0.00     0.210 HD
ENDBRANCH  25  39
BRANCH  12  41
HETATM   41  O3  UNL     1      61.276 -38.052   7.397  1.00  0.00    -0.369 OA
ATOM     42  H3  UNL     1      62.121 -37.673   7.181  1.00  0.00     0.212 HD
ENDBRANCH  12  41
BRANCH   1  43
HETATM   43  C2  UNL     1      62.188 -32.931   6.115  1.00  0.00    -0.027 C 
HETATM   44  C1  UNL     1      63.203 -32.155   6.419  1.00  0.00     0.007 C 
ENDBRANCH   1  43
TORSDOF 12
ENDMDL
MODEL 3
REMARK VINA RESULT: -5.950936003      1.532      2.068
REMARK  12 active torsions:
REMARK  status: ('A' for Active; 'I' for Inactive)
REMARK    1  A    between atoms: C2_2  and  C3_3 
REMARK    2  A    between atoms: C12_14  and  O3_15 
REMARK    3  A    between atoms: C20_26  and  O6_27 
REMARK    4  A    between atoms: O6_27  and  C21_28 
REMARK    5  A    between atoms: C21_28  and  C22_30 
REMARK    6  A    between atoms: C22_30  and  C23_31 
REMARK    7  A    between atoms: C23_31  and  C24_32 
REMARK    8  A    between atoms: C24_32  and  C25_33 
REMARK    9  A    between atoms: C25_33  and  C26_34 
REMARK   10  A    between atoms: C26_34  and  C27_35 
REMARK   11  A    between atoms: C30_38  and  O8_39 
REMARK   12  A    between atoms: C31_41  and  O9_42 
ROOT
HETATM    1  C3  UNL     1      37.361 -41.026   8.260  1.00  0.00    -0.014 C 
HETATM    2  C4  UNL     1      35.885 -41.243   8.416  1.00  0.00     0.020 C 
HETATM    3  C5  UNL     1      38.078 -41.406   9.494  1.00  0.00     0.092 C 
HETATM    4  C6  UNL     1      38.100 -40.481  10.617  1.00  0.00     0.133 C 
HETATM    5  O1  UNL     1      37.071 -40.009  11.044  1.00  0.00    -0.298 OA
HETATM    6  C7  UNL     1      39.352 -40.089  11.271  1.00  0.00     0.067 C 
HETATM    7  C8  UNL     1      40.339 -41.195  11.104  1.00  0.00     0.019 C 
HETATM    8  C9  UNL     1      39.869 -38.707  10.884  1.00  0.00     0.038 C 
HETATM    9  C10 UNL     1      41.401 -38.804  11.016  1.00  0.00     0.025 C 
HETATM   10  C11 UNL     1      39.662 -38.419   9.435  1.00  0.00     0.186 C 
HETATM   11  O2  UNL     1      40.487 -38.823   8.588  1.00  0.00    -0.293 OA
HETATM   12  C12 UNL     1      38.547 -37.676   8.846  1.00  0.00     0.241 C 
HETATM   13  C13 UNL     1      37.460 -38.504   8.275  1.00  0.00     0.177 C 
HETATM   14  O4  UNL     1      36.308 -38.079   8.405  1.00  0.00    -0.294 OA
HETATM   15  C14 UNL     1      37.741 -39.751   7.595  1.00  0.00     0.096 C 
HETATM   16  C15 UNL     1      38.061 -36.711   9.856  1.00  0.00     0.185 C 
HETATM   17  O5  UNL     1      37.025 -36.153   9.571  1.00  0.00    -0.293 OA
HETATM   18  C16 UNL     1      38.758 -36.423  11.119  1.00  0.00     0.034 C 
HETATM   19  C17 UNL     1      39.810 -35.373  10.780  1.00  0.00     0.025 C 
HETATM   20  C18 UNL     1      37.750 -35.687  11.985  1.00  0.00     0.027 C 
HETATM   21  C19 UNL     1      36.388 -36.280  12.022  1.00  0.00     0.014 C 
HETATM   22  C20 UNL     1      38.202 -35.342  13.353  1.00  0.00     0.139 C 
HETATM   23  C29 UNL     1      38.177 -36.575  14.215  1.00  0.00     0.067 C 
HETATM   24  C30 UNL     1      39.511 -37.250  14.299  1.00  0.00     0.149 C 
HETATM   25  C31 UNL     1      40.211 -37.356  12.965  1.00  0.00     0.153 C 
HETATM   26  C32 UNL     1      39.310 -37.623  11.797  1.00  0.00     0.049 C 
ENDROOT
BRANCH  22  27
HETATM   27  O6  UNL     1      37.190 -34.475  13.902  1.00  0.00    -0.316 OA
BRANCH  27  28
HETATM   28  C21 UNL     1      37.449 -33.627  14.980  1.00  0.00     0.259 C 
HETATM   29  O7  UNL     1      36.434 -33.120  15.523  1.00  0.00    -0.265 OA
BRANCH  28  30
HETATM   30  C22 UNL     1      38.826 -33.345  15.451  1.00  0.00     0.111 C 
BRANCH  30  31
HETATM   31  C23 UNL     1      39.039 -31.853  15.440  1.00  0.00     0.010 C 
BRANCH  31  32
HETATM   32  C24 UNL     1      39.666 -31.303  16.677  1.00  0.00     0.000 C 
BRANCH  32  33
HETATM   33  C25 UNL     1      39.922 -32.356  17.719  1.00  0.00     0.000 C 
BRANCH  33  34
HETATM   34  C26 UNL     1      41.202 -32.032  18.469  1.00  0.00    -0.000 C 
BRANCH  34  35
HETATM   35  C27 UNL     1      42.092 -33.265  18.515  1.00  0.00    -0.005 C 
HETATM   36  C28 UNL     1      41.346 -34.432  17.901  1.00  0.00     0.005 C 
ENDBRANCH  34  35
ENDBRANCH  33  34
ENDBRANCH  32  33
ENDBRANCH  31  32
ENDBRANCH  30  31
ENDBRANCH  28  30
ENDBRANCH  27  28
ENDBRANCH  22  27
BRANCH  24  37
HETATM   37  O8  UNL     1      39.337 -38.516  14.845  1.00  0.00    -0.393 OA
ATOM     38  H8  UNL     1      39.269 -39.146  14.138  1.00  0.00     0.210 HD
ENDBRANCH  24  37
BRANCH  25  39
HETATM   39  O9  UNL     1      41.123 -36.319  12.777  1.00  0.00    -0.393 OA
ATOM     40  H9  UNL     1      41.126 -36.011  11.879  1.00  0.00     0.210 HD
ENDBRANCH  25  39
BRANCH  12  41
HETATM   41  O3  UNL     1      39.008 -36.911   7.724  1.00  0.00    -0.369 OA
ATOM     42  H3  UNL     1      39.372 -36.086   8.024  1.00  0.00     0.212 HD
ENDBRANCH  12  41
BRANCH   1  43
HETATM   43  C2  UNL     1      37.772 -42.100   7.244  1.00  0.00    -0.027 C 
HETATM   44  C1  UNL     1      38.899 -42.765   7.356  1.00  0.00     0.007 C 
ENDBRANCH   1  43
TORSDOF 12
ENDMDL
MODEL 4
REMARK VINA RESULT: -5.718934192      1.662      2.678
REMARK  12 active torsions:
REMARK  status: ('A' for Active; 'I' for Inactive)
REMARK    1  A    between atoms: C2_2  and  C3_3 
REMARK    2  A    between atoms: C12_14  and  O3_15 
REMARK    3  A    between atoms: C20_26  and  O6_27 
REMARK    4  A    between atoms: O6_27  and  C21_28 
REMARK    5  A    between atoms: C21_28  and  C22_30 
REMARK    6  A    between atoms: C22_30  and  C23_31 
REMARK    7  A    between atoms: C23_31  and  C24_32 
REMARK    8  A    between atoms: C24_32  and  C25_33 
REMARK    9  A    between atoms: C25_33  and  C26_34 
REMARK   10  A    between atoms: C26_34  and  C27_35 
REMARK   11  A    between atoms: C30_38  and  O8_39 
REMARK   12  A    between atoms: C31_41  and  O9_42 
ROOT
HETATM    1  C3  UNL     1      37.750 -39.255   7.430  1.00  0.00    -0.014 C 
HETATM    2  C4  UNL     1      36.251 -39.215   7.412  1.00  0.00     0.020 C 
HETATM    3  C5  UNL     1      38.233 -40.382   8.253  1.00  0.00     0.092 C 
HETATM    4  C6  UNL     1      38.257 -40.245   9.702  1.00  0.00     0.133 C 
HETATM    5  O1  UNL     1      37.269 -39.883  10.301  1.00  0.00    -0.298 OA
HETATM    6  C7  UNL     1      39.461 -40.537  10.487  1.00  0.00     0.067 C 
HETATM    7  C8  UNL     1      40.272 -41.547   9.747  1.00  0.00     0.019 C 
HETATM    8  C9  UNL     1      40.236 -39.307  10.948  1.00  0.00     0.038 C 
HETATM    9  C10 UNL     1      41.703 -39.771  11.030  1.00  0.00     0.025 C 
HETATM   10  C11 UNL     1      40.267 -38.242   9.903  1.00  0.00     0.186 C 
HETATM   11  O2  UNL     1      41.119 -38.278   8.990  1.00  0.00    -0.293 OA
HETATM   12  C12 UNL     1      39.369 -37.089   9.810  1.00  0.00     0.241 C 
HETATM   13  C13 UNL     1      38.247 -37.230   8.854  1.00  0.00     0.177 C 
HETATM   14  O4  UNL     1      37.170 -36.721   9.179  1.00  0.00    -0.294 OA
HETATM   15  C14 UNL     1      38.411 -37.932   7.598  1.00  0.00     0.096 C 
HETATM   16  C15 UNL     1      38.917 -36.755  11.178  1.00  0.00     0.185 C 
HETATM   17  O5  UNL     1      38.029 -35.935  11.235  1.00  0.00    -0.293 OA
HETATM   18  C16 UNL     1      39.482 -37.350  12.398  1.00  0.00     0.034 C 
HETATM   19  C17 UNL     1      40.723 -36.525  12.724  1.00  0.00     0.025 C 
HETATM   20  C18 UNL     1      38.501 -37.016  13.510  1.00  0.00     0.027 C 
HETATM   21  C19 UNL     1      37.069 -37.242  13.184  1.00  0.00     0.014 C 
HETATM   22  C20 UNL     1      38.822 -37.572  14.845  1.00  0.00     0.139 C 
HETATM   23  C29 UNL     1      38.491 -39.040  14.870  1.00  0.00     0.067 C 
HETATM   24  C30 UNL     1      39.678 -39.907  14.586  1.00  0.00     0.149 C 
HETATM   25  C31 UNL     1      40.519 -39.410  13.434  1.00  0.00     0.153 C 
HETATM   26  C32 UNL     1      39.744 -38.808  12.300  1.00  0.00     0.049 C 
ENDROOT
BRANCH  22  27
HETATM   27  O6  UNL     1      37.899 -36.959  15.766  1.00  0.00    -0.316 OA
BRANCH  27  28
HETATM   28  C21 UNL     1      38.212 -35.786  16.455  1.00  0.00     0.259 C 
HETATM   29  O7  UNL     1      39.156 -35.880  17.279  1.00  0.00    -0.265 OA
BRANCH  28  30
HETATM   30  C22 UNL     1      37.478 -34.518  16.228  1.00  0.00     0.111 C 
BRANCH  30  31
HETATM   31  C23 UNL     1      38.023 -33.865  14.985  1.00  0.00     0.010 C 
BRANCH  31  32
HETATM   32  C24 UNL     1      39.368 -33.237  15.147  1.00  0.00     0.000 C 
BRANCH  32  33
HETATM   33  C25 UNL     1      39.290 -31.777  15.500  1.00  0.00     0.000 C 
BRANCH  33  34
HETATM   34  C26 UNL     1      39.648 -31.586  16.963  1.00  0.00    -0.000 C 
BRANCH  34  35
HETATM   35  C27 UNL     1      40.635 -32.661  17.391  1.00  0.00    -0.005 C 
HETATM   36  C28 UNL     1      40.995 -32.446  18.847  1.00  0.00     0.005 C 
ENDBRANCH  34  35
ENDBRANCH  33  34
ENDBRANCH  32  33
ENDBRANCH  31  32
ENDBRANCH  30  31
ENDBRANCH  28  30
ENDBRANCH  27  28
ENDBRANCH  22  27
BRANCH  24  37
HETATM   37  O8  UNL     1      39.236 -41.198  14.328  1.00  0.00    -0.393 OA
ATOM     38  H8  UNL     1      39.762 -41.567  13.628  1.00  0.00     0.210 HD
ENDBRANCH  24  37
BRANCH  25  39
HETATM   39  O9  UNL     1      41.601 -38.650  13.875  1.00  0.00    -0.393 OA
ATOM     40  H9  UNL     1      41.898 -38.926  14.734  1.00  0.00     0.210 HD
ENDBRANCH  25  39
BRANCH  12  41
HETATM   41  O3  UNL     1      40.087 -35.950   9.317  1.00  0.00    -0.369 OA
ATOM     42  H3  UNL     1      39.933 -35.202   9.881  1.00  0.00     0.212 HD
ENDBRANCH  12  41
BRANCH   1  43
HETATM   43  C2  UNL     1      38.112 -39.659   5.995  1.00  0.00    -0.027 C 
HETATM   44  C1  UNL     1      39.000 -40.594   5.742  1.00  0.00     0.007 C 
ENDBRANCH   1  43
TORSDOF 12
ENDMDL
MODEL 5
REMARK VINA RESULT: -5.663025493     15.087     17.422
REMARK  12 active torsions:
REMARK  status: ('A' for Active; 'I' for Inactive)
REMARK    1  A    between atoms: C2_2  and  C3_3 
REMARK    2  A    between atoms: C12_14  and  O3_15 
REMARK    3  A    between atoms: C20_26  and  O6_27 
REMARK    4  A    between atoms: O6_27  and  C21_28 
REMARK    5  A    between atoms: C21_28  and  C22_30 
REMARK    6  A    between atoms: C22_30  and  C23_31 
REMARK    7  A    between atoms: C23_31  and  C24_32 
REMARK    8  A    between atoms: C24_32  and  C25_33 
REMARK    9  A    between atoms: C25_33  and  C26_34 
REMARK   10  A    between atoms: C26_34  and  C27_35 
REMARK   11  A    between atoms: C30_38  and  O8_39 
REMARK   12  A    between atoms: C31_41  and  O9_42 
ROOT
HETATM    1  C3  UNL     1      49.608 -38.032   8.222  1.00  0.00    -0.014 C 
HETATM    2  C4  UNL     1      49.294 -37.051   9.313  1.00  0.00     0.020 C 
HETATM    3  C5  UNL     1      50.063 -39.316   8.791  1.00  0.00     0.092 C 
HETATM    4  C6  UNL     1      51.440 -39.443   9.248  1.00  0.00     0.133 C 
HETATM    5  O1  UNL     1      51.908 -38.632  10.015  1.00  0.00    -0.298 OA
HETATM    6  C7  UNL     1      52.303 -40.543   8.808  1.00  0.00     0.067 C 
HETATM    7  C8  UNL     1      51.441 -41.714   8.474  1.00  0.00     0.019 C 
HETATM    8  C9  UNL     1      53.316 -40.167   7.732  1.00  0.00     0.038 C 
HETATM    9  C10 UNL     1      53.533 -41.460   6.922  1.00  0.00     0.025 C 
HETATM   10  C11 UNL     1      52.743 -39.222   6.730  1.00  0.00     0.186 C 
HETATM   11  O2  UNL     1      52.074 -39.652   5.767  1.00  0.00    -0.293 OA
HETATM   12  C12 UNL     1      52.877 -37.764   6.735  1.00  0.00     0.241 C 
HETATM   13  C13 UNL     1      51.722 -37.019   7.286  1.00  0.00     0.177 C 
HETATM   14  O4  UNL     1      51.974 -35.999   7.934  1.00  0.00    -0.294 OA
HETATM   15  C14 UNL     1      50.363 -37.470   7.070  1.00  0.00     0.096 C 
HETATM   16  C15 UNL     1      54.150 -37.427   7.409  1.00  0.00     0.185 C 
HETATM   17  O5  UNL     1      54.305 -36.250   7.645  1.00  0.00    -0.293 OA
HETATM   18  C16 UNL     1      55.172 -38.418   7.776  1.00  0.00     0.034 C 
HETATM   19  C17 UNL     1      56.016 -38.625   6.523  1.00  0.00     0.025 C 
HETATM   20  C18 UNL     1      56.100 -37.710   8.748  1.00  0.00     0.027 C 
HETATM   21  C19 UNL     1      55.427 -36.927   9.816  1.00  0.00     0.014 C 
HETATM   22  C20 UNL     1      57.191 -38.534   9.319  1.00  0.00     0.139 C 
HETATM   23  C29 UNL     1      56.629 -39.444  10.378  1.00  0.00     0.067 C 
HETATM   24  C30 UNL     1      56.312 -40.811   9.858  1.00  0.00     0.149 C 
HETATM   25  C31 UNL     1      55.609 -40.794   8.522  1.00  0.00     0.153 C 
HETATM   26  C32 UNL     1      54.624 -39.678   8.340  1.00  0.00     0.049 C 
ENDROOT
BRANCH  22  27
HETATM   27  O6  UNL     1      58.056 -37.621  10.023  1.00  0.00    -0.316 OA
BRANCH  27  28
HETATM   28  C21 UNL     1      59.279 -37.206   9.495  1.00  0.00     0.259 C 
HETATM   29  O7  UNL     1      60.266 -37.925   9.792  1.00  0.00    -0.265 OA
BRANCH  28  30
HETATM   30  C22 UNL     1      59.403 -35.999   8.643  1.00  0.00     0.111 C 
BRANCH  30  31
HETATM   31  C23 UNL     1      58.629 -34.878   9.285  1.00  0.00     0.010 C 
BRANCH  31  32
HETATM   32  C24 UNL     1      57.558 -34.288   8.430  1.00  0.00     0.000 C 
BRANCH  32  33
HETATM   33  C25 UNL     1      57.693 -34.669   6.981  1.00  0.00     0.000 C 
BRANCH  33  34
HETATM   34  C26 UNL     1      58.133 -33.460   6.175  1.00  0.00    -0.000 C 
BRANCH  34  35
HETATM   35  C27 UNL     1      59.385 -33.805   5.383  1.00  0.00    -0.005 C 
HETATM   36  C28 UNL     1      60.603 -33.444   6.208  1.00  0.00     0.005 C 
ENDBRANCH  34  35
ENDBRANCH  33  34
ENDBRANCH  32  33
ENDBRANCH  31  32
ENDBRANCH  30  31
ENDBRANCH  28  30
ENDBRANCH  27  28
ENDBRANCH  22  27
BRANCH  24  37
HETATM   37  O8  UNL     1      55.531 -41.475  10.796  1.00  0.00    -0.393 OA
ATOM     38  H8  UNL     1      54.679 -41.058  10.834  1.00  0.00     0.210 HD
ENDBRANCH  24  37
BRANCH  25  39
HETATM   39  O9  UNL     1      56.502 -40.966   7.467  1.00  0.00    -0.393 OA
ATOM     40  H9  UNL     1      56.858 -41.847   7.447  1.00  0.00     0.210 HD
ENDBRANCH  25  39
BRANCH  12  41
HETATM   41  O3  UNL     1      52.975 -37.279   5.389  1.00  0.00    -0.369 OA
ATOM     42  H3  UNL     1      52.259 -36.681   5.207  1.00  0.00     0.212 HD
ENDBRANCH  12  41
BRANCH   1  43
HETATM   43  C2  UNL     1      48.230 -38.355   7.628  1.00  0.00    -0.027 C 
HETATM   44  C1  UNL     1      47.183 -37.595   7.854  1.00  0.00     0.007 C 
ENDBRANCH   1  43
TORSDOF 12
ENDMDL
