MODEL 1
REMARK VINA RESULT: -6.884745401      0.000      0.000
REMARK  12 active torsions:
REMARK  status: ('A' for Active; 'I' for Inactive)
REMARK    1  A    between atoms: C2_2  and  C3_3 
REMARK    2  A    between atoms: C2_2  and  C9_11 
REMARK    3  A    between atoms: C12_15  and  N1_16 
REMARK    4  A    between atoms: C14_21  and  C15_22 
REMARK    5  A    between atoms: C15_22  and  C17_24 
REMARK    6  A    between atoms: C18_25  and  C20_27 
REMARK    7  A    between atoms: C21_28  and  C22_29 
REMARK    8  A    between atoms: C25_32  and  C26_33 
REMARK    9  A    between atoms: C26_33  and  O4_34 
REMARK   10  A    between atoms: O4_34  and  S1_35 
REMARK   11  A    between atoms: C28_39  and  O7_40 
REMARK   12  A    between atoms: C29_42  and  O8_43 
ROOT
HETATM    1  C15 UNL     1      40.105 -38.831  14.440  1.00  0.00     0.011 C 
HETATM    2  C16 UNL     1      41.148 -39.825  13.880  1.00  0.00     0.015 C 
ENDROOT
BRANCH   1   3
HETATM    3  C14 UNL     1      39.997 -37.752  13.396  1.00  0.00     0.028 C 
HETATM    4  C9  UNL     1      39.903 -36.354  13.858  1.00  0.00     0.157 C 
HETATM    5  O3  UNL     1      40.122 -35.528  12.760  1.00  0.00    -0.374 OA
HETATM    6  C10 UNL     1      39.586 -35.837  11.572  1.00  0.00     0.148 C 
HETATM    7  C11 UNL     1      38.154 -35.332  11.337  1.00  0.00     0.042 C 
HETATM    8  C12 UNL     1      39.707 -37.252  11.083  1.00  0.00     0.212 C 
HETATM    9  C13 UNL     1      39.152 -38.116  12.236  1.00  0.00     0.043 C 
BRANCH   4  10
HETATM   10  C2  UNL     1      38.771 -35.940  14.680  1.00  0.00    -0.031 C 
HETATM   11  C1  UNL     1      37.492 -36.272  14.490  1.00  0.00     0.019 C 
BRANCH  10  12
HETATM   12  C3  UNL     1      39.010 -35.055  15.850  1.00  0.00     0.167 C 
HETATM   13  O1  UNL     1      37.823 -34.394  16.274  1.00  0.00    -0.311 OA
HETATM   14  C4  UNL     1      37.797 -33.102  15.807  1.00  0.00     0.263 C 
HETATM   15  O2  UNL     1      36.785 -32.353  15.598  1.00  0.00    -0.265 OA
HETATM   16  C5  UNL     1      39.167 -32.665  15.563  1.00  0.00     0.088 C 
HETATM   17  C6  UNL     1      39.605 -31.608  16.545  1.00  0.00     0.021 C 
HETATM   18  C7  UNL     1      39.976 -33.962  15.735  1.00  0.00     0.029 C 
HETATM   19  C8  UNL     1      40.741 -33.837  17.071  1.00  0.00     0.014 C 
ENDBRANCH  10  12
ENDBRANCH   4  10
BRANCH   8  20
HETATM   20  N1  UNL     1      38.898 -37.443   9.923  1.00  0.00    -0.073 N 
ATOM     21  H13 UNL     1      37.903 -37.429  10.146  1.00  0.00     0.274 HD
ATOM     22  H12 UNL     1      38.925 -36.635   9.303  1.00  0.00     0.274 HD
ATOM     23  H11 UNL     1      39.168 -38.302   9.443  1.00  0.00     0.274 HD
ENDBRANCH   8  20
ENDBRANCH   1   3
BRANCH   1  24
HETATM   24  C17 UNL     1      40.712 -38.348  15.688  1.00  0.00    -0.015 C 
HETATM   25  C18 UNL     1      40.075 -38.472  16.839  1.00  0.00    -0.065 C 
HETATM   26  C19 UNL     1      38.757 -39.100  16.858  1.00  0.00     0.048 C 
BRANCH  25  27
HETATM   27  C20 UNL     1      40.697 -37.978  18.081  1.00  0.00     0.007 C 
HETATM   28  C21 UNL     1      40.185 -37.110  18.899  1.00  0.00     0.010 C 
BRANCH  28  29
HETATM   29  C22 UNL     1      40.742 -36.586  20.131  1.00  0.00    -0.031 C 
HETATM   30  C23 UNL     1      42.066 -36.243  20.118  1.00  0.00    -0.016 C 
HETATM   31  C24 UNL     1      42.637 -35.711  21.370  1.00  0.00     0.037 C 
HETATM   32  C25 UNL     1      41.780 -34.652  22.027  1.00  0.00     0.046 C 
HETATM   33  C28 UNL     1      40.319 -34.886  21.838  1.00  0.00     0.158 C 
HETATM   34  C29 UNL     1      40.091 -36.352  21.419  1.00  0.00     0.180 C 
BRANCH  32  35
HETATM   35  C26 UNL     1      42.191 -33.303  21.473  1.00  0.00     0.197 C 
BRANCH  35  36
HETATM   36  O4  UNL     1      41.317 -32.296  21.858  1.00  0.00    -0.276 OA
BRANCH  36  37
HETATM   37  S1  UNL     1      42.101 -31.325  22.971  1.00  0.00     0.261 S 
HETATM   38  C27 UNL     1      40.941 -30.263  23.799  1.00  0.00     0.194 C 
HETATM   39  O5  UNL     1      43.073 -30.439  22.219  1.00  0.00    -0.199 OA
HETATM   40  O6  UNL     1      42.822 -32.130  24.017  1.00  0.00    -0.199 OA
ENDBRANCH  36  37
ENDBRANCH  35  36
ENDBRANCH  32  35
BRANCH  33  41
HETATM   41  O7  UNL     1      39.658 -34.720  23.049  1.00  0.00    -0.392 OA
ATOM     42  H7  UNL     1      39.843 -33.855  23.398  1.00  0.00     0.210 HD
ENDBRANCH  33  41
BRANCH  34  43
HETATM   43  O8  UNL     1      38.740 -36.552  21.479  1.00  0.00    -0.388 OA
ATOM     44  H8  UNL     1      38.210 -35.832  21.801  1.00  0.00     0.210 HD
ENDBRANCH  34  43
ENDBRANCH  28  29
ENDBRANCH  25  27
ENDBRANCH   1  24
TORSDOF 12
ENDMDL
MODEL 2
REMARK VINA RESULT: -6.593502593     11.403     13.838
REMARK  12 active torsions:
REMARK  status: ('A' for Active; 'I' for Inactive)
REMARK    1  A    between atoms: C2_2  and  C3_3 
REMARK    2  A    between atoms: C2_2  and  C9_11 
REMARK    3  A    between atoms: C12_15  and  N1_16 
REMARK    4  A    between atoms: C14_21  and  C15_22 
REMARK    5  A    between atoms: C15_22  and  C17_24 
REMARK    6  A    between atoms: C18_25  and  C20_27 
REMARK    7  A    between atoms: C21_28  and  C22_29 
REMARK    8  A    between atoms: C25_32  and  C26_33 
REMARK    9  A    between atoms: C26_33  and  O4_34 
REMARK   10  A    between atoms: O4_34  and  S1_35 
REMARK   11  A    between atoms: C28_39  and  O7_40 
REMARK   12  A    between atoms: C29_42  and  O8_43 
ROOT
HETATM    1  C15 UNL     1      47.089 -26.239  14.285  1.00  0.00     0.011 C 
HETATM    2  C16 UNL     1      47.796 -25.101  15.056  1.00  0.00     0.015 C 
ENDROOT
BRANCH   1   3
HETATM    3  C14 UNL     1      45.638 -26.126  14.670  1.00  0.00     0.028 C 
HETATM    4  C9  UNL     1      44.741 -25.384  13.763  1.00  0.00     0.157 C 
HETATM    5  O3  UNL     1      43.431 -25.663  14.141  1.00  0.00    -0.374 OA
HETATM    6  C10 UNL     1      43.106 -25.724  15.438  1.00  0.00     0.148 C 
HETATM    7  C11 UNL     1      42.734 -24.386  16.094  1.00  0.00     0.042 C 
HETATM    8  C12 UNL     1      43.999 -26.504  16.360  1.00  0.00     0.212 C 
HETATM    9  C13 UNL     1      45.412 -25.929  16.120  1.00  0.00     0.043 C 
BRANCH   4  10
HETATM   10  C2  UNL     1      44.982 -23.968  13.507  1.00  0.00    -0.031 C 
HETATM   11  C1  UNL     1      44.462 -22.942  14.184  1.00  0.00     0.019 C 
BRANCH  10  12
HETATM   12  C3  UNL     1      45.882 -23.577  12.391  1.00  0.00     0.167 C 
HETATM   13  O1  UNL     1      47.240 -23.477  12.805  1.00  0.00    -0.311 OA
HETATM   14  C4  UNL     1      47.585 -22.164  13.016  1.00  0.00     0.263 C 
HETATM   15  O2  UNL     1      48.506 -21.695  13.765  1.00  0.00    -0.265 OA
HETATM   16  C5  UNL     1      46.705 -21.315  12.221  1.00  0.00     0.088 C 
HETATM   17  C6  UNL     1      47.440 -20.645  11.089  1.00  0.00     0.021 C 
HETATM   18  C7  UNL     1      45.652 -22.307  11.699  1.00  0.00     0.029 C 
HETATM   19  C8  UNL     1      45.936 -22.508  10.194  1.00  0.00     0.014 C 
ENDBRANCH  10  12
ENDBRANCH   4  10
BRANCH   8  20
HETATM   20  N1  UNL     1      43.625 -26.277  17.718  1.00  0.00    -0.073 N 
ATOM     21  H13 UNL     1      43.255 -25.337  17.859  1.00  0.00     0.274 HD
ATOM     22  H12 UNL     1      42.794 -26.807  17.977  1.00  0.00     0.274 HD
ATOM     23  H11 UNL     1      44.411 -26.474  18.337  1.00  0.00     0.274 HD
ENDBRANCH   8  20
ENDBRANCH   1   3
BRANCH   1  24
HETATM   24  C17 UNL     1      47.716 -27.461  14.805  1.00  0.00    -0.015 C 
HETATM   25  C18 UNL     1      48.117 -28.415  13.984  1.00  0.00    -0.065 C 
HETATM   26  C19 UNL     1      47.933 -28.239  12.546  1.00  0.00     0.048 C 
BRANCH  25  27
HETATM   27  C20 UNL     1      48.741 -29.637  14.524  1.00  0.00     0.007 C 
HETATM   28  C21 UNL     1      49.951 -29.739  14.980  1.00  0.00     0.010 C 
BRANCH  28  29
HETATM   29  C22 UNL     1      50.620 -30.906  15.523  1.00  0.00    -0.031 C 
HETATM   30  C23 UNL     1      51.212 -31.754  14.630  1.00  0.00    -0.016 C 
HETATM   31  C24 UNL     1      51.893 -32.943  15.178  1.00  0.00     0.037 C 
HETATM   32  C25 UNL     1      52.790 -32.640  16.357  1.00  0.00     0.046 C 
HETATM   33  C28 UNL     1      52.270 -31.536  17.215  1.00  0.00     0.158 C 
HETATM   34  C29 UNL     1      50.773 -31.325  16.916  1.00  0.00     0.180 C 
BRANCH  32  35
HETATM   35  C26 UNL     1      54.171 -32.313  15.827  1.00  0.00     0.197 C 
BRANCH  35  36
HETATM   36  O4  UNL     1      54.838 -33.446  15.382  1.00  0.00    -0.276 OA
BRANCH  36  37
HETATM   37  S1  UNL     1      56.358 -33.461  16.079  1.00  0.00     0.261 S 
HETATM   38  C27 UNL     1      56.341 -32.592  17.629  1.00  0.00     0.194 C 
HETATM   39  O5  UNL     1      57.305 -32.724  15.154  1.00  0.00    -0.199 OA
HETATM   40  O6  UNL     1      56.850 -34.858  16.334  1.00  0.00    -0.199 OA
ENDBRANCH  36  37
ENDBRANCH  35  36
ENDBRANCH  32  35
BRANCH  33  41
HETATM   41  O7  UNL     1      52.352 -31.906  18.553  1.00  0.00    -0.392 OA
ATOM     42  H7  UNL     1      51.728 -31.402  19.062  1.00  0.00     0.210 HD
ENDBRANCH  33  41
BRANCH  34  43
HETATM   43  O8  UNL     1      50.317 -30.467  17.877  1.00  0.00    -0.388 OA
ATOM     44  H8  UNL     1      50.887 -30.310  18.621  1.00  0.00     0.210 HD
ENDBRANCH  34  43
ENDBRANCH  28  29
ENDBRANCH  25  27
ENDBRANCH   1  24
TORSDOF 12
ENDMDL
MODEL 3
REMARK VINA RESULT: -6.481494469     14.094     16.379
REMARK  12 active torsions:
REMARK  status: ('A' for Active; 'I' for Inactive)
REMARK    1  A    between atoms: C2_2  and  C3_3 
REMARK    2  A    between atoms: C2_2  and  C9_11 
REMARK    3  A    between atoms: C12_15  and  N1_16 
REMARK    4  A    between atoms: C14_21  and  C15_22 
REMARK    5  A    between atoms: C15_22  and  C17_24 
REMARK    6  A    between atoms: C18_25  and  C20_27 
REMARK    7  A    between atoms: C21_28  and  C22_29 
REMARK    8  A    between atoms: C25_32  and  C26_33 
REMARK    9  A    between atoms: C26_33  and  O4_34 
REMARK   10  A    between atoms: O4_34  and  S1_35 
REMARK   11  A    between atoms: C28_39  and  O7_40 
REMARK   12  A    between atoms: C29_42  and  O8_43 
ROOT
HETATM    1  C15 UNL     1      56.929 -35.866  14.047  1.00  0.00     0.011 C 
HETATM    2  C16 UNL     1      57.562 -35.552  12.672  1.00  0.00     0.015 C 
ENDROOT
BRANCH   1   3
HETATM    3  C14 UNL     1      56.243 -37.193  13.865  1.00  0.00     0.028 C 
HETATM    4  C9  UNL     1      56.180 -38.101  15.027  1.00  0.00     0.157 C 
HETATM    5  O3  UNL     1      55.259 -39.102  14.733  1.00  0.00    -0.374 OA
HETATM    6  C10 UNL     1      55.224 -39.642  13.509  1.00  0.00     0.148 C 
HETATM    7  C11 UNL     1      56.184 -40.818  13.273  1.00  0.00     0.042 C 
HETATM    8  C12 UNL     1      55.256 -38.722  12.323  1.00  0.00     0.212 C 
HETATM    9  C13 UNL     1      56.495 -37.829  12.551  1.00  0.00     0.043 C 
BRANCH   4  10
HETATM   10  C2  UNL     1      57.414 -38.603  15.619  1.00  0.00    -0.031 C 
HETATM   11  C1  UNL     1      58.579 -38.778  14.991  1.00  0.00     0.019 C 
BRANCH  10  12
HETATM   12  C3  UNL     1      57.429 -38.977  17.057  1.00  0.00     0.167 C 
HETATM   13  O1  UNL     1      56.682 -38.067  17.857  1.00  0.00    -0.311 OA
HETATM   14  C4  UNL     1      57.521 -37.181  18.489  1.00  0.00     0.263 C 
HETATM   15  O2  UNL     1      57.258 -36.008  18.920  1.00  0.00    -0.265 OA
HETATM   16  C5  UNL     1      58.839 -37.792  18.614  1.00  0.00     0.088 C 
HETATM   17  C6  UNL     1      59.174 -38.120  20.047  1.00  0.00     0.021 C 
HETATM   18  C7  UNL     1      58.710 -39.064  17.761  1.00  0.00     0.029 C 
HETATM   19  C8  UNL     1      58.654 -40.256  18.742  1.00  0.00     0.014 C 
ENDBRANCH  10  12
ENDBRANCH   4  10
BRANCH   8  20
HETATM   20  N1  UNL     1      55.434 -39.470  11.121  1.00  0.00    -0.073 N 
ATOM     21  H13 UNL     1      56.365 -39.881  11.063  1.00  0.00     0.274 HD
ATOM     22  H12 UNL     1      54.889 -40.332  11.126  1.00  0.00     0.274 HD
ATOM     23  H11 UNL     1      55.222 -38.889  10.310  1.00  0.00     0.274 HD
ENDBRANCH   8  20
ENDBRANCH   1   3
BRANCH   1  24
HETATM   24  C17 UNL     1      55.979 -34.766  14.258  1.00  0.00    -0.015 C 
HETATM   25  C18 UNL     1      56.204 -33.848  15.182  1.00  0.00    -0.065 C 
HETATM   26  C19 UNL     1      57.416 -33.938  15.992  1.00  0.00     0.048 C 
BRANCH  25  27
HETATM   27  C20 UNL     1      55.238 -32.753  15.383  1.00  0.00     0.007 C 
HETATM   28  C21 UNL     1      53.945 -32.867  15.392  1.00  0.00     0.010 C 
BRANCH  28  29
HETATM   29  C22 UNL     1      52.945 -31.835  15.584  1.00  0.00    -0.031 C 
HETATM   30  C23 UNL     1      52.514 -31.172  14.469  1.00  0.00    -0.016 C 
HETATM   31  C24 UNL     1      51.498 -30.120  14.661  1.00  0.00     0.037 C 
HETATM   32  C25 UNL     1      50.350 -30.539  15.554  1.00  0.00     0.046 C 
HETATM   33  C28 UNL     1      50.770 -31.468  16.643  1.00  0.00     0.158 C 
HETATM   34  C29 UNL     1      52.300 -31.385  16.817  1.00  0.00     0.180 C 
BRANCH  32  35
HETATM   35  C26 UNL     1      49.281 -31.166  14.684  1.00  0.00     0.197 C 
BRANCH  35  36
HETATM   36  O4  UNL     1      48.762 -30.264  13.767  1.00  0.00    -0.276 OA
BRANCH  36  37
HETATM   37  S1  UNL     1      48.667 -31.027  12.283  1.00  0.00     0.261 S 
HETATM   38  C27 UNL     1      48.306 -29.852  10.999  1.00  0.00     0.194 C 
HETATM   39  O5  UNL     1      47.517 -32.012  12.335  1.00  0.00    -0.199 OA
HETATM   40  O6  UNL     1      49.948 -31.729  11.923  1.00  0.00    -0.199 OA
ENDBRANCH  36  37
ENDBRANCH  35  36
ENDBRANCH  32  35
BRANCH  33  41
HETATM   41  O7  UNL     1      50.217 -31.054  17.849  1.00  0.00    -0.392 OA
ATOM     42  H7  UNL     1      50.361 -31.720  18.511  1.00  0.00     0.210 HD
ENDBRANCH  33  41
BRANCH  34  43
HETATM   43  O8  UNL     1      52.584 -32.082  17.958  1.00  0.00    -0.388 OA
ATOM     44  H8  UNL     1      52.117 -32.899  18.093  1.00  0.00     0.210 HD
ENDBRANCH  34  43
ENDBRANCH  28  29
ENDBRANCH  25  27
ENDBRANCH   1  24
TORSDOF 12
ENDMDL
MODEL 4
REMARK VINA RESULT: -6.462826911     11.135     13.079
REMARK  12 active torsions:
REMARK  status: ('A' for Active; 'I' for Inactive)
REMARK    1  A    between atoms: C2_2  and  C3_3 
REMARK    2  A    between atoms: C2_2  and  C9_11 
REMARK    3  A    between atoms: C12_15  and  N1_16 
REMARK    4  A    between atoms: C14_21  and  C15_22 
REMARK    5  A    between atoms: C15_22  and  C17_24 
REMARK    6  A    between atoms: C18_25  and  C20_27 
REMARK    7  A    between atoms: C21_28  and  C22_29 
REMARK    8  A    between atoms: C25_32  and  C26_33 
REMARK    9  A    between atoms: C26_33  and  O4_34 
REMARK   10  A    between atoms: O4_34  and  S1_35 
REMARK   11  A    between atoms: C28_39  and  O7_40 
REMARK   12  A    between atoms: C29_42  and  O8_43 
ROOT
HETATM    1  C15 UNL     1      47.439 -28.704  15.329  1.00  0.00     0.011 C 
HETATM    2  C16 UNL     1      46.051 -29.376  15.436  1.00  0.00     0.015 C 
ENDROOT
BRANCH   1   3
HETATM    3  C14 UNL     1      47.546 -28.261  13.894  1.00  0.00     0.028 C 
HETATM    4  C9  UNL     1      46.983 -26.944  13.536  1.00  0.00     0.157 C 
HETATM    5  O3  UNL     1      47.455 -26.611  12.271  1.00  0.00    -0.374 OA
HETATM    6  C10 UNL     1      47.529 -27.546  11.315  1.00  0.00     0.148 C 
HETATM    7  C11 UNL     1      46.248 -27.760  10.495  1.00  0.00     0.042 C 
HETATM    8  C12 UNL     1      48.129 -28.877  11.666  1.00  0.00     0.212 C 
HETATM    9  C13 UNL     1      47.345 -29.347  12.909  1.00  0.00     0.043 C 
BRANCH   4  10
HETATM   10  C2  UNL     1      45.555 -26.699  13.707  1.00  0.00    -0.031 C 
HETATM   11  C1  UNL     1      44.561 -27.384  13.137  1.00  0.00     0.019 C 
BRANCH  10  12
HETATM   12  C3  UNL     1      45.111 -25.584  14.584  1.00  0.00     0.167 C 
HETATM   13  O1  UNL     1      45.277 -25.888  15.964  1.00  0.00    -0.311 OA
HETATM   14  C4  UNL     1      44.081 -26.274  16.520  1.00  0.00     0.263 C 
HETATM   15  O2  UNL     1      43.882 -27.004  17.549  1.00  0.00    -0.265 OA
HETATM   16  C5  UNL     1      42.993 -25.704  15.733  1.00  0.00     0.088 C 
HETATM   17  C6  UNL     1      42.251 -24.633  16.491  1.00  0.00     0.021 C 
HETATM   18  C7  UNL     1      43.722 -25.126  14.509  1.00  0.00     0.029 C 
HETATM   19  C8  UNL     1      43.702 -23.589  14.663  1.00  0.00     0.014 C 
ENDBRANCH  10  12
ENDBRANCH   4  10
BRANCH   8  20
HETATM   20  N1  UNL     1      47.925 -29.806  10.603  1.00  0.00    -0.073 N 
ATOM     21  H13 UNL     1      47.264 -29.453   9.911  1.00  0.00     0.274 HD
ATOM     22  H12 UNL     1      48.745 -29.883  10.002  1.00  0.00     0.274 HD
ATOM     23  H11 UNL     1      47.639 -30.711  10.976  1.00  0.00     0.274 HD
ENDBRANCH   8  20
ENDBRANCH   1   3
BRANCH   1  24
HETATM   24  C17 UNL     1      48.380 -29.783  15.656  1.00  0.00    -0.015 C 
HETATM   25  C18 UNL     1      49.537 -29.515  16.236  1.00  0.00    -0.065 C 
HETATM   26  C19 UNL     1      49.870 -28.128  16.551  1.00  0.00     0.048 C 
BRANCH  25  27
HETATM   27  C20 UNL     1      50.472 -30.609  16.553  1.00  0.00     0.007 C 
HETATM   28  C21 UNL     1      51.681 -30.736  16.102  1.00  0.00     0.010 C 
BRANCH  28  29
HETATM   29  C22 UNL     1      52.647 -31.783  16.375  1.00  0.00    -0.031 C 
HETATM   30  C23 UNL     1      53.268 -32.352  15.299  1.00  0.00    -0.016 C 
HETATM   31  C24 UNL     1      54.250 -33.419  15.572  1.00  0.00     0.037 C 
HETATM   32  C25 UNL     1      55.224 -33.079  16.678  1.00  0.00     0.046 C 
HETATM   33  C28 UNL     1      54.615 -32.243  17.753  1.00  0.00     0.158 C 
HETATM   34  C29 UNL     1      53.080 -32.336  17.659  1.00  0.00     0.180 C 
BRANCH  32  35
HETATM   35  C26 UNL     1      56.418 -32.383  16.058  1.00  0.00     0.197 C 
BRANCH  35  36
HETATM   36  O4  UNL     1      57.410 -33.282  15.692  1.00  0.00    -0.276 OA
BRANCH  36  37
HETATM   37  S1  UNL     1      58.125 -33.863  17.087  1.00  0.00     0.261 S 
HETATM   38  C27 UNL     1      57.646 -35.550  17.377  1.00  0.00     0.194 C 
HETATM   39  O5  UNL     1      57.618 -33.038  18.252  1.00  0.00    -0.199 OA
HETATM   40  O6  UNL     1      59.626 -33.812  17.017  1.00  0.00    -0.199 OA
ENDBRANCH  36  37
ENDBRANCH  35  36
ENDBRANCH  32  35
BRANCH  33  41
HETATM   41  O7  UNL     1      54.961 -32.757  18.997  1.00  0.00    -0.392 OA
ATOM     42  H7  UNL     1      54.225 -33.237  19.360  1.00  0.00     0.210 HD
ENDBRANCH  33  41
BRANCH  34  43
HETATM   43  O8  UNL     1      52.598 -31.736  18.788  1.00  0.00    -0.388 OA
ATOM     44  H8  UNL     1      53.214 -31.593  19.497  1.00  0.00     0.210 HD
ENDBRANCH  34  43
ENDBRANCH  28  29
ENDBRANCH  25  27
ENDBRANCH   1  24
TORSDOF 12
ENDMDL
MODEL 5
REMARK VINA RESULT: -6.391223560     10.607     12.858
REMARK  12 active torsions:
REMARK  status: ('A' for Active; 'I' for Inactive)
REMARK    1  A    between atoms: C2_2  and  C3_3 
REMARK    2  A    between atoms: C2_2  and  C9_11 
REMARK    3  A    between atoms: C12_15  and  N1_16 
REMARK    4  A    between atoms: C14_21  and  C15_22 
REMARK    5  A    between atoms: C15_22  and  C17_24 
REMARK    6  A    between atoms: C18_25  and  C20_27 
REMARK    7  A    between atoms: C21_28  and  C22_29 
REMARK    8  A    between atoms: C25_32  and  C26_33 
REMARK    9  A    between atoms: C26_33  and  O4_34 
REMARK   10  A    between atoms: O4_34  and  S1_35 
REMARK   11  A    between atoms: C28_39  and  O7_40 
REMARK   12  A    between atoms: C29_42  and  O8_43 
ROOT
HETATM    1  C15 UNL     1      46.836 -27.641  11.976  1.00  0.00     0.011 C 
HETATM    2  C16 UNL     1      47.491 -27.661  10.575  1.00  0.00     0.015 C 
ENDROOT
BRANCH   1   3
HETATM    3  C14 UNL     1      46.900 -26.203  12.414  1.00  0.00     0.028 C 
HETATM    4  C9  UNL     1      46.538 -25.892  13.811  1.00  0.00     0.157 C 
HETATM    5  O3  UNL     1      46.956 -24.592  14.078  1.00  0.00    -0.374 OA
HETATM    6  C10 UNL     1      46.794 -23.634  13.157  1.00  0.00     0.148 C 
HETATM    7  C11 UNL     1      45.433 -22.922  13.171  1.00  0.00     0.042 C 
HETATM    8  C12 UNL     1      47.189 -23.934  11.740  1.00  0.00     0.212 C 
HETATM    9  C13 UNL     1      46.440 -25.238  11.390  1.00  0.00     0.043 C 
BRANCH   4  10
HETATM   10  C2  UNL     1      45.191 -26.180  14.290  1.00  0.00    -0.031 C 
HETATM   11  C1  UNL     1      44.416 -27.197  13.906  1.00  0.00     0.019 C 
BRANCH  10  12
HETATM   12  C3  UNL     1      44.572 -25.280  15.297  1.00  0.00     0.167 C 
HETATM   13  O1  UNL     1      44.826 -25.710  16.629  1.00  0.00    -0.311 OA
HETATM   14  C4  UNL     1      43.736 -26.374  17.138  1.00  0.00     0.263 C 
HETATM   15  O2  UNL     1      43.701 -27.245  18.070  1.00  0.00    -0.265 OA
HETATM   16  C5  UNL     1      42.542 -25.926  16.430  1.00  0.00     0.088 C 
HETATM   17  C6  UNL     1      41.636 -25.109  17.314  1.00  0.00     0.021 C 
HETATM   18  C7  UNL     1      43.122 -25.081  15.283  1.00  0.00     0.029 C 
HETATM   19  C8  UNL     1      42.823 -23.603  15.623  1.00  0.00     0.014 C 
ENDBRANCH  10  12
ENDBRANCH   4  10
BRANCH   8  20
HETATM   20  N1  UNL     1      46.746 -22.892  10.872  1.00  0.00    -0.073 N 
ATOM     21  H13 UNL     1      45.958 -22.377  11.267  1.00  0.00     0.274 HD
ATOM     22  H12 UNL     1      47.417 -22.126  10.824  1.00  0.00     0.274 HD
ATOM     23  H11 UNL     1      46.530 -23.268   9.950  1.00  0.00     0.274 HD
ENDBRANCH   8  20
ENDBRANCH   1   3
BRANCH   1  24
HETATM   24  C17 UNL     1      47.700 -28.514  12.782  1.00  0.00    -0.015 C 
HETATM   25  C18 UNL     1      47.219 -29.612  13.339  1.00  0.00    -0.065 C 
HETATM   26  C19 UNL     1      45.813 -29.951  13.139  1.00  0.00     0.048 C 
BRANCH  25  27
HETATM   27  C20 UNL     1      48.099 -30.473  14.148  1.00  0.00     0.007 C 
HETATM   28  C21 UNL     1      49.393 -30.400  14.210  1.00  0.00     0.010 C 
BRANCH  28  29
HETATM   29  C22 UNL     1      50.312 -31.213  14.983  1.00  0.00    -0.031 C 
HETATM   30  C23 UNL     1      51.183 -32.002  14.284  1.00  0.00    -0.016 C 
HETATM   31  C24 UNL     1      52.118 -32.832  15.067  1.00  0.00     0.037 C 
HETATM   32  C25 UNL     1      52.802 -32.083  16.189  1.00  0.00     0.046 C 
HETATM   33  C28 UNL     1      51.933 -31.039  16.806  1.00  0.00     0.158 C 
HETATM   34  C29 UNL     1      50.464 -31.319  16.434  1.00  0.00     0.180 C 
BRANCH  32  35
HETATM   35  C26 UNL     1      54.077 -31.475  15.641  1.00  0.00     0.197 C 
BRANCH  35  36
HETATM   36  O4  UNL     1      54.656 -32.276  14.667  1.00  0.00    -0.276 OA
BRANCH  36  37
HETATM   37  S1  UNL     1      55.846 -33.199  15.392  1.00  0.00     0.261 S 
HETATM   38  C27 UNL     1      55.865 -32.925  17.148  1.00  0.00     0.194 C 
HETATM   39  O5  UNL     1      57.187 -32.750  14.847  1.00  0.00    -0.199 OA
HETATM   40  O6  UNL     1      55.646 -34.670  15.154  1.00  0.00    -0.199 OA
ENDBRANCH  36  37
ENDBRANCH  35  36
ENDBRANCH  32  35
BRANCH  33  41
HETATM   41  O7  UNL     1      52.008 -31.128  18.191  1.00  0.00    -0.392 OA
ATOM     42  H7  UNL     1      51.303 -31.677  18.515  1.00  0.00     0.210 HD
ENDBRANCH  33  41
BRANCH  34  43
HETATM   43  O8  UNL     1      49.716 -30.470  17.201  1.00  0.00    -0.388 OA
ATOM     44  H8  UNL     1      49.976 -30.365  18.109  1.00  0.00     0.210 HD
ENDBRANCH  34  43
ENDBRANCH  28  29
ENDBRANCH  25  27
ENDBRANCH   1  24
TORSDOF 12
ENDMDL
