MODEL 1
REMARK VINA RESULT: -7.500806283      0.000      0.000
REMARK  9 active torsions:
REMARK  status: ('A' for Active; 'I' for Inactive)
REMARK       I    between atoms: C2_2  and  N1_4 
REMARK    1  A    between atoms: N1_4  and  C3_6 
REMARK    2  A    between atoms: C5_8  and  C6_9 
REMARK       I    between atoms: C6_9  and  N2_11 
REMARK    3  A    between atoms: N2_11  and  C7_12 
REMARK    4  A    between atoms: C9_14  and  S1_15 
REMARK    5  A    between atoms: S1_15  and  C10_16 
REMARK    6  A    between atoms: C11_17  and  C12_18 
REMARK    7  A    between atoms: C12_18  and  O3_19 
REMARK    8  A    between atoms: C15_25  and  O4_26 
REMARK    9  A    between atoms: C16_28  and  O5_29 
ROOT
HETATM    1  C7  UNL     1     -26.681  29.865  34.326  1.00  0.00     0.309 C 
HETATM    2  C8  UNL     1     -28.047  29.102  34.402  1.00  0.00     0.111 C 
HETATM    3  C9  UNL     1     -29.056  30.016  33.737  1.00  0.00     0.191 C 
HETATM    4  O6  UNL     1     -28.793  29.935  32.376  1.00  0.00    -0.351 OA
HETATM    5  C17 UNL     1     -27.478  29.639  32.160  1.00  0.00     0.343 C 
HETATM    6  O7  UNL     1     -26.554  30.193  33.011  1.00  0.00    -0.331 OA
ENDROOT
BRANCH   3   7
HETATM    7  S1  UNL     1     -30.708  29.930  34.219  1.00  0.00    -0.127 SA
BRANCH   7   8
HETATM    8  C10 UNL     1     -31.556  28.462  34.552  1.00  0.00     0.105 C 
HETATM    9  C11 UNL     1     -32.898  28.212  34.003  1.00  0.00     0.117 C 
HETATM   10  N3  UNL     1     -33.037  26.783  33.866  1.00  0.00    -0.407 N 
HETATM   11  C13 UNL     1     -32.550  25.964  34.891  1.00  0.00     0.104 C 
ATOM     12  H3  UNL     1     -33.480  26.378  33.042  1.00  0.00     0.154 HD
HETATM   13  C14 UNL     1     -31.727  24.837  34.231  1.00  0.00     0.034 C 
HETATM   14  C15 UNL     1     -31.812  26.533  36.004  1.00  0.00     0.170 C 
HETATM   15  C16 UNL     1     -31.581  28.020  36.014  1.00  0.00     0.164 C 
BRANCH   9  16
HETATM   16  C12 UNL     1     -34.064  28.679  34.819  1.00  0.00     0.190 C 
BRANCH  16  17
HETATM   17  O3  UNL     1     -34.129  30.093  34.684  1.00  0.00    -0.399 OA
ATOM     18  H3  UNL     1     -34.847  30.394  35.229  1.00  0.00     0.209 HD
ENDBRANCH  16  17
ENDBRANCH   9  16
BRANCH  14  19
HETATM   19  O4  UNL     1     -32.394  26.240  37.260  1.00  0.00    -0.391 OA
ATOM     20  H4  UNL     1     -31.755  25.985  37.915  1.00  0.00     0.210 HD
ENDBRANCH  14  19
BRANCH  15  21
HETATM   21  O5  UNL     1     -30.346  28.344  36.542  1.00  0.00    -0.392 OA
ATOM     22  H5  UNL     1     -30.390  28.148  37.471  1.00  0.00     0.210 HD
ENDBRANCH  15  21
ENDBRANCH   7   8
ENDBRANCH   3   7
BRANCH   1  23
HETATM   23  N2  UNL     1     -25.634  29.296  35.010  1.00  0.00    -0.380 NA
HETATM   24  C6  UNL     1     -24.592  28.731  35.691  1.00  0.00     0.318 C 
HETATM   25  O2  UNL     1     -24.108  29.094  36.825  1.00  0.00    -0.254 OA
BRANCH  24  26
HETATM   26  C5  UNL     1     -23.843  27.516  35.129  1.00  0.00     0.230 C 
HETATM   27  C4  UNL     1     -24.154  27.430  33.642  1.00  0.00     0.070 C 
HETATM   28  C3  UNL     1     -22.800  27.672  33.004  1.00  0.00     0.116 C 
HETATM   29  C18 UNL     1     -21.897  27.153  34.127  1.00  0.00     0.141 C 
HETATM   30  O8  UNL     1     -22.486  27.698  35.243  1.00  0.00    -0.368 OA
HETATM   31  C19 UNL     1     -21.940  25.664  34.092  1.00  0.00     0.041 C 
BRANCH  28  32
HETATM   32  N1  UNL     1     -22.594  27.057  31.745  1.00  0.00    -0.354 N 
HETATM   33  C2  UNL     1     -21.415  27.221  30.991  1.00  0.00     0.214 C 
HETATM   34  C1  UNL     1     -21.060  26.650  29.703  1.00  0.00     0.117 C 
HETATM   35  O1  UNL     1     -20.530  27.985  31.536  1.00  0.00    -0.274 OA
ATOM     36  H1  UNL     1     -23.335  26.468  31.366  1.00  0.00     0.162 HD
ENDBRANCH  28  32
ENDBRANCH  24  26
ENDBRANCH   1  23
TORSDOF 9
ENDMDL
MODEL 2
REMARK VINA RESULT: -7.473778945      1.514      1.957
REMARK  9 active torsions:
REMARK  status: ('A' for Active; 'I' for Inactive)
REMARK       I    between atoms: C2_2  and  N1_4 
REMARK    1  A    between atoms: N1_4  and  C3_6 
REMARK    2  A    between atoms: C5_8  and  C6_9 
REMARK       I    between atoms: C6_9  and  N2_11 
REMARK    3  A    between atoms: N2_11  and  C7_12 
REMARK    4  A    between atoms: C9_14  and  S1_15 
REMARK    5  A    between atoms: S1_15  and  C10_16 
REMARK    6  A    between atoms: C11_17  and  C12_18 
REMARK    7  A    between atoms: C12_18  and  O3_19 
REMARK    8  A    between atoms: C15_25  and  O4_26 
REMARK    9  A    between atoms: C16_28  and  O5_29 
ROOT
HETATM    1  C7  UNL     1     -27.688  29.561  34.791  1.00  0.00     0.309 C 
HETATM    2  C8  UNL     1     -28.328  28.521  33.810  1.00  0.00     0.111 C 
HETATM    3  C9  UNL     1     -29.734  29.023  33.553  1.00  0.00     0.191 C 
HETATM    4  O6  UNL     1     -29.591  30.116  32.709  1.00  0.00    -0.351 OA
HETATM    5  C17 UNL     1     -28.380  30.714  32.902  1.00  0.00     0.343 C 
HETATM    6  O7  UNL     1     -27.892  30.763  34.185  1.00  0.00    -0.331 OA
ENDROOT
BRANCH   3   7
HETATM    7  S1  UNL     1     -30.968  27.886  33.157  1.00  0.00    -0.127 SA
BRANCH   7   8
HETATM    8  C10 UNL     1     -31.535  26.646  34.218  1.00  0.00     0.105 C 
HETATM    9  C11 UNL     1     -32.222  26.971  35.477  1.00  0.00     0.117 C 
HETATM   10  N3  UNL     1     -33.115  25.876  35.764  1.00  0.00    -0.407 N 
HETATM   11  C13 UNL     1     -32.660  24.570  35.547  1.00  0.00     0.104 C 
ATOM     12  H3  UNL     1     -34.055  26.048  36.118  1.00  0.00     0.154 HD
HETATM   13  C14 UNL     1     -33.765  23.819  34.773  1.00  0.00     0.034 C 
HETATM   14  C15 UNL     1     -31.369  24.331  34.929  1.00  0.00     0.170 C 
HETATM   15  C16 UNL     1     -30.545  25.524  34.524  1.00  0.00     0.164 C 
BRANCH   9  16
HETATM   16  C12 UNL     1     -31.365  27.155  36.692  1.00  0.00     0.190 C 
BRANCH  16  17
HETATM   17  O3  UNL     1     -30.990  28.526  36.735  1.00  0.00    -0.399 OA
ATOM     18  H3  UNL     1     -31.221  28.852  37.597  1.00  0.00     0.209 HD
ENDBRANCH  16  17
ENDBRANCH   9  16
BRANCH  14  19
HETATM   19  O4  UNL     1     -30.510  23.543  35.732  1.00  0.00    -0.391 OA
ATOM     20  H4  UNL     1     -30.038  22.885  35.236  1.00  0.00     0.210 HD
ENDBRANCH  14  19
BRANCH  15  21
HETATM   21  O5  UNL     1     -29.843  25.291  33.358  1.00  0.00    -0.392 OA
ATOM     22  H5  UNL     1     -29.181  24.641  33.566  1.00  0.00     0.210 HD
ENDBRANCH  15  21
ENDBRANCH   7   8
ENDBRANCH   3   7
BRANCH   1  23
HETATM   23  N2  UNL     1     -26.453  29.234  35.296  1.00  0.00    -0.380 NA
HETATM   24  C6  UNL     1     -25.224  28.909  35.800  1.00  0.00     0.318 C 
HETATM   25  O2  UNL     1     -24.572  29.516  36.727  1.00  0.00    -0.254 OA
BRANCH  24  26
HETATM   26  C5  UNL     1     -24.446  27.698  35.272  1.00  0.00     0.230 C 
HETATM   27  C4  UNL     1     -24.673  27.623  33.769  1.00  0.00     0.070 C 
HETATM   28  C3  UNL     1     -23.285  27.870  33.210  1.00  0.00     0.116 C 
HETATM   29  C18 UNL     1     -22.446  27.342  34.378  1.00  0.00     0.141 C 
HETATM   30  O8  UNL     1     -23.096  27.879  35.463  1.00  0.00    -0.368 OA
HETATM   31  C19 UNL     1     -22.487  25.853  34.330  1.00  0.00     0.041 C 
BRANCH  28  32
HETATM   32  N1  UNL     1     -23.009  27.264  31.960  1.00  0.00    -0.354 N 
HETATM   33  C2  UNL     1     -21.750  27.334  31.331  1.00  0.00     0.214 C 
HETATM   34  C1  UNL     1     -21.319  26.760  30.068  1.00  0.00     0.117 C 
HETATM   35  O1  UNL     1     -20.860  28.004  31.982  1.00  0.00    -0.274 OA
ATOM     36  H1  UNL     1     -23.757  26.752  31.493  1.00  0.00     0.162 HD
ENDBRANCH  28  32
ENDBRANCH  24  26
ENDBRANCH   1  23
TORSDOF 9
ENDMDL
MODEL 3
REMARK VINA RESULT: -7.384897427      1.522      2.675
REMARK  9 active torsions:
REMARK  status: ('A' for Active; 'I' for Inactive)
REMARK       I    between atoms: C2_2  and  N1_4 
REMARK    1  A    between atoms: N1_4  and  C3_6 
REMARK    2  A    between atoms: C5_8  and  C6_9 
REMARK       I    between atoms: C6_9  and  N2_11 
REMARK    3  A    between atoms: N2_11  and  C7_12 
REMARK    4  A    between atoms: C9_14  and  S1_15 
REMARK    5  A    between atoms: S1_15  and  C10_16 
REMARK    6  A    between atoms: C11_17  and  C12_18 
REMARK    7  A    between atoms: C12_18  and  O3_19 
REMARK    8  A    between atoms: C15_25  and  O4_26 
REMARK    9  A    between atoms: C16_28  and  O5_29 
ROOT
HETATM    1  C7  UNL     1     -26.709  30.139  33.792  1.00  0.00     0.309 C 
HETATM    2  C8  UNL     1     -28.222  29.884  34.106  1.00  0.00     0.111 C 
HETATM    3  C9  UNL     1     -28.986  30.798  33.170  1.00  0.00     0.191 C 
HETATM    4  O6  UNL     1     -28.884  30.216  31.914  1.00  0.00    -0.351 OA
HETATM    5  C17 UNL     1     -27.734  29.489  31.816  1.00  0.00     0.343 C 
HETATM    6  O7  UNL     1     -26.616  29.981  32.443  1.00  0.00    -0.331 OA
ENDROOT
BRANCH   3   7
HETATM    7  S1  UNL     1     -30.544  31.366  33.644  1.00  0.00    -0.127 SA
BRANCH   7   8
HETATM    8  C10 UNL     1     -31.935  30.362  33.839  1.00  0.00     0.105 C 
HETATM    9  C11 UNL     1     -31.838  29.031  34.458  1.00  0.00     0.117 C 
HETATM   10  N3  UNL     1     -33.114  28.759  35.073  1.00  0.00    -0.407 N 
HETATM   11  C13 UNL     1     -34.277  29.111  34.380  1.00  0.00     0.104 C 
ATOM     12  H3  UNL     1     -33.168  28.319  35.991  1.00  0.00     0.154 HD
HETATM   13  C14 UNL     1     -35.201  29.850  35.371  1.00  0.00     0.034 C 
HETATM   14  C15 UNL     1     -34.199  29.845  33.130  1.00  0.00     0.170 C 
HETATM   15  C16 UNL     1     -32.836  30.222  32.614  1.00  0.00     0.164 C 
BRANCH   9  16
HETATM   16  C12 UNL     1     -31.547  27.878  33.548  1.00  0.00     0.190 C 
BRANCH  16  17
HETATM   17  O3  UNL     1     -30.504  27.122  34.151  1.00  0.00    -0.399 OA
ATOM     18  H3  UNL     1     -30.041  26.676  33.452  1.00  0.00     0.209 HD
ENDBRANCH  16  17
ENDBRANCH   9  16
BRANCH  14  19
HETATM   19  O4  UNL     1     -34.830  29.176  32.055  1.00  0.00    -0.391 OA
ATOM     20  H4  UNL     1     -35.776  29.268  32.065  1.00  0.00     0.210 HD
ENDBRANCH  14  19
BRANCH  15  21
HETATM   21  O5  UNL     1     -32.846  31.455  31.991  1.00  0.00    -0.392 OA
ATOM     22  H5  UNL     1     -33.681  31.856  32.200  1.00  0.00     0.210 HD
ENDBRANCH  15  21
ENDBRANCH   7   8
ENDBRANCH   3   7
BRANCH   1  23
HETATM   23  N2  UNL     1     -25.807  29.530  34.632  1.00  0.00    -0.380 NA
HETATM   24  C6  UNL     1     -24.911  28.925  35.469  1.00  0.00     0.318 C 
HETATM   25  O2  UNL     1     -24.611  29.263  36.671  1.00  0.00    -0.254 OA
BRANCH  24  26
HETATM   26  C5  UNL     1     -24.119  27.690  35.022  1.00  0.00     0.230 C 
HETATM   27  C4  UNL     1     -24.329  27.525  33.523  1.00  0.00     0.070 C 
HETATM   28  C3  UNL     1     -22.936  27.747  32.966  1.00  0.00     0.116 C 
HETATM   29  C18 UNL     1     -22.108  27.295  34.173  1.00  0.00     0.141 C 
HETATM   30  O8  UNL     1     -22.773  27.891  35.216  1.00  0.00    -0.368 OA
HETATM   31  C19 UNL     1     -22.139  25.806  34.212  1.00  0.00     0.041 C 
BRANCH  28  32
HETATM   32  N1  UNL     1     -22.642  27.070  31.757  1.00  0.00    -0.354 N 
HETATM   33  C2  UNL     1     -21.427  27.229  31.062  1.00  0.00     0.214 C 
HETATM   34  C1  UNL     1     -20.984  26.599  29.829  1.00  0.00     0.117 C 
HETATM   35  O1  UNL     1     -20.597  28.050  31.609  1.00  0.00    -0.274 OA
ATOM     36  H1  UNL     1     -23.343  26.438  31.372  1.00  0.00     0.162 HD
ENDBRANCH  28  32
ENDBRANCH  24  26
ENDBRANCH   1  23
TORSDOF 9
ENDMDL
MODEL 4
REMARK VINA RESULT: -7.334986388      1.659      2.133
REMARK  9 active torsions:
REMARK  status: ('A' for Active; 'I' for Inactive)
REMARK       I    between atoms: C2_2  and  N1_4 
REMARK    1  A    between atoms: N1_4  and  C3_6 
REMARK    2  A    between atoms: C5_8  and  C6_9 
REMARK       I    between atoms: C6_9  and  N2_11 
REMARK    3  A    between atoms: N2_11  and  C7_12 
REMARK    4  A    between atoms: C9_14  and  S1_15 
REMARK    5  A    between atoms: S1_15  and  C10_16 
REMARK    6  A    between atoms: C11_17  and  C12_18 
REMARK    7  A    between atoms: C12_18  and  O3_19 
REMARK    8  A    between atoms: C15_25  and  O4_26 
REMARK    9  A    between atoms: C16_28  and  O5_29 
ROOT
HETATM    1  C7  UNL     1     -26.719  30.012  34.063  1.00  0.00     0.309 C 
HETATM    2  C8  UNL     1     -28.176  29.467  34.245  1.00  0.00     0.111 C 
HETATM    3  C9  UNL     1     -29.058  30.405  33.447  1.00  0.00     0.191 C 
HETATM    4  O6  UNL     1     -28.831  30.089  32.114  1.00  0.00    -0.351 OA
HETATM    5  C17 UNL     1     -27.574  29.584  31.950  1.00  0.00     0.343 C 
HETATM    6  O7  UNL     1     -26.568  30.122  32.715  1.00  0.00    -0.331 OA
ENDROOT
BRANCH   3   7
HETATM    7  S1  UNL     1     -30.699  30.623  33.930  1.00  0.00    -0.127 SA
BRANCH   7   8
HETATM    8  C10 UNL     1     -31.901  29.382  33.902  1.00  0.00     0.105 C 
HETATM    9  C11 UNL     1     -31.689  28.127  33.164  1.00  0.00     0.117 C 
HETATM   10  N3  UNL     1     -32.459  27.109  33.836  1.00  0.00    -0.407 N 
HETATM   11  C13 UNL     1     -33.743  27.433  34.287  1.00  0.00     0.104 C 
ATOM     12  H3  UNL     1     -32.076  26.175  33.980  1.00  0.00     0.154 HD
HETATM   13  C14 UNL     1     -33.866  26.925  35.740  1.00  0.00     0.034 C 
HETATM   14  C15 UNL     1     -34.238  28.794  34.192  1.00  0.00     0.170 C 
HETATM   15  C16 UNL     1     -33.327  29.840  33.607  1.00  0.00     0.164 C 
BRANCH   9  16
HETATM   16  C12 UNL     1     -32.110  28.104  31.727  1.00  0.00     0.190 C 
BRANCH  16  17
HETATM   17  O3  UNL     1     -30.969  28.451  30.952  1.00  0.00    -0.399 OA
ATOM     18  H3  UNL     1     -30.565  29.202  31.370  1.00  0.00     0.209 HD
ENDBRANCH  16  17
ENDBRANCH   9  16
BRANCH  14  19
HETATM   19  O4  UNL     1     -35.440  28.895  33.453  1.00  0.00    -0.391 OA
ATOM     20  H4  UNL     1     -35.295  28.998  32.519  1.00  0.00     0.210 HD
ENDBRANCH  14  19
BRANCH  15  21
HETATM   21  O5  UNL     1     -33.483  31.063  34.229  1.00  0.00    -0.392 OA
ATOM     22  H5  UNL     1     -32.609  31.382  34.422  1.00  0.00     0.210 HD
ENDBRANCH  15  21
ENDBRANCH   7   8
ENDBRANCH   3   7
BRANCH   1  23
HETATM   23  N2  UNL     1     -25.749  29.408  34.828  1.00  0.00    -0.380 NA
HETATM   24  C6  UNL     1     -24.785  28.809  35.590  1.00  0.00     0.318 C 
HETATM   25  O2  UNL     1     -24.404  29.139  36.772  1.00  0.00    -0.254 OA
BRANCH  24  26
HETATM   26  C5  UNL     1     -24.008  27.592  35.072  1.00  0.00     0.230 C 
HETATM   27  C4  UNL     1     -24.268  27.481  33.577  1.00  0.00     0.070 C 
HETATM   28  C3  UNL     1     -22.895  27.727  32.981  1.00  0.00     0.116 C 
HETATM   29  C18 UNL     1     -22.026  27.233  34.142  1.00  0.00     0.141 C 
HETATM   30  O8  UNL     1     -22.657  27.789  35.229  1.00  0.00    -0.368 OA
HETATM   31  C19 UNL     1     -22.055  25.743  34.128  1.00  0.00     0.041 C 
BRANCH  28  32
HETATM   32  N1  UNL     1     -22.641  27.095  31.740  1.00  0.00    -0.354 N 
HETATM   33  C2  UNL     1     -21.421  27.220  31.047  1.00  0.00     0.214 C 
HETATM   34  C1  UNL     1     -21.016  26.628  29.783  1.00  0.00     0.117 C 
HETATM   35  O1  UNL     1     -20.545  27.966  31.630  1.00  0.00    -0.274 OA
ATOM     36  H1  UNL     1     -23.377  26.522  31.327  1.00  0.00     0.162 HD
ENDBRANCH  28  32
ENDBRANCH  24  26
ENDBRANCH   1  23
TORSDOF 9
ENDMDL
MODEL 5
REMARK VINA RESULT: -7.291552524      1.345      2.007
REMARK  9 active torsions:
REMARK  status: ('A' for Active; 'I' for Inactive)
REMARK       I    between atoms: C2_2  and  N1_4 
REMARK    1  A    between atoms: N1_4  and  C3_6 
REMARK    2  A    between atoms: C5_8  and  C6_9 
REMARK       I    between atoms: C6_9  and  N2_11 
REMARK    3  A    between atoms: N2_11  and  C7_12 
REMARK    4  A    between atoms: C9_14  and  S1_15 
REMARK    5  A    between atoms: S1_15  and  C10_16 
REMARK    6  A    between atoms: C11_17  and  C12_18 
REMARK    7  A    between atoms: C12_18  and  O3_19 
REMARK    8  A    between atoms: C15_25  and  O4_26 
REMARK    9  A    between atoms: C16_28  and  O5_29 
ROOT
HETATM    1  C7  UNL     1     -27.045  30.076  33.956  1.00  0.00     0.309 C 
HETATM    2  C8  UNL     1     -28.440  29.367  34.025  1.00  0.00     0.111 C 
HETATM    3  C9  UNL     1     -29.378  30.247  33.225  1.00  0.00     0.191 C 
HETATM    4  O6  UNL     1     -29.048  30.031  31.894  1.00  0.00    -0.351 OA
HETATM    5  C17 UNL     1     -27.736  29.675  31.778  1.00  0.00     0.343 C 
HETATM    6  O7  UNL     1     -26.837  30.276  32.625  1.00  0.00    -0.331 OA
ENDROOT
BRANCH   3   7
HETATM    7  S1  UNL     1     -31.056  30.258  33.622  1.00  0.00    -0.127 SA
BRANCH   7   8
HETATM    8  C10 UNL     1     -32.025  28.842  33.819  1.00  0.00     0.105 C 
HETATM    9  C11 UNL     1     -32.438  28.377  35.153  1.00  0.00     0.117 C 
HETATM   10  N3  UNL     1     -33.689  27.678  34.985  1.00  0.00    -0.407 N 
HETATM   11  C13 UNL     1     -33.834  26.826  33.884  1.00  0.00     0.104 C 
ATOM     12  H3  UNL     1     -34.449  27.801  35.654  1.00  0.00     0.154 HD
HETATM   13  C14 UNL     1     -35.195  27.146  33.229  1.00  0.00     0.034 C 
HETATM   14  C15 UNL     1     -32.800  26.746  32.870  1.00  0.00     0.170 C 
HETATM   15  C16 UNL     1     -31.578  27.611  33.034  1.00  0.00     0.164 C 
BRANCH   9  16
HETATM   16  C12 UNL     1     -31.513  27.437  35.862  1.00  0.00     0.190 C 
BRANCH  16  17
HETATM   17  O3  UNL     1     -30.613  28.231  36.624  1.00  0.00    -0.399 OA
ATOM     18  H3  UNL     1     -30.235  27.666  37.288  1.00  0.00     0.209 HD
ENDBRANCH  16  17
ENDBRANCH   9  16
BRANCH  14  19
HETATM   19  O4  UNL     1     -32.303  25.434  32.690  1.00  0.00    -0.391 OA
ATOM     20  H4  UNL     1     -32.933  24.763  32.923  1.00  0.00     0.210 HD
ENDBRANCH  14  19
BRANCH  15  21
HETATM   21  O5  UNL     1     -31.108  28.070  31.819  1.00  0.00    -0.392 OA
ATOM     22  H5  UNL     1     -30.466  27.436  31.521  1.00  0.00     0.210 HD
ENDBRANCH  15  21
ENDBRANCH   7   8
ENDBRANCH   3   7
BRANCH   1  23
HETATM   23  N2  UNL     1     -26.055  29.540  34.745  1.00  0.00    -0.380 NA
HETATM   24  C6  UNL     1     -25.072  29.008  35.531  1.00  0.00     0.318 C 
HETATM   25  O2  UNL     1     -24.676  29.425  36.680  1.00  0.00    -0.254 OA
BRANCH  24  26
HETATM   26  C5  UNL     1     -24.287  27.767  35.088  1.00  0.00     0.230 C 
HETATM   27  C4  UNL     1     -24.483  27.609  33.587  1.00  0.00     0.070 C 
HETATM   28  C3  UNL     1     -23.084  27.821  33.043  1.00  0.00     0.116 C 
HETATM   29  C18 UNL     1     -22.271  27.357  34.257  1.00  0.00     0.141 C 
HETATM   30  O8  UNL     1     -22.941  27.955  35.296  1.00  0.00    -0.368 OA
HETATM   31  C19 UNL     1     -22.316  25.868  34.291  1.00  0.00     0.041 C 
BRANCH  28  32
HETATM   32  N1  UNL     1     -22.784  27.145  31.835  1.00  0.00    -0.354 N 
HETATM   33  C2  UNL     1     -21.546  27.262  31.174  1.00  0.00     0.214 C 
HETATM   34  C1  UNL     1     -21.095  26.629  29.947  1.00  0.00     0.117 C 
HETATM   35  O1  UNL     1     -20.699  28.044  31.753  1.00  0.00    -0.274 OA
ATOM     36  H1  UNL     1     -23.499  26.545  31.425  1.00  0.00     0.162 HD
ENDBRANCH  28  32
ENDBRANCH  24  26
ENDBRANCH   1  23
TORSDOF 9
ENDMDL
