MODEL 1
REMARK VINA RESULT: -5.654890278      0.000      0.000
REMARK  11 active torsions:
REMARK  status: ('A' for Active; 'I' for Inactive)
REMARK    1  A    between atoms: S1_2  and  C2_3 
REMARK       I    between atoms: C2_3  and  N1_5 
REMARK    2  A    between atoms: N1_5  and  C3_6 
REMARK    3  A    between atoms: C4_7  and  O2_8 
REMARK    4  A    between atoms: C5_10  and  N2_11 
REMARK       I    between atoms: N2_11  and  C6_13 
REMARK    5  A    between atoms: C8_16  and  O4_17 
REMARK    6  A    between atoms: C9_19  and  S2_20 
REMARK    7  A    between atoms: S2_20  and  C10_21 
REMARK    8  A    between atoms: C12_23  and  N3_24 
REMARK    9  A    between atoms: C15_27  and  O5_28 
REMARK   10  A    between atoms: C16_30  and  C17_31 
REMARK   11  A    between atoms: C17_31  and  O6_32 
ROOT
HETATM    1  C3  UNL     1     -22.608  36.084  25.405  1.00  0.00     0.214 C 
HETATM    2  C4  UNL     1     -23.495  35.552  24.310  1.00  0.00     0.180 C 
HETATM    3  C5  UNL     1     -23.013  34.149  24.081  1.00  0.00     0.146 C 
HETATM    4  C8  UNL     1     -21.637  34.052  24.689  1.00  0.00     0.160 C 
HETATM    5  C9  UNL     1     -21.231  35.442  25.002  1.00  0.00     0.119 C 
ENDROOT
BRANCH   5   6
HETATM    6  S2  UNL     1     -20.240  35.603  26.506  1.00  0.00    -0.127 SA
BRANCH   6   7
HETATM    7  C10 UNL     1     -18.521  35.057  26.258  1.00  0.00     0.185 C 
HETATM    8  C11 UNL     1     -17.916  35.699  25.051  1.00  0.00     0.070 C 
HETATM    9  C12 UNL     1     -16.536  36.245  25.212  1.00  0.00     0.112 C 
HETATM   10  C15 UNL     1     -15.855  35.940  26.499  1.00  0.00     0.171 C 
HETATM   11  C16 UNL     1     -16.547  34.973  27.387  1.00  0.00     0.177 C 
HETATM   12  O7  UNL     1     -17.882  35.262  27.444  1.00  0.00    -0.365 OA
BRANCH   9  13
HETATM   13  N3  UNL     1     -16.441  37.653  24.946  1.00  0.00    -0.414 N 
HETATM   14  C13 UNL     1     -15.379  38.129  24.167  1.00  0.00     0.143 C 
HETATM   15  C14 UNL     1     -17.606  38.427  25.083  1.00  0.00     0.143 C 
ENDBRANCH   9  13
BRANCH  10  16
HETATM   16  O5  UNL     1     -15.638  37.123  27.240  1.00  0.00    -0.391 OA
ATOM     17  H5  UNL     1     -14.988  37.670  26.815  1.00  0.00     0.210 HD
ENDBRANCH  10  16
BRANCH  11  18
HETATM   18  C17 UNL     1     -16.210  33.539  27.071  1.00  0.00     0.198 C 
BRANCH  18  19
HETATM   19  O6  UNL     1     -15.323  33.027  27.996  1.00  0.00    -0.398 OA
ATOM     20  H6  UNL     1     -15.092  32.131  27.783  1.00  0.00     0.209 HD
ENDBRANCH  18  19
ENDBRANCH  11  18
ENDBRANCH   6   7
ENDBRANCH   5   6
BRANCH   1  21
HETATM   21  N1  UNL     1     -22.575  37.409  25.592  1.00  0.00    -0.396 NA
HETATM   22  C2  UNL     1     -22.541  38.781  25.786  1.00  0.00     0.349 C 
HETATM   23  O1  UNL     1     -22.526  39.400  26.857  1.00  0.00    -0.244 OA
BRANCH  22  24
HETATM   24  S1  UNL     1     -22.513  39.741  24.229  1.00  0.00    -0.059 SA
HETATM   25  C1  UNL     1     -23.740  39.085  23.109  1.00  0.00     0.101 C 
ENDBRANCH  22  24
ENDBRANCH   1  21
BRANCH   4  26
HETATM   26  O4  UNL     1     -21.693  33.252  25.828  1.00  0.00    -0.392 OA
ATOM     27  H4  UNL     1     -21.697  32.338  25.570  1.00  0.00     0.210 HD
ENDBRANCH   4  26
BRANCH   2  28
HETATM   28  O2  UNL     1     -24.852  35.561  24.667  1.00  0.00    -0.390 OA
ATOM     29  H2  UNL     1     -25.049  34.942  25.360  1.00  0.00     0.210 HD
ENDBRANCH   2  28
BRANCH   3  30
HETATM   30  N2  UNL     1     -23.935  33.228  24.749  1.00  0.00    -0.352 N 
HETATM   31  C6  UNL     1     -24.445  32.102  24.096  1.00  0.00     0.214 C 
HETATM   32  C7  UNL     1     -25.366  31.170  24.742  1.00  0.00     0.117 C 
HETATM   33  O3  UNL     1     -24.097  31.880  22.898  1.00  0.00    -0.274 OA
ATOM     34  H2  UNL     1     -24.211  33.412  25.714  1.00  0.00     0.163 HD
ENDBRANCH   3  30
TORSDOF 11
ENDMDL
MODEL 2
REMARK VINA RESULT: -5.517542521      2.639      7.040
REMARK  11 active torsions:
REMARK  status: ('A' for Active; 'I' for Inactive)
REMARK    1  A    between atoms: S1_2  and  C2_3 
REMARK       I    between atoms: C2_3  and  N1_5 
REMARK    2  A    between atoms: N1_5  and  C3_6 
REMARK    3  A    between atoms: C4_7  and  O2_8 
REMARK    4  A    between atoms: C5_10  and  N2_11 
REMARK       I    between atoms: N2_11  and  C6_13 
REMARK    5  A    between atoms: C8_16  and  O4_17 
REMARK    6  A    between atoms: C9_19  and  S2_20 
REMARK    7  A    between atoms: S2_20  and  C10_21 
REMARK    8  A    between atoms: C12_23  and  N3_24 
REMARK    9  A    between atoms: C15_27  and  O5_28 
REMARK   10  A    between atoms: C16_30  and  C17_31 
REMARK   11  A    between atoms: C17_31  and  O6_32 
ROOT
HETATM    1  C3  UNL     1     -18.982  36.861  25.007  1.00  0.00     0.214 C 
HETATM    2  C4  UNL     1     -17.638  36.851  25.689  1.00  0.00     0.180 C 
HETATM    3  C5  UNL     1     -17.830  35.968  26.889  1.00  0.00     0.146 C 
HETATM    4  C8  UNL     1     -19.315  35.858  27.121  1.00  0.00     0.160 C 
HETATM    5  C9  UNL     1     -19.940  36.883  26.252  1.00  0.00     0.119 C 
ENDROOT
BRANCH   5   6
HETATM    6  S2  UNL     1     -21.536  36.391  25.559  1.00  0.00    -0.127 SA
BRANCH   6   7
HETATM    7  C10 UNL     1     -21.359  35.550  23.954  1.00  0.00     0.185 C 
HETATM    8  C11 UNL     1     -21.598  34.079  24.084  1.00  0.00     0.070 C 
HETATM    9  C12 UNL     1     -22.473  33.456  23.046  1.00  0.00     0.112 C 
HETATM   10  C15 UNL     1     -22.867  34.330  21.909  1.00  0.00     0.171 C 
HETATM   11  C16 UNL     1     -22.193  35.651  21.840  1.00  0.00     0.177 C 
HETATM   12  O7  UNL     1     -22.158  36.223  23.081  1.00  0.00    -0.365 OA
BRANCH   9  13
HETATM   13  N3  UNL     1     -23.642  32.822  23.586  1.00  0.00    -0.414 N 
HETATM   14  C13 UNL     1     -24.021  31.565  23.099  1.00  0.00     0.143 C 
HETATM   15  C14 UNL     1     -24.097  33.248  24.846  1.00  0.00     0.143 C 
ENDBRANCH   9  13
BRANCH  10  16
HETATM   16  O5  UNL     1     -24.261  34.561  21.918  1.00  0.00    -0.391 OA
ATOM     17  H5  UNL     1     -24.503  35.123  22.644  1.00  0.00     0.210 HD
ENDBRANCH  10  16
BRANCH  11  18
HETATM   18  C17 UNL     1     -20.873  35.600  21.115  1.00  0.00     0.198 C 
BRANCH  18  19
HETATM   19  O6  UNL     1     -20.670  36.754  20.385  1.00  0.00    -0.398 OA
ATOM     20  H6  UNL     1     -19.863  36.700  19.886  1.00  0.00     0.209 HD
ENDBRANCH  18  19
ENDBRANCH  11  18
ENDBRANCH   6   7
ENDBRANCH   5   6
BRANCH   1  21
HETATM   21  N1  UNL     1     -19.214  37.821  24.103  1.00  0.00    -0.396 NA
HETATM   22  C2  UNL     1     -19.456  38.814  23.168  1.00  0.00     0.349 C 
HETATM   23  O1  UNL     1     -20.420  38.921  22.401  1.00  0.00    -0.244 OA
BRANCH  22  24
HETATM   24  S1  UNL     1     -18.154  40.098  23.110  1.00  0.00    -0.059 SA
HETATM   25  C1  UNL     1     -16.562  39.316  22.907  1.00  0.00     0.101 C 
ENDBRANCH  22  24
ENDBRANCH   1  21
BRANCH   4  26
HETATM   26  O4  UNL     1     -19.737  34.570  26.801  1.00  0.00    -0.392 OA
ATOM     27  H4  UNL     1     -20.652  34.472  27.037  1.00  0.00     0.210 HD
ENDBRANCH   4  26
BRANCH   2  28
HETATM   28  O2  UNL     1     -16.620  36.353  24.861  1.00  0.00    -0.390 OA
ATOM     29  H2  UNL     1     -16.945  35.736  24.217  1.00  0.00     0.210 HD
ENDBRANCH   2  28
BRANCH   3  30
HETATM   30  N2  UNL     1     -17.259  34.652  26.590  1.00  0.00    -0.352 N 
HETATM   31  C6  UNL     1     -16.377  34.021  27.472  1.00  0.00     0.214 C 
HETATM   32  C7  UNL     1     -15.795  32.710  27.196  1.00  0.00     0.117 C 
HETATM   33  O3  UNL     1     -16.068  34.607  28.552  1.00  0.00    -0.274 OA
ATOM     34  H2  UNL     1     -17.512  34.185  25.719  1.00  0.00     0.163 HD
ENDBRANCH   3  30
TORSDOF 11
ENDMDL
MODEL 3
REMARK VINA RESULT: -5.482499628      1.433      1.659
REMARK  11 active torsions:
REMARK  status: ('A' for Active; 'I' for Inactive)
REMARK    1  A    between atoms: S1_2  and  C2_3 
REMARK       I    between atoms: C2_3  and  N1_5 
REMARK    2  A    between atoms: N1_5  and  C3_6 
REMARK    3  A    between atoms: C4_7  and  O2_8 
REMARK    4  A    between atoms: C5_10  and  N2_11 
REMARK       I    between atoms: N2_11  and  C6_13 
REMARK    5  A    between atoms: C8_16  and  O4_17 
REMARK    6  A    between atoms: C9_19  and  S2_20 
REMARK    7  A    between atoms: S2_20  and  C10_21 
REMARK    8  A    between atoms: C12_23  and  N3_24 
REMARK    9  A    between atoms: C15_27  and  O5_28 
REMARK   10  A    between atoms: C16_30  and  C17_31 
REMARK   11  A    between atoms: C17_31  and  O6_32 
ROOT
HETATM    1  C3  UNL     1     -22.604  35.922  25.198  1.00  0.00     0.214 C 
HETATM    2  C4  UNL     1     -23.386  35.500  23.981  1.00  0.00     0.180 C 
HETATM    3  C5  UNL     1     -22.971  34.077  23.741  1.00  0.00     0.146 C 
HETATM    4  C8  UNL     1     -21.688  33.859  24.501  1.00  0.00     0.160 C 
HETATM    5  C9  UNL     1     -21.234  35.203  24.928  1.00  0.00     0.119 C 
ENDROOT
BRANCH   5   6
HETATM    6  S2  UNL     1     -20.423  35.231  26.544  1.00  0.00    -0.127 SA
BRANCH   6   7
HETATM    7  C10 UNL     1     -18.655  35.648  26.420  1.00  0.00     0.185 C 
HETATM    8  C11 UNL     1     -18.461  37.073  26.008  1.00  0.00     0.070 C 
HETATM    9  C12 UNL     1     -17.439  37.849  26.772  1.00  0.00     0.112 C 
HETATM   10  C15 UNL     1     -16.613  37.077  27.737  1.00  0.00     0.171 C 
HETATM   11  C16 UNL     1     -16.767  35.601  27.689  1.00  0.00     0.177 C 
HETATM   12  O7  UNL     1     -18.091  35.272  27.601  1.00  0.00    -0.365 OA
BRANCH   9  13
HETATM   13  N3  UNL     1     -17.973  39.011  27.425  1.00  0.00    -0.414 N 
HETATM   14  C13 UNL     1     -17.367  40.254  27.206  1.00  0.00     0.143 C 
HETATM   15  C14 UNL     1     -19.299  38.954  27.887  1.00  0.00     0.143 C 
ENDBRANCH   9  13
BRANCH  10  16
HETATM   16  O5  UNL     1     -16.876  37.492  29.061  1.00  0.00    -0.391 OA
ATOM     17  H5  UNL     1     -16.074  37.764  29.492  1.00  0.00     0.210 HD
ENDBRANCH  10  16
BRANCH  11  18
HETATM   18  C17 UNL     1     -15.871  34.949  26.668  1.00  0.00     0.198 C 
BRANCH  18  19
HETATM   19  O6  UNL     1     -15.482  33.693  27.088  1.00  0.00    -0.398 OA
ATOM     20  H6  UNL     1     -14.578  33.523  26.851  1.00  0.00     0.209 HD
ENDBRANCH  18  19
ENDBRANCH  11  18
ENDBRANCH   6   7
ENDBRANCH   5   6
BRANCH   1  21
HETATM   21  N1  UNL     1     -22.509  37.233  25.452  1.00  0.00    -0.396 NA
HETATM   22  C2  UNL     1     -22.410  38.590  25.717  1.00  0.00     0.349 C 
HETATM   23  O1  UNL     1     -22.625  39.177  26.785  1.00  0.00    -0.244 OA
BRANCH  22  24
HETATM   24  S1  UNL     1     -21.891  39.583  24.271  1.00  0.00    -0.059 SA
HETATM   25  C1  UNL     1     -20.190  40.085  24.480  1.00  0.00     0.101 C 
ENDBRANCH  22  24
ENDBRANCH   1  21
BRANCH   4  26
HETATM   26  O4  UNL     1     -21.932  33.018  25.584  1.00  0.00    -0.392 OA
ATOM     27  H4  UNL     1     -22.390  32.243  25.284  1.00  0.00     0.210 HD
ENDBRANCH   4  26
BRANCH   2  28
HETATM   28  O2  UNL     1     -24.772  35.589  24.176  1.00  0.00    -0.390 OA
ATOM     29  H2  UNL     1     -25.103  36.469  24.039  1.00  0.00     0.210 HD
ENDBRANCH   2  28
BRANCH   3  30
HETATM   30  N2  UNL     1     -24.025  33.196  24.250  1.00  0.00    -0.352 N 
HETATM   31  C6  UNL     1     -24.561  32.170  23.467  1.00  0.00     0.214 C 
HETATM   32  C7  UNL     1     -25.612  31.279  23.952  1.00  0.00     0.117 C 
HETATM   33  O3  UNL     1     -24.120  32.004  22.290  1.00  0.00    -0.274 OA
ATOM     34  H2  UNL     1     -24.375  33.334  25.198  1.00  0.00     0.163 HD
ENDBRANCH   3  30
TORSDOF 11
ENDMDL
MODEL 4
REMARK VINA RESULT: -5.390898442      2.878      5.240
REMARK  11 active torsions:
REMARK  status: ('A' for Active; 'I' for Inactive)
REMARK    1  A    between atoms: S1_2  and  C2_3 
REMARK       I    between atoms: C2_3  and  N1_5 
REMARK    2  A    between atoms: N1_5  and  C3_6 
REMARK    3  A    between atoms: C4_7  and  O2_8 
REMARK    4  A    between atoms: C5_10  and  N2_11 
REMARK       I    between atoms: N2_11  and  C6_13 
REMARK    5  A    between atoms: C8_16  and  O4_17 
REMARK    6  A    between atoms: C9_19  and  S2_20 
REMARK    7  A    between atoms: S2_20  and  C10_21 
REMARK    8  A    between atoms: C12_23  and  N3_24 
REMARK    9  A    between atoms: C15_27  and  O5_28 
REMARK   10  A    between atoms: C16_30  and  C17_31 
REMARK   11  A    between atoms: C17_31  and  O6_32 
ROOT
HETATM    1  C3  UNL     1     -21.981  36.344  23.094  1.00  0.00     0.214 C 
HETATM    2  C4  UNL     1     -23.463  36.464  22.852  1.00  0.00     0.180 C 
HETATM    3  C5  UNL     1     -23.824  37.819  23.389  1.00  0.00     0.146 C 
HETATM    4  C8  UNL     1     -22.699  38.247  24.296  1.00  0.00     0.160 C 
HETATM    5  C9  UNL     1     -21.856  37.045  24.495  1.00  0.00     0.119 C 
ENDROOT
BRANCH   5   6
HETATM    6  S2  UNL     1     -20.087  37.396  24.629  1.00  0.00    -0.127 SA
BRANCH   6   7
HETATM    7  C10 UNL     1     -19.540  37.518  26.361  1.00  0.00     0.185 C 
HETATM    8  C11 UNL     1     -19.134  36.182  26.897  1.00  0.00     0.070 C 
HETATM    9  C12 UNL     1     -17.858  36.140  27.672  1.00  0.00     0.112 C 
HETATM   10  C15 UNL     1     -17.225  37.452  27.968  1.00  0.00     0.171 C 
HETATM   11  C16 UNL     1     -18.028  38.653  27.628  1.00  0.00     0.177 C 
HETATM   12  O7  UNL     1     -18.598  38.501  26.394  1.00  0.00    -0.365 OA
BRANCH   9  13
HETATM   13  N3  UNL     1     -16.876  35.253  27.113  1.00  0.00    -0.414 N 
HETATM   14  C13 UNL     1     -16.113  34.454  27.972  1.00  0.00     0.143 C 
HETATM   15  C14 UNL     1     -17.013  34.891  25.762  1.00  0.00     0.143 C 
ENDBRANCH   9  13
BRANCH  10  16
HETATM   16  O5  UNL     1     -15.983  37.567  27.304  1.00  0.00    -0.391 OA
ATOM     17  H5  UNL     1     -15.472  36.773  27.410  1.00  0.00     0.210 HD
ENDBRANCH  10  16
BRANCH  11  18
HETATM   18  C17 UNL     1     -18.974  39.059  28.730  1.00  0.00     0.198 C 
BRANCH  18  19
HETATM   19  O6  UNL     1     -18.338  39.870  29.648  1.00  0.00    -0.398 OA
ATOM     20  H6  UNL     1     -18.965  40.410  30.113  1.00  0.00     0.209 HD
ENDBRANCH  18  19
ENDBRANCH  11  18
ENDBRANCH   6   7
ENDBRANCH   5   6
BRANCH   1  21
HETATM   21  N1  UNL     1     -21.436  35.122  23.028  1.00  0.00    -0.396 NA
HETATM   22  C2  UNL     1     -20.874  33.858  22.960  1.00  0.00     0.349 C 
HETATM   23  O1  UNL     1     -21.435  32.764  23.099  1.00  0.00    -0.244 OA
BRANCH  22  24
HETATM   24  S1  UNL     1     -19.077  33.872  22.616  1.00  0.00    -0.059 SA
HETATM   25  C1  UNL     1     -18.731  32.794  21.236  1.00  0.00     0.101 C 
ENDBRANCH  22  24
ENDBRANCH   1  21
BRANCH   4  26
HETATM   26  O4  UNL     1     -21.996  39.288  23.696  1.00  0.00    -0.392 OA
ATOM     27  H4  UNL     1     -21.859  39.087  22.778  1.00  0.00     0.210 HD
ENDBRANCH   4  26
BRANCH   2  28
HETATM   28  O2  UNL     1     -23.795  36.361  21.493  1.00  0.00    -0.390 OA
ATOM     29  H2  UNL     1     -24.710  36.145  21.357  1.00  0.00     0.210 HD
ENDBRANCH   2  28
BRANCH   3  30
HETATM   30  N2  UNL     1     -23.954  38.744  22.261  1.00  0.00    -0.352 N 
HETATM   31  C6  UNL     1     -25.067  39.578  22.124  1.00  0.00     0.214 C 
HETATM   32  C7  UNL     1     -25.219  40.508  21.008  1.00  0.00     0.117 C 
HETATM   33  O3  UNL     1     -25.981  39.527  23.001  1.00  0.00    -0.274 OA
ATOM     34  H2  UNL     1     -23.215  38.780  21.559  1.00  0.00     0.163 HD
ENDBRANCH   3  30
TORSDOF 11
ENDMDL
MODEL 5
REMARK VINA RESULT: -5.276840446      2.805      7.426
REMARK  11 active torsions:
REMARK  status: ('A' for Active; 'I' for Inactive)
REMARK    1  A    between atoms: S1_2  and  C2_3 
REMARK       I    between atoms: C2_3  and  N1_5 
REMARK    2  A    between atoms: N1_5  and  C3_6 
REMARK    3  A    between atoms: C4_7  and  O2_8 
REMARK    4  A    between atoms: C5_10  and  N2_11 
REMARK       I    between atoms: N2_11  and  C6_13 
REMARK    5  A    between atoms: C8_16  and  O4_17 
REMARK    6  A    between atoms: C9_19  and  S2_20 
REMARK    7  A    between atoms: S2_20  and  C10_21 
REMARK    8  A    between atoms: C12_23  and  N3_24 
REMARK    9  A    between atoms: C15_27  and  O5_28 
REMARK   10  A    between atoms: C16_30  and  C17_31 
REMARK   11  A    between atoms: C17_31  and  O6_32 
ROOT
HETATM    1  C3  UNL     1     -18.957  36.836  24.846  1.00  0.00     0.214 C 
HETATM    2  C4  UNL     1     -17.694  36.832  25.667  1.00  0.00     0.180 C 
HETATM    3  C5  UNL     1     -17.999  35.926  26.825  1.00  0.00     0.146 C 
HETATM    4  C8  UNL     1     -19.499  35.793  26.896  1.00  0.00     0.160 C 
HETATM    5  C9  UNL     1     -20.043  36.824  25.982  1.00  0.00     0.119 C 
ENDROOT
BRANCH   5   6
HETATM    6  S2  UNL     1     -21.548  36.325  25.114  1.00  0.00    -0.127 SA
BRANCH   6   7
HETATM    7  C10 UNL     1     -22.626  37.742  24.734  1.00  0.00     0.185 C 
HETATM    8  C11 UNL     1     -23.068  37.719  23.305  1.00  0.00     0.070 C 
HETATM    9  C12 UNL     1     -24.516  37.988  23.056  1.00  0.00     0.112 C 
HETATM   10  C15 UNL     1     -25.317  38.414  24.234  1.00  0.00     0.171 C 
HETATM   11  C16 UNL     1     -24.551  38.707  25.471  1.00  0.00     0.177 C 
HETATM   12  O7  UNL     1     -23.608  37.738  25.677  1.00  0.00    -0.365 OA
BRANCH   9  13
HETATM   13  N3  UNL     1     -25.191  36.914  22.384  1.00  0.00    -0.414 N 
HETATM   14  C13 UNL     1     -26.127  37.215  21.387  1.00  0.00     0.143 C 
HETATM   15  C14 UNL     1     -24.597  35.640  22.421  1.00  0.00     0.143 C 
ENDBRANCH   9  13
BRANCH  10  16
HETATM   16  O5  UNL     1     -26.289  37.439  24.553  1.00  0.00    -0.391 OA
ATOM     17  H5  UNL     1     -26.527  36.939  23.782  1.00  0.00     0.210 HD
ENDBRANCH  10  16
BRANCH  11  18
HETATM   18  C17 UNL     1     -24.041  40.124  25.525  1.00  0.00     0.198 C 
BRANCH  18  19
HETATM   19  O6  UNL     1     -23.771  40.499  26.826  1.00  0.00    -0.398 OA
ATOM     20  H6  UNL     1     -23.465  41.397  26.862  1.00  0.00     0.209 HD
ENDBRANCH  18  19
ENDBRANCH  11  18
ENDBRANCH   6   7
ENDBRANCH   5   6
BRANCH   1  21
HETATM   21  N1  UNL     1     -19.106  37.809  23.938  1.00  0.00    -0.396 NA
HETATM   22  C2  UNL     1     -19.260  38.816  22.999  1.00  0.00     0.349 C 
HETATM   23  O1  UNL     1     -19.606  39.989  23.187  1.00  0.00    -0.244 OA
BRANCH  22  24
HETATM   24  S1  UNL     1     -18.888  38.286  21.288  1.00  0.00    -0.059 SA
HETATM   25  C1  UNL     1     -20.055  37.027  20.793  1.00  0.00     0.101 C 
ENDBRANCH  22  24
ENDBRANCH   1  21
BRANCH   4  26
HETATM   26  O4  UNL     1     -19.866  34.506  26.512  1.00  0.00    -0.392 OA
ATOM     27  H4  UNL     1     -19.130  34.083  26.085  1.00  0.00     0.210 HD
ENDBRANCH   4  26
BRANCH   2  28
HETATM   28  O2  UNL     1     -16.586  36.361  24.945  1.00  0.00    -0.390 OA
ATOM     29  H2  UNL     1     -15.771  36.468  25.420  1.00  0.00     0.210 HD
ENDBRANCH   2  28
BRANCH   3  30
HETATM   30  N2  UNL     1     -17.381  34.623  26.568  1.00  0.00    -0.352 N 
HETATM   31  C6  UNL     1     -16.447  34.071  27.449  1.00  0.00     0.214 C 
HETATM   32  C7  UNL     1     -15.817  32.774  27.215  1.00  0.00     0.117 C 
HETATM   33  O3  UNL     1     -16.132  34.719  28.492  1.00  0.00    -0.274 OA
ATOM     34  H2  UNL     1     -17.639  34.106  25.727  1.00  0.00     0.163 HD
ENDBRANCH   3  30
TORSDOF 11
ENDMDL
