MODEL 1
REMARK VINA RESULT: -6.768597259      0.000      0.000
REMARK  13 active torsions:
REMARK  status: ('A' for Active; 'I' for Inactive)
REMARK    1  A    between atoms: C2_2  and  C3_3 
REMARK    2  A    between atoms: C3_3  and  N1_4 
REMARK    3  A    between atoms: N1_4  and  C4_5 
REMARK    4  A    between atoms: N1_4  and  C17_27 
REMARK    5  A    between atoms: C4_5  and  C5_6 
REMARK    6  A    between atoms: C7_8  and  C8_9 
REMARK    7  A    between atoms: C13_17  and  C14_18 
REMARK    8  A    between atoms: C14_18  and  O3_19 
REMARK    9  A    between atoms: C15_21  and  O4_22 
REMARK   10  A    between atoms: C16_24  and  O5_25 
REMARK   11  A    between atoms: C19_30  and  O7_31 
REMARK   12  A    between atoms: C20_33  and  O8_34 
REMARK   13  A    between atoms: C21_36  and  O9_37 
ROOT
HETATM    1  C8  UNL     1     -28.129  30.657  32.299  1.00  0.00     0.008 C 
HETATM    2  C9  UNL     1     -29.038  31.537  32.610  1.00  0.00     0.015 C 
HETATM    3  C10 UNL     1     -28.629  32.988  32.641  1.00  0.00     0.060 C 
HETATM    4  C11 UNL     1     -30.405  31.290  32.920  1.00  0.00     0.094 C 
HETATM    5  N2  UNL     1     -31.535  31.108  33.164  1.00  0.00    -0.192 NA
ENDROOT
BRANCH   1   6
HETATM    6  C7  UNL     1     -28.240  29.205  32.196  1.00  0.00     0.059 C 
HETATM    7  C6  UNL     1     -26.833  28.595  32.137  1.00  0.00     0.058 C 
HETATM    8  C5  UNL     1     -26.371  28.983  33.572  1.00  0.00     0.164 C 
HETATM    9  O1  UNL     1     -27.543  29.203  34.283  1.00  0.00    -0.350 OA
HETATM   10  C12 UNL     1     -28.592  28.648  33.575  1.00  0.00     0.276 C 
HETATM   11  O2  UNL     1     -28.543  27.253  33.549  1.00  0.00    -0.350 OA
HETATM   12  C13 UNL     1     -29.375  26.719  32.597  1.00  0.00     0.179 C 
HETATM   13  C15 UNL     1     -30.122  27.718  31.769  1.00  0.00     0.179 C 
HETATM   14  C16 UNL     1     -29.118  28.676  31.123  1.00  0.00     0.166 C 
BRANCH   8  15
HETATM   15  C4  UNL     1     -25.675  27.856  34.213  1.00  0.00     0.092 C 
BRANCH  15  16
HETATM   16  N1  UNL     1     -24.317  27.936  34.583  1.00  0.00    -0.363 N 
BRANCH  16  17
HETATM   17  C3  UNL     1     -24.207  27.758  36.007  1.00  0.00     0.124 C 
BRANCH  17  18
HETATM   18  C2  UNL     1     -25.306  28.380  36.818  1.00  0.00     0.015 C 
HETATM   19  C1  UNL     1     -24.873  29.799  37.128  1.00  0.00     0.006 C 
ENDBRANCH  17  18
ENDBRANCH  16  17
BRANCH  16  20
HETATM   20  C17 UNL     1     -23.331  27.309  33.799  1.00  0.00     0.254 C 
HETATM   21  O6  UNL     1     -23.385  27.806  32.507  1.00  0.00    -0.361 OA
HETATM   22  C18 UNL     1     -22.266  27.730  31.749  1.00  0.00     0.205 C 
HETATM   23  C19 UNL     1     -21.379  26.551  31.944  1.00  0.00     0.173 C 
HETATM   24  C20 UNL     1     -21.173  26.322  33.425  1.00  0.00     0.182 C 
HETATM   25  C21 UNL     1     -21.908  27.439  34.188  1.00  0.00     0.198 C 
BRANCH  23  26
HETATM   26  O7  UNL     1     -20.112  26.879  31.426  1.00  0.00    -0.391 OA
ATOM     27  H7  UNL     1     -20.160  26.807  30.480  1.00  0.00     0.210 HD
ENDBRANCH  23  26
BRANCH  24  28
HETATM   28  O8  UNL     1     -21.862  25.132  33.730  1.00  0.00    -0.390 OA
ATOM     29  H8  UNL     1     -22.368  25.318  34.513  1.00  0.00     0.210 HD
ENDBRANCH  24  28
BRANCH  25  30
HETATM   30  O9  UNL     1     -21.557  27.286  35.485  1.00  0.00    -0.388 OA
ATOM     31  H9  UNL     1     -21.555  28.042  36.060  1.00  0.00     0.210 HD
ENDBRANCH  25  30
ENDBRANCH  16  20
ENDBRANCH  15  16
ENDBRANCH   8  15
BRANCH  12  32
HETATM   32  C14 UNL     1     -30.424  25.812  33.258  1.00  0.00     0.198 C 
BRANCH  32  33
HETATM   33  O3  UNL     1     -30.654  24.686  32.462  1.00  0.00    -0.398 OA
ATOM     34  H3  UNL     1     -31.313  24.131  32.864  1.00  0.00     0.209 HD
ENDBRANCH  32  33
ENDBRANCH  12  32
BRANCH  13  35
HETATM   35  O4  UNL     1     -30.667  26.994  30.679  1.00  0.00    -0.390 OA
ATOM     36  H4  UNL     1     -31.273  26.367  31.055  1.00  0.00     0.210 HD
ENDBRANCH  13  35
BRANCH  14  37
HETATM   37  O5  UNL     1     -28.301  27.969  30.230  1.00  0.00    -0.392 OA
ATOM     38  H5  UNL     1     -27.948  27.224  30.702  1.00  0.00     0.210 HD
ENDBRANCH  14  37
ENDBRANCH   1   6
TORSDOF 13
ENDMDL
MODEL 2
REMARK VINA RESULT: -6.761733254      1.863      3.655
REMARK  13 active torsions:
REMARK  status: ('A' for Active; 'I' for Inactive)
REMARK    1  A    between atoms: C2_2  and  C3_3 
REMARK    2  A    between atoms: C3_3  and  N1_4 
REMARK    3  A    between atoms: N1_4  and  C4_5 
REMARK    4  A    between atoms: N1_4  and  C17_27 
REMARK    5  A    between atoms: C4_5  and  C5_6 
REMARK    6  A    between atoms: C7_8  and  C8_9 
REMARK    7  A    between atoms: C13_17  and  C14_18 
REMARK    8  A    between atoms: C14_18  and  O3_19 
REMARK    9  A    between atoms: C15_21  and  O4_22 
REMARK   10  A    between atoms: C16_24  and  O5_25 
REMARK   11  A    between atoms: C19_30  and  O7_31 
REMARK   12  A    between atoms: C20_33  and  O8_34 
REMARK   13  A    between atoms: C21_36  and  O9_37 
ROOT
HETATM    1  C8  UNL     1     -29.063  27.657  31.661  1.00  0.00     0.008 C 
HETATM    2  C9  UNL     1     -29.623  26.523  31.973  1.00  0.00     0.015 C 
HETATM    3  C10 UNL     1     -29.558  25.406  30.963  1.00  0.00     0.060 C 
HETATM    4  C11 UNL     1     -30.295  26.201  33.186  1.00  0.00     0.094 C 
HETATM    5  N2  UNL     1     -30.838  25.912  34.181  1.00  0.00    -0.192 NA
ENDROOT
BRANCH   1   6
HETATM    6  C7  UNL     1     -28.976  28.894  32.432  1.00  0.00     0.059 C 
HETATM    7  C6  UNL     1     -28.096  28.658  33.666  1.00  0.00     0.058 C 
HETATM    8  C5  UNL     1     -26.750  28.408  32.926  1.00  0.00     0.164 C 
HETATM    9  O1  UNL     1     -26.912  28.987  31.674  1.00  0.00    -0.350 OA
HETATM   10  C12 UNL     1     -28.001  29.836  31.726  1.00  0.00     0.276 C 
HETATM   11  O2  UNL     1     -27.768  30.960  32.521  1.00  0.00    -0.350 OA
HETATM   12  C13 UNL     1     -28.926  31.626  32.835  1.00  0.00     0.179 C 
HETATM   13  C15 UNL     1     -30.183  31.007  32.307  1.00  0.00     0.179 C 
HETATM   14  C16 UNL     1     -30.258  29.554  32.784  1.00  0.00     0.166 C 
BRANCH   8  15
HETATM   15  C4  UNL     1     -25.650  29.119  33.598  1.00  0.00     0.092 C 
BRANCH  15  16
HETATM   16  N1  UNL     1     -24.731  28.448  34.429  1.00  0.00    -0.363 N 
BRANCH  16  17
HETATM   17  C3  UNL     1     -25.438  27.871  35.542  1.00  0.00     0.124 C 
BRANCH  17  18
HETATM   18  C2  UNL     1     -25.920  28.850  36.573  1.00  0.00     0.015 C 
HETATM   19  C1  UNL     1     -24.691  29.534  37.135  1.00  0.00     0.006 C 
ENDBRANCH  17  18
ENDBRANCH  16  17
BRANCH  16  20
HETATM   20  C17 UNL     1     -23.708  27.663  33.866  1.00  0.00     0.254 C 
HETATM   21  O6  UNL     1     -23.528  28.022  32.541  1.00  0.00    -0.361 OA
HETATM   22  C18 UNL     1     -22.325  27.774  31.972  1.00  0.00     0.205 C 
HETATM   23  C19 UNL     1     -21.594  26.554  32.408  1.00  0.00     0.173 C 
HETATM   24  C20 UNL     1     -21.625  26.468  33.919  1.00  0.00     0.182 C 
HETATM   25  C21 UNL     1     -22.350  27.716  34.453  1.00  0.00     0.198 C 
BRANCH  23  26
HETATM   26  O7  UNL     1     -20.240  26.719  32.060  1.00  0.00    -0.391 OA
ATOM     27  H7  UNL     1     -19.835  27.261  32.727  1.00  0.00     0.210 HD
ENDBRANCH  23  26
BRANCH  24  28
HETATM   28  O8  UNL     1     -22.463  25.378  34.225  1.00  0.00    -0.390 OA
ATOM     29  H8  UNL     1     -21.923  24.601  34.132  1.00  0.00     0.210 HD
ENDBRANCH  24  28
BRANCH  25  30
HETATM   30  O9  UNL     1     -22.205  27.674  35.797  1.00  0.00    -0.388 OA
ATOM     31  H9  UNL     1     -22.032  28.478  36.273  1.00  0.00     0.210 HD
ENDBRANCH  25  30
ENDBRANCH  16  20
ENDBRANCH  15  16
ENDBRANCH   8  15
BRANCH  12  32
HETATM   32  C14 UNL     1     -28.874  33.063  32.295  1.00  0.00     0.198 C 
BRANCH  32  33
HETATM   33  O3  UNL     1     -27.567  33.554  32.361  1.00  0.00    -0.398 OA
ATOM     34  H3  UNL     1     -27.066  33.250  31.614  1.00  0.00     0.209 HD
ENDBRANCH  32  33
ENDBRANCH  12  32
BRANCH  13  35
HETATM   35  O4  UNL     1     -31.251  31.652  32.980  1.00  0.00    -0.390 OA
ATOM     36  H4  UNL     1     -31.351  31.199  33.809  1.00  0.00     0.210 HD
ENDBRANCH  13  35
BRANCH  14  37
HETATM   37  O5  UNL     1     -30.370  29.523  34.181  1.00  0.00    -0.392 OA
ATOM     38  H5  UNL     1     -30.390  30.424  34.481  1.00  0.00     0.210 HD
ENDBRANCH  14  37
ENDBRANCH   1   6
TORSDOF 13
ENDMDL
MODEL 3
REMARK VINA RESULT: -6.647758573     11.993     15.176
REMARK  13 active torsions:
REMARK  status: ('A' for Active; 'I' for Inactive)
REMARK    1  A    between atoms: C2_2  and  C3_3 
REMARK    2  A    between atoms: C3_3  and  N1_4 
REMARK    3  A    between atoms: N1_4  and  C4_5 
REMARK    4  A    between atoms: N1_4  and  C17_27 
REMARK    5  A    between atoms: C4_5  and  C5_6 
REMARK    6  A    between atoms: C7_8  and  C8_9 
REMARK    7  A    between atoms: C13_17  and  C14_18 
REMARK    8  A    between atoms: C14_18  and  O3_19 
REMARK    9  A    between atoms: C15_21  and  O4_22 
REMARK   10  A    between atoms: C16_24  and  O5_25 
REMARK   11  A    between atoms: C19_30  and  O7_31 
REMARK   12  A    between atoms: C20_33  and  O8_34 
REMARK   13  A    between atoms: C21_36  and  O9_37 
ROOT
HETATM    1  C8  UNL     1     -17.000  36.687  27.782  1.00  0.00     0.008 C 
HETATM    2  C9  UNL     1     -16.465  35.749  28.511  1.00  0.00     0.015 C 
HETATM    3  C10 UNL     1     -16.333  35.998  29.992  1.00  0.00     0.060 C 
HETATM    4  C11 UNL     1     -15.990  34.481  28.068  1.00  0.00     0.094 C 
HETATM    5  N2  UNL     1     -15.607  33.431  27.727  1.00  0.00    -0.192 NA
ENDROOT
BRANCH   1   6
HETATM    6  C7  UNL     1     -17.246  36.719  26.344  1.00  0.00     0.059 C 
HETATM    7  C6  UNL     1     -18.255  35.623  25.980  1.00  0.00     0.058 C 
HETATM    8  C5  UNL     1     -19.486  36.205  26.734  1.00  0.00     0.164 C 
HETATM    9  O1  UNL     1     -19.204  37.555  26.899  1.00  0.00    -0.350 OA
HETATM   10  C12 UNL     1     -18.178  37.893  26.040  1.00  0.00     0.276 C 
HETATM   11  O2  UNL     1     -18.565  37.855  24.699  1.00  0.00    -0.350 OA
HETATM   12  C13 UNL     1     -17.492  37.869  23.844  1.00  0.00     0.179 C 
HETATM   13  C15 UNL     1     -16.149  37.884  24.506  1.00  0.00     0.179 C 
HETATM   14  C16 UNL     1     -16.054  36.690  25.460  1.00  0.00     0.166 C 
BRANCH   8  15
HETATM   15  C4  UNL     1     -20.696  36.109  25.902  1.00  0.00     0.092 C 
BRANCH  15  16
HETATM   16  N1  UNL     1     -21.012  34.938  25.183  1.00  0.00    -0.363 N 
BRANCH  16  17
HETATM   17  C3  UNL     1     -21.933  34.147  25.956  1.00  0.00     0.124 C 
BRANCH  17  18
HETATM   18  C2  UNL     1     -23.171  33.711  25.228  1.00  0.00     0.015 C 
HETATM   19  C1  UNL     1     -24.321  34.518  25.796  1.00  0.00     0.006 C 
ENDBRANCH  17  18
ENDBRANCH  16  17
BRANCH  16  20
HETATM   20  C17 UNL     1     -21.254  35.000  23.798  1.00  0.00     0.254 C 
HETATM   21  O6  UNL     1     -21.522  36.310  23.436  1.00  0.00    -0.361 OA
HETATM   22  C18 UNL     1     -21.295  36.674  22.152  1.00  0.00     0.205 C 
HETATM   23  C19 UNL     1     -21.534  35.655  21.094  1.00  0.00     0.173 C 
HETATM   24  C20 UNL     1     -20.909  34.343  21.514  1.00  0.00     0.182 C 
HETATM   25  C21 UNL     1     -20.195  34.564  22.860  1.00  0.00     0.198 C 
BRANCH  23  26
HETATM   26  O7  UNL     1     -20.835  36.063  19.942  1.00  0.00    -0.391 OA
ATOM     27  H7  UNL     1     -20.695  35.294  19.402  1.00  0.00     0.210 HD
ENDBRANCH  23  26
BRANCH  24  28
HETATM   28  O8  UNL     1     -21.984  33.475  21.788  1.00  0.00    -0.390 OA
ATOM     29  H8  UNL     1     -21.604  32.608  21.866  1.00  0.00     0.210 HD
ENDBRANCH  24  28
BRANCH  25  30
HETATM   30  O9  UNL     1     -19.520  33.419  23.105  1.00  0.00    -0.388 OA
ATOM     31  H9  UNL     1     -18.683  33.458  23.553  1.00  0.00     0.210 HD
ENDBRANCH  25  30
ENDBRANCH  16  20
ENDBRANCH  15  16
ENDBRANCH   8  15
BRANCH  12  32
HETATM   32  C14 UNL     1     -17.555  39.105  22.934  1.00  0.00     0.198 C 
BRANCH  32  33
HETATM   33  O3  UNL     1     -16.696  40.099  23.414  1.00  0.00    -0.398 OA
ATOM     34  H3  UNL     1     -15.795  39.879  23.208  1.00  0.00     0.209 HD
ENDBRANCH  32  33
ENDBRANCH  12  32
BRANCH  13  35
HETATM   35  O4  UNL     1     -15.207  37.593  23.487  1.00  0.00    -0.390 OA
ATOM     36  H4  UNL     1     -14.699  38.386  23.363  1.00  0.00     0.210 HD
ENDBRANCH  13  35
BRANCH  14  37
HETATM   37  O5  UNL     1     -16.111  35.496  24.728  1.00  0.00    -0.392 OA
ATOM     38  H5  UNL     1     -15.286  35.412  24.264  1.00  0.00     0.210 HD
ENDBRANCH  14  37
ENDBRANCH   1   6
TORSDOF 13
ENDMDL
MODEL 4
REMARK VINA RESULT: -6.593704514      2.102      3.094
REMARK  13 active torsions:
REMARK  status: ('A' for Active; 'I' for Inactive)
REMARK    1  A    between atoms: C2_2  and  C3_3 
REMARK    2  A    between atoms: C3_3  and  N1_4 
REMARK    3  A    between atoms: N1_4  and  C4_5 
REMARK    4  A    between atoms: N1_4  and  C17_27 
REMARK    5  A    between atoms: C4_5  and  C5_6 
REMARK    6  A    between atoms: C7_8  and  C8_9 
REMARK    7  A    between atoms: C13_17  and  C14_18 
REMARK    8  A    between atoms: C14_18  and  O3_19 
REMARK    9  A    between atoms: C15_21  and  O4_22 
REMARK   10  A    between atoms: C16_24  and  O5_25 
REMARK   11  A    between atoms: C19_30  and  O7_31 
REMARK   12  A    between atoms: C20_33  and  O8_34 
REMARK   13  A    between atoms: C21_36  and  O9_37 
ROOT
HETATM    1  C8  UNL     1     -27.216  28.864  30.107  1.00  0.00     0.008 C 
HETATM    2  C9  UNL     1     -27.254  28.170  29.005  1.00  0.00     0.015 C 
HETATM    3  C10 UNL     1     -26.246  28.497  27.933  1.00  0.00     0.060 C 
HETATM    4  C11 UNL     1     -28.148  27.107  28.689  1.00  0.00     0.094 C 
HETATM    5  N2  UNL     1     -28.863  26.223  28.416  1.00  0.00    -0.192 NA
ENDROOT
BRANCH   1   6
HETATM    6  C7  UNL     1     -28.059  28.768  31.295  1.00  0.00     0.059 C 
HETATM    7  C6  UNL     1     -27.583  27.594  32.159  1.00  0.00     0.058 C 
HETATM    8  C5  UNL     1     -26.190  28.167  32.551  1.00  0.00     0.164 C 
HETATM    9  O1  UNL     1     -26.298  29.539  32.364  1.00  0.00    -0.350 OA
HETATM   10  C12 UNL     1     -27.638  29.862  32.277  1.00  0.00     0.276 C 
HETATM   11  O2  UNL     1     -28.311  29.697  33.488  1.00  0.00    -0.350 OA
HETATM   12  C13 UNL     1     -29.674  29.701  33.334  1.00  0.00     0.179 C 
HETATM   13  C15 UNL     1     -30.156  29.840  31.923  1.00  0.00     0.179 C 
HETATM   14  C16 UNL     1     -29.527  28.733  31.073  1.00  0.00     0.166 C 
BRANCH   8  15
HETATM   15  C4  UNL     1     -25.922  27.940  33.981  1.00  0.00     0.092 C 
BRANCH  15  16
HETATM   16  N1  UNL     1     -24.616  27.996  34.509  1.00  0.00    -0.363 N 
BRANCH  16  17
HETATM   17  C3  UNL     1     -24.680  27.822  35.937  1.00  0.00     0.124 C 
BRANCH  17  18
HETATM   18  C2  UNL     1     -25.725  28.640  36.637  1.00  0.00     0.015 C 
HETATM   19  C1  UNL     1     -25.027  29.871  37.180  1.00  0.00     0.006 C 
ENDBRANCH  17  18
ENDBRANCH  16  17
BRANCH  16  20
HETATM   20  C17 UNL     1     -23.556  27.349  33.849  1.00  0.00     0.254 C 
HETATM   21  O6  UNL     1     -23.500  27.780  32.534  1.00  0.00    -0.361 OA
HETATM   22  C18 UNL     1     -22.317  27.686  31.884  1.00  0.00     0.205 C 
HETATM   23  C19 UNL     1     -21.436  26.534  32.216  1.00  0.00     0.173 C 
HETATM   24  C20 UNL     1     -21.361  26.382  33.720  1.00  0.00     0.182 C 
HETATM   25  C21 UNL     1     -22.176  27.523  34.356  1.00  0.00     0.198 C 
BRANCH  23  26
HETATM   26  O7  UNL     1     -20.132  26.857  31.797  1.00  0.00    -0.391 OA
ATOM     27  H7  UNL     1     -19.946  26.348  31.016  1.00  0.00     0.210 HD
ENDBRANCH  23  26
BRANCH  24  28
HETATM   28  O8  UNL     1     -22.059  25.197  34.022  1.00  0.00    -0.390 OA
ATOM     29  H8  UNL     1     -22.982  25.418  33.968  1.00  0.00     0.210 HD
ENDBRANCH  24  28
BRANCH  25  30
HETATM   30  O9  UNL     1     -21.941  27.440  35.685  1.00  0.00    -0.388 OA
ATOM     31  H9  UNL     1     -21.045  27.437  36.001  1.00  0.00     0.210 HD
ENDBRANCH  25  30
ENDBRANCH  16  20
ENDBRANCH  15  16
ENDBRANCH   8  15
BRANCH  12  32
HETATM   32  C14 UNL     1     -30.295  30.855  34.134  1.00  0.00     0.198 C 
BRANCH  32  33
HETATM   33  O3  UNL     1     -30.658  31.895  33.273  1.00  0.00    -0.398 OA
ATOM     34  H3  UNL     1     -31.380  32.389  33.644  1.00  0.00     0.209 HD
ENDBRANCH  32  33
ENDBRANCH  12  32
BRANCH  13  35
HETATM   35  O4  UNL     1     -31.537  29.519  31.947  1.00  0.00    -0.390 OA
ATOM     36  H4  UNL     1     -31.624  28.773  32.528  1.00  0.00     0.210 HD
ENDBRANCH  13  35
BRANCH  14  37
HETATM   37  O5  UNL     1     -29.982  27.483  31.515  1.00  0.00    -0.392 OA
ATOM     38  H5  UNL     1     -30.774  27.635  32.018  1.00  0.00     0.210 HD
ENDBRANCH  14  37
ENDBRANCH   1   6
TORSDOF 13
ENDMDL
MODEL 5
REMARK VINA RESULT: -6.488199931      1.942      2.597
REMARK  13 active torsions:
REMARK  status: ('A' for Active; 'I' for Inactive)
REMARK    1  A    between atoms: C2_2  and  C3_3 
REMARK    2  A    between atoms: C3_3  and  N1_4 
REMARK    3  A    between atoms: N1_4  and  C4_5 
REMARK    4  A    between atoms: N1_4  and  C17_27 
REMARK    5  A    between atoms: C4_5  and  C5_6 
REMARK    6  A    between atoms: C7_8  and  C8_9 
REMARK    7  A    between atoms: C13_17  and  C14_18 
REMARK    8  A    between atoms: C14_18  and  O3_19 
REMARK    9  A    between atoms: C15_21  and  O4_22 
REMARK   10  A    between atoms: C16_24  and  O5_25 
REMARK   11  A    between atoms: C19_30  and  O7_31 
REMARK   12  A    between atoms: C20_33  and  O8_34 
REMARK   13  A    between atoms: C21_36  and  O9_37 
ROOT
HETATM    1  C8  UNL     1     -28.177  29.025  30.947  1.00  0.00     0.008 C 
HETATM    2  C9  UNL     1     -28.137  28.637  29.704  1.00  0.00     0.015 C 
HETATM    3  C10 UNL     1     -27.568  29.594  28.688  1.00  0.00     0.060 C 
HETATM    4  C11 UNL     1     -28.566  27.385  29.179  1.00  0.00     0.094 C 
HETATM    5  N2  UNL     1     -28.899  26.357  28.732  1.00  0.00    -0.192 NA
ENDROOT
BRANCH   1   6
HETATM    6  C7  UNL     1     -28.670  28.318  32.125  1.00  0.00     0.059 C 
HETATM    7  C6  UNL     1     -27.683  27.202  32.495  1.00  0.00     0.058 C 
HETATM    8  C5  UNL     1     -26.479  28.105  32.893  1.00  0.00     0.164 C 
HETATM    9  O1  UNL     1     -27.035  29.344  33.181  1.00  0.00    -0.350 OA
HETATM   10  C12 UNL     1     -28.395  29.180  33.357  1.00  0.00     0.276 C 
HETATM   11  O2  UNL     1     -28.704  28.465  34.516  1.00  0.00    -0.350 OA
HETATM   12  C13 UNL     1     -30.004  28.025  34.527  1.00  0.00     0.179 C 
HETATM   13  C15 UNL     1     -30.802  28.360  33.306  1.00  0.00     0.179 C 
HETATM   14  C16 UNL     1     -30.069  27.824  32.072  1.00  0.00     0.166 C 
BRANCH   8  15
HETATM   15  C4  UNL     1     -25.848  27.611  34.128  1.00  0.00     0.092 C 
BRANCH  15  16
HETATM   16  N1  UNL     1     -24.508  27.907  34.446  1.00  0.00    -0.363 N 
BRANCH  16  17
HETATM   17  C3  UNL     1     -24.365  27.955  35.878  1.00  0.00     0.124 C 
BRANCH  17  18
HETATM   18  C2  UNL     1     -25.535  28.534  36.620  1.00  0.00     0.015 C 
HETATM   19  C1  UNL     1     -25.184  29.974  36.935  1.00  0.00     0.006 C 
ENDBRANCH  17  18
ENDBRANCH  16  17
BRANCH  16  20
HETATM   20  C17 UNL     1     -23.458  27.295  33.736  1.00  0.00     0.254 C 
HETATM   21  O6  UNL     1     -23.467  27.743  32.426  1.00  0.00    -0.361 OA
HETATM   22  C18 UNL     1     -22.308  27.688  31.728  1.00  0.00     0.205 C 
HETATM   23  C19 UNL     1     -21.385  26.555  32.010  1.00  0.00     0.173 C 
HETATM   24  C20 UNL     1     -21.246  26.388  33.508  1.00  0.00     0.182 C 
HETATM   25  C21 UNL     1     -22.064  27.500  34.190  1.00  0.00     0.198 C 
BRANCH  23  26
HETATM   26  O7  UNL     1     -20.108  26.918  31.543  1.00  0.00    -0.391 OA
ATOM     27  H7  UNL     1     -19.935  27.805  31.837  1.00  0.00     0.210 HD
ENDBRANCH  23  26
BRANCH  24  28
HETATM   28  O8  UNL     1     -21.900  25.182  33.823  1.00  0.00    -0.390 OA
ATOM     29  H8  UNL     1     -21.315  24.488  33.545  1.00  0.00     0.210 HD
ENDBRANCH  24  28
BRANCH  25  30
HETATM   30  O9  UNL     1     -21.773  27.408  35.508  1.00  0.00    -0.388 OA
ATOM     31  H9  UNL     1     -21.792  26.558  35.931  1.00  0.00     0.210 HD
ENDBRANCH  25  30
ENDBRANCH  16  20
ENDBRANCH  15  16
ENDBRANCH   8  15
BRANCH  12  32
HETATM   32  C14 UNL     1     -30.754  28.620  35.728  1.00  0.00     0.198 C 
BRANCH  32  33
HETATM   33  O3  UNL     1     -30.503  27.860  36.875  1.00  0.00    -0.398 OA
ATOM     34  H3  UNL     1     -30.617  28.395  37.651  1.00  0.00     0.209 HD
ENDBRANCH  32  33
ENDBRANCH  12  32
BRANCH  13  35
HETATM   35  O4  UNL     1     -31.980  27.575  33.380  1.00  0.00    -0.390 OA
ATOM     36  H4  UNL     1     -32.354  27.742  34.237  1.00  0.00     0.210 HD
ENDBRANCH  13  35
BRANCH  14  37
HETATM   37  O5  UNL     1     -30.016  26.424  32.128  1.00  0.00    -0.392 OA
ATOM     38  H5  UNL     1     -30.258  26.100  31.269  1.00  0.00     0.210 HD
ENDBRANCH  14  37
ENDBRANCH   1   6
TORSDOF 13
ENDMDL
