MODEL 1
REMARK VINA RESULT: -6.190875877      0.000      0.000
REMARK  14 active torsions:
REMARK  status: ('A' for Active; 'I' for Inactive)
REMARK    1  A    between atoms: N1_1  and  C1_5 
REMARK    2  A    between atoms: C4_8  and  O1_9 
REMARK    3  A    between atoms: O1_9  and  C5_10 
REMARK    4  A    between atoms: C6_11  and  O2_12 
REMARK    5  A    between atoms: C7_14  and  N2_15 
REMARK    6  A    between atoms: C9_20  and  O3_21 
REMARK    7  A    between atoms: C10_23  and  O4_24 
REMARK    8  A    between atoms: O4_24  and  C11_25 
REMARK    9  A    between atoms: C11_25  and  C12_27 
REMARK   10  A    between atoms: C12_27  and  N3_28 
REMARK       I    between atoms: N3_28  and  C13_30 
REMARK   11  A    between atoms: C13_30  and  O7_32 
REMARK   12  A    between atoms: O7_32  and  C14_33 
REMARK   13  A    between atoms: C14_33  and  C15_34 
REMARK   14  A    between atoms: C19_39  and  O8_40 
ROOT
HETATM    1  C5  UNL     1     -25.109  27.717  34.659  1.00  0.00     0.184 C 
HETATM    2  C6  UNL     1     -25.124  28.041  36.155  1.00  0.00     0.180 C 
HETATM    3  C7  UNL     1     -24.938  29.535  36.293  1.00  0.00     0.217 C 
HETATM    4  C8  UNL     1     -26.121  30.285  35.704  1.00  0.00     0.070 C 
HETATM    5  C9  UNL     1     -26.980  29.401  34.857  1.00  0.00     0.152 C 
HETATM    6  C10 UNL     1     -26.178  28.466  33.958  1.00  0.00     0.192 C 
ENDROOT
BRANCH   6   7
HETATM    7  O4  UNL     1     -27.091  27.646  33.254  1.00  0.00    -0.309 OA
BRANCH   7   8
HETATM    8  C11 UNL     1     -27.477  27.976  31.973  1.00  0.00     0.277 C 
HETATM    9  O5  UNL     1     -26.601  28.030  31.043  1.00  0.00    -0.263 OA
BRANCH   8  10
HETATM   10  C12 UNL     1     -28.873  28.293  31.560  1.00  0.00     0.235 C 
BRANCH  10  11
HETATM   11  N3  UNL     1     -29.304  29.560  32.115  1.00  0.00    -0.328 N 
HETATM   12  C13 UNL     1     -29.051  30.722  31.344  1.00  0.00     0.360 C 
HETATM   13  O6  UNL     1     -28.477  30.672  30.217  1.00  0.00    -0.239 OA
ATOM     14  H3  UNL     1     -29.769  29.613  33.022  1.00  0.00     0.165 HD
BRANCH  12  15
HETATM   15  O7  UNL     1     -29.419  31.971  31.781  1.00  0.00    -0.303 OA
BRANCH  15  16
HETATM   16  C14 UNL     1     -28.606  32.781  32.605  1.00  0.00     0.195 C 
BRANCH  16  17
HETATM   17  C15 UNL     1     -28.663  34.222  32.217  1.00  0.00     0.071 C 
HETATM   18  C16 UNL     1     -29.693  34.994  33.023  1.00  0.00     0.018 C 
HETATM   19  C17 UNL     1     -30.061  36.206  32.215  1.00  0.00     0.011 C 
HETATM   20  C18 UNL     1     -30.647  35.679  30.914  1.00  0.00     0.074 C 
HETATM   21  S1  UNL     1     -29.399  34.398  30.531  1.00  0.00    -0.162 SA
ENDBRANCH  16  17
ENDBRANCH  15  16
ENDBRANCH  12  15
ENDBRANCH  10  11
ENDBRANCH   8  10
ENDBRANCH   7   8
ENDBRANCH   6   7
BRANCH   1  22
HETATM   22  O1  UNL     1     -23.865  28.122  34.178  1.00  0.00    -0.373 OA
BRANCH  22  23
HETATM   23  C4  UNL     1     -23.202  27.134  33.488  1.00  0.00     0.153 C 
HETATM   24  C3  UNL     1     -21.869  26.845  34.108  1.00  0.00     0.036 C 
HETATM   25  C2  UNL     1     -21.072  26.282  32.948  1.00  0.00     0.038 C 
HETATM   26  C1  UNL     1     -21.546  27.034  31.735  1.00  0.00     0.214 C 
HETATM   27  C19 UNL     1     -22.849  27.696  32.124  1.00  0.00     0.177 C 
BRANCH  26  28
HETATM   28  N1  UNL     1     -20.602  28.095  31.422  1.00  0.00    -0.072 N 
ATOM     29  H13 UNL     1     -19.980  28.301  32.203  1.00  0.00     0.274 HD
ATOM     30  H12 UNL     1     -19.896  27.796  30.748  1.00  0.00     0.274 HD
ATOM     31  H11 UNL     1     -21.110  28.921  31.107  1.00  0.00     0.274 HD
ENDBRANCH  26  28
BRANCH  27  32
HETATM   32  O8  UNL     1     -23.858  27.370  31.205  1.00  0.00    -0.391 OA
ATOM     33  H8  UNL     1     -23.925  28.039  30.533  1.00  0.00     0.210 HD
ENDBRANCH  27  32
ENDBRANCH  22  23
ENDBRANCH   1  22
BRANCH   5  34
HETATM   34  O3  UNL     1     -27.921  28.771  35.627  1.00  0.00    -0.393 OA
ATOM     35  H3  UNL     1     -28.657  28.496  35.092  1.00  0.00     0.210 HD
ENDBRANCH   5  34
BRANCH   2  36
HETATM   36  O2  UNL     1     -24.034  27.415  36.771  1.00  0.00    -0.391 OA
ATOM     37  H2  UNL     1     -23.242  27.901  36.571  1.00  0.00     0.210 HD
ENDBRANCH   2  36
BRANCH   3  38
HETATM   38  N2  UNL     1     -24.701  29.892  37.661  1.00  0.00    -0.072 N 
ATOM     39  H23 UNL     1     -24.246  29.138  38.175  1.00  0.00     0.274 HD
ATOM     40  H22 UNL     1     -23.969  30.598  37.747  1.00  0.00     0.274 HD
ATOM     41  H21 UNL     1     -25.567  30.188  38.111  1.00  0.00     0.274 HD
ENDBRANCH   3  38
TORSDOF 14
ENDMDL
MODEL 2
REMARK VINA RESULT: -6.149394755      3.654      5.211
REMARK  14 active torsions:
REMARK  status: ('A' for Active; 'I' for Inactive)
REMARK    1  A    between atoms: N1_1  and  C1_5 
REMARK    2  A    between atoms: C4_8  and  O1_9 
REMARK    3  A    between atoms: O1_9  and  C5_10 
REMARK    4  A    between atoms: C6_11  and  O2_12 
REMARK    5  A    between atoms: C7_14  and  N2_15 
REMARK    6  A    between atoms: C9_20  and  O3_21 
REMARK    7  A    between atoms: C10_23  and  O4_24 
REMARK    8  A    between atoms: O4_24  and  C11_25 
REMARK    9  A    between atoms: C11_25  and  C12_27 
REMARK   10  A    between atoms: C12_27  and  N3_28 
REMARK       I    between atoms: N3_28  and  C13_30 
REMARK   11  A    between atoms: C13_30  and  O7_32 
REMARK   12  A    between atoms: O7_32  and  C14_33 
REMARK   13  A    between atoms: C14_33  and  C15_34 
REMARK   14  A    between atoms: C19_39  and  O8_40 
ROOT
HETATM    1  C5  UNL     1     -25.017  27.639  34.733  1.00  0.00     0.184 C 
HETATM    2  C6  UNL     1     -25.007  28.049  36.208  1.00  0.00     0.180 C 
HETATM    3  C7  UNL     1     -24.893  29.555  36.255  1.00  0.00     0.217 C 
HETATM    4  C8  UNL     1     -26.129  30.210  35.661  1.00  0.00     0.070 C 
HETATM    5  C9  UNL     1     -26.965  29.238  34.893  1.00  0.00     0.152 C 
HETATM    6  C10 UNL     1     -26.141  28.292  34.024  1.00  0.00     0.192 C 
ENDROOT
BRANCH   6   7
HETATM    7  O4  UNL     1     -27.031  27.389  33.396  1.00  0.00    -0.309 OA
BRANCH   7   8
HETATM    8  C11 UNL     1     -27.615  27.713  32.190  1.00  0.00     0.277 C 
HETATM    9  O5  UNL     1     -26.883  28.119  31.223  1.00  0.00    -0.263 OA
BRANCH   8  10
HETATM   10  C12 UNL     1     -29.075  27.635  31.903  1.00  0.00     0.235 C 
BRANCH  10  11
HETATM   11  N3  UNL     1     -29.744  26.765  32.849  1.00  0.00    -0.328 N 
HETATM   12  C13 UNL     1     -30.422  27.386  33.927  1.00  0.00     0.360 C 
HETATM   13  O6  UNL     1     -30.453  28.643  34.071  1.00  0.00    -0.239 OA
ATOM     14  H3  UNL     1     -29.728  25.751  32.743  1.00  0.00     0.165 HD
BRANCH  12  15
HETATM   15  O7  UNL     1     -31.087  26.651  34.879  1.00  0.00    -0.303 OA
BRANCH  15  16
HETATM   16  C14 UNL     1     -31.802  27.227  35.951  1.00  0.00     0.195 C 
BRANCH  16  17
HETATM   17  C15 UNL     1     -32.086  26.244  37.038  1.00  0.00     0.071 C 
HETATM   18  C16 UNL     1     -31.060  26.310  38.156  1.00  0.00     0.018 C 
HETATM   19  C17 UNL     1     -31.094  24.984  38.861  1.00  0.00     0.011 C 
HETATM   20  C18 UNL     1     -30.717  23.945  37.815  1.00  0.00     0.074 C 
HETATM   21  S1  UNL     1     -31.772  24.524  36.437  1.00  0.00    -0.162 SA
ENDBRANCH  16  17
ENDBRANCH  15  16
ENDBRANCH  12  15
ENDBRANCH  10  11
ENDBRANCH   8  10
ENDBRANCH   7   8
ENDBRANCH   6   7
BRANCH   1  22
HETATM   22  O1  UNL     1     -23.809  28.076  34.192  1.00  0.00    -0.373 OA
BRANCH  22  23
HETATM   23  C4  UNL     1     -23.151  27.102  33.477  1.00  0.00     0.153 C 
HETATM   24  C3  UNL     1     -21.815  26.798  34.084  1.00  0.00     0.036 C 
HETATM   25  C2  UNL     1     -21.025  26.259  32.908  1.00  0.00     0.038 C 
HETATM   26  C1  UNL     1     -21.503  27.038  31.715  1.00  0.00     0.214 C 
HETATM   27  C19 UNL     1     -22.803  27.693  32.124  1.00  0.00     0.177 C 
BRANCH  26  28
HETATM   28  N1  UNL     1     -20.559  28.104  31.420  1.00  0.00    -0.072 N 
ATOM     29  H13 UNL     1     -21.018  28.928  31.031  1.00  0.00     0.274 HD
ATOM     30  H12 UNL     1     -20.184  28.532  32.267  1.00  0.00     0.274 HD
ATOM     31  H11 UNL     1     -19.824  27.749  30.809  1.00  0.00     0.274 HD
ENDBRANCH  26  28
BRANCH  27  32
HETATM   32  O8  UNL     1     -23.818  27.389  31.203  1.00  0.00    -0.391 OA
ATOM     33  H8  UNL     1     -24.338  26.657  31.511  1.00  0.00     0.210 HD
ENDBRANCH  27  32
ENDBRANCH  22  23
ENDBRANCH   1  22
BRANCH   5  34
HETATM   34  O3  UNL     1     -27.851  28.608  35.725  1.00  0.00    -0.393 OA
ATOM     35  H3  UNL     1     -28.744  28.835  35.491  1.00  0.00     0.210 HD
ENDBRANCH   5  34
BRANCH   2  36
HETATM   36  O2  UNL     1     -23.870  27.514  36.825  1.00  0.00    -0.391 OA
ATOM     37  H2  UNL     1     -24.114  26.730  37.302  1.00  0.00     0.210 HD
ENDBRANCH   2  36
BRANCH   3  38
HETATM   38  N2  UNL     1     -24.636  30.003  37.593  1.00  0.00    -0.072 N 
ATOM     39  H23 UNL     1     -23.955  29.409  38.066  1.00  0.00     0.274 HD
ATOM     40  H22 UNL     1     -24.111  30.877  37.605  1.00  0.00     0.274 HD
ATOM     41  H21 UNL     1     -25.506  30.076  38.121  1.00  0.00     0.274 HD
ENDBRANCH   3  38
TORSDOF 14
ENDMDL
MODEL 3
REMARK VINA RESULT: -6.135250252      3.462      4.621
REMARK  14 active torsions:
REMARK  status: ('A' for Active; 'I' for Inactive)
REMARK    1  A    between atoms: N1_1  and  C1_5 
REMARK    2  A    between atoms: C4_8  and  O1_9 
REMARK    3  A    between atoms: O1_9  and  C5_10 
REMARK    4  A    between atoms: C6_11  and  O2_12 
REMARK    5  A    between atoms: C7_14  and  N2_15 
REMARK    6  A    between atoms: C9_20  and  O3_21 
REMARK    7  A    between atoms: C10_23  and  O4_24 
REMARK    8  A    between atoms: O4_24  and  C11_25 
REMARK    9  A    between atoms: C11_25  and  C12_27 
REMARK   10  A    between atoms: C12_27  and  N3_28 
REMARK       I    between atoms: N3_28  and  C13_30 
REMARK   11  A    between atoms: C13_30  and  O7_32 
REMARK   12  A    between atoms: O7_32  and  C14_33 
REMARK   13  A    between atoms: C14_33  and  C15_34 
REMARK   14  A    between atoms: C19_39  and  O8_40 
ROOT
HETATM    1  C5  UNL     1     -25.132  27.681  34.717  1.00  0.00     0.184 C 
HETATM    2  C6  UNL     1     -25.054  28.023  36.208  1.00  0.00     0.180 C 
HETATM    3  C7  UNL     1     -24.905  29.523  36.317  1.00  0.00     0.217 C 
HETATM    4  C8  UNL     1     -26.148  30.229  35.805  1.00  0.00     0.070 C 
HETATM    5  C9  UNL     1     -27.036  29.310  35.028  1.00  0.00     0.152 C 
HETATM    6  C10 UNL     1     -26.269  28.389  34.085  1.00  0.00     0.192 C 
ENDROOT
BRANCH   6   7
HETATM    7  O4  UNL     1     -27.202  27.533  33.454  1.00  0.00    -0.309 OA
BRANCH   7   8
HETATM    8  C11 UNL     1     -27.523  27.712  32.125  1.00  0.00     0.277 C 
HETATM    9  O5  UNL     1     -26.636  28.151  31.316  1.00  0.00    -0.263 OA
BRANCH   8  10
HETATM   10  C12 UNL     1     -28.858  27.434  31.527  1.00  0.00     0.235 C 
BRANCH  10  11
HETATM   11  N3  UNL     1     -28.855  27.699  30.103  1.00  0.00    -0.328 N 
HETATM   12  C13 UNL     1     -29.096  26.600  29.241  1.00  0.00     0.360 C 
HETATM   13  O6  UNL     1     -29.310  25.432  29.681  1.00  0.00    -0.239 OA
ATOM     14  H3  UNL     1     -28.686  28.636  29.736  1.00  0.00     0.165 HD
BRANCH  12  15
HETATM   15  O7  UNL     1     -29.113  26.745  27.875  1.00  0.00    -0.303 OA
BRANCH  15  16
HETATM   16  C14 UNL     1     -28.248  27.610  27.171  1.00  0.00     0.195 C 
BRANCH  16  17
HETATM   17  C15 UNL     1     -26.858  27.074  27.082  1.00  0.00     0.071 C 
HETATM   18  C16 UNL     1     -25.879  27.867  27.929  1.00  0.00     0.018 C 
HETATM   19  C17 UNL     1     -24.510  27.631  27.354  1.00  0.00     0.011 C 
HETATM   20  C18 UNL     1     -24.563  28.149  25.924  1.00  0.00     0.074 C 
HETATM   21  S1  UNL     1     -26.154  27.409  25.405  1.00  0.00    -0.162 SA
ENDBRANCH  16  17
ENDBRANCH  15  16
ENDBRANCH  12  15
ENDBRANCH  10  11
ENDBRANCH   8  10
ENDBRANCH   7   8
ENDBRANCH   6   7
BRANCH   1  22
HETATM   22  O1  UNL     1     -23.937  28.118  34.147  1.00  0.00    -0.373 OA
BRANCH  22  23
HETATM   23  C4  UNL     1     -23.270  27.129  33.462  1.00  0.00     0.153 C 
HETATM   24  C3  UNL     1     -21.957  26.814  34.112  1.00  0.00     0.036 C 
HETATM   25  C2  UNL     1     -21.138  26.255  32.966  1.00  0.00     0.038 C 
HETATM   26  C1  UNL     1     -21.570  27.028  31.752  1.00  0.00     0.214 C 
HETATM   27  C19 UNL     1     -22.874  27.703  32.114  1.00  0.00     0.177 C 
BRANCH  26  28
HETATM   28  N1  UNL     1     -20.604  28.080  31.476  1.00  0.00    -0.072 N 
ATOM     29  H13 UNL     1     -20.776  28.535  30.580  1.00  0.00     0.274 HD
ATOM     30  H12 UNL     1     -20.735  28.891  32.081  1.00  0.00     0.274 HD
ATOM     31  H11 UNL     1     -19.660  27.700  31.539  1.00  0.00     0.274 HD
ENDBRANCH  26  28
BRANCH  27  32
HETATM   32  O8  UNL     1     -23.864  27.403  31.166  1.00  0.00    -0.391 OA
ATOM     33  H8  UNL     1     -24.670  27.860  31.371  1.00  0.00     0.210 HD
ENDBRANCH  27  32
ENDBRANCH  22  23
ENDBRANCH   1  22
BRANCH   5  34
HETATM   34  O3  UNL     1     -27.902  28.661  35.867  1.00  0.00    -0.393 OA
ATOM     35  H3  UNL     1     -27.899  29.070  36.725  1.00  0.00     0.210 HD
ENDBRANCH   5  34
BRANCH   2  36
HETATM   36  O2  UNL     1     -23.905  27.437  36.753  1.00  0.00    -0.391 OA
ATOM     37  H2  UNL     1     -23.328  28.122  37.071  1.00  0.00     0.210 HD
ENDBRANCH   2  36
BRANCH   3  38
HETATM   38  N2  UNL     1     -24.585  29.903  37.662  1.00  0.00    -0.072 N 
ATOM     39  H23 UNL     1     -23.614  29.695  37.893  1.00  0.00     0.274 HD
ATOM     40  H22 UNL     1     -24.554  30.917  37.771  1.00  0.00     0.274 HD
ATOM     41  H21 UNL     1     -25.232  29.471  38.322  1.00  0.00     0.274 HD
ENDBRANCH   3  38
TORSDOF 14
ENDMDL
MODEL 4
REMARK VINA RESULT: -6.103164318      3.528      5.555
REMARK  14 active torsions:
REMARK  status: ('A' for Active; 'I' for Inactive)
REMARK    1  A    between atoms: N1_1  and  C1_5 
REMARK    2  A    between atoms: C4_8  and  O1_9 
REMARK    3  A    between atoms: O1_9  and  C5_10 
REMARK    4  A    between atoms: C6_11  and  O2_12 
REMARK    5  A    between atoms: C7_14  and  N2_15 
REMARK    6  A    between atoms: C9_20  and  O3_21 
REMARK    7  A    between atoms: C10_23  and  O4_24 
REMARK    8  A    between atoms: O4_24  and  C11_25 
REMARK    9  A    between atoms: C11_25  and  C12_27 
REMARK   10  A    between atoms: C12_27  and  N3_28 
REMARK       I    between atoms: N3_28  and  C13_30 
REMARK   11  A    between atoms: C13_30  and  O7_32 
REMARK   12  A    between atoms: O7_32  and  C14_33 
REMARK   13  A    between atoms: C14_33  and  C15_34 
REMARK   14  A    between atoms: C19_39  and  O8_40 
ROOT
HETATM    1  C5  UNL     1     -25.107  27.668  34.683  1.00  0.00     0.184 C 
HETATM    2  C6  UNL     1     -25.096  28.084  36.157  1.00  0.00     0.180 C 
HETATM    3  C7  UNL     1     -24.985  29.591  36.197  1.00  0.00     0.217 C 
HETATM    4  C8  UNL     1     -26.223  30.241  35.602  1.00  0.00     0.070 C 
HETATM    5  C9  UNL     1     -27.058  29.263  34.839  1.00  0.00     0.152 C 
HETATM    6  C10 UNL     1     -26.233  28.316  33.973  1.00  0.00     0.192 C 
ENDROOT
BRANCH   6   7
HETATM    7  O4  UNL     1     -27.122  27.408  33.350  1.00  0.00    -0.309 OA
BRANCH   7   8
HETATM    8  C11 UNL     1     -27.696  27.719  32.136  1.00  0.00     0.277 C 
HETATM    9  O5  UNL     1     -28.818  27.195  31.816  1.00  0.00    -0.263 OA
BRANCH   8  10
HETATM   10  C12 UNL     1     -27.103  28.637  31.124  1.00  0.00     0.235 C 
BRANCH  10  11
HETATM   11  N3  UNL     1     -27.575  28.318  29.793  1.00  0.00    -0.328 N 
HETATM   12  C13 UNL     1     -26.592  28.063  28.804  1.00  0.00     0.360 C 
HETATM   13  O6  UNL     1     -25.353  28.106  29.058  1.00  0.00    -0.239 OA
ATOM     14  H3  UNL     1     -28.571  28.278  29.576  1.00  0.00     0.165 HD
BRANCH  12  15
HETATM   15  O7  UNL     1     -26.934  27.752  27.510  1.00  0.00    -0.303 OA
BRANCH  15  16
HETATM   16  C14 UNL     1     -27.564  26.544  27.138  1.00  0.00     0.195 C 
BRANCH  16  17
HETATM   17  C15 UNL     1     -26.977  25.956  25.898  1.00  0.00     0.071 C 
HETATM   18  C16 UNL     1     -26.791  24.454  26.006  1.00  0.00     0.018 C 
HETATM   19  C17 UNL     1     -25.731  24.071  25.012  1.00  0.00     0.011 C 
HETATM   20  C18 UNL     1     -24.476  24.823  25.429  1.00  0.00     0.074 C 
HETATM   21  S1  UNL     1     -25.210  26.472  25.725  1.00  0.00    -0.162 SA
ENDBRANCH  16  17
ENDBRANCH  15  16
ENDBRANCH  12  15
ENDBRANCH  10  11
ENDBRANCH   8  10
ENDBRANCH   7   8
ENDBRANCH   6   7
BRANCH   1  22
HETATM   22  O1  UNL     1     -23.901  28.105  34.139  1.00  0.00    -0.373 OA
BRANCH  22  23
HETATM   23  C4  UNL     1     -23.218  27.117  33.470  1.00  0.00     0.153 C 
HETATM   24  C3  UNL     1     -21.904  26.826  34.130  1.00  0.00     0.036 C 
HETATM   25  C2  UNL     1     -21.073  26.263  32.995  1.00  0.00     0.038 C 
HETATM   26  C1  UNL     1     -21.508  27.015  31.769  1.00  0.00     0.214 C 
HETATM   27  C19 UNL     1     -22.821  27.679  32.117  1.00  0.00     0.177 C 
BRANCH  26  28
HETATM   28  N1  UNL     1     -20.554  28.076  31.485  1.00  0.00    -0.072 N 
ATOM     29  H13 UNL     1     -20.564  28.804  32.198  1.00  0.00     0.274 HD
ATOM     30  H12 UNL     1     -19.589  27.767  31.606  1.00  0.00     0.274 HD
ATOM     31  H11 UNL     1     -20.726  28.448  30.551  1.00  0.00     0.274 HD
ENDBRANCH  26  28
BRANCH  27  32
HETATM   32  O8  UNL     1     -23.803  27.355  31.167  1.00  0.00    -0.391 OA
ATOM     33  H8  UNL     1     -24.134  28.141  30.749  1.00  0.00     0.210 HD
ENDBRANCH  27  32
ENDBRANCH  22  23
ENDBRANCH   1  22
BRANCH   5  34
HETATM   34  O3  UNL     1     -27.942  28.635  35.676  1.00  0.00    -0.393 OA
ATOM     35  H3  UNL     1     -27.688  27.729  35.804  1.00  0.00     0.210 HD
ENDBRANCH   5  34
BRANCH   2  36
HETATM   36  O2  UNL     1     -23.957  27.554  36.775  1.00  0.00    -0.391 OA
ATOM     37  H2  UNL     1     -23.293  28.232  36.837  1.00  0.00     0.210 HD
ENDBRANCH   2  36
BRANCH   3  38
HETATM   38  N2  UNL     1     -24.728  30.045  37.533  1.00  0.00    -0.072 N 
ATOM     39  H23 UNL     1     -25.418  29.688  38.193  1.00  0.00     0.274 HD
ATOM     40  H22 UNL     1     -23.897  29.605  37.928  1.00  0.00     0.274 HD
ATOM     41  H21 UNL     1     -24.667  31.063  37.562  1.00  0.00     0.274 HD
ENDBRANCH   3  38
TORSDOF 14
ENDMDL
MODEL 5
REMARK VINA RESULT: -6.069411499      0.926      1.157
REMARK  14 active torsions:
REMARK  status: ('A' for Active; 'I' for Inactive)
REMARK    1  A    between atoms: N1_1  and  C1_5 
REMARK    2  A    between atoms: C4_8  and  O1_9 
REMARK    3  A    between atoms: O1_9  and  C5_10 
REMARK    4  A    between atoms: C6_11  and  O2_12 
REMARK    5  A    between atoms: C7_14  and  N2_15 
REMARK    6  A    between atoms: C9_20  and  O3_21 
REMARK    7  A    between atoms: C10_23  and  O4_24 
REMARK    8  A    between atoms: O4_24  and  C11_25 
REMARK    9  A    between atoms: C11_25  and  C12_27 
REMARK   10  A    between atoms: C12_27  and  N3_28 
REMARK       I    between atoms: N3_28  and  C13_30 
REMARK   11  A    between atoms: C13_30  and  O7_32 
REMARK   12  A    between atoms: O7_32  and  C14_33 
REMARK   13  A    between atoms: C14_33  and  C15_34 
REMARK   14  A    between atoms: C19_39  and  O8_40 
ROOT
HETATM    1  C5  UNL     1     -25.150  27.662  34.697  1.00  0.00     0.184 C 
HETATM    2  C6  UNL     1     -25.106  28.087  36.167  1.00  0.00     0.180 C 
HETATM    3  C7  UNL     1     -25.000  29.594  36.195  1.00  0.00     0.217 C 
HETATM    4  C8  UNL     1     -26.254  30.236  35.625  1.00  0.00     0.070 C 
HETATM    5  C9  UNL     1     -27.103  29.251  34.887  1.00  0.00     0.152 C 
HETATM    6  C10 UNL     1     -26.295  28.301  34.008  1.00  0.00     0.192 C 
ENDROOT
BRANCH   6   7
HETATM    7  O4  UNL     1     -27.194  27.386  33.412  1.00  0.00    -0.309 OA
BRANCH   7   8
HETATM    8  C11 UNL     1     -28.005  27.785  32.371  1.00  0.00     0.277 C 
HETATM    9  O5  UNL     1     -29.275  27.777  32.521  1.00  0.00    -0.263 OA
BRANCH   8  10
HETATM   10  C12 UNL     1     -27.518  28.236  31.037  1.00  0.00     0.235 C 
BRANCH  10  11
HETATM   11  N3  UNL     1     -27.650  29.671  30.894  1.00  0.00    -0.328 N 
HETATM   12  C13 UNL     1     -28.615  30.141  29.969  1.00  0.00     0.360 C 
HETATM   13  O6  UNL     1     -29.339  29.355  29.292  1.00  0.00    -0.239 OA
ATOM     14  H3  UNL     1     -27.073  30.316  31.435  1.00  0.00     0.165 HD
BRANCH  12  15
HETATM   15  O7  UNL     1     -28.818  31.484  29.758  1.00  0.00    -0.303 OA
BRANCH  15  16
HETATM   16  C14 UNL     1     -29.767  32.251  30.468  1.00  0.00     0.195 C 
BRANCH  16  17
HETATM   17  C15 UNL     1     -29.152  33.434  31.140  1.00  0.00     0.071 C 
HETATM   18  C16 UNL     1     -29.639  33.602  32.568  1.00  0.00     0.018 C 
HETATM   19  C17 UNL     1     -29.431  35.044  32.935  1.00  0.00     0.011 C 
HETATM   20  C18 UNL     1     -30.274  35.849  31.957  1.00  0.00     0.074 C 
HETATM   21  S1  UNL     1     -29.813  34.997  30.406  1.00  0.00    -0.162 SA
ENDBRANCH  16  17
ENDBRANCH  15  16
ENDBRANCH  12  15
ENDBRANCH  10  11
ENDBRANCH   8  10
ENDBRANCH   7   8
ENDBRANCH   6   7
BRANCH   1  22
HETATM   22  O1  UNL     1     -23.958  28.099  34.121  1.00  0.00    -0.373 OA
BRANCH  22  23
HETATM   23  C4  UNL     1     -23.291  27.111  33.436  1.00  0.00     0.153 C 
HETATM   24  C3  UNL     1     -21.985  26.785  34.095  1.00  0.00     0.036 C 
HETATM   25  C2  UNL     1     -21.161  26.227  32.952  1.00  0.00     0.038 C 
HETATM   26  C1  UNL     1     -21.579  27.009  31.738  1.00  0.00     0.214 C 
HETATM   27  C19 UNL     1     -22.882  27.689  32.095  1.00  0.00     0.177 C 
BRANCH  26  28
HETATM   28  N1  UNL     1     -20.606  28.057  31.475  1.00  0.00    -0.072 N 
ATOM     29  H13 UNL     1     -20.591  28.763  32.211  1.00  0.00     0.274 HD
ATOM     30  H12 UNL     1     -19.646  27.724  31.573  1.00  0.00     0.274 HD
ATOM     31  H11 UNL     1     -20.782  28.463  30.556  1.00  0.00     0.274 HD
ENDBRANCH  26  28
BRANCH  27  32
HETATM   32  O8  UNL     1     -23.866  27.399  31.137  1.00  0.00    -0.391 OA
ATOM     33  H8  UNL     1     -23.892  28.076  30.471  1.00  0.00     0.210 HD
ENDBRANCH  27  32
ENDBRANCH  22  23
ENDBRANCH   1  22
BRANCH   5  34
HETATM   34  O3  UNL     1     -27.965  28.625  35.748  1.00  0.00    -0.393 OA
ATOM     35  H3  UNL     1     -27.556  28.506  36.597  1.00  0.00     0.210 HD
ENDBRANCH   5  34
BRANCH   2  36
HETATM   36  O2  UNL     1     -23.951  27.565  36.761  1.00  0.00    -0.391 OA
ATOM     37  H2  UNL     1     -23.847  26.659  36.495  1.00  0.00     0.210 HD
ENDBRANCH   2  36
BRANCH   3  38
HETATM   38  N2  UNL     1     -24.713  30.058  37.521  1.00  0.00    -0.072 N 
ATOM     39  H23 UNL     1     -25.072  29.419  38.230  1.00  0.00     0.274 HD
ATOM     40  H22 UNL     1     -23.720  29.987  37.740  1.00  0.00     0.274 HD
ATOM     41  H21 UNL     1     -25.064  31.006  37.655  1.00  0.00     0.274 HD
ENDBRANCH   3  38
TORSDOF 14
ENDMDL
