MODEL 1
REMARK VINA RESULT: -6.555369038      0.000      0.000
REMARK  12 active torsions:
REMARK  status: ('A' for Active; 'I' for Inactive)
REMARK    1  A    between atoms: O1_1  and  C1_3 
REMARK    2  A    between atoms: C1_3  and  C2_4 
REMARK    3  A    between atoms: C3_6  and  O3_7 
REMARK    4  A    between atoms: O3_7  and  C4_8 
REMARK    5  A    between atoms: C6_10  and  O4_11 
REMARK    6  A    between atoms: C7_13  and  O5_14 
REMARK    7  A    between atoms: O5_14  and  C8_15 
REMARK    8  A    between atoms: C14_21  and  O6_22 
REMARK    9  A    between atoms: C15_24  and  O7_25 
REMARK   10  A    between atoms: C16_27  and  N1_28 
REMARK   11  A    between atoms: C21_33  and  O8_34 
REMARK   12  A    between atoms: C22_36  and  O9_37 
ROOT
HETATM    1  C4  UNL     1     -20.739  36.102  25.653  1.00  0.00     0.158 C 
HETATM    2  C5  UNL     1     -21.389  36.736  24.456  1.00  0.00     0.069 C 
HETATM    3  C6  UNL     1     -22.900  36.680  24.495  1.00  0.00     0.152 C 
HETATM    4  C7  UNL     1     -23.436  35.261  24.398  1.00  0.00     0.182 C 
HETATM    5  C14 UNL     1     -22.242  34.371  24.781  1.00  0.00     0.180 C 
HETATM    6  C15 UNL     1     -21.624  34.939  26.041  1.00  0.00     0.178 C 
ENDROOT
BRANCH   1   7
HETATM    7  O3  UNL     1     -19.466  35.719  25.311  1.00  0.00    -0.351 OA
BRANCH   7   8
HETATM    8  C3  UNL     1     -18.443  36.201  26.098  1.00  0.00     0.297 C 
HETATM    9  O2  UNL     1     -18.317  35.188  27.085  1.00  0.00    -0.349 OA
HETATM   10  C2  UNL     1     -17.209  35.237  27.858  1.00  0.00     0.179 C 
HETATM   11  C22 UNL     1     -15.907  35.100  27.099  1.00  0.00     0.180 C 
HETATM   12  C21 UNL     1     -16.327  35.143  25.620  1.00  0.00     0.187 C 
HETATM   13  C16 UNL     1     -17.133  36.441  25.509  1.00  0.00     0.308 C 
BRANCH  10  14
HETATM   14  C1  UNL     1     -17.181  36.327  28.904  1.00  0.00     0.198 C 
BRANCH  14  15
HETATM   15  O1  UNL     1     -16.391  35.939  30.005  1.00  0.00    -0.398 OA
ATOM     16  H1  UNL     1     -16.127  36.698  30.513  1.00  0.00     0.209 HD
ENDBRANCH  14  15
ENDBRANCH  10  14
BRANCH  11  17
HETATM   17  O9  UNL     1     -15.294  33.863  27.271  1.00  0.00    -0.390 OA
ATOM     18  H9  UNL     1     -14.554  33.723  26.691  1.00  0.00     0.210 HD
ENDBRANCH  11  17
BRANCH  12  19
HETATM   19  O8  UNL     1     -17.173  34.062  25.333  1.00  0.00    -0.391 OA
ATOM     20  H8  UNL     1     -16.919  33.690  24.497  1.00  0.00     0.210 HD
ENDBRANCH  12  19
BRANCH  13  21
HETATM   21  N1  UNL     1     -16.990  36.945  24.192  1.00  0.00     0.100 N 
HETATM   22  C17 UNL     1     -17.475  38.255  23.938  1.00  0.00     0.273 C 
HETATM   23  C18 UNL     1     -16.466  39.055  23.176  1.00  0.00     0.032 C 
HETATM   24  C19 UNL     1     -15.208  38.289  23.316  1.00  0.00     0.032 C 
HETATM   25  C20 UNL     1     -15.545  36.970  23.922  1.00  0.00     0.273 C 
ENDBRANCH  13  21
ENDBRANCH   7   8
ENDBRANCH   1   7
BRANCH   6  26
HETATM   26  O7  UNL     1     -20.991  33.957  26.739  1.00  0.00    -0.390 OA
ATOM     27  H7  UNL     1     -21.034  33.098  26.336  1.00  0.00     0.210 HD
ENDBRANCH   6  26
BRANCH   3  28
HETATM   28  O4  UNL     1     -23.406  37.360  25.581  1.00  0.00    -0.393 OA
ATOM     29  H4  UNL     1     -23.050  38.238  25.642  1.00  0.00     0.210 HD
ENDBRANCH   3  28
BRANCH   5  30
HETATM   30  O6  UNL     1     -22.638  33.076  25.050  1.00  0.00    -0.390 OA
ATOM     31  H6  UNL     1     -21.919  32.552  25.384  1.00  0.00     0.210 HD
ENDBRANCH   5  30
BRANCH   4  32
HETATM   32  O5  UNL     1     -24.390  35.068  25.338  1.00  0.00    -0.375 OA
BRANCH  32  33
HETATM   33  C8  UNL     1     -25.636  34.709  24.918  1.00  0.00     0.122 C 
HETATM   34  C9  UNL     1     -26.188  33.493  25.634  1.00  0.00     0.032 C 
HETATM   35  C10 UNL     1     -26.061  32.242  24.792  1.00  0.00     0.002 C 
HETATM   36  C11 UNL     1     -26.822  32.379  23.504  1.00  0.00     0.000 C 
HETATM   37  C12 UNL     1     -27.094  33.819  23.178  1.00  0.00     0.002 C 
HETATM   38  C13 UNL     1     -25.803  34.593  23.432  1.00  0.00     0.032 C 
ENDBRANCH  32  33
ENDBRANCH   4  32
TORSDOF 12
ENDMDL
MODEL 2
REMARK VINA RESULT: -6.391718664      1.333      1.836
REMARK  12 active torsions:
REMARK  status: ('A' for Active; 'I' for Inactive)
REMARK    1  A    between atoms: O1_1  and  C1_3 
REMARK    2  A    between atoms: C1_3  and  C2_4 
REMARK    3  A    between atoms: C3_6  and  O3_7 
REMARK    4  A    between atoms: O3_7  and  C4_8 
REMARK    5  A    between atoms: C6_10  and  O4_11 
REMARK    6  A    between atoms: C7_13  and  O5_14 
REMARK    7  A    between atoms: O5_14  and  C8_15 
REMARK    8  A    between atoms: C14_21  and  O6_22 
REMARK    9  A    between atoms: C15_24  and  O7_25 
REMARK   10  A    between atoms: C16_27  and  N1_28 
REMARK   11  A    between atoms: C21_33  and  O8_34 
REMARK   12  A    between atoms: C22_36  and  O9_37 
ROOT
HETATM    1  C4  UNL     1     -20.743  36.293  25.718  1.00  0.00     0.158 C 
HETATM    2  C5  UNL     1     -21.495  36.670  24.474  1.00  0.00     0.069 C 
HETATM    3  C6  UNL     1     -22.947  36.251  24.500  1.00  0.00     0.152 C 
HETATM    4  C7  UNL     1     -23.120  34.739  24.496  1.00  0.00     0.182 C 
HETATM    5  C14 UNL     1     -21.756  34.195  24.952  1.00  0.00     0.180 C 
HETATM    6  C15 UNL     1     -21.330  34.977  26.177  1.00  0.00     0.178 C 
ENDROOT
BRANCH   1   7
HETATM    7  O3  UNL     1     -19.406  36.211  25.417  1.00  0.00    -0.351 OA
BRANCH   7   8
HETATM    8  C3  UNL     1     -18.571  37.090  26.071  1.00  0.00     0.297 C 
HETATM    9  O2  UNL     1     -18.997  36.969  27.419  1.00  0.00    -0.349 OA
HETATM   10  C2  UNL     1     -18.188  37.511  28.356  1.00  0.00     0.179 C 
HETATM   11  C22 UNL     1     -16.800  36.910  28.411  1.00  0.00     0.180 C 
HETATM   12  C21 UNL     1     -16.745  35.977  27.190  1.00  0.00     0.187 C 
HETATM   13  C16 UNL     1     -17.129  36.887  26.020  1.00  0.00     0.308 C 
BRANCH  10  14
HETATM   14  C1  UNL     1     -18.193  39.019  28.441  1.00  0.00     0.198 C 
BRANCH  14  15
HETATM   15  O1  UNL     1     -18.819  39.449  29.629  1.00  0.00    -0.398 OA
ATOM     16  H1  UNL     1     -18.485  38.968  30.377  1.00  0.00     0.209 HD
ENDBRANCH  14  15
ENDBRANCH  10  14
BRANCH  11  17
HETATM   17  O9  UNL     1     -16.596  36.086  29.514  1.00  0.00    -0.390 OA
ATOM     18  H9  UNL     1     -17.404  35.794  29.921  1.00  0.00     0.210 HD
ENDBRANCH  11  17
BRANCH  12  19
HETATM   19  O8  UNL     1     -17.715  34.972  27.315  1.00  0.00    -0.391 OA
ATOM     20  H8  UNL     1     -17.591  34.530  28.147  1.00  0.00     0.210 HD
ENDBRANCH  12  19
BRANCH  13  21
HETATM   21  N1  UNL     1     -16.486  36.408  24.851  1.00  0.00     0.100 N 
HETATM   22  C17 UNL     1     -17.208  36.482  23.631  1.00  0.00     0.273 C 
HETATM   23  C18 UNL     1     -16.353  37.049  22.542  1.00  0.00     0.032 C 
HETATM   24  C19 UNL     1     -15.210  37.662  23.254  1.00  0.00     0.032 C 
HETATM   25  C20 UNL     1     -15.284  37.238  24.681  1.00  0.00     0.273 C 
ENDBRANCH  13  21
ENDBRANCH   7   8
ENDBRANCH   1   7
BRANCH   6  26
HETATM   26  O7  UNL     1     -20.496  34.227  26.948  1.00  0.00    -0.390 OA
ATOM     27  H7  UNL     1     -20.533  34.425  27.876  1.00  0.00     0.210 HD
ENDBRANCH   6  26
BRANCH   3  28
HETATM   28  O4  UNL     1     -23.633  36.855  25.530  1.00  0.00    -0.393 OA
ATOM     29  H4  UNL     1     -24.476  36.444  25.678  1.00  0.00     0.210 HD
ENDBRANCH   3  28
BRANCH   5  30
HETATM   30  O6  UNL     1     -21.833  32.862  25.306  1.00  0.00    -0.390 OA
ATOM     31  H6  UNL     1     -21.908  32.755  26.247  1.00  0.00     0.210 HD
ENDBRANCH   5  30
BRANCH   4  32
HETATM   32  O5  UNL     1     -24.023  34.381  25.437  1.00  0.00    -0.375 OA
BRANCH  32  33
HETATM   33  C8  UNL     1     -25.240  33.932  25.015  1.00  0.00     0.122 C 
HETATM   34  C9  UNL     1     -26.406  34.634  25.679  1.00  0.00     0.032 C 
HETATM   35  C10 UNL     1     -27.010  33.795  26.784  1.00  0.00     0.002 C 
HETATM   36  C11 UNL     1     -27.525  32.489  26.250  1.00  0.00     0.000 C 
HETATM   37  C12 UNL     1     -26.908  32.157  24.923  1.00  0.00     0.002 C 
HETATM   38  C13 UNL     1     -25.413  32.442  25.033  1.00  0.00     0.032 C 
ENDBRANCH  32  33
ENDBRANCH   4  32
TORSDOF 12
ENDMDL
MODEL 3
REMARK VINA RESULT: -6.288228312      1.679      2.034
REMARK  12 active torsions:
REMARK  status: ('A' for Active; 'I' for Inactive)
REMARK    1  A    between atoms: O1_1  and  C1_3 
REMARK    2  A    between atoms: C1_3  and  C2_4 
REMARK    3  A    between atoms: C3_6  and  O3_7 
REMARK    4  A    between atoms: O3_7  and  C4_8 
REMARK    5  A    between atoms: C6_10  and  O4_11 
REMARK    6  A    between atoms: C7_13  and  O5_14 
REMARK    7  A    between atoms: O5_14  and  C8_15 
REMARK    8  A    between atoms: C14_21  and  O6_22 
REMARK    9  A    between atoms: C15_24  and  O7_25 
REMARK   10  A    between atoms: C16_27  and  N1_28 
REMARK   11  A    between atoms: C21_33  and  O8_34 
REMARK   12  A    between atoms: C22_36  and  O9_37 
ROOT
HETATM    1  C4  UNL     1     -20.676  36.304  25.249  1.00  0.00     0.158 C 
HETATM    2  C5  UNL     1     -21.604  36.734  24.150  1.00  0.00     0.069 C 
HETATM    3  C6  UNL     1     -23.063  36.690  24.545  1.00  0.00     0.152 C 
HETATM    4  C7  UNL     1     -23.557  35.275  24.805  1.00  0.00     0.182 C 
HETATM    5  C14 UNL     1     -22.276  34.457  25.039  1.00  0.00     0.180 C 
HETATM    6  C15 UNL     1     -21.407  35.223  26.015  1.00  0.00     0.178 C 
ENDROOT
BRANCH   1   7
HETATM    7  O3  UNL     1     -19.501  35.865  24.689  1.00  0.00    -0.351 OA
BRANCH   7   8
HETATM    8  C3  UNL     1     -18.373  36.609  24.957  1.00  0.00     0.297 C 
HETATM    9  O2  UNL     1     -18.173  36.366  26.341  1.00  0.00    -0.349 OA
HETATM   10  C2  UNL     1     -16.980  36.745  26.851  1.00  0.00     0.179 C 
HETATM   11  C22 UNL     1     -15.784  36.052  26.234  1.00  0.00     0.180 C 
HETATM   12  C21 UNL     1     -16.375  35.259  25.057  1.00  0.00     0.187 C 
HETATM   13  C16 UNL     1     -17.134  36.317  24.251  1.00  0.00     0.308 C 
BRANCH  10  14
HETATM   14  C1  UNL     1     -16.781  38.232  27.034  1.00  0.00     0.198 C 
BRANCH  14  15
HETATM   15  O1  UNL     1     -15.698  38.689  26.257  1.00  0.00    -0.398 OA
ATOM     16  H1  UNL     1     -15.574  39.624  26.371  1.00  0.00     0.209 HD
ENDBRANCH  14  15
ENDBRANCH  10  14
BRANCH  11  17
HETATM   17  O9  UNL     1     -15.207  35.098  27.068  1.00  0.00    -0.390 OA
ATOM     18  H9  UNL     1     -14.392  34.745  26.730  1.00  0.00     0.210 HD
ENDBRANCH  11  17
BRANCH  12  19
HETATM   19  O8  UNL     1     -17.294  34.313  25.533  1.00  0.00    -0.391 OA
ATOM     20  H8  UNL     1     -17.939  34.757  26.070  1.00  0.00     0.210 HD
ENDBRANCH  12  19
BRANCH  13  21
HETATM   21  N1  UNL     1     -17.128  35.930  22.887  1.00  0.00     0.100 N 
HETATM   22  C17 UNL     1     -17.406  36.933  21.922  1.00  0.00     0.273 C 
HETATM   23  C18 UNL     1     -16.413  36.881  20.803  1.00  0.00     0.032 C 
HETATM   24  C19 UNL     1     -15.308  36.051  21.330  1.00  0.00     0.032 C 
HETATM   25  C20 UNL     1     -15.769  35.441  22.610  1.00  0.00     0.273 C 
ENDBRANCH  13  21
ENDBRANCH   7   8
ENDBRANCH   1   7
BRANCH   6  26
HETATM   26  O7  UNL     1     -20.597  34.368  26.696  1.00  0.00    -0.390 OA
ATOM     27  H7  UNL     1     -20.301  33.620  26.190  1.00  0.00     0.210 HD
ENDBRANCH   6  26
BRANCH   3  28
HETATM   28  O4  UNL     1     -23.331  37.541  25.594  1.00  0.00    -0.393 OA
ATOM     29  H4  UNL     1     -24.190  37.939  25.512  1.00  0.00     0.210 HD
ENDBRANCH   3  28
BRANCH   5  30
HETATM   30  O6  UNL     1     -22.555  33.226  25.598  1.00  0.00    -0.390 OA
ATOM     31  H6  UNL     1     -21.897  32.580  25.368  1.00  0.00     0.210 HD
ENDBRANCH   5  30
BRANCH   4  32
HETATM   32  O5  UNL     1     -24.263  35.244  25.958  1.00  0.00    -0.375 OA
BRANCH  32  33
HETATM   33  C8  UNL     1     -25.609  35.040  25.877  1.00  0.00     0.122 C 
HETATM   34  C9  UNL     1     -26.385  35.674  27.013  1.00  0.00     0.032 C 
HETATM   35  C10 UNL     1     -26.774  34.656  28.063  1.00  0.00     0.002 C 
HETATM   36  C11 UNL     1     -27.645  33.582  27.476  1.00  0.00     0.000 C 
HETATM   37  C12 UNL     1     -27.516  33.526  25.982  1.00  0.00     0.002 C 
HETATM   38  C13 UNL     1     -26.029  33.619  25.651  1.00  0.00     0.032 C 
ENDBRANCH  32  33
ENDBRANCH   4  32
TORSDOF 12
ENDMDL
MODEL 4
REMARK VINA RESULT: -6.220830991     11.291     14.400
REMARK  12 active torsions:
REMARK  status: ('A' for Active; 'I' for Inactive)
REMARK    1  A    between atoms: O1_1  and  C1_3 
REMARK    2  A    between atoms: C1_3  and  C2_4 
REMARK    3  A    between atoms: C3_6  and  O3_7 
REMARK    4  A    between atoms: O3_7  and  C4_8 
REMARK    5  A    between atoms: C6_10  and  O4_11 
REMARK    6  A    between atoms: C7_13  and  O5_14 
REMARK    7  A    between atoms: O5_14  and  C8_15 
REMARK    8  A    between atoms: C14_21  and  O6_22 
REMARK    9  A    between atoms: C15_24  and  O7_25 
REMARK   10  A    between atoms: C16_27  and  N1_28 
REMARK   11  A    between atoms: C21_33  and  O8_34 
REMARK   12  A    between atoms: C22_36  and  O9_37 
ROOT
HETATM    1  C4  UNL     1     -27.973  30.341  33.877  1.00  0.00     0.158 C 
HETATM    2  C5  UNL     1     -27.888  29.440  35.075  1.00  0.00     0.069 C 
HETATM    3  C6  UNL     1     -26.494  28.916  35.334  1.00  0.00     0.152 C 
HETATM    4  C7  UNL     1     -26.005  27.984  34.236  1.00  0.00     0.182 C 
HETATM    5  C14 UNL     1     -26.913  28.297  33.034  1.00  0.00     0.180 C 
HETATM    6  C15 UNL     1     -26.975  29.802  32.877  1.00  0.00     0.178 C 
ENDROOT
BRANCH   1   7
HETATM    7  O3  UNL     1     -29.264  30.331  33.408  1.00  0.00    -0.351 OA
BRANCH   7   8
HETATM    8  C3  UNL     1     -29.859  31.557  33.210  1.00  0.00     0.297 C 
HETATM    9  O2  UNL     1     -28.851  32.275  32.516  1.00  0.00    -0.349 OA
HETATM   10  C2  UNL     1     -29.230  33.437  31.939  1.00  0.00     0.179 C 
HETATM   11  C22 UNL     1     -30.299  33.292  30.877  1.00  0.00     0.180 C 
HETATM   12  C21 UNL     1     -30.726  31.818  30.973  1.00  0.00     0.187 C 
HETATM   13  C16 UNL     1     -31.097  31.642  32.449  1.00  0.00     0.308 C 
BRANCH  10  14
HETATM   14  C1  UNL     1     -29.473  34.595  32.879  1.00  0.00     0.198 C 
BRANCH  14  15
HETATM   15  O1  UNL     1     -30.556  35.380  32.433  1.00  0.00    -0.398 OA
ATOM     16  H1  UNL     1     -30.415  36.296  32.644  1.00  0.00     0.209 HD
ENDBRANCH  14  15
ENDBRANCH  10  14
BRANCH  11  17
HETATM   17  O9  UNL     1     -29.818  33.452  29.581  1.00  0.00    -0.390 OA
ATOM     18  H9  UNL     1     -29.390  34.289  29.438  1.00  0.00     0.210 HD
ENDBRANCH  11  17
BRANCH  12  19
HETATM   19  O8  UNL     1     -29.635  30.986  30.682  1.00  0.00    -0.391 OA
ATOM     20  H8  UNL     1     -28.872  31.310  31.145  1.00  0.00     0.210 HD
ENDBRANCH  12  19
BRANCH  13  21
HETATM   21  N1  UNL     1     -32.099  30.643  32.542  1.00  0.00     0.100 N 
HETATM   22  C17 UNL     1     -32.799  30.533  33.772  1.00  0.00     0.273 C 
HETATM   23  C18 UNL     1     -34.273  30.436  33.535  1.00  0.00     0.032 C 
HETATM   24  C19 UNL     1     -34.451  30.873  32.133  1.00  0.00     0.032 C 
HETATM   25  C20 UNL     1     -33.098  30.973  31.515  1.00  0.00     0.273 C 
ENDBRANCH  13  21
ENDBRANCH   7   8
ENDBRANCH   1   7
BRANCH   6  26
HETATM   26  O7  UNL     1     -27.239  30.130  31.583  1.00  0.00    -0.390 OA
ATOM     27  H7  UNL     1     -27.249  31.064  31.409  1.00  0.00     0.210 HD
ENDBRANCH   6  26
BRANCH   3  28
HETATM   28  O4  UNL     1     -25.606  29.937  35.590  1.00  0.00    -0.393 OA
ATOM     29  H4  UNL     1     -24.860  29.907  35.003  1.00  0.00     0.210 HD
ENDBRANCH   3  28
BRANCH   5  30
HETATM   30  O6  UNL     1     -26.405  27.770  31.863  1.00  0.00    -0.390 OA
ATOM     31  H6  UNL     1     -27.056  27.762  31.171  1.00  0.00     0.210 HD
ENDBRANCH   5  30
BRANCH   4  32
HETATM   32  O5  UNL     1     -24.745  28.323  33.878  1.00  0.00    -0.375 OA
BRANCH  32  33
HETATM   33  C8  UNL     1     -23.897  27.322  33.506  1.00  0.00     0.122 C 
HETATM   34  C9  UNL     1     -23.265  26.599  34.678  1.00  0.00     0.032 C 
HETATM   35  C10 UNL     1     -21.847  27.065  34.924  1.00  0.00     0.002 C 
HETATM   36  C11 UNL     1     -20.978  26.809  33.726  1.00  0.00     0.000 C 
HETATM   37  C12 UNL     1     -21.800  26.615  32.484  1.00  0.00     0.002 C 
HETATM   38  C13 UNL     1     -22.874  27.700  32.477  1.00  0.00     0.032 C 
ENDBRANCH  32  33
ENDBRANCH   4  32
TORSDOF 12
ENDMDL
MODEL 5
REMARK VINA RESULT: -6.140726495      1.201      1.611
REMARK  12 active torsions:
REMARK  status: ('A' for Active; 'I' for Inactive)
REMARK    1  A    between atoms: O1_1  and  C1_3 
REMARK    2  A    between atoms: C1_3  and  C2_4 
REMARK    3  A    between atoms: C3_6  and  O3_7 
REMARK    4  A    between atoms: O3_7  and  C4_8 
REMARK    5  A    between atoms: C6_10  and  O4_11 
REMARK    6  A    between atoms: C7_13  and  O5_14 
REMARK    7  A    between atoms: O5_14  and  C8_15 
REMARK    8  A    between atoms: C14_21  and  O6_22 
REMARK    9  A    between atoms: C15_24  and  O7_25 
REMARK   10  A    between atoms: C16_27  and  N1_28 
REMARK   11  A    between atoms: C21_33  and  O8_34 
REMARK   12  A    between atoms: C22_36  and  O9_37 
ROOT
HETATM    1  C4  UNL     1     -20.815  36.162  25.659  1.00  0.00     0.158 C 
HETATM    2  C5  UNL     1     -21.098  37.360  24.800  1.00  0.00     0.069 C 
HETATM    3  C6  UNL     1     -22.574  37.609  24.584  1.00  0.00     0.152 C 
HETATM    4  C7  UNL     1     -23.241  36.508  23.775  1.00  0.00     0.182 C 
HETATM    5  C14 UNL     1     -22.279  35.313  23.884  1.00  0.00     0.180 C 
HETATM    6  C15 UNL     1     -21.898  35.155  25.341  1.00  0.00     0.178 C 
ENDROOT
BRANCH   1   7
HETATM    7  O3  UNL     1     -19.552  35.703  25.373  1.00  0.00    -0.351 OA
BRANCH   7   8
HETATM    8  C3  UNL     1     -18.524  36.206  26.139  1.00  0.00     0.297 C 
HETATM    9  O2  UNL     1     -18.350  35.192  27.117  1.00  0.00    -0.349 OA
HETATM   10  C2  UNL     1     -17.225  35.265  27.864  1.00  0.00     0.179 C 
HETATM   11  C22 UNL     1     -15.938  35.165  27.074  1.00  0.00     0.180 C 
HETATM   12  C21 UNL     1     -16.394  35.205  25.606  1.00  0.00     0.187 C 
HETATM   13  C16 UNL     1     -17.235  36.482  25.522  1.00  0.00     0.308 C 
BRANCH  10  14
HETATM   14  C1  UNL     1     -17.200  36.350  28.916  1.00  0.00     0.198 C 
BRANCH  14  15
HETATM   15  O1  UNL     1     -16.408  35.959  30.015  1.00  0.00    -0.398 OA
ATOM     16  H1  UNL     1     -16.514  36.566  30.738  1.00  0.00     0.209 HD
ENDBRANCH  14  15
ENDBRANCH  10  14
BRANCH  11  17
HETATM   17  O9  UNL     1     -15.291  33.942  27.225  1.00  0.00    -0.390 OA
ATOM     18  H9  UNL     1     -14.348  34.023  27.317  1.00  0.00     0.210 HD
ENDBRANCH  11  17
BRANCH  12  19
HETATM   19  O8  UNL     1     -17.220  34.105  25.333  1.00  0.00    -0.391 OA
ATOM     20  H8  UNL     1     -17.761  34.310  24.579  1.00  0.00     0.210 HD
ENDBRANCH  12  19
BRANCH  13  21
HETATM   21  N1  UNL     1     -17.135  36.997  24.204  1.00  0.00     0.100 N 
HETATM   22  C17 UNL     1     -17.553  38.338  23.993  1.00  0.00     0.273 C 
HETATM   23  C18 UNL     1     -16.541  39.087  23.185  1.00  0.00     0.032 C 
HETATM   24  C19 UNL     1     -15.326  38.244  23.243  1.00  0.00     0.032 C 
HETATM   25  C20 UNL     1     -15.709  36.938  23.852  1.00  0.00     0.273 C 
ENDBRANCH  13  21
ENDBRANCH   7   8
ENDBRANCH   1   7
BRANCH   6  26
HETATM   26  O7  UNL     1     -21.560  33.863  25.602  1.00  0.00    -0.390 OA
ATOM     27  H7  UNL     1     -22.232  33.228  25.383  1.00  0.00     0.210 HD
ENDBRANCH   6  26
BRANCH   3  28
HETATM   28  O4  UNL     1     -23.227  37.856  25.772  1.00  0.00    -0.393 OA
ATOM     29  H4  UNL     1     -24.073  37.426  25.803  1.00  0.00     0.210 HD
ENDBRANCH   3  28
BRANCH   5  30
HETATM   30  O6  UNL     1     -22.878  34.138  23.474  1.00  0.00    -0.390 OA
ATOM     31  H6  UNL     1     -23.419  34.272  22.704  1.00  0.00     0.210 HD
ENDBRANCH   5  30
BRANCH   4  32
HETATM   32  O5  UNL     1     -24.398  36.140  24.372  1.00  0.00    -0.375 OA
BRANCH  32  33
HETATM   33  C8  UNL     1     -25.560  36.338  23.688  1.00  0.00     0.122 C 
HETATM   34  C9  UNL     1     -26.214  35.054  23.221  1.00  0.00     0.032 C 
HETATM   35  C10 UNL     1     -25.950  34.793  21.754  1.00  0.00     0.002 C 
HETATM   36  C11 UNL     1     -26.497  35.902  20.902  1.00  0.00     0.000 C 
HETATM   37  C12 UNL     1     -26.720  37.151  21.704  1.00  0.00     0.002 C 
HETATM   38  C13 UNL     1     -25.489  37.351  22.584  1.00  0.00     0.032 C 
ENDBRANCH  32  33
ENDBRANCH   4  32
TORSDOF 12
ENDMDL
