MODEL 1
REMARK VINA RESULT: -8.086700069      0.000      0.000
REMARK  8 active torsions:
REMARK  status: ('A' for Active; 'I' for Inactive)
REMARK    1  A    between atoms: C6_10  and  N3_11 
REMARK    2  A    between atoms: C10_22  and  N7_23 
REMARK    3  A    between atoms: C11_26  and  N8_27 
REMARK    4  A    between atoms: C12_29  and  C13_30 
REMARK    5  A    between atoms: C13_30  and  O1_31 
REMARK    6  A    between atoms: N9_33  and  C14_34 
REMARK    7  A    between atoms: C14_34  and  C15_35 
REMARK    8  A    between atoms: C15_35  and  O2_36 
ROOT
HETATM    1  C1  UNL     1       7.592  -5.761 -22.450  1.00  0.00     0.159 C 
HETATM    2  N1  UNL     1       7.585  -5.470 -23.845  1.00  0.00    -0.321 N 
HETATM    3  C2  UNL     1       6.996  -4.359 -24.279  1.00  0.00     0.132 A 
HETATM    4  N2  UNL     1       6.522  -3.589 -23.400  1.00  0.00    -0.383 N 
ATOM      5  H21 UNL     1       6.070  -2.737 -23.732  1.00  0.00     0.157 HD
ATOM      6  H22 UNL     1       6.568  -3.838 -22.412  1.00  0.00     0.157 HD
HETATM    7  C3  UNL     1       6.935  -4.023 -25.607  1.00  0.00     0.108 A 
HETATM    8  C4  UNL     1       7.550  -4.939 -26.538  1.00  0.00     0.084 A 
HETATM    9  C5  UNL     1       8.169  -6.049 -26.076  1.00  0.00     0.081 A 
HETATM   10  C6  UNL     1       8.938  -6.827 -26.874  1.00  0.00     0.116 A 
HETATM   11  N4  UNL     1       9.639  -7.862 -26.377  1.00  0.00    -0.338 N 
ATOM     12  H4  UNL     1      10.199  -8.441 -27.004  1.00  0.00     0.168 HD
HETATM   13  C7  UNL     1       9.609  -8.145 -25.045  1.00  0.00     0.183 A 
HETATM   14  N5  UNL     1       8.878  -7.361 -24.243  1.00  0.00    -0.338 N 
ATOM     15  H5  UNL     1       8.861  -7.566 -23.245  1.00  0.00     0.168 HD
HETATM   16  C8  UNL     1       8.179  -6.335 -24.687  1.00  0.00     0.126 A 
HETATM   17  N6  UNL     1       7.414  -4.717 -27.829  1.00  0.00    -0.332 N 
HETATM   18  C9  UNL     1       7.436  -5.775 -28.827  1.00  0.00     0.158 C 
HETATM   19  C10 UNL     1       6.732  -3.576 -28.231  1.00  0.00     0.146 A 
HETATM   20  C11 UNL     1       6.178  -2.689 -27.346  1.00  0.00     0.152 A 
HETATM   21  N9  UNL     1       6.292  -2.950 -25.985  1.00  0.00    -0.323 N 
ENDROOT
BRANCH  20  22
HETATM   22  N8  UNL     1       5.597  -1.674 -27.734  1.00  0.00    -0.351 N 
HETATM   23  C12 UNL     1       4.590  -0.825 -27.955  1.00  0.00     0.088 C 
ATOM     24  H8  UNL     1       6.375  -1.156 -28.143  1.00  0.00     0.166 HD
BRANCH  23  25
HETATM   25  C13 UNL     1       3.758  -1.059 -29.229  1.00  0.00     0.208 C 
BRANCH  25  26
HETATM   26  O1  UNL     1       4.579  -1.317 -30.311  1.00  0.00    -0.396 OA
ATOM     27  H1  UNL     1       4.290  -2.094 -30.776  1.00  0.00     0.209 HD
ENDBRANCH  25  26
ENDBRANCH  23  25
ENDBRANCH  20  22
BRANCH  19  28
HETATM   28  N7  UNL     1       6.676  -3.432 -29.489  1.00  0.00    -0.382 N 
ATOM     29  H72 UNL     1       6.525  -4.206 -30.136  1.00  0.00     0.157 HD
ATOM     30  H71 UNL     1       6.793  -2.466 -29.797  1.00  0.00     0.157 HD
ENDBRANCH  19  28
BRANCH  21  31
HETATM   31  C14 UNL     1       5.588  -2.035 -25.131  1.00  0.00     0.157 C 
BRANCH  31  32
HETATM   32  C15 UNL     1       4.151  -2.307 -24.894  1.00  0.00     0.184 C 
BRANCH  32  33
HETATM   33  O2  UNL     1       3.612  -3.520 -24.737  1.00  0.00    -0.399 OA
ATOM     34  H2  UNL     1       2.685  -3.698 -24.631  1.00  0.00     0.209 HD
ENDBRANCH  32  33
ENDBRANCH  31  32
ENDBRANCH  21  31
BRANCH  10  35
HETATM   35  N3  UNL     1       9.441  -6.417 -27.987  1.00  0.00    -0.385 N 
ATOM     36  H32 UNL     1      10.079  -5.635 -27.837  1.00  0.00     0.157 HD
ATOM     37  H31 UNL     1       8.997  -6.573 -28.893  1.00  0.00     0.157 HD
ENDBRANCH  10  35
TORSDOF 8
ENDMDL
MODEL 2
REMARK VINA RESULT: -7.833200380      0.979      1.059
REMARK  8 active torsions:
REMARK  status: ('A' for Active; 'I' for Inactive)
REMARK    1  A    between atoms: C6_10  and  N3_11 
REMARK    2  A    between atoms: C10_22  and  N7_23 
REMARK    3  A    between atoms: C11_26  and  N8_27 
REMARK    4  A    between atoms: C12_29  and  C13_30 
REMARK    5  A    between atoms: C13_30  and  O1_31 
REMARK    6  A    between atoms: N9_33  and  C14_34 
REMARK    7  A    between atoms: C14_34  and  C15_35 
REMARK    8  A    between atoms: C15_35  and  O2_36 
ROOT
HETATM    1  C1  UNL     1       7.526  -5.447 -22.660  1.00  0.00     0.159 C 
HETATM    2  N1  UNL     1       7.534  -5.213 -24.066  1.00  0.00    -0.321 N 
HETATM    3  C2  UNL     1       6.975  -4.107 -24.548  1.00  0.00     0.132 A 
HETATM    4  N2  UNL     1       6.516  -3.289 -23.704  1.00  0.00    -0.383 N 
ATOM      5  H21 UNL     1       6.088  -2.440 -24.074  1.00  0.00     0.157 HD
ATOM      6  H22 UNL     1       6.550  -3.499 -22.707  1.00  0.00     0.157 HD
HETATM    7  C3  UNL     1       6.930  -3.823 -25.889  1.00  0.00     0.108 A 
HETATM    8  C4  UNL     1       7.527  -4.792 -26.778  1.00  0.00     0.084 A 
HETATM    9  C5  UNL     1       8.115  -5.897 -26.267  1.00  0.00     0.081 A 
HETATM   10  C6  UNL     1       8.868  -6.726 -27.028  1.00  0.00     0.116 A 
HETATM   11  N4  UNL     1       9.541  -7.758 -26.484  1.00  0.00    -0.338 N 
ATOM     12  H4  UNL     1      10.089  -8.375 -27.083  1.00  0.00     0.168 HD
HETATM   13  C7  UNL     1       9.496  -7.985 -25.142  1.00  0.00     0.183 A 
HETATM   14  N5  UNL     1       8.781  -7.150 -24.378  1.00  0.00    -0.338 N 
ATOM     15  H5  UNL     1       8.753  -7.314 -23.372  1.00  0.00     0.168 HD
HETATM   16  C8  UNL     1       8.110  -6.126 -24.868  1.00  0.00     0.126 A 
HETATM   17  N6  UNL     1       7.403  -4.620 -28.078  1.00  0.00    -0.332 N 
HETATM   18  C9  UNL     1       7.404  -5.719 -29.032  1.00  0.00     0.158 C 
HETATM   19  C10 UNL     1       6.753  -3.479 -28.530  1.00  0.00     0.146 A 
HETATM   20  C11 UNL     1       6.216  -2.544 -27.686  1.00  0.00     0.152 A 
HETATM   21  N9  UNL     1       6.316  -2.752 -26.315  1.00  0.00    -0.323 N 
ENDROOT
BRANCH  20  22
HETATM   22  N8  UNL     1       5.663  -1.531 -28.119  1.00  0.00    -0.351 N 
HETATM   23  C12 UNL     1       5.437  -0.479 -28.910  1.00  0.00     0.088 C 
ATOM     24  H8  UNL     1       4.894  -1.437 -27.455  1.00  0.00     0.166 HD
BRANCH  23  25
HETATM   25  C13 UNL     1       6.205   0.813 -28.575  1.00  0.00     0.208 C 
BRANCH  25  26
HETATM   26  O1  UNL     1       5.967   1.786 -29.529  1.00  0.00    -0.396 OA
ATOM     27  H1  UNL     1       6.749   1.954 -30.041  1.00  0.00     0.209 HD
ENDBRANCH  25  26
ENDBRANCH  23  25
ENDBRANCH  20  22
BRANCH  19  28
HETATM   28  N7  UNL     1       6.707  -3.386 -29.794  1.00  0.00    -0.382 N 
ATOM     29  H72 UNL     1       7.531  -3.454 -30.392  1.00  0.00     0.157 HD
ATOM     30  H71 UNL     1       5.766  -3.239 -30.160  1.00  0.00     0.157 HD
ENDBRANCH  19  28
BRANCH  21  31
HETATM   31  C14 UNL     1       5.631  -1.785 -25.504  1.00  0.00     0.157 C 
BRANCH  31  32
HETATM   32  C15 UNL     1       4.154  -1.891 -25.434  1.00  0.00     0.184 C 
BRANCH  32  33
HETATM   33  O2  UNL     1       3.406  -2.715 -26.173  1.00  0.00    -0.399 OA
ATOM     34  H2  UNL     1       2.565  -3.072 -25.913  1.00  0.00     0.209 HD
ENDBRANCH  32  33
ENDBRANCH  31  32
ENDBRANCH  21  31
BRANCH  10  35
HETATM   35  N3  UNL     1       9.387  -6.375 -28.154  1.00  0.00    -0.385 N 
ATOM     36  H32 UNL     1       8.676  -6.308 -28.882  1.00  0.00     0.157 HD
ATOM     37  H31 UNL     1      10.371  -6.516 -28.384  1.00  0.00     0.157 HD
ENDBRANCH  10  35
TORSDOF 8
ENDMDL
MODEL 3
REMARK VINA RESULT: -7.668309795      1.099      1.200
REMARK  8 active torsions:
REMARK  status: ('A' for Active; 'I' for Inactive)
REMARK    1  A    between atoms: C6_10  and  N3_11 
REMARK    2  A    between atoms: C10_22  and  N7_23 
REMARK    3  A    between atoms: C11_26  and  N8_27 
REMARK    4  A    between atoms: C12_29  and  C13_30 
REMARK    5  A    between atoms: C13_30  and  O1_31 
REMARK    6  A    between atoms: N9_33  and  C14_34 
REMARK    7  A    between atoms: C14_34  and  C15_35 
REMARK    8  A    between atoms: C15_35  and  O2_36 
ROOT
HETATM    1  C1  UNL     1       7.751  -5.493 -22.456  1.00  0.00     0.159 C 
HETATM    2  N1  UNL     1       7.728  -5.273 -23.864  1.00  0.00    -0.321 N 
HETATM    3  C2  UNL     1       7.200  -4.150 -24.342  1.00  0.00     0.132 A 
HETATM    4  N2  UNL     1       6.799  -3.307 -23.494  1.00  0.00    -0.383 N 
ATOM      5  H21 UNL     1       6.394  -2.445 -23.861  1.00  0.00     0.157 HD
ATOM      6  H22 UNL     1       6.853  -3.509 -22.496  1.00  0.00     0.157 HD
HETATM    7  C3  UNL     1       7.128  -3.878 -25.684  1.00  0.00     0.108 A 
HETATM    8  C4  UNL     1       7.659  -4.878 -26.580  1.00  0.00     0.084 A 
HETATM    9  C5  UNL     1       8.217  -6.001 -26.074  1.00  0.00     0.081 A 
HETATM   10  C6  UNL     1       8.914  -6.866 -26.847  1.00  0.00     0.116 A 
HETATM   11  N4  UNL     1       9.560  -7.919 -26.312  1.00  0.00    -0.338 N 
ATOM     12  H4  UNL     1      10.066  -8.564 -26.920  1.00  0.00     0.168 HD
HETATM   13  C7  UNL     1       9.546  -8.132 -24.967  1.00  0.00     0.183 A 
HETATM   14  N5  UNL     1       8.887  -7.262 -24.192  1.00  0.00    -0.338 N 
ATOM     15  H5  UNL     1       8.882  -7.415 -23.184  1.00  0.00     0.168 HD
HETATM   16  C8  UNL     1       8.244  -6.216 -24.673  1.00  0.00     0.126 A 
HETATM   17  N6  UNL     1       7.505  -4.713 -27.878  1.00  0.00    -0.332 N 
HETATM   18  C9  UNL     1       7.434  -5.820 -28.819  1.00  0.00     0.158 C 
HETATM   19  C10 UNL     1       6.887  -3.551 -28.323  1.00  0.00     0.146 A 
HETATM   20  C11 UNL     1       6.414  -2.587 -27.473  1.00  0.00     0.152 A 
HETATM   21  N9  UNL     1       6.545  -2.786 -26.104  1.00  0.00    -0.323 N 
ENDROOT
BRANCH  20  22
HETATM   22  N8  UNL     1       5.889  -1.557 -27.900  1.00  0.00    -0.351 N 
HETATM   23  C12 UNL     1       4.939  -0.645 -28.123  1.00  0.00     0.088 C 
ATOM     24  H8  UNL     1       6.676  -1.136 -28.396  1.00  0.00     0.166 HD
BRANCH  23  25
HETATM   25  C13 UNL     1       4.006  -0.899 -29.321  1.00  0.00     0.208 C 
BRANCH  25  26
HETATM   26  O1  UNL     1       4.717  -1.388 -30.402  1.00  0.00    -0.396 OA
ATOM     27  H1  UNL     1       4.600  -2.327 -30.485  1.00  0.00     0.209 HD
ENDBRANCH  25  26
ENDBRANCH  23  25
ENDBRANCH  20  22
BRANCH  19  28
HETATM   28  N7  UNL     1       6.808  -3.468 -29.586  1.00  0.00    -0.382 N 
ATOM     29  H72 UNL     1       6.291  -4.134 -30.160  1.00  0.00     0.157 HD
ATOM     30  H71 UNL     1       7.309  -2.669 -29.976  1.00  0.00     0.157 HD
ENDBRANCH  19  28
BRANCH  21  31
HETATM   31  C14 UNL     1       5.923  -1.785 -25.283  1.00  0.00     0.157 C 
BRANCH  31  32
HETATM   32  C15 UNL     1       6.726  -0.580 -24.968  1.00  0.00     0.184 C 
BRANCH  32  33
HETATM   33  O2  UNL     1       6.532   0.633 -25.493  1.00  0.00    -0.399 OA
ATOM     34  H2  UNL     1       6.560   1.450 -25.009  1.00  0.00     0.209 HD
ENDBRANCH  32  33
ENDBRANCH  31  32
ENDBRANCH  21  31
BRANCH  10  35
HETATM   35  N3  UNL     1       9.414  -6.547 -27.991  1.00  0.00    -0.385 N 
ATOM     36  H32 UNL     1      10.316  -6.999 -28.137  1.00  0.00     0.157 HD
ATOM     37  H31 UNL     1       9.158  -5.699 -28.497  1.00  0.00     0.157 HD
ENDBRANCH  10  35
TORSDOF 8
ENDMDL
MODEL 4
REMARK VINA RESULT: -7.421555274      2.044      4.919
REMARK  8 active torsions:
REMARK  status: ('A' for Active; 'I' for Inactive)
REMARK    1  A    between atoms: C6_10  and  N3_11 
REMARK    2  A    between atoms: C10_22  and  N7_23 
REMARK    3  A    between atoms: C11_26  and  N8_27 
REMARK    4  A    between atoms: C12_29  and  C13_30 
REMARK    5  A    between atoms: C13_30  and  O1_31 
REMARK    6  A    between atoms: N9_33  and  C14_34 
REMARK    7  A    between atoms: C14_34  and  C15_35 
REMARK    8  A    between atoms: C15_35  and  O2_36 
ROOT
HETATM    1  C1  UNL     1       6.758  -4.078 -28.577  1.00  0.00     0.159 C 
HETATM    2  N1  UNL     1       7.083  -4.376 -27.221  1.00  0.00    -0.321 N 
HETATM    3  C2  UNL     1       6.501  -3.689 -26.243  1.00  0.00     0.132 A 
HETATM    4  N2  UNL     1       5.636  -2.837 -26.585  1.00  0.00    -0.383 N 
ATOM      5  H21 UNL     1       5.190  -2.309 -25.834  1.00  0.00     0.157 HD
ATOM      6  H22 UNL     1       5.431  -2.673 -27.570  1.00  0.00     0.157 HD
HETATM    7  C3  UNL     1       6.777  -3.909 -24.917  1.00  0.00     0.108 A 
HETATM    8  C4  UNL     1       7.742  -4.940 -24.617  1.00  0.00     0.084 A 
HETATM    9  C5  UNL     1       8.301  -5.648 -25.624  1.00  0.00     0.081 A 
HETATM   10  C6  UNL     1       9.044  -6.756 -25.395  1.00  0.00     0.116 A 
HETATM   11  N4  UNL     1       9.499  -7.515 -26.410  1.00  0.00    -0.338 N 
ATOM     12  H4  UNL     1      10.070  -8.337 -26.209  1.00  0.00     0.168 HD
HETATM   13  C7  UNL     1       9.206  -7.197 -27.701  1.00  0.00     0.183 A 
HETATM   14  N5  UNL     1       8.444  -6.121 -27.934  1.00  0.00    -0.338 N 
ATOM     15  H5  UNL     1       8.216  -5.886 -28.900  1.00  0.00     0.168 HD
HETATM   16  C8  UNL     1       7.974  -5.352 -26.972  1.00  0.00     0.126 A 
HETATM   17  N6  UNL     1       8.124  -5.105 -23.367  1.00  0.00    -0.332 N 
HETATM   18  C9  UNL     1       9.429  -5.630 -22.995  1.00  0.00     0.158 C 
HETATM   19  C10 UNL     1       7.534  -4.315 -22.390  1.00  0.00     0.146 A 
HETATM   20  C11 UNL     1       6.593  -3.360 -22.672  1.00  0.00     0.152 A 
HETATM   21  N9  UNL     1       6.223  -3.164 -23.998  1.00  0.00    -0.323 N 
ENDROOT
BRANCH  20  22
HETATM   22  N8  UNL     1       6.072  -2.689 -21.779  1.00  0.00    -0.351 N 
HETATM   23  C12 UNL     1       5.757  -2.294 -20.543  1.00  0.00     0.088 C 
ATOM     24  H8  UNL     1       5.556  -2.005 -22.333  1.00  0.00     0.166 HD
BRANCH  23  25
HETATM   25  C13 UNL     1       4.569  -3.008 -19.872  1.00  0.00     0.208 C 
BRANCH  25  26
HETATM   26  O1  UNL     1       3.842  -2.125 -19.095  1.00  0.00    -0.396 OA
ATOM     27  H1  UNL     1       3.896  -1.244 -19.446  1.00  0.00     0.209 HD
ENDBRANCH  25  26
ENDBRANCH  23  25
ENDBRANCH  20  22
BRANCH  19  28
HETATM   28  N7  UNL     1       7.944  -4.564 -21.216  1.00  0.00    -0.382 N 
ATOM     29  H72 UNL     1       7.543  -5.292 -20.625  1.00  0.00     0.157 HD
ATOM     30  H71 UNL     1       8.717  -3.969 -20.918  1.00  0.00     0.157 HD
ENDBRANCH  19  28
BRANCH  21  31
HETATM   31  C14 UNL     1       5.319  -2.071 -24.219  1.00  0.00     0.157 C 
BRANCH  31  32
HETATM   32  C15 UNL     1       3.870  -2.369 -24.134  1.00  0.00     0.184 C 
BRANCH  32  33
HETATM   33  O2  UNL     1       3.299  -3.522 -24.496  1.00  0.00    -0.399 OA
ATOM     34  H2  UNL     1       3.577  -4.384 -24.210  1.00  0.00     0.209 HD
ENDBRANCH  32  33
ENDBRANCH  31  32
ENDBRANCH  21  31
BRANCH  10  35
HETATM   35  N3  UNL     1       8.988  -7.431 -24.299  1.00  0.00    -0.385 N 
ATOM     36  H32 UNL     1       9.616  -7.042 -23.596  1.00  0.00     0.157 HD
ATOM     37  H31 UNL     1       8.677  -8.401 -24.255  1.00  0.00     0.157 HD
ENDBRANCH  10  35
TORSDOF 8
ENDMDL
MODEL 5
REMARK VINA RESULT: -7.159743657      2.981      5.216
REMARK  8 active torsions:
REMARK  status: ('A' for Active; 'I' for Inactive)
REMARK    1  A    between atoms: C6_10  and  N3_11 
REMARK    2  A    between atoms: C10_22  and  N7_23 
REMARK    3  A    between atoms: C11_26  and  N8_27 
REMARK    4  A    between atoms: C12_29  and  C13_30 
REMARK    5  A    between atoms: C13_30  and  O1_31 
REMARK    6  A    between atoms: N9_33  and  C14_34 
REMARK    7  A    between atoms: C14_34  and  C15_35 
REMARK    8  A    between atoms: C15_35  and  O2_36 
ROOT
HETATM    1  C1  UNL     1       8.934  -3.831 -20.921  1.00  0.00     0.159 C 
HETATM    2  N1  UNL     1       7.921  -3.690 -21.915  1.00  0.00    -0.321 N 
HETATM    3  C2  UNL     1       8.224  -3.905 -23.192  1.00  0.00     0.132 A 
HETATM    4  N2  UNL     1       9.401  -4.285 -23.440  1.00  0.00    -0.383 N 
ATOM      5  H21 UNL     1       9.633  -4.449 -24.420  1.00  0.00     0.157 HD
ATOM      6  H22 UNL     1      10.082  -4.385 -22.688  1.00  0.00     0.157 HD
HETATM    7  C3  UNL     1       7.307  -3.771 -24.203  1.00  0.00     0.108 A 
HETATM    8  C4  UNL     1       5.970  -3.383 -23.821  1.00  0.00     0.084 A 
HETATM    9  C5  UNL     1       5.674  -3.197 -22.515  1.00  0.00     0.081 A 
HETATM   10  C6  UNL     1       4.401  -3.040 -22.082  1.00  0.00     0.116 A 
HETATM   11  N4  UNL     1       4.110  -2.971 -20.770  1.00  0.00    -0.338 N 
ATOM     12  H4  UNL     1       3.143  -2.838 -20.472  1.00  0.00     0.168 HD
HETATM   13  C7  UNL     1       5.095  -3.076 -19.835  1.00  0.00     0.183 A 
HETATM   14  N5  UNL     1       6.353  -3.264 -20.252  1.00  0.00    -0.338 N 
ATOM     15  H5  UNL     1       7.090  -3.352 -19.553  1.00  0.00     0.168 HD
HETATM   16  C8  UNL     1       6.682  -3.342 -21.527  1.00  0.00     0.126 A 
HETATM   17  N6  UNL     1       5.089  -3.128 -24.766  1.00  0.00    -0.332 N 
HETATM   18  C9  UNL     1       3.976  -2.208 -24.592  1.00  0.00     0.158 C 
HETATM   19  C10 UNL     1       5.476  -3.304 -26.089  1.00  0.00     0.146 A 
HETATM   20  C11 UNL     1       6.735  -3.706 -26.449  1.00  0.00     0.152 A 
HETATM   21  N9  UNL     1       7.671  -3.934 -25.447  1.00  0.00    -0.323 N 
ENDROOT
BRANCH  20  22
HETATM   22  N8  UNL     1       7.041  -3.873 -27.631  1.00  0.00    -0.351 N 
HETATM   23  C12 UNL     1       6.956  -4.321 -28.886  1.00  0.00     0.088 C 
ATOM     24  H8  UNL     1       7.899  -3.324 -27.684  1.00  0.00     0.166 HD
BRANCH  23  25
HETATM   25  C13 UNL     1       7.543  -5.717 -29.162  1.00  0.00     0.208 C 
BRANCH  25  26
HETATM   26  O1  UNL     1       8.920  -5.704 -29.032  1.00  0.00    -0.396 OA
ATOM     27  H1  UNL     1       9.255  -6.585 -28.904  1.00  0.00     0.209 HD
ENDBRANCH  25  26
ENDBRANCH  23  25
ENDBRANCH  20  22
BRANCH  19  28
HETATM   28  N7  UNL     1       4.554  -3.062 -26.926  1.00  0.00    -0.382 N 
ATOM     29  H72 UNL     1       3.971  -3.788 -27.342  1.00  0.00     0.157 HD
ATOM     30  H71 UNL     1       4.448  -2.071 -27.143  1.00  0.00     0.157 HD
ENDBRANCH  19  28
BRANCH  21  31
HETATM   31  C14 UNL     1       8.994  -4.241 -25.913  1.00  0.00     0.157 C 
BRANCH  31  32
HETATM   32  C15 UNL     1       9.731  -3.158 -26.607  1.00  0.00     0.184 C 
BRANCH  32  33
HETATM   33  O2  UNL     1      10.169  -3.210 -27.868  1.00  0.00    -0.399 OA
ATOM     34  H2  UNL     1       9.674  -3.546 -28.606  1.00  0.00     0.209 HD
ENDBRANCH  32  33
ENDBRANCH  31  32
ENDBRANCH  21  31
BRANCH  10  35
HETATM   35  N3  UNL     1       3.372  -3.407 -22.767  1.00  0.00    -0.385 N 
ATOM     36  H32 UNL     1       3.429  -3.066 -23.726  1.00  0.00     0.157 HD
ATOM     37  H31 UNL     1       2.478  -3.655 -22.343  1.00  0.00     0.157 HD
ENDBRANCH  10  35
TORSDOF 8
ENDMDL
