MODEL 1
REMARK VINA RESULT: -7.665158129      0.000      0.000
REMARK  10 active torsions:
REMARK  status: ('A' for Active; 'I' for Inactive)
REMARK    1  A    between atoms: O1_2  and  C2_3 
REMARK    2  A    between atoms: C7_9  and  O2_10 
REMARK    3  A    between atoms: C10_15  and  C11_16 
REMARK    4  A    between atoms: C11_16  and  N2_17 
REMARK    5  A    between atoms: C11_16  and  N3_21 
REMARK    6  A    between atoms: N3_21  and  O4_22 
REMARK    7  A    between atoms: N3_21  and  O5_24 
REMARK    8  A    between atoms: O5_24  and  N4_25 
REMARK    9  A    between atoms: C12_28  and  C13_29 
REMARK   10  A    between atoms: N5_30  and  O6_32 
ROOT
HETATM    1  C2  UNL     1       9.131  -6.943 -25.160  1.00  0.00     0.126 A 
HETATM    2  C3  UNL     1       8.811  -6.126 -24.100  1.00  0.00     0.084 A 
HETATM    3  N1  UNL     1       9.133  -6.564 -22.782  1.00  0.00    -0.099 NA
HETATM    4  C4  UNL     1       8.190  -4.913 -24.335  1.00  0.00     0.060 A 
HETATM    5  C5  UNL     1       7.886  -4.505 -25.600  1.00  0.00     0.053 A 
HETATM    6  C6  UNL     1       8.217  -5.339 -26.647  1.00  0.00     0.077 A 
HETATM    7  C7  UNL     1       8.836  -6.554 -26.444  1.00  0.00     0.117 A 
HETATM    8  C8  UNL     1       8.002  -5.110 -27.991  1.00  0.00     0.188 C 
HETATM    9  O3  UNL     1       8.634  -5.784 -28.810  1.00  0.00    -0.287 OA
HETATM   10  C9  UNL     1       7.111  -4.164 -28.521  1.00  0.00     0.068 C 
HETATM   11  C10 UNL     1       6.606  -3.021 -27.958  1.00  0.00     0.023 C 
HETATM   12  C12 UNL     1       6.484  -2.822 -26.574  1.00  0.00     0.062 C 
HETATM   13  N6  UNL     1       7.282  -3.275 -25.588  1.00  0.00    -0.349 N 
HETATM   14  C14 UNL     1       7.561  -2.444 -24.466  1.00  0.00     0.156 C 
ENDROOT
BRANCH  11  15
HETATM   15  C11 UNL     1       6.170  -1.974 -28.847  1.00  0.00     0.350 C 
BRANCH  15  16
HETATM   16  N2  UNL     1       7.156  -1.563 -29.829  1.00  0.00    -0.054 N 
ATOM     17  H23 UNL     1       7.983  -2.158 -29.771  1.00  0.00     0.276 HD
ATOM     18  H22 UNL     1       6.838  -1.796 -30.769  1.00  0.00     0.276 HD
ATOM     19  H21 UNL     1       7.423  -0.580 -29.780  1.00  0.00     0.276 HD
ENDBRANCH  15  16
BRANCH  15  20
HETATM   20  N3  UNL     1       4.968  -2.232 -29.614  1.00  0.00    -0.010 NA
BRANCH  20  21
HETATM   21  O4  UNL     1       4.013  -2.885 -28.942  1.00  0.00    -0.285 OA
ATOM     22  H4  UNL     1       3.805  -3.743 -29.290  1.00  0.00     0.239 HD
ENDBRANCH  20  21
BRANCH  20  23
HETATM   23  O5  UNL     1       4.468  -1.149 -30.233  1.00  0.00    -0.162 OA
BRANCH  23  24
HETATM   24  N4  UNL     1       3.933  -0.253 -29.389  1.00  0.00    -0.289 N 
ATOM     25  H42 UNL     1       4.468   0.173 -28.633  1.00  0.00     0.186 HD
ATOM     26  H41 UNL     1       2.953  -0.049 -29.584  1.00  0.00     0.186 HD
ENDBRANCH  23  24
ENDBRANCH  20  23
ENDBRANCH  15  20
ENDBRANCH  11  15
BRANCH  12  27
HETATM   27  C13 UNL     1       5.383  -2.021 -26.188  1.00  0.00     0.144 C 
HETATM   28  N5  UNL     1       4.215  -2.479 -25.973  1.00  0.00    -0.278 N 
ATOM     29  H5  UNL     1       4.085  -3.484 -26.091  1.00  0.00     0.193 HD
BRANCH  28  30
HETATM   30  O6  UNL     1       3.125  -1.760 -25.601  1.00  0.00    -0.290 OA
ATOM     31  H6  UNL     1       2.240  -2.090 -25.504  1.00  0.00     0.244 HD
ENDBRANCH  28  30
ENDBRANCH  12  27
BRANCH   7  32
HETATM   32  O2  UNL     1       9.138  -7.337 -27.544  1.00  0.00    -0.357 OA
ATOM     33  H2  UNL     1      10.006  -7.364 -27.927  1.00  0.00     0.217 HD
ENDBRANCH   7  32
BRANCH   1  34
HETATM   34  O1  UNL     1       9.761  -8.177 -24.966  1.00  0.00    -0.351 OA
HETATM   35  C1  UNL     1       9.012  -9.271 -24.415  1.00  0.00     0.210 C 
ENDBRANCH   1  34
TORSDOF 10
ENDMDL
MODEL 2
REMARK VINA RESULT: -7.334203055      2.187      3.733
REMARK  10 active torsions:
REMARK  status: ('A' for Active; 'I' for Inactive)
REMARK    1  A    between atoms: O1_2  and  C2_3 
REMARK    2  A    between atoms: C7_9  and  O2_10 
REMARK    3  A    between atoms: C10_15  and  C11_16 
REMARK    4  A    between atoms: C11_16  and  N2_17 
REMARK    5  A    between atoms: C11_16  and  N3_21 
REMARK    6  A    between atoms: N3_21  and  O4_22 
REMARK    7  A    between atoms: N3_21  and  O5_24 
REMARK    8  A    between atoms: O5_24  and  N4_25 
REMARK    9  A    between atoms: C12_28  and  C13_29 
REMARK   10  A    between atoms: N5_30  and  O6_32 
ROOT
HETATM    1  C2  UNL     1       8.561  -5.950 -25.728  1.00  0.00     0.126 A 
HETATM    2  C3  UNL     1       8.786  -6.363 -27.021  1.00  0.00     0.084 A 
HETATM    3  N1  UNL     1       9.693  -7.440 -27.244  1.00  0.00    -0.099 NA
HETATM    4  C4  UNL     1       8.134  -5.730 -28.064  1.00  0.00     0.060 A 
HETATM    5  C5  UNL     1       7.269  -4.701 -27.839  1.00  0.00     0.053 A 
HETATM    6  C6  UNL     1       7.059  -4.304 -26.535  1.00  0.00     0.077 A 
HETATM    7  C7  UNL     1       7.694  -4.916 -25.476  1.00  0.00     0.117 A 
HETATM    8  C8  UNL     1       6.225  -3.293 -26.098  1.00  0.00     0.188 C 
HETATM    9  O3  UNL     1       5.900  -3.275 -24.908  1.00  0.00    -0.287 OA
HETATM   10  C9  UNL     1       5.706  -2.266 -26.901  1.00  0.00     0.068 C 
HETATM   11  C10 UNL     1       5.511  -2.223 -28.257  1.00  0.00     0.023 C 
HETATM   12  C12 UNL     1       6.242  -2.994 -29.173  1.00  0.00     0.062 C 
HETATM   13  N6  UNL     1       6.742  -4.235 -29.015  1.00  0.00    -0.349 N 
HETATM   14  C14 UNL     1       6.712  -5.153 -30.102  1.00  0.00     0.156 C 
ENDROOT
BRANCH  11  15
HETATM   15  C11 UNL     1       4.502  -1.325 -28.759  1.00  0.00     0.350 C 
BRANCH  15  16
HETATM   16  N2  UNL     1       3.567  -0.843 -27.759  1.00  0.00    -0.054 N 
ATOM     17  H23 UNL     1       2.621  -1.157 -27.979  1.00  0.00     0.276 HD
ATOM     18  H22 UNL     1       3.713  -1.329 -26.875  1.00  0.00     0.276 HD
ATOM     19  H21 UNL     1       3.581   0.166 -27.615  1.00  0.00     0.276 HD
ENDBRANCH  15  16
BRANCH  15  20
HETATM   20  N3  UNL     1       4.973  -0.131 -29.432  1.00  0.00    -0.010 NA
BRANCH  20  21
HETATM   21  O4  UNL     1       4.007   0.600 -30.000  1.00  0.00    -0.285 OA
ATOM     22  H4  UNL     1       3.946   0.506 -30.943  1.00  0.00     0.239 HD
ENDBRANCH  20  21
BRANCH  20  23
HETATM   23  O5  UNL     1       5.784   0.636 -28.685  1.00  0.00    -0.162 OA
BRANCH  23  24
HETATM   24  N4  UNL     1       6.205   1.741 -29.320  1.00  0.00    -0.289 N 
ATOM     25  H42 UNL     1       7.189   1.910 -29.529  1.00  0.00     0.186 HD
ATOM     26  H41 UNL     1       5.450   2.380 -29.564  1.00  0.00     0.186 HD
ENDBRANCH  23  24
ENDBRANCH  20  23
ENDBRANCH  15  20
ENDBRANCH  11  15
BRANCH  12  27
HETATM   27  C13 UNL     1       6.451  -2.377 -30.429  1.00  0.00     0.144 C 
HETATM   28  N5  UNL     1       7.352  -1.505 -30.649  1.00  0.00    -0.278 N 
ATOM     29  H5  UNL     1       7.948  -1.250 -29.861  1.00  0.00     0.193 HD
BRANCH  28  30
HETATM   30  O6  UNL     1       7.597  -0.882 -31.829  1.00  0.00    -0.290 OA
ATOM     31  H6  UNL     1       7.890   0.015 -31.942  1.00  0.00     0.244 HD
ENDBRANCH  28  30
ENDBRANCH  12  27
BRANCH   7  32
HETATM   32  O2  UNL     1       7.432  -4.463 -24.194  1.00  0.00    -0.357 OA
ATOM     33  H2  UNL     1       6.645  -4.702 -23.720  1.00  0.00     0.217 HD
ENDBRANCH   7  32
BRANCH   1  34
HETATM   34  O1  UNL     1       9.199  -6.564 -24.645  1.00  0.00    -0.351 OA
HETATM   35  C1  UNL     1       8.569  -7.678 -23.994  1.00  0.00     0.210 C 
ENDBRANCH   1  34
TORSDOF 10
ENDMDL
MODEL 3
REMARK VINA RESULT: -7.006320833      2.077      2.723
REMARK  10 active torsions:
REMARK  status: ('A' for Active; 'I' for Inactive)
REMARK    1  A    between atoms: O1_2  and  C2_3 
REMARK    2  A    between atoms: C7_9  and  O2_10 
REMARK    3  A    between atoms: C10_15  and  C11_16 
REMARK    4  A    between atoms: C11_16  and  N2_17 
REMARK    5  A    between atoms: C11_16  and  N3_21 
REMARK    6  A    between atoms: N3_21  and  O4_22 
REMARK    7  A    between atoms: N3_21  and  O5_24 
REMARK    8  A    between atoms: O5_24  and  N4_25 
REMARK    9  A    between atoms: C12_28  and  C13_29 
REMARK   10  A    between atoms: N5_30  and  O6_32 
ROOT
HETATM    1  C2  UNL     1       8.658  -6.086 -24.264  1.00  0.00     0.126 A 
HETATM    2  C3  UNL     1       8.237  -5.870 -22.972  1.00  0.00     0.084 A 
HETATM    3  N1  UNL     1       8.829  -6.637 -21.926  1.00  0.00    -0.099 NA
HETATM    4  C4  UNL     1       7.259  -4.924 -22.721  1.00  0.00     0.060 A 
HETATM    5  C5  UNL     1       6.700  -4.197 -23.729  1.00  0.00     0.053 A 
HETATM    6  C6  UNL     1       7.137  -4.430 -25.016  1.00  0.00     0.077 A 
HETATM    7  C7  UNL     1       8.110  -5.366 -25.297  1.00  0.00     0.117 A 
HETATM    8  C8  UNL     1       6.705  -3.801 -26.167  1.00  0.00     0.188 C 
HETATM    9  O3  UNL     1       7.408  -3.882 -27.178  1.00  0.00    -0.287 OA
HETATM   10  C9  UNL     1       5.517  -3.066 -26.292  1.00  0.00     0.068 C 
HETATM   11  C10 UNL     1       4.764  -2.441 -25.333  1.00  0.00     0.023 C 
HETATM   12  C12 UNL     1       4.754  -2.820 -23.981  1.00  0.00     0.062 C 
HETATM   13  N6  UNL     1       5.762  -3.324 -23.244  1.00  0.00    -0.349 N 
HETATM   14  C14 UNL     1       5.911  -2.926 -21.885  1.00  0.00     0.156 C 
ENDROOT
BRANCH  11  15
HETATM   15  C11 UNL     1       3.934  -1.338 -25.747  1.00  0.00     0.350 C 
BRANCH  15  16
HETATM   16  N2  UNL     1       4.563  -0.034 -25.645  1.00  0.00    -0.054 N 
ATOM     17  H23 UNL     1       4.711   0.361 -26.574  1.00  0.00     0.276 HD
ATOM     18  H22 UNL     1       3.905   0.647 -25.267  1.00  0.00     0.276 HD
ATOM     19  H21 UNL     1       5.432  -0.021 -25.111  1.00  0.00     0.276 HD
ENDBRANCH  15  16
BRANCH  15  20
HETATM   20  N3  UNL     1       3.409  -1.392 -27.096  1.00  0.00    -0.010 NA
BRANCH  20  21
HETATM   21  O4  UNL     1       2.482  -2.338 -27.291  1.00  0.00    -0.285 OA
ATOM     22  H4  UNL     1       1.662  -2.183 -26.838  1.00  0.00     0.239 HD
ENDBRANCH  20  21
BRANCH  20  23
HETATM   23  O5  UNL     1       2.996  -0.206 -27.573  1.00  0.00    -0.162 OA
BRANCH  23  24
HETATM   24  N4  UNL     1       3.124  -0.093 -28.903  1.00  0.00    -0.289 N 
ATOM     25  H42 UNL     1       3.563  -0.814 -29.474  1.00  0.00     0.186 HD
ATOM     26  H41 UNL     1       2.742   0.777 -29.274  1.00  0.00     0.186 HD
ENDBRANCH  23  24
ENDBRANCH  20  23
ENDBRANCH  15  20
ENDBRANCH  11  15
BRANCH  12  27
HETATM   27  C13 UNL     1       3.518  -2.619 -23.321  1.00  0.00     0.144 C 
HETATM   28  N5  UNL     1       2.569  -3.466 -23.321  1.00  0.00    -0.278 N 
ATOM     29  H5  UNL     1       2.727  -4.335 -23.832  1.00  0.00     0.193 HD
BRANCH  28  30
HETATM   30  O6  UNL     1       1.366  -3.327 -22.708  1.00  0.00    -0.290 OA
ATOM     31  H6  UNL     1       0.640  -2.794 -23.007  1.00  0.00     0.244 HD
ENDBRANCH  28  30
ENDBRANCH  12  27
BRANCH   7  32
HETATM   32  O2  UNL     1       8.499  -5.543 -26.614  1.00  0.00    -0.357 OA
ATOM     33  H2  UNL     1       9.409  -5.642 -26.866  1.00  0.00     0.217 HD
ENDBRANCH   7  32
BRANCH   1  34
HETATM   34  O1  UNL     1       9.646  -7.032 -24.561  1.00  0.00    -0.351 OA
HETATM   35  C1  UNL     1       9.261  -8.379 -24.871  1.00  0.00     0.210 C 
ENDBRANCH   1  34
TORSDOF 10
ENDMDL
MODEL 4
REMARK VINA RESULT: -6.941108222      1.941      7.030
REMARK  10 active torsions:
REMARK  status: ('A' for Active; 'I' for Inactive)
REMARK    1  A    between atoms: O1_2  and  C2_3 
REMARK    2  A    between atoms: C7_9  and  O2_10 
REMARK    3  A    between atoms: C10_15  and  C11_16 
REMARK    4  A    between atoms: C11_16  and  N2_17 
REMARK    5  A    between atoms: C11_16  and  N3_21 
REMARK    6  A    between atoms: N3_21  and  O4_22 
REMARK    7  A    between atoms: N3_21  and  O5_24 
REMARK    8  A    between atoms: O5_24  and  N4_25 
REMARK    9  A    between atoms: C12_28  and  C13_29 
REMARK   10  A    between atoms: N5_30  and  O6_32 
ROOT
HETATM    1  C2  UNL     1       4.031  -2.117 -27.674  1.00  0.00     0.126 A 
HETATM    2  C3  UNL     1       4.998  -2.034 -28.651  1.00  0.00     0.084 A 
HETATM    3  N1  UNL     1       4.662  -1.417 -29.891  1.00  0.00    -0.099 NA
HETATM    4  C4  UNL     1       6.260  -2.548 -28.409  1.00  0.00     0.060 A 
HETATM    5  C5  UNL     1       6.569  -3.137 -27.219  1.00  0.00     0.053 A 
HETATM    6  C6  UNL     1       5.585  -3.209 -26.255  1.00  0.00     0.077 A 
HETATM    7  C7  UNL     1       4.319  -2.705 -26.468  1.00  0.00     0.117 A 
HETATM    8  C8  UNL     1       5.696  -3.757 -24.993  1.00  0.00     0.188 C 
HETATM    9  O3  UNL     1       4.849  -3.458 -24.147  1.00  0.00    -0.287 OA
HETATM   10  C9  UNL     1       6.704  -4.640 -24.578  1.00  0.00     0.068 C 
HETATM   11  C10 UNL     1       7.966  -4.832 -25.079  1.00  0.00     0.023 C 
HETATM   12  C12 UNL     1       8.330  -4.545 -26.403  1.00  0.00     0.062 C 
HETATM   13  N6  UNL     1       7.871  -3.565 -27.206  1.00  0.00    -0.349 N 
HETATM   14  C14 UNL     1       8.766  -2.893 -28.084  1.00  0.00     0.156 C 
ENDROOT
BRANCH  11  15
HETATM   15  C11 UNL     1       8.964  -5.368 -24.189  1.00  0.00     0.350 C 
BRANCH  15  16
HETATM   16  N2  UNL     1       9.107  -4.651 -22.936  1.00  0.00    -0.054 N 
ATOM     17  H23 UNL     1       8.372  -3.950 -22.843  1.00  0.00     0.276 HD
ATOM     18  H22 UNL     1       8.870  -5.258 -22.151  1.00  0.00     0.276 HD
ATOM     19  H21 UNL     1      10.022  -4.226 -22.790  1.00  0.00     0.276 HD
ENDBRANCH  15  16
BRANCH  15  20
HETATM   20  N3  UNL     1       8.813  -6.758 -23.806  1.00  0.00    -0.010 NA
BRANCH  20  21
HETATM   21  O4  UNL     1       7.999  -6.957 -22.762  1.00  0.00    -0.285 OA
ATOM     22  H4  UNL     1       8.371  -6.718 -21.922  1.00  0.00     0.239 HD
ENDBRANCH  20  21
BRANCH  20  23
HETATM   23  O5  UNL     1       8.503  -7.578 -24.824  1.00  0.00    -0.162 OA
BRANCH  23  24
HETATM   24  N4  UNL     1       9.491  -8.425 -25.146  1.00  0.00    -0.289 N 
ATOM     25  H42 UNL     1       9.698  -8.683 -26.110  1.00  0.00     0.186 HD
ATOM     26  H41 UNL     1      10.003  -8.776 -24.337  1.00  0.00     0.186 HD
ENDBRANCH  23  24
ENDBRANCH  20  23
ENDBRANCH  15  20
ENDBRANCH  11  15
BRANCH  12  27
HETATM   27  C13 UNL     1       9.327  -5.394 -26.939  1.00  0.00     0.144 C 
HETATM   28  N5  UNL     1       9.077  -6.420 -27.650  1.00  0.00    -0.278 N 
ATOM     29  H5  UNL     1       8.095  -6.624 -27.834  1.00  0.00     0.193 HD
BRANCH  28  30
HETATM   30  O6  UNL     1       9.990  -7.267 -28.188  1.00  0.00    -0.290 OA
ATOM     31  H6  UNL     1       9.911  -8.211 -28.255  1.00  0.00     0.244 HD
ENDBRANCH  28  30
ENDBRANCH  12  27
BRANCH   7  32
HETATM   32  O2  UNL     1       3.384  -2.813 -25.453  1.00  0.00    -0.357 OA
ATOM     33  H2  UNL     1       2.490  -2.507 -25.551  1.00  0.00     0.217 HD
ENDBRANCH   7  32
BRANCH   1  34
HETATM   34  O1  UNL     1       2.744  -1.609 -27.879  1.00  0.00    -0.351 OA
HETATM   35  C1  UNL     1       2.446  -0.263 -27.479  1.00  0.00     0.210 C 
ENDBRANCH   1  34
TORSDOF 10
ENDMDL
MODEL 5
REMARK VINA RESULT: -6.873183583      2.268      3.787
REMARK  10 active torsions:
REMARK  status: ('A' for Active; 'I' for Inactive)
REMARK    1  A    between atoms: O1_2  and  C2_3 
REMARK    2  A    between atoms: C7_9  and  O2_10 
REMARK    3  A    between atoms: C10_15  and  C11_16 
REMARK    4  A    between atoms: C11_16  and  N2_17 
REMARK    5  A    between atoms: C11_16  and  N3_21 
REMARK    6  A    between atoms: N3_21  and  O4_22 
REMARK    7  A    between atoms: N3_21  and  O5_24 
REMARK    8  A    between atoms: O5_24  and  N4_25 
REMARK    9  A    between atoms: C12_28  and  C13_29 
REMARK   10  A    between atoms: N5_30  and  O6_32 
ROOT
HETATM    1  C2  UNL     1       8.771  -6.361 -26.101  1.00  0.00     0.126 A 
HETATM    2  C3  UNL     1       8.908  -6.459 -27.467  1.00  0.00     0.084 A 
HETATM    3  N1  UNL     1       9.790  -7.448 -27.994  1.00  0.00    -0.099 NA
HETATM    4  C4  UNL     1       8.195  -5.604 -28.289  1.00  0.00     0.060 A 
HETATM    5  C5  UNL     1       7.355  -4.662 -27.774  1.00  0.00     0.053 A 
HETATM    6  C6  UNL     1       7.233  -4.582 -26.402  1.00  0.00     0.077 A 
HETATM    7  C7  UNL     1       7.931  -5.420 -25.559  1.00  0.00     0.117 A 
HETATM    8  C8  UNL     1       6.439  -3.708 -25.688  1.00  0.00     0.188 C 
HETATM    9  O3  UNL     1       6.192  -3.970 -24.508  1.00  0.00    -0.287 OA
HETATM   10  C9  UNL     1       5.877  -2.526 -26.193  1.00  0.00     0.068 C 
HETATM   11  C10 UNL     1       5.594  -2.168 -27.486  1.00  0.00     0.023 C 
HETATM   12  C12 UNL     1       6.257  -2.699 -28.603  1.00  0.00     0.062 C 
HETATM   13  N6  UNL     1       6.756  -3.939 -28.772  1.00  0.00    -0.349 N 
HETATM   14  C14 UNL     1       6.648  -4.578 -30.039  1.00  0.00     0.156 C 
ENDROOT
BRANCH  11  15
HETATM   15  C11 UNL     1       4.562  -1.186 -27.698  1.00  0.00     0.350 C 
BRANCH  15  16
HETATM   16  N2  UNL     1       3.242  -1.585 -27.246  1.00  0.00    -0.054 N 
ATOM     17  H23 UNL     1       3.284  -1.922 -26.284  1.00  0.00     0.276 HD
ATOM     18  H22 UNL     1       2.648  -0.766 -27.120  1.00  0.00     0.276 HD
ATOM     19  H21 UNL     1       2.778  -2.271 -27.842  1.00  0.00     0.276 HD
ENDBRANCH  15  16
BRANCH  15  20
HETATM   20  N3  UNL     1       4.777   0.119 -27.105  1.00  0.00    -0.010 NA
BRANCH  20  21
HETATM   21  O4  UNL     1       5.267   1.035 -27.949  1.00  0.00    -0.285 OA
ATOM     22  H4  UNL     1       5.617   1.810 -27.526  1.00  0.00     0.239 HD
ENDBRANCH  20  21
BRANCH  20  23
HETATM   23  O5  UNL     1       3.716   0.599 -26.434  1.00  0.00    -0.162 OA
BRANCH  23  24
HETATM   24  N4  UNL     1       4.043   1.199 -25.279  1.00  0.00    -0.289 N 
ATOM     25  H42 UNL     1       4.524   0.708 -24.526  1.00  0.00     0.186 HD
ATOM     26  H41 UNL     1       3.764   2.179 -25.239  1.00  0.00     0.186 HD
ENDBRANCH  23  24
ENDBRANCH  20  23
ENDBRANCH  15  20
ENDBRANCH  11  15
BRANCH  12  27
HETATM   27  C13 UNL     1       6.389  -1.804 -29.691  1.00  0.00     0.144 C 
HETATM   28  N5  UNL     1       7.452  -1.154 -29.949  1.00  0.00    -0.278 N 
ATOM     29  H5  UNL     1       8.244  -1.300 -29.322  1.00  0.00     0.193 HD
BRANCH  28  30
HETATM   30  O6  UNL     1       7.635  -0.285 -30.975  1.00  0.00    -0.290 OA
ATOM     31  H6  UNL     1       8.459  -0.086 -31.404  1.00  0.00     0.244 HD
ENDBRANCH  28  30
ENDBRANCH  12  27
BRANCH   7  32
HETATM   32  O2  UNL     1       7.757  -5.281 -24.192  1.00  0.00    -0.357 OA
ATOM     33  H2  UNL     1       7.061  -4.755 -23.819  1.00  0.00     0.217 HD
ENDBRANCH   7  32
BRANCH   1  34
HETATM   34  O1  UNL     1       9.474  -7.207 -25.236  1.00  0.00    -0.351 OA
HETATM   35  C1  UNL     1       8.862  -8.427 -24.792  1.00  0.00     0.210 C 
ENDBRANCH   1  34
TORSDOF 10
ENDMDL
