MODEL 1
REMARK VINA RESULT: -8.490641301      0.000      0.000
REMARK  8 active torsions:
REMARK  status: ('A' for Active; 'I' for Inactive)
REMARK       I    between atoms: C1_4  and  N2_5 
REMARK       I    between atoms: C1_4  and  N5_21 
REMARK    1  A    between atoms: N2_5  and  N3_7 
REMARK       I    between atoms: N3_7  and  C2_9 
REMARK    2  A    between atoms: C2_9  and  C3_11 
REMARK    3  A    between atoms: C3_11  and  N4_12 
REMARK    4  A    between atoms: C4_13  and  O2_14 
REMARK    5  A    between atoms: C7_18  and  O3_19 
REMARK    6  A    between atoms: N5_21  and  S1_23 
REMARK    7  A    between atoms: S1_23  and  C8_26 
REMARK    8  A    between atoms: N6_28  and  O6_29 
ROOT
HETATM    1  N1  UNL     1       5.024  -1.759 -27.156  1.00  0.00    -0.233 N 
ATOM      2  H11 UNL     1       5.837  -1.747 -27.772  1.00  0.00     0.174 HD
ATOM      3  H12 UNL     1       4.377  -0.985 -27.005  1.00  0.00     0.174 HD
HETATM    4  C1  UNL     1       4.753  -2.862 -26.483  1.00  0.00     0.700 C 
HETATM    5  N2  UNL     1       3.640  -2.878 -25.639  1.00  0.00    -0.129 N 
ATOM      6  H2  UNL     1       2.807  -2.394 -25.973  1.00  0.00     0.205 HD
HETATM    7  N5  UNL     1       5.659  -3.945 -26.694  1.00  0.00    -0.110 N 
ATOM      8  H5  UNL     1       5.459  -4.870 -26.314  1.00  0.00     0.197 HD
ENDROOT
BRANCH   5   9
HETATM    9  N3  UNL     1       3.549  -3.485 -24.395  1.00  0.00    -0.254 N 
HETATM   10  C2  UNL     1       4.103  -2.853 -23.267  1.00  0.00     0.254 C 
HETATM   11  O1  UNL     1       4.691  -1.731 -23.392  1.00  0.00    -0.270 OA
ATOM     12  H3  UNL     1       3.083  -4.387 -24.299  1.00  0.00     0.190 HD
BRANCH  10  13
HETATM   13  C3  UNL     1       4.035  -3.439 -21.927  1.00  0.00     0.237 C 
BRANCH  13  14
HETATM   14  N4  UNL     1       5.142  -3.169 -21.061  1.00  0.00    -0.300 N 
HETATM   15  C4  UNL     1       5.092  -2.606 -19.853  1.00  0.00     0.144 A 
HETATM   16  C5  UNL     1       6.379  -2.571 -19.368  1.00  0.00     0.060 A 
HETATM   17  C6  UNL     1       7.224  -3.128 -20.312  1.00  0.00     0.060 A 
HETATM   18  C7  UNL     1       6.423  -3.494 -21.362  1.00  0.00     0.144 A 
BRANCH  15  19
HETATM   19  O2  UNL     1       3.959  -2.143 -19.211  1.00  0.00    -0.346 OA
ATOM     20  H2  UNL     1       3.906  -1.386 -18.639  1.00  0.00     0.219 HD
ENDBRANCH  15  19
BRANCH  18  21
HETATM   21  O3  UNL     1       6.835  -4.108 -22.563  1.00  0.00    -0.346 OA
ATOM     22  H3  UNL     1       7.651  -3.923 -23.012  1.00  0.00     0.219 HD
ENDBRANCH  18  21
ENDBRANCH  13  14
ENDBRANCH  10  13
ENDBRANCH   5   9
BRANCH   7  23
HETATM   23  S1  UNL     1       7.115  -3.658 -27.616  1.00  0.00     0.295 S 
HETATM   24  O4  UNL     1       6.759  -3.163 -28.967  1.00  0.00    -0.198 OA
HETATM   25  O5  UNL     1       7.938  -2.599 -26.922  1.00  0.00    -0.198 OA
BRANCH  23  26
HETATM   26  C8  UNL     1       8.123  -5.096 -27.658  1.00  0.00     0.192 A 
HETATM   27  C9  UNL     1       8.029  -6.139 -26.768  1.00  0.00     0.198 A 
HETATM   28  N6  UNL     1       8.987  -7.021 -27.124  1.00  0.00    -0.111 N 
HETATM   29  O7  UNL     1       9.621  -6.552 -28.153  1.00  0.00    -0.128 OA
HETATM   30  N7  UNL     1       9.125  -5.381 -28.507  1.00  0.00    -0.225 N 
ATOM     31  H7  UNL     1       9.443  -4.799 -29.281  1.00  0.00     0.198 HD
BRANCH  28  32
HETATM   32  O6  UNL     1       9.229  -8.223 -26.470  1.00  0.00    -0.262 OA
ATOM     33  H6  UNL     1      10.045  -8.444 -26.036  1.00  0.00     0.247 HD
ENDBRANCH  28  32
ENDBRANCH  23  26
ENDBRANCH   7  23
TORSDOF 8
ENDMDL
MODEL 2
REMARK VINA RESULT: -8.445160595      0.077      1.585
REMARK  8 active torsions:
REMARK  status: ('A' for Active; 'I' for Inactive)
REMARK       I    between atoms: C1_4  and  N2_5 
REMARK       I    between atoms: C1_4  and  N5_21 
REMARK    1  A    between atoms: N2_5  and  N3_7 
REMARK       I    between atoms: N3_7  and  C2_9 
REMARK    2  A    between atoms: C2_9  and  C3_11 
REMARK    3  A    between atoms: C3_11  and  N4_12 
REMARK    4  A    between atoms: C4_13  and  O2_14 
REMARK    5  A    between atoms: C7_18  and  O3_19 
REMARK    6  A    between atoms: N5_21  and  S1_23 
REMARK    7  A    between atoms: S1_23  and  C8_26 
REMARK    8  A    between atoms: N6_28  and  O6_29 
ROOT
HETATM    1  N1  UNL     1       4.981  -1.777 -27.161  1.00  0.00    -0.233 N 
ATOM      2  H11 UNL     1       5.796  -1.761 -27.775  1.00  0.00     0.174 HD
ATOM      3  H12 UNL     1       4.322  -1.011 -27.023  1.00  0.00     0.174 HD
HETATM    4  C1  UNL     1       4.725  -2.874 -26.473  1.00  0.00     0.700 C 
HETATM    5  N2  UNL     1       3.609  -2.896 -25.632  1.00  0.00    -0.129 N 
ATOM      6  H2  UNL     1       2.770  -2.429 -25.976  1.00  0.00     0.205 HD
HETATM    7  N5  UNL     1       5.648  -3.946 -26.666  1.00  0.00    -0.110 N 
ATOM      8  H5  UNL     1       5.462  -4.868 -26.273  1.00  0.00     0.197 HD
ENDROOT
BRANCH   5   9
HETATM    9  N3  UNL     1       3.524  -3.486 -24.380  1.00  0.00    -0.254 N 
HETATM   10  C2  UNL     1       4.097  -2.847 -23.266  1.00  0.00     0.254 C 
HETATM   11  O1  UNL     1       4.696  -1.733 -23.411  1.00  0.00    -0.270 OA
ATOM     12  H3  UNL     1       3.048  -4.381 -24.268  1.00  0.00     0.190 HD
BRANCH  10  13
HETATM   13  C3  UNL     1       4.036  -3.415 -21.917  1.00  0.00     0.237 C 
BRANCH  13  14
HETATM   14  N4  UNL     1       5.199  -3.240 -21.103  1.00  0.00    -0.300 N 
HETATM   15  C4  UNL     1       6.461  -3.507 -21.446  1.00  0.00     0.144 A 
HETATM   16  C5  UNL     1       7.254  -3.159 -20.377  1.00  0.00     0.060 A 
HETATM   17  C6  UNL     1       6.445  -2.671 -19.365  1.00  0.00     0.060 A 
HETATM   18  C7  UNL     1       5.164  -2.733 -19.847  1.00  0.00     0.144 A 
BRANCH  15  19
HETATM   19  O2  UNL     1       6.889  -4.036 -22.649  1.00  0.00    -0.346 OA
ATOM     20  H2  UNL     1       7.702  -3.833 -23.095  1.00  0.00     0.219 HD
ENDBRANCH  15  19
BRANCH  18  21
HETATM   21  O3  UNL     1       3.990  -2.342 -19.172  1.00  0.00    -0.346 OA
ATOM     22  H3  UNL     1       3.829  -1.471 -18.828  1.00  0.00     0.219 HD
ENDBRANCH  18  21
ENDBRANCH  13  14
ENDBRANCH  10  13
ENDBRANCH   5   9
BRANCH   7  23
HETATM   23  S1  UNL     1       7.103  -3.649 -27.587  1.00  0.00     0.295 S 
HETATM   24  O4  UNL     1       6.744  -3.155 -28.938  1.00  0.00    -0.198 OA
HETATM   25  O5  UNL     1       7.920  -2.587 -26.892  1.00  0.00    -0.198 OA
BRANCH  23  26
HETATM   26  C8  UNL     1       8.119  -5.082 -27.631  1.00  0.00     0.192 A 
HETATM   27  C9  UNL     1       8.052  -6.111 -26.723  1.00  0.00     0.198 A 
HETATM   28  N6  UNL     1       9.008  -6.993 -27.088  1.00  0.00    -0.111 N 
HETATM   29  O7  UNL     1       9.614  -6.536 -28.139  1.00  0.00    -0.128 OA
HETATM   30  N7  UNL     1       9.102  -5.374 -28.499  1.00  0.00    -0.225 N 
ATOM     31  H7  UNL     1       9.398  -4.802 -29.290  1.00  0.00     0.198 HD
BRANCH  28  32
HETATM   32  O6  UNL     1       9.273  -8.183 -26.421  1.00  0.00    -0.262 OA
ATOM     33  H6  UNL     1       9.893  -8.272 -25.708  1.00  0.00     0.247 HD
ENDBRANCH  28  32
ENDBRANCH  23  26
ENDBRANCH   7  23
TORSDOF 8
ENDMDL
MODEL 3
REMARK VINA RESULT: -8.089288367      2.564      7.089
REMARK  8 active torsions:
REMARK  status: ('A' for Active; 'I' for Inactive)
REMARK       I    between atoms: C1_4  and  N2_5 
REMARK       I    between atoms: C1_4  and  N5_21 
REMARK    1  A    between atoms: N2_5  and  N3_7 
REMARK       I    between atoms: N3_7  and  C2_9 
REMARK    2  A    between atoms: C2_9  and  C3_11 
REMARK    3  A    between atoms: C3_11  and  N4_12 
REMARK    4  A    between atoms: C4_13  and  O2_14 
REMARK    5  A    between atoms: C7_18  and  O3_19 
REMARK    6  A    between atoms: N5_21  and  S1_23 
REMARK    7  A    between atoms: S1_23  and  C8_26 
REMARK    8  A    between atoms: N6_28  and  O6_29 
ROOT
HETATM    1  N1  UNL     1       9.069  -4.303 -24.788  1.00  0.00    -0.233 N 
ATOM      2  H11 UNL     1       9.197  -4.079 -23.801  1.00  0.00     0.174 HD
ATOM      3  H12 UNL     1       9.807  -4.358 -25.490  1.00  0.00     0.174 HD
HETATM    4  C1  UNL     1       7.850  -4.554 -25.229  1.00  0.00     0.700 C 
HETATM    5  N2  UNL     1       7.673  -4.860 -26.581  1.00  0.00    -0.129 N 
ATOM      6  H2  UNL     1       8.388  -5.445 -27.014  1.00  0.00     0.205 HD
HETATM    7  N5  UNL     1       6.816  -4.476 -24.247  1.00  0.00    -0.110 N 
ATOM      8  H5  UNL     1       5.867  -4.773 -24.469  1.00  0.00     0.197 HD
ENDROOT
BRANCH   5   9
HETATM    9  N3  UNL     1       6.628  -4.451 -27.395  1.00  0.00    -0.254 N 
HETATM   10  C2  UNL     1       6.654  -3.171 -27.977  1.00  0.00     0.254 C 
HETATM   11  O1  UNL     1       7.633  -2.389 -27.750  1.00  0.00    -0.270 OA
ATOM     12  H3  UNL     1       5.842  -5.077 -27.572  1.00  0.00     0.190 HD
BRANCH  10  13
HETATM   13  C3  UNL     1       5.584  -2.683 -28.851  1.00  0.00     0.237 C 
BRANCH  13  14
HETATM   14  N4  UNL     1       4.525  -1.964 -28.212  1.00  0.00    -0.300 N 
HETATM   15  C4  UNL     1       3.996  -2.217 -27.013  1.00  0.00     0.144 A 
HETATM   16  C5  UNL     1       3.034  -1.262 -26.785  1.00  0.00     0.060 A 
HETATM   17  C6  UNL     1       2.982  -0.412 -27.877  1.00  0.00     0.060 A 
HETATM   18  C7  UNL     1       3.927  -0.876 -28.755  1.00  0.00     0.144 A 
BRANCH  15  19
HETATM   19  O2  UNL     1       4.350  -3.247 -26.163  1.00  0.00    -0.346 OA
ATOM     20  H2  UNL     1       3.834  -4.021 -25.972  1.00  0.00     0.219 HD
ENDBRANCH  15  19
BRANCH  18  21
HETATM   21  O3  UNL     1       4.244  -0.331 -30.017  1.00  0.00    -0.346 OA
ATOM     22  H3  UNL     1       3.900  -0.647 -30.844  1.00  0.00     0.219 HD
ENDBRANCH  18  21
ENDBRANCH  13  14
ENDBRANCH  10  13
ENDBRANCH   5   9
BRANCH   7  23
HETATM   23  S1  UNL     1       7.208  -3.863 -22.659  1.00  0.00     0.295 S 
HETATM   24  O4  UNL     1       8.247  -4.718 -22.038  1.00  0.00    -0.198 OA
HETATM   25  O5  UNL     1       7.758  -2.463 -22.791  1.00  0.00    -0.198 OA
BRANCH  23  26
HETATM   26  C8  UNL     1       5.763  -3.717 -21.670  1.00  0.00     0.192 A 
HETATM   27  C9  UNL     1       5.625  -2.844 -20.618  1.00  0.00     0.198 A 
HETATM   28  N6  UNL     1       4.393  -3.063 -20.110  1.00  0.00    -0.111 N 
HETATM   29  O7  UNL     1       3.822  -4.001 -20.799  1.00  0.00    -0.128 OA
HETATM   30  N7  UNL     1       4.625  -4.425 -21.757  1.00  0.00    -0.225 N 
ATOM     31  H7  UNL     1       4.420  -5.157 -22.437  1.00  0.00     0.198 HD
BRANCH  28  32
HETATM   32  O6  UNL     1       3.859  -2.380 -19.024  1.00  0.00    -0.262 OA
ATOM     33  H6  UNL     1       3.139  -1.764 -19.080  1.00  0.00     0.247 HD
ENDBRANCH  28  32
ENDBRANCH  23  26
ENDBRANCH   7  23
TORSDOF 8
ENDMDL
MODEL 4
REMARK VINA RESULT: -8.041671410      2.407      7.411
REMARK  8 active torsions:
REMARK  status: ('A' for Active; 'I' for Inactive)
REMARK       I    between atoms: C1_4  and  N2_5 
REMARK       I    between atoms: C1_4  and  N5_21 
REMARK    1  A    between atoms: N2_5  and  N3_7 
REMARK       I    between atoms: N3_7  and  C2_9 
REMARK    2  A    between atoms: C2_9  and  C3_11 
REMARK    3  A    between atoms: C3_11  and  N4_12 
REMARK    4  A    between atoms: C4_13  and  O2_14 
REMARK    5  A    between atoms: C7_18  and  O3_19 
REMARK    6  A    between atoms: N5_21  and  S1_23 
REMARK    7  A    between atoms: S1_23  and  C8_26 
REMARK    8  A    between atoms: N6_28  and  O6_29 
ROOT
HETATM    1  N1  UNL     1       3.046  -3.347 -23.106  1.00  0.00    -0.233 N 
ATOM      2  H11 UNL     1       3.320  -3.598 -22.156  1.00  0.00     0.174 HD
ATOM      3  H12 UNL     1       2.089  -3.286 -23.456  1.00  0.00     0.174 HD
HETATM    4  C1  UNL     1       3.989  -3.065 -23.986  1.00  0.00     0.700 C 
HETATM    5  N2  UNL     1       3.613  -2.721 -25.287  1.00  0.00    -0.129 N 
ATOM      6  H2  UNL     1       2.783  -2.137 -25.384  1.00  0.00     0.205 HD
HETATM    7  N5  UNL     1       5.327  -3.151 -23.497  1.00  0.00    -0.110 N 
ATOM      8  H5  UNL     1       6.109  -2.832 -24.068  1.00  0.00     0.197 HD
ENDROOT
BRANCH   5   9
HETATM    9  N3  UNL     1       4.252  -3.092 -26.461  1.00  0.00    -0.254 N 
HETATM   10  C2  UNL     1       5.402  -2.398 -26.880  1.00  0.00     0.254 C 
HETATM   11  O1  UNL     1       5.848  -1.429 -26.185  1.00  0.00    -0.270 OA
ATOM     12  H3  UNL     1       3.889  -3.865 -27.019  1.00  0.00     0.190 HD
BRANCH  10  13
HETATM   13  C3  UNL     1       6.125  -2.745 -28.106  1.00  0.00     0.237 C 
BRANCH  13  14
HETATM   14  N4  UNL     1       6.844  -3.981 -28.088  1.00  0.00    -0.300 N 
HETATM   15  C4  UNL     1       7.340  -4.602 -27.016  1.00  0.00     0.144 A 
HETATM   16  C5  UNL     1       7.921  -5.769 -27.455  1.00  0.00     0.060 A 
HETATM   17  C6  UNL     1       7.771  -5.850 -28.829  1.00  0.00     0.060 A 
HETATM   18  C7  UNL     1       7.093  -4.717 -29.199  1.00  0.00     0.144 A 
BRANCH  15  19
HETATM   19  O2  UNL     1       7.281  -4.154 -25.710  1.00  0.00    -0.346 OA
ATOM     20  H2  UNL     1       7.807  -4.468 -24.984  1.00  0.00     0.219 HD
ENDBRANCH  15  19
BRANCH  18  21
HETATM   21  O3  UNL     1       6.706  -4.355 -30.505  1.00  0.00    -0.346 OA
ATOM     22  H3  UNL     1       7.286  -3.979 -31.156  1.00  0.00     0.219 HD
ENDBRANCH  18  21
ENDBRANCH  13  14
ENDBRANCH  10  13
ENDBRANCH   5   9
BRANCH   7  23
HETATM   23  S1  UNL     1       5.600  -3.811 -21.903  1.00  0.00     0.295 S 
HETATM   24  O4  UNL     1       4.816  -5.059 -21.740  1.00  0.00    -0.198 OA
HETATM   25  O5  UNL     1       7.064  -4.145 -21.750  1.00  0.00    -0.198 OA
BRANCH  23  26
HETATM   26  C8  UNL     1       5.250  -2.618 -20.662  1.00  0.00     0.192 A 
HETATM   27  C9  UNL     1       6.076  -1.570 -20.336  1.00  0.00     0.198 A 
HETATM   28  N6  UNL     1       5.464  -0.913 -19.327  1.00  0.00    -0.111 N 
HETATM   29  O7  UNL     1       4.349  -1.516 -19.055  1.00  0.00    -0.128 OA
HETATM   30  N7  UNL     1       4.184  -2.560 -19.846  1.00  0.00    -0.225 N 
ATOM     31  H7  UNL     1       3.393  -3.204 -19.839  1.00  0.00     0.198 HD
BRANCH  28  32
HETATM   32  O6  UNL     1       5.977   0.219 -18.702  1.00  0.00    -0.262 OA
ATOM     33  H6  UNL     1       6.855   0.284 -18.347  1.00  0.00     0.247 HD
ENDBRANCH  28  32
ENDBRANCH  23  26
ENDBRANCH   7  23
TORSDOF 8
ENDMDL
MODEL 5
REMARK VINA RESULT: -8.038842728      3.014      5.655
REMARK  8 active torsions:
REMARK  status: ('A' for Active; 'I' for Inactive)
REMARK       I    between atoms: C1_4  and  N2_5 
REMARK       I    between atoms: C1_4  and  N5_21 
REMARK    1  A    between atoms: N2_5  and  N3_7 
REMARK       I    between atoms: N3_7  and  C2_9 
REMARK    2  A    between atoms: C2_9  and  C3_11 
REMARK    3  A    between atoms: C3_11  and  N4_12 
REMARK    4  A    between atoms: C4_13  and  O2_14 
REMARK    5  A    between atoms: C7_18  and  O3_19 
REMARK    6  A    between atoms: N5_21  and  S1_23 
REMARK    7  A    between atoms: S1_23  and  C8_26 
REMARK    8  A    between atoms: N6_28  and  O6_29 
ROOT
HETATM    1  N1  UNL     1       3.854  -2.079 -24.059  1.00  0.00    -0.233 N 
ATOM      2  H11 UNL     1       3.469  -1.372 -24.685  1.00  0.00     0.174 HD
ATOM      3  H12 UNL     1       3.784  -2.079 -23.041  1.00  0.00     0.174 HD
HETATM    4  C1  UNL     1       4.503  -3.103 -24.581  1.00  0.00     0.700 C 
HETATM    5  N2  UNL     1       5.032  -4.072 -23.724  1.00  0.00    -0.129 N 
ATOM      6  H2  UNL     1       4.465  -4.324 -22.915  1.00  0.00     0.205 HD
HETATM    7  N5  UNL     1       4.602  -3.103 -26.005  1.00  0.00    -0.110 N 
ATOM      8  H5  UNL     1       4.976  -3.913 -26.499  1.00  0.00     0.197 HD
ENDROOT
BRANCH   5   9
HETATM    9  N3  UNL     1       6.246  -4.728 -23.860  1.00  0.00    -0.254 N 
HETATM   10  C2  UNL     1       7.409  -3.993 -24.153  1.00  0.00     0.254 C 
HETATM   11  O1  UNL     1       7.342  -2.729 -24.299  1.00  0.00    -0.270 OA
ATOM     12  H3  UNL     1       6.296  -5.741 -23.748  1.00  0.00     0.190 HD
BRANCH  10  13
HETATM   13  C3  UNL     1       8.721  -4.625 -24.302  1.00  0.00     0.237 C 
BRANCH  13  14
HETATM   14  N4  UNL     1       8.754  -5.846 -25.048  1.00  0.00    -0.300 N 
HETATM   15  C4  UNL     1       8.973  -5.976 -26.358  1.00  0.00     0.144 A 
HETATM   16  C5  UNL     1       8.951  -7.322 -26.641  1.00  0.00     0.060 A 
HETATM   17  C6  UNL     1       8.711  -8.018 -25.469  1.00  0.00     0.060 A 
HETATM   18  C7  UNL     1       8.593  -7.069 -24.487  1.00  0.00     0.144 A 
BRANCH  15  19
HETATM   19  O2  UNL     1       9.180  -4.949 -27.259  1.00  0.00    -0.346 OA
ATOM     20  H2  UNL     1       8.699  -4.803 -28.065  1.00  0.00     0.219 HD
ENDBRANCH  15  19
BRANCH  18  21
HETATM   21  O3  UNL     1       8.345  -7.298 -23.118  1.00  0.00    -0.346 OA
ATOM     22  H3  UNL     1       8.074  -8.131 -22.750  1.00  0.00     0.219 HD
ENDBRANCH  18  21
ENDBRANCH  13  14
ENDBRANCH  10  13
ENDBRANCH   5   9
BRANCH   7  23
HETATM   23  S1  UNL     1       4.070  -1.691 -26.886  1.00  0.00     0.295 S 
HETATM   24  O4  UNL     1       2.601  -1.546 -26.753  1.00  0.00    -0.198 OA
HETATM   25  O5  UNL     1       4.725  -0.465 -26.297  1.00  0.00    -0.198 OA
BRANCH  23  26
HETATM   26  C8  UNL     1       4.601  -1.760 -28.559  1.00  0.00     0.192 A 
HETATM   27  C9  UNL     1       5.706  -2.450 -28.997  1.00  0.00     0.198 A 
HETATM   28  N6  UNL     1       5.782  -2.228 -30.327  1.00  0.00    -0.111 N 
HETATM   29  O7  UNL     1       4.798  -1.459 -30.676  1.00  0.00    -0.128 OA
HETATM   30  N7  UNL     1       4.058  -1.151 -29.626  1.00  0.00    -0.225 N 
ATOM     31  H7  UNL     1       3.227  -0.560 -29.626  1.00  0.00     0.198 HD
BRANCH  28  32
HETATM   32  O6  UNL     1       6.768  -2.751 -31.155  1.00  0.00    -0.262 OA
ATOM     33  H6  UNL     1       6.917  -2.476 -32.052  1.00  0.00     0.247 HD
ENDBRANCH  28  32
ENDBRANCH  23  26
ENDBRANCH   7  23
TORSDOF 8
ENDMDL
