MODEL 1
REMARK VINA RESULT: -9.698107872      0.000      0.000
REMARK  8 active torsions:
REMARK  status: ('A' for Active; 'I' for Inactive)
REMARK    1  A    between atoms: C2_3  and  C3_4 
REMARK    2  A    between atoms: C6_7  and  C7_8 
REMARK    3  A    between atoms: C17_21  and  C18_22 
REMARK       I    between atoms: C18_22  and  N2_24 
REMARK    4  A    between atoms: N2_24  and  C19_25 
REMARK    5  A    between atoms: C19_25  and  C20_26 
REMARK    6  A    between atoms: C20_26  and  N3_27 
REMARK       I    between atoms: N3_27  and  C21_29 
REMARK    7  A    between atoms: C21_29  and  O5_31 
REMARK    8  A    between atoms: O5_31  and  C22_32 
ROOT
HETATM    1  N1  UNL     1     -22.186  10.733 -11.228  1.00  0.00    -0.197 NA
HETATM    2  C1  UNL     1     -21.567  10.020 -10.556  1.00  0.00     0.059 C 
HETATM    3  C2  UNL     1     -20.756   9.123  -9.685  1.00  0.00     0.134 C 
ENDROOT
BRANCH   3   4
HETATM    4  C3  UNL     1     -19.426   9.016 -10.329  1.00  0.00     0.065 C 
HETATM    5  C4  UNL     1     -19.626   9.116 -11.845  1.00  0.00     0.012 C 
HETATM    6  C5  UNL     1     -20.012   7.699 -12.212  1.00  0.00     0.015 C 
HETATM    7  C6  UNL     1     -19.251   6.796 -11.218  1.00  0.00     0.084 C 
HETATM    8  C13 UNL     1     -18.728   7.692 -10.237  1.00  0.00     0.212 C 
HETATM    9  O1  UNL     1     -18.516   7.266  -8.953  1.00  0.00    -0.196 OA
HETATM   10  O6  UNL     1     -17.394   8.021 -10.624  1.00  0.00    -0.312 OA
HETATM   11  O2  UNL     1     -17.358   6.653  -8.988  1.00  0.00    -0.197 OA
HETATM   12  C14 UNL     1     -16.577   7.648  -9.560  1.00  0.00     0.200 C 
HETATM   13  C15 UNL     1     -15.273   7.175 -10.107  1.00  0.00     0.072 C 
HETATM   14  C24 UNL     1     -16.392   8.747  -8.568  1.00  0.00     0.072 C 
HETATM   15  C16 UNL     1     -14.126   7.124  -9.187  1.00  0.00     0.020 C 
HETATM   16  C17 UNL     1     -14.185   7.902  -7.931  1.00  0.00     0.093 C 
HETATM   17  C23 UNL     1     -15.544   8.223  -7.437  1.00  0.00     0.020 C 
BRANCH   7  18
HETATM   18  C7  UNL     1     -20.154   5.704 -10.931  1.00  0.00    -0.049 A 
HETATM   19  C8  UNL     1     -19.858   4.450 -10.524  1.00  0.00     0.011 A 
HETATM   20  C9  UNL     1     -20.840   3.528 -10.261  1.00  0.00     0.043 A 
HETATM   21  C10 UNL     1     -22.182   3.825 -10.396  1.00  0.00     0.116 A 
HETATM   22  F1  UNL     1     -23.183   2.965 -10.150  1.00  0.00    -0.206 F 
HETATM   23  C11 UNL     1     -22.491   5.089 -10.806  1.00  0.00     0.043 A 
HETATM   24  C12 UNL     1     -21.519   6.005 -11.068  1.00  0.00     0.011 A 
ENDBRANCH   7  18
BRANCH  16  25
HETATM   25  C18 UNL     1     -13.388   9.209  -8.065  1.00  0.00     0.295 C 
HETATM   26  O3  UNL     1     -13.572  10.046  -7.150  1.00  0.00    -0.257 OA
HETATM   27  N2  UNL     1     -12.592   9.301  -9.135  1.00  0.00    -0.386 NA
BRANCH  27  28
HETATM   28  C19 UNL     1     -11.777   9.397 -10.231  1.00  0.00     0.178 C 
BRANCH  28  29
HETATM   29  C20 UNL     1     -12.268  10.237 -11.403  1.00  0.00     0.184 C 
BRANCH  29  30
HETATM   30  N3  UNL     1     -13.730  10.129 -11.426  1.00  0.00    -0.331 N 
HETATM   31  C21 UNL     1     -14.557  11.214 -11.062  1.00  0.00     0.365 C 
HETATM   32  O4  UNL     1     -14.025  12.304 -10.710  1.00  0.00    -0.238 OA
ATOM     33  H3  UNL     1     -14.160   9.249 -11.711  1.00  0.00     0.165 HD
BRANCH  31  34
HETATM   34  O5  UNL     1     -15.916  11.096 -11.089  1.00  0.00    -0.240 OA
BRANCH  34  35
HETATM   35  C22 UNL     1     -16.641  11.336 -12.266  1.00  0.00     0.508 C 
HETATM   36  F2  UNL     1     -16.778  10.152 -12.997  1.00  0.00    -0.184 F 
HETATM   37  F3  UNL     1     -17.885  11.867 -12.011  1.00  0.00    -0.184 F 
ENDBRANCH  34  35
ENDBRANCH  31  34
ENDBRANCH  29  30
ENDBRANCH  28  29
ENDBRANCH  27  28
ENDBRANCH  16  25
ENDBRANCH   3   4
TORSDOF 8
ENDMDL
MODEL 2
REMARK VINA RESULT: -9.481856434      2.304      3.550
REMARK  8 active torsions:
REMARK  status: ('A' for Active; 'I' for Inactive)
REMARK    1  A    between atoms: C2_3  and  C3_4 
REMARK    2  A    between atoms: C6_7  and  C7_8 
REMARK    3  A    between atoms: C17_21  and  C18_22 
REMARK       I    between atoms: C18_22  and  N2_24 
REMARK    4  A    between atoms: N2_24  and  C19_25 
REMARK    5  A    between atoms: C19_25  and  C20_26 
REMARK    6  A    between atoms: C20_26  and  N3_27 
REMARK       I    between atoms: N3_27  and  C21_29 
REMARK    7  A    between atoms: C21_29  and  O5_31 
REMARK    8  A    between atoms: O5_31  and  C22_32 
ROOT
HETATM    1  N1  UNL     1     -22.628  10.877  -8.674  1.00  0.00    -0.197 NA
HETATM    2  C1  UNL     1     -21.771  10.140  -8.926  1.00  0.00     0.059 C 
HETATM    3  C2  UNL     1     -20.651   9.211  -9.246  1.00  0.00     0.134 C 
ENDROOT
BRANCH   3   4
HETATM    4  C3  UNL     1     -20.141   9.625 -10.575  1.00  0.00     0.065 C 
HETATM    5  C4  UNL     1     -21.322   9.634 -11.551  1.00  0.00     0.012 C 
HETATM    6  C5  UNL     1     -21.422   8.176 -11.949  1.00  0.00     0.015 C 
HETATM    7  C6  UNL     1     -19.974   7.642 -11.913  1.00  0.00     0.084 C 
HETATM    8  C13 UNL     1     -19.219   8.674 -11.278  1.00  0.00     0.212 C 
HETATM    9  O1  UNL     1     -18.091   8.367 -10.565  1.00  0.00    -0.196 OA
HETATM   10  O6  UNL     1     -18.661   9.491 -12.306  1.00  0.00    -0.312 OA
HETATM   11  O2  UNL     1     -17.145   8.249 -11.464  1.00  0.00    -0.197 OA
HETATM   12  C14 UNL     1     -17.281   9.468 -12.117  1.00  0.00     0.200 C 
HETATM   13  C15 UNL     1     -16.618   9.533 -13.451  1.00  0.00     0.072 C 
HETATM   14  C24 UNL     1     -16.809  10.555 -11.212  1.00  0.00     0.072 C 
HETATM   15  C16 UNL     1     -15.204   9.933 -13.490  1.00  0.00     0.020 C 
HETATM   16  C17 UNL     1     -14.628  10.631 -12.321  1.00  0.00     0.093 C 
HETATM   17  C23 UNL     1     -15.319  10.404 -11.031  1.00  0.00     0.020 C 
BRANCH   7  18
HETATM   18  C7  UNL     1     -20.084   6.286 -11.422  1.00  0.00    -0.049 A 
HETATM   19  C8  UNL     1     -19.100   5.385 -11.207  1.00  0.00     0.011 A 
HETATM   20  C9  UNL     1     -19.366   4.137 -10.703  1.00  0.00     0.043 A 
HETATM   21  C10 UNL     1     -20.647   3.729 -10.388  1.00  0.00     0.116 A 
HETATM   22  F1  UNL     1     -20.963   2.522  -9.890  1.00  0.00    -0.206 F 
HETATM   23  C11 UNL     1     -21.647   4.632 -10.601  1.00  0.00     0.043 A 
HETATM   24  C12 UNL     1     -21.387   5.870 -11.101  1.00  0.00     0.011 A 
ENDBRANCH   7  18
BRANCH  16  25
HETATM   25  C18 UNL     1     -14.550  12.144 -12.577  1.00  0.00     0.295 C 
HETATM   26  O3  UNL     1     -15.441  12.609 -13.326  1.00  0.00    -0.257 OA
HETATM   27  N2  UNL     1     -13.545  12.788 -11.974  1.00  0.00    -0.386 NA
BRANCH  27  28
HETATM   28  C19 UNL     1     -12.517  13.448 -11.357  1.00  0.00     0.178 C 
BRANCH  28  29
HETATM   29  C20 UNL     1     -11.766  12.712 -10.256  1.00  0.00     0.184 C 
BRANCH  29  30
HETATM   30  N3  UNL     1     -12.761  12.296  -9.262  1.00  0.00    -0.331 N 
HETATM   31  C21 UNL     1     -12.716  11.020  -8.661  1.00  0.00     0.365 C 
HETATM   32  O4  UNL     1     -11.797  10.216  -8.986  1.00  0.00    -0.238 OA
ATOM     33  H3  UNL     1     -13.502  12.945  -8.999  1.00  0.00     0.165 HD
BRANCH  31  34
HETATM   34  O5  UNL     1     -13.650  10.649  -7.738  1.00  0.00    -0.240 OA
BRANCH  34  35
HETATM   35  C22 UNL     1     -14.199   9.358  -7.740  1.00  0.00     0.508 C 
HETATM   36  F2  UNL     1     -13.447   8.514  -6.916  1.00  0.00    -0.184 F 
HETATM   37  F3  UNL     1     -15.513   9.350  -7.333  1.00  0.00    -0.184 F 
ENDBRANCH  34  35
ENDBRANCH  31  34
ENDBRANCH  29  30
ENDBRANCH  28  29
ENDBRANCH  27  28
ENDBRANCH  16  25
ENDBRANCH   3   4
TORSDOF 8
ENDMDL
MODEL 3
REMARK VINA RESULT: -9.394493392      1.305      1.543
REMARK  8 active torsions:
REMARK  status: ('A' for Active; 'I' for Inactive)
REMARK    1  A    between atoms: C2_3  and  C3_4 
REMARK    2  A    between atoms: C6_7  and  C7_8 
REMARK    3  A    between atoms: C17_21  and  C18_22 
REMARK       I    between atoms: C18_22  and  N2_24 
REMARK    4  A    between atoms: N2_24  and  C19_25 
REMARK    5  A    between atoms: C19_25  and  C20_26 
REMARK    6  A    between atoms: C20_26  and  N3_27 
REMARK       I    between atoms: N3_27  and  C21_29 
REMARK    7  A    between atoms: C21_29  and  O5_31 
REMARK    8  A    between atoms: O5_31  and  C22_32 
ROOT
HETATM    1  N1  UNL     1     -21.552  11.133 -10.423  1.00  0.00    -0.197 NA
HETATM    2  C1  UNL     1     -21.083  10.131 -10.081  1.00  0.00     0.059 C 
HETATM    3  C2  UNL     1     -20.458   8.854  -9.632  1.00  0.00     0.134 C 
ENDROOT
BRANCH   3   4
HETATM    4  C3  UNL     1     -19.340   8.593 -10.569  1.00  0.00     0.065 C 
HETATM    5  C4  UNL     1     -19.874   8.750 -11.997  1.00  0.00     0.012 C 
HETATM    6  C5  UNL     1     -20.515   7.402 -12.251  1.00  0.00     0.015 C 
HETATM    7  C6  UNL     1     -19.666   6.388 -11.455  1.00  0.00     0.084 C 
HETATM    8  C13 UNL     1     -18.818   7.188 -10.632  1.00  0.00     0.212 C 
HETATM    9  O1  UNL     1     -18.369   6.710  -9.430  1.00  0.00    -0.196 OA
HETATM   10  O6  UNL     1     -17.580   7.352 -11.324  1.00  0.00    -0.312 OA
HETATM   11  O2  UNL     1     -17.341   5.955  -9.730  1.00  0.00    -0.197 OA
HETATM   12  C14 UNL     1     -16.592   6.854 -10.477  1.00  0.00     0.200 C 
HETATM   13  C15 UNL     1     -15.524   6.230 -11.310  1.00  0.00     0.072 C 
HETATM   14  C24 UNL     1     -16.040   7.898  -9.565  1.00  0.00     0.072 C 
HETATM   15  C16 UNL     1     -14.211   6.013 -10.684  1.00  0.00     0.020 C 
HETATM   16  C17 UNL     1     -13.874   6.764  -9.456  1.00  0.00     0.093 C 
HETATM   17  C23 UNL     1     -15.026   7.245  -8.660  1.00  0.00     0.020 C 
BRANCH   7  18
HETATM   18  C7  UNL     1     -20.611   5.414 -10.955  1.00  0.00    -0.049 A 
HETATM   19  C8  UNL     1     -20.370   4.174 -10.476  1.00  0.00     0.011 A 
HETATM   20  C9  UNL     1     -21.382   3.376 -10.005  1.00  0.00     0.043 A 
HETATM   21  C10 UNL     1     -22.700   3.789  -9.993  1.00  0.00     0.116 A 
HETATM   22  F1  UNL     1     -23.727   3.051  -9.543  1.00  0.00    -0.206 F 
HETATM   23  C11 UNL     1     -22.953   5.040 -10.474  1.00  0.00     0.043 A 
HETATM   24  C12 UNL     1     -21.952   5.834 -10.942  1.00  0.00     0.011 A 
ENDBRANCH   7  18
BRANCH  16  25
HETATM   25  C18 UNL     1     -12.968   7.960  -9.784  1.00  0.00     0.295 C 
HETATM   26  O3  UNL     1     -12.126   7.763 -10.691  1.00  0.00    -0.257 OA
HETATM   27  N2  UNL     1     -13.181   9.069  -9.068  1.00  0.00    -0.386 NA
BRANCH  27  28
HETATM   28  C19 UNL     1     -13.399  10.204  -8.335  1.00  0.00     0.178 C 
BRANCH  28  29
HETATM   29  C20 UNL     1     -13.221  11.543  -9.038  1.00  0.00     0.184 C 
BRANCH  29  30
HETATM   30  N3  UNL     1     -14.503  11.870  -9.670  1.00  0.00    -0.331 N 
HETATM   31  C21 UNL     1     -14.734  11.630 -11.041  1.00  0.00     0.365 C 
HETATM   32  O4  UNL     1     -13.815  11.120 -11.742  1.00  0.00    -0.238 OA
ATOM     33  H3  UNL     1     -15.246  12.281  -9.104  1.00  0.00     0.165 HD
BRANCH  31  34
HETATM   34  O5  UNL     1     -15.933  11.942 -11.613  1.00  0.00    -0.240 OA
BRANCH  34  35
HETATM   35  C22 UNL     1     -16.957  10.988 -11.715  1.00  0.00     0.508 C 
HETATM   36  F2  UNL     1     -18.197  11.624 -11.836  1.00  0.00    -0.184 F 
HETATM   37  F3  UNL     1     -16.770  10.135 -12.778  1.00  0.00    -0.184 F 
ENDBRANCH  34  35
ENDBRANCH  31  34
ENDBRANCH  29  30
ENDBRANCH  28  29
ENDBRANCH  27  28
ENDBRANCH  16  25
ENDBRANCH   3   4
TORSDOF 8
ENDMDL
MODEL 4
REMARK VINA RESULT: -9.347984809      2.768      3.955
REMARK  8 active torsions:
REMARK  status: ('A' for Active; 'I' for Inactive)
REMARK    1  A    between atoms: C2_3  and  C3_4 
REMARK    2  A    between atoms: C6_7  and  C7_8 
REMARK    3  A    between atoms: C17_21  and  C18_22 
REMARK       I    between atoms: C18_22  and  N2_24 
REMARK    4  A    between atoms: N2_24  and  C19_25 
REMARK    5  A    between atoms: C19_25  and  C20_26 
REMARK    6  A    between atoms: C20_26  and  N3_27 
REMARK       I    between atoms: N3_27  and  C21_29 
REMARK    7  A    between atoms: C21_29  and  O5_31 
REMARK    8  A    between atoms: O5_31  and  C22_32 
ROOT
HETATM    1  N1  UNL     1     -22.669  10.732 -10.414  1.00  0.00    -0.197 NA
HETATM    2  C1  UNL     1     -21.894  10.010  -9.947  1.00  0.00     0.059 C 
HETATM    3  C2  UNL     1     -20.878   9.100  -9.345  1.00  0.00     0.134 C 
ENDROOT
BRANCH   3   4
HETATM    4  C3  UNL     1     -19.825   8.922 -10.372  1.00  0.00     0.065 C 
HETATM    5  C4  UNL     1     -20.445   9.219 -11.741  1.00  0.00     0.012 C 
HETATM    6  C5  UNL     1     -21.118   7.906 -12.081  1.00  0.00     0.015 C 
HETATM    7  C6  UNL     1     -20.234   6.815 -11.441  1.00  0.00     0.084 C 
HETATM    8  C13 UNL     1     -19.325   7.527 -10.600  1.00  0.00     0.212 C 
HETATM    9  O1  UNL     1     -18.808   6.933  -9.480  1.00  0.00    -0.196 OA
HETATM   10  O6  UNL     1     -18.131   7.747 -11.351  1.00  0.00    -0.312 OA
HETATM   11  O2  UNL     1     -17.810   6.203  -9.916  1.00  0.00    -0.197 OA
HETATM   12  C14 UNL     1     -17.098   7.165 -10.621  1.00  0.00     0.200 C 
HETATM   13  C15 UNL     1     -16.094   6.616 -11.576  1.00  0.00     0.072 C 
HETATM   14  C24 UNL     1     -16.478   8.113  -9.651  1.00  0.00     0.072 C 
HETATM   15  C16 UNL     1     -14.747   6.332 -11.059  1.00  0.00     0.020 C 
HETATM   16  C17 UNL     1     -14.323   6.959  -9.789  1.00  0.00     0.093 C 
HETATM   17  C23 UNL     1     -15.417   7.370  -8.879  1.00  0.00     0.020 C 
BRANCH   7  18
HETATM   18  C7  UNL     1     -21.158   5.804 -10.976  1.00  0.00    -0.049 A 
HETATM   19  C8  UNL     1     -20.895   4.539 -10.580  1.00  0.00     0.011 A 
HETATM   20  C9  UNL     1     -21.888   3.704 -10.132  1.00  0.00     0.043 A 
HETATM   21  C10 UNL     1     -23.207   4.104 -10.060  1.00  0.00     0.116 A 
HETATM   22  F1  UNL     1     -24.216   3.331  -9.628  1.00  0.00    -0.206 F 
HETATM   23  C11 UNL     1     -23.483   5.379 -10.457  1.00  0.00     0.043 A 
HETATM   24  C12 UNL     1     -22.501   6.210 -10.902  1.00  0.00     0.011 A 
ENDBRANCH   7  18
BRANCH  16  25
HETATM   25  C18 UNL     1     -13.424   8.176 -10.058  1.00  0.00     0.295 C 
HETATM   26  O3  UNL     1     -13.256   8.462 -11.267  1.00  0.00    -0.257 OA
HETATM   27  N2  UNL     1     -12.928   8.787  -8.978  1.00  0.00    -0.386 NA
BRANCH  27  28
HETATM   28  C19 UNL     1     -12.419   9.413  -7.872  1.00  0.00     0.178 C 
BRANCH  28  29
HETATM   29  C20 UNL     1     -11.644   8.562  -6.875  1.00  0.00     0.184 C 
BRANCH  29  30
HETATM   30  N3  UNL     1     -12.145   7.190  -7.000  1.00  0.00    -0.331 N 
HETATM   31  C21 UNL     1     -12.704   6.504  -5.901  1.00  0.00     0.365 C 
HETATM   32  O4  UNL     1     -12.777   7.087  -4.782  1.00  0.00    -0.238 OA
ATOM     33  H3  UNL     1     -12.087   6.720  -7.903  1.00  0.00     0.165 HD
BRANCH  31  34
HETATM   34  O5  UNL     1     -13.165   5.227  -6.035  1.00  0.00    -0.240 OA
BRANCH  34  35
HETATM   35  C22 UNL     1     -14.530   4.965  -6.227  1.00  0.00     0.508 C 
HETATM   36  F2  UNL     1     -14.906   3.822  -5.513  1.00  0.00    -0.184 F 
HETATM   37  F3  UNL     1     -15.321   6.025  -5.850  1.00  0.00    -0.184 F 
ENDBRANCH  34  35
ENDBRANCH  31  34
ENDBRANCH  29  30
ENDBRANCH  28  29
ENDBRANCH  27  28
ENDBRANCH  16  25
ENDBRANCH   3   4
TORSDOF 8
ENDMDL
MODEL 5
REMARK VINA RESULT: -9.311700622      3.029      4.860
REMARK  8 active torsions:
REMARK  status: ('A' for Active; 'I' for Inactive)
REMARK    1  A    between atoms: C2_3  and  C3_4 
REMARK    2  A    between atoms: C6_7  and  C7_8 
REMARK    3  A    between atoms: C17_21  and  C18_22 
REMARK       I    between atoms: C18_22  and  N2_24 
REMARK    4  A    between atoms: N2_24  and  C19_25 
REMARK    5  A    between atoms: C19_25  and  C20_26 
REMARK    6  A    between atoms: C20_26  and  N3_27 
REMARK       I    between atoms: N3_27  and  C21_29 
REMARK    7  A    between atoms: C21_29  and  O5_31 
REMARK    8  A    between atoms: O5_31  and  C22_32 
ROOT
HETATM    1  N1  UNL     1     -15.703   3.975 -10.650  1.00  0.00    -0.197 NA
HETATM    2  C1  UNL     1     -16.470   4.816 -10.868  1.00  0.00     0.059 C 
HETATM    3  C2  UNL     1     -17.440   5.907 -11.167  1.00  0.00     0.134 C 
ENDROOT
BRANCH   3   4
HETATM    4  C3  UNL     1     -16.819   7.157 -10.670  1.00  0.00     0.065 C 
HETATM    5  C4  UNL     1     -16.799   7.099  -9.139  1.00  0.00     0.012 C 
HETATM    6  C5  UNL     1     -18.199   7.552  -8.783  1.00  0.00     0.015 C 
HETATM    7  C6  UNL     1     -18.595   8.561  -9.882  1.00  0.00     0.084 C 
HETATM    8  C13 UNL     1     -17.584   8.429 -10.881  1.00  0.00     0.212 C 
HETATM    9  O1  UNL     1     -17.870   8.693 -12.194  1.00  0.00    -0.196 OA
HETATM   10  O6  UNL     1     -16.597   9.428 -10.625  1.00  0.00    -0.312 OA
HETATM   11  O2  UNL     1     -17.786   9.997 -12.302  1.00  0.00    -0.197 OA
HETATM   12  C14 UNL     1     -16.514  10.199 -11.782  1.00  0.00     0.200 C 
HETATM   13  C15 UNL     1     -16.221  11.608 -11.391  1.00  0.00     0.072 C 
HETATM   14  C24 UNL     1     -15.507   9.674 -12.749  1.00  0.00     0.072 C 
HETATM   15  C16 UNL     1     -15.689  12.505 -12.428  1.00  0.00     0.020 C 
HETATM   16  C17 UNL     1     -15.089  11.914 -13.643  1.00  0.00     0.093 C 
HETATM   17  C23 UNL     1     -15.539  10.544 -13.981  1.00  0.00     0.020 C 
BRANCH   7  18
HETATM   18  C7  UNL     1     -20.006   8.337 -10.110  1.00  0.00    -0.049 A 
HETATM   19  C8  UNL     1     -20.611   7.262 -10.661  1.00  0.00     0.011 A 
HETATM   20  C9  UNL     1     -21.977   7.188 -10.780  1.00  0.00     0.043 A 
HETATM   21  C10 UNL     1     -22.809   8.201 -10.347  1.00  0.00     0.116 A 
HETATM   22  F1  UNL     1     -24.148   8.179 -10.436  1.00  0.00    -0.206 F 
HETATM   23  C11 UNL     1     -22.207   9.290  -9.788  1.00  0.00     0.043 A 
HETATM   24  C12 UNL     1     -20.854   9.367  -9.668  1.00  0.00     0.011 A 
ENDBRANCH   7  18
BRANCH  16  25
HETATM   25  C18 UNL     1     -13.556  11.920 -13.550  1.00  0.00     0.295 C 
HETATM   26  O3  UNL     1     -12.963  11.221 -14.405  1.00  0.00    -0.257 OA
HETATM   27  N2  UNL     1     -13.033  12.668 -12.573  1.00  0.00    -0.386 NA
BRANCH  27  28
HETATM   28  C19 UNL     1     -12.496  13.433 -11.572  1.00  0.00     0.178 C 
BRANCH  28  29
HETATM   29  C20 UNL     1     -11.808  12.709 -10.423  1.00  0.00     0.184 C 
BRANCH  29  30
HETATM   30  N3  UNL     1     -12.851  12.341  -9.461  1.00  0.00    -0.331 N 
HETATM   31  C21 UNL     1     -12.797  11.129  -8.739  1.00  0.00     0.365 C 
HETATM   32  O4  UNL     1     -11.825  10.343  -8.925  1.00  0.00    -0.238 OA
ATOM     33  H3  UNL     1     -13.635  12.975  -9.310  1.00  0.00     0.165 HD
BRANCH  31  34
HETATM   34  O5  UNL     1     -13.777  10.802  -7.848  1.00  0.00    -0.240 OA
BRANCH  34  35
HETATM   35  C22 UNL     1     -14.388   9.539  -7.873  1.00  0.00     0.508 C 
HETATM   36  F2  UNL     1     -13.678   8.644  -7.066  1.00  0.00    -0.184 F 
HETATM   37  F3  UNL     1     -15.700   9.588  -7.464  1.00  0.00    -0.184 F 
ENDBRANCH  34  35
ENDBRANCH  31  34
ENDBRANCH  29  30
ENDBRANCH  28  29
ENDBRANCH  27  28
ENDBRANCH  16  25
ENDBRANCH   3   4
TORSDOF 8
ENDMDL
