MODEL 1
REMARK VINA RESULT: -8.892492850      0.000      0.000
REMARK  8 active torsions:
REMARK  status: ('A' for Active; 'I' for Inactive)
REMARK    1  A    between atoms: O1_2  and  C2_3 
REMARK    2  A    between atoms: C2_3  and  C3_5 
REMARK    3  A    between atoms: C3_5  and  C4_6 
REMARK    4  A    between atoms: C4_6  and  C5_7 
REMARK    5  A    between atoms: C5_7  and  N1_8 
REMARK    6  A    between atoms: C8_12  and  C9_13 
REMARK    7  A    between atoms: N2_15  and  N3_17 
REMARK    8  A    between atoms: N3_17  and  C10_19 
ROOT
HETATM    1  C9  UNL     1     -18.403   8.284 -10.866  1.00  0.00     0.119 C 
HETATM    2 CL1  UNL     1     -17.774   9.697 -11.665  1.00  0.00    -0.063 Cl
HETATM    3  N2  UNL     1     -19.125   7.479 -11.533  1.00  0.00    -0.289 N 
ATOM      4  H2  UNL     1     -19.303   7.707 -12.512  1.00  0.00     0.188 HD
ENDROOT
BRANCH   3   5
HETATM    5  N3  UNL     1     -19.703   6.290 -11.022  1.00  0.00    -0.298 N 
ATOM      6  H3  UNL     1     -19.160   5.447 -10.840  1.00  0.00     0.187 HD
BRANCH   5   7
HETATM    7  C10 UNL     1     -21.098   6.372 -10.785  1.00  0.00     0.069 A 
HETATM    8  C11 UNL     1     -21.778   7.572 -10.844  1.00  0.00     0.106 A 
HETATM    9  C12 UNL     1     -23.141   7.689 -10.630  1.00  0.00     0.248 A 
HETATM   10  O4  UNL     1     -23.778   8.766 -10.677  1.00  0.00    -0.268 OA
HETATM   11  N4  UNL     1     -23.774   6.536 -10.355  1.00  0.00    -0.320 N 
HETATM   12  C13 UNL     1     -23.178   5.353 -10.286  1.00  0.00     0.089 A 
ATOM     13  H4  UNL     1     -24.780   6.573 -10.189  1.00  0.00     0.169 HD
HETATM   14  C14 UNL     1     -23.890   4.188 -10.015  1.00  0.00     0.144 A 
HETATM   15  C18 UNL     1     -21.800   5.222 -10.500  1.00  0.00     0.061 A 
HETATM   16  F1  UNL     1     -25.238   4.334  -9.803  1.00  0.00    -0.204 F 
HETATM   17  C15 UNL     1     -23.319   2.937  -9.949  1.00  0.00     0.048 A 
HETATM   18  C16 UNL     1     -21.978   2.821 -10.158  1.00  0.00     0.046 A 
HETATM   19  C17 UNL     1     -21.228   3.968 -10.432  1.00  0.00     0.131 A 
HETATM   20  F2  UNL     1     -19.894   3.841 -10.627  1.00  0.00    -0.205 F 
ENDBRANCH   5   7
ENDBRANCH   3   5
BRANCH   1  21
HETATM   21  C8  UNL     1     -18.092   8.056  -9.470  1.00  0.00     0.068 C 
HETATM   22  C7  UNL     1     -16.957   7.570  -9.046  1.00  0.00     0.079 C 
HETATM   23  C6  UNL     1     -16.439   7.268  -7.725  1.00  0.00     0.266 C 
HETATM   24  S1  UNL     1     -15.569   7.005 -10.096  1.00  0.00    -0.055 SA
HETATM   25  N1  UNL     1     -15.485   6.224  -7.686  1.00  0.00    -0.298 N 
HETATM   26  O3  UNL     1     -16.845   7.930  -6.691  1.00  0.00    -0.266 OA
HETATM   27  C19 UNL     1     -15.179   5.636  -8.939  1.00  0.00     0.148 C 
HETATM   28  S2  UNL     1     -14.642   4.163  -9.316  1.00  0.00    -0.052 SA
BRANCH  25  29
HETATM   29  C5  UNL     1     -14.846   5.764  -6.436  1.00  0.00     0.134 C 
BRANCH  29  30
HETATM   30  C4  UNL     1     -13.850   6.739  -5.896  1.00  0.00     0.030 C 
BRANCH  30  31
HETATM   31  C3  UNL     1     -12.805   7.025  -6.980  1.00  0.00     0.113 C 
BRANCH  31  32
HETATM   32  C2  UNL     1     -12.617   8.483  -7.172  1.00  0.00     0.258 C 
HETATM   33  O2  UNL     1     -11.460   8.909  -7.484  1.00  0.00    -0.265 OA
BRANCH  32  34
HETATM   34  O1  UNL     1     -13.652   9.414  -7.030  1.00  0.00    -0.326 OA
HETATM   35  C1  UNL     1     -14.067  10.108  -8.213  1.00  0.00     0.213 C 
ENDBRANCH  32  34
ENDBRANCH  31  32
ENDBRANCH  30  31
ENDBRANCH  29  30
ENDBRANCH  25  29
ENDBRANCH   1  21
TORSDOF 8
ENDMDL
MODEL 2
REMARK VINA RESULT: -8.877876218      0.493      1.017
REMARK  8 active torsions:
REMARK  status: ('A' for Active; 'I' for Inactive)
REMARK    1  A    between atoms: O1_2  and  C2_3 
REMARK    2  A    between atoms: C2_3  and  C3_5 
REMARK    3  A    between atoms: C3_5  and  C4_6 
REMARK    4  A    between atoms: C4_6  and  C5_7 
REMARK    5  A    between atoms: C5_7  and  N1_8 
REMARK    6  A    between atoms: C8_12  and  C9_13 
REMARK    7  A    between atoms: N2_15  and  N3_17 
REMARK    8  A    between atoms: N3_17  and  C10_19 
ROOT
HETATM    1  C9  UNL     1     -18.464   8.277 -10.874  1.00  0.00     0.119 C 
HETATM    2 CL1  UNL     1     -17.832   9.679 -11.689  1.00  0.00    -0.063 Cl
HETATM    3  N2  UNL     1     -19.170   7.455 -11.537  1.00  0.00    -0.289 N 
ATOM      4  H2  UNL     1     -19.334   7.662 -12.522  1.00  0.00     0.188 HD
ENDROOT
BRANCH   3   5
HETATM    5  N3  UNL     1     -19.747   6.271 -11.012  1.00  0.00    -0.298 N 
ATOM      6  H3  UNL     1     -19.204   5.429 -10.824  1.00  0.00     0.187 HD
BRANCH   5   7
HETATM    7  C10 UNL     1     -21.141   6.357 -10.772  1.00  0.00     0.069 A 
HETATM    8  C11 UNL     1     -21.818   7.559 -10.830  1.00  0.00     0.106 A 
HETATM    9  C12 UNL     1     -23.181   7.679 -10.612  1.00  0.00     0.248 A 
HETATM   10  O4  UNL     1     -23.815   8.758 -10.658  1.00  0.00    -0.268 OA
HETATM   11  N4  UNL     1     -23.816   6.528 -10.334  1.00  0.00    -0.320 N 
HETATM   12  C13 UNL     1     -23.222   5.343 -10.265  1.00  0.00     0.089 A 
ATOM     13  H4  UNL     1     -24.821   6.568 -10.164  1.00  0.00     0.169 HD
HETATM   14  C14 UNL     1     -23.937   4.180  -9.990  1.00  0.00     0.144 A 
HETATM   15  C18 UNL     1     -21.845   5.209 -10.483  1.00  0.00     0.061 A 
HETATM   16  F1  UNL     1     -25.284   4.330  -9.775  1.00  0.00    -0.204 F 
HETATM   17  C15 UNL     1     -23.368   2.928  -9.924  1.00  0.00     0.048 A 
HETATM   18  C16 UNL     1     -22.029   2.809 -10.137  1.00  0.00     0.046 A 
HETATM   19  C17 UNL     1     -21.277   3.953 -10.415  1.00  0.00     0.131 A 
HETATM   20  F2  UNL     1     -19.944   3.823 -10.614  1.00  0.00    -0.205 F 
ENDBRANCH   5   7
ENDBRANCH   3   5
BRANCH   1  21
HETATM   21  C8  UNL     1     -18.173   8.077  -9.469  1.00  0.00     0.068 C 
HETATM   22  C7  UNL     1     -17.071   7.538  -9.022  1.00  0.00     0.079 C 
HETATM   23  C6  UNL     1     -16.578   7.249  -7.689  1.00  0.00     0.266 C 
HETATM   24  S1  UNL     1     -15.715   6.856 -10.044  1.00  0.00    -0.055 SA
HETATM   25  N1  UNL     1     -15.689   6.151  -7.609  1.00  0.00    -0.298 N 
HETATM   26  O3  UNL     1     -16.948   7.969  -6.680  1.00  0.00    -0.266 OA
HETATM   27  C19 UNL     1     -15.414   5.504  -8.840  1.00  0.00     0.148 C 
HETATM   28  S2  UNL     1     -14.965   3.991  -9.166  1.00  0.00    -0.052 SA
BRANCH  25  29
HETATM   29  C5  UNL     1     -15.084   5.695  -6.341  1.00  0.00     0.134 C 
BRANCH  29  30
HETATM   30  C4  UNL     1     -14.031   6.625  -5.828  1.00  0.00     0.030 C 
BRANCH  30  31
HETATM   31  C3  UNL     1     -12.992   6.846  -6.932  1.00  0.00     0.113 C 
BRANCH  31  32
HETATM   32  C2  UNL     1     -12.625   8.278  -7.045  1.00  0.00     0.258 C 
HETATM   33  O2  UNL     1     -13.559   9.142  -7.082  1.00  0.00    -0.265 OA
BRANCH  32  34
HETATM   34  O1  UNL     1     -11.302   8.727  -7.110  1.00  0.00    -0.326 OA
HETATM   35  C1  UNL     1     -10.345   8.048  -6.287  1.00  0.00     0.213 C 
ENDBRANCH  32  34
ENDBRANCH  31  32
ENDBRANCH  30  31
ENDBRANCH  29  30
ENDBRANCH  25  29
ENDBRANCH   1  21
TORSDOF 8
ENDMDL
MODEL 3
REMARK VINA RESULT: -8.740800531      2.217      3.303
REMARK  8 active torsions:
REMARK  status: ('A' for Active; 'I' for Inactive)
REMARK    1  A    between atoms: O1_2  and  C2_3 
REMARK    2  A    between atoms: C2_3  and  C3_5 
REMARK    3  A    between atoms: C3_5  and  C4_6 
REMARK    4  A    between atoms: C4_6  and  C5_7 
REMARK    5  A    between atoms: C5_7  and  N1_8 
REMARK    6  A    between atoms: C8_12  and  C9_13 
REMARK    7  A    between atoms: N2_15  and  N3_17 
REMARK    8  A    between atoms: N3_17  and  C10_19 
ROOT
HETATM    1  C9  UNL     1     -18.327   8.240 -10.743  1.00  0.00     0.119 C 
HETATM    2 CL1  UNL     1     -17.677   9.696 -11.441  1.00  0.00    -0.063 Cl
HETATM    3  N2  UNL     1     -19.109   7.526 -11.445  1.00  0.00    -0.289 N 
ATOM      4  H2  UNL     1     -19.318   7.846 -12.390  1.00  0.00     0.188 HD
ENDROOT
BRANCH   3   5
HETATM    5  N3  UNL     1     -19.710   6.316 -11.015  1.00  0.00    -0.298 N 
ATOM      6  H3  UNL     1     -19.184   5.453 -10.887  1.00  0.00     0.187 HD
BRANCH   5   7
HETATM    7  C10 UNL     1     -21.105   6.409 -10.778  1.00  0.00     0.069 A 
HETATM    8  C11 UNL     1     -21.776   7.614 -10.840  1.00  0.00     0.106 A 
HETATM    9  C12 UNL     1     -23.139   7.741 -10.625  1.00  0.00     0.248 A 
HETATM   10  O4  UNL     1     -23.768   8.822 -10.675  1.00  0.00    -0.268 OA
HETATM   11  N4  UNL     1     -23.780   6.593 -10.348  1.00  0.00    -0.320 N 
HETATM   12  C13 UNL     1     -23.192   5.405 -10.277  1.00  0.00     0.089 A 
ATOM     13  H4  UNL     1     -24.786   6.637 -10.182  1.00  0.00     0.169 HD
HETATM   14  C14 UNL     1     -23.913   4.246 -10.003  1.00  0.00     0.144 A 
HETATM   15  C18 UNL     1     -21.815   5.264 -10.491  1.00  0.00     0.061 A 
HETATM   16  F1  UNL     1     -25.260   4.402  -9.791  1.00  0.00    -0.204 F 
HETATM   17  C15 UNL     1     -23.350   2.991  -9.934  1.00  0.00     0.048 A 
HETATM   18  C16 UNL     1     -22.010   2.866 -10.143  1.00  0.00     0.046 A 
HETATM   19  C17 UNL     1     -21.252   4.006 -10.420  1.00  0.00     0.131 A 
HETATM   20  F2  UNL     1     -19.919   3.870 -10.615  1.00  0.00    -0.205 F 
ENDBRANCH   5   7
ENDBRANCH   3   5
BRANCH   1  21
HETATM   21  C8  UNL     1     -17.966   7.876  -9.388  1.00  0.00     0.068 C 
HETATM   22  C7  UNL     1     -16.891   7.205  -9.076  1.00  0.00     0.079 C 
HETATM   23  C6  UNL     1     -16.342   6.743  -7.815  1.00  0.00     0.266 C 
HETATM   24  S1  UNL     1     -15.670   6.520 -10.253  1.00  0.00    -0.055 SA
HETATM   25  N1  UNL     1     -15.551   5.573  -7.905  1.00  0.00    -0.298 N 
HETATM   26  O3  UNL     1     -16.581   7.385  -6.718  1.00  0.00    -0.266 OA
HETATM   27  C19 UNL     1     -15.415   5.033  -9.209  1.00  0.00     0.148 C 
HETATM   28  S2  UNL     1     -15.125   3.528  -9.709  1.00  0.00    -0.052 SA
BRANCH  25  29
HETATM   29  C5  UNL     1     -14.910   4.942  -6.733  1.00  0.00     0.134 C 
BRANCH  29  30
HETATM   30  C4  UNL     1     -15.861   4.127  -5.916  1.00  0.00     0.030 C 
BRANCH  30  31
HETATM   31  C3  UNL     1     -15.536   2.643  -6.119  1.00  0.00     0.113 C 
BRANCH  31  32
HETATM   32  C2  UNL     1     -15.681   1.884  -4.855  1.00  0.00     0.258 C 
HETATM   33  O2  UNL     1     -16.849   1.720  -4.377  1.00  0.00    -0.265 OA
BRANCH  32  34
HETATM   34  O1  UNL     1     -14.597   1.336  -4.161  1.00  0.00    -0.326 OA
HETATM   35  C1  UNL     1     -13.287   1.728  -4.591  1.00  0.00     0.213 C 
ENDBRANCH  32  34
ENDBRANCH  31  32
ENDBRANCH  30  31
ENDBRANCH  29  30
ENDBRANCH  25  29
ENDBRANCH   1  21
TORSDOF 8
ENDMDL
MODEL 4
REMARK VINA RESULT: -8.552302560      1.118      1.321
REMARK  8 active torsions:
REMARK  status: ('A' for Active; 'I' for Inactive)
REMARK    1  A    between atoms: O1_2  and  C2_3 
REMARK    2  A    between atoms: C2_3  and  C3_5 
REMARK    3  A    between atoms: C3_5  and  C4_6 
REMARK    4  A    between atoms: C4_6  and  C5_7 
REMARK    5  A    between atoms: C5_7  and  N1_8 
REMARK    6  A    between atoms: C8_12  and  C9_13 
REMARK    7  A    between atoms: N2_15  and  N3_17 
REMARK    8  A    between atoms: N3_17  and  C10_19 
ROOT
HETATM    1  C9  UNL     1     -18.294   8.200 -10.687  1.00  0.00     0.119 C 
HETATM    2 CL1  UNL     1     -17.650   9.713 -11.256  1.00  0.00    -0.063 Cl
HETATM    3  N2  UNL     1     -19.130   7.582 -11.417  1.00  0.00    -0.289 N 
ATOM      4  H2  UNL     1     -19.385   8.010 -12.306  1.00  0.00     0.188 HD
ENDROOT
BRANCH   3   5
HETATM    5  N3  UNL     1     -19.736   6.343 -11.089  1.00  0.00    -0.298 N 
ATOM      6  H3  UNL     1     -19.215   5.467 -11.049  1.00  0.00     0.187 HD
BRANCH   5   7
HETATM    7  C10 UNL     1     -21.125   6.424 -10.821  1.00  0.00     0.069 A 
HETATM    8  C11 UNL     1     -21.808   7.623 -10.868  1.00  0.00     0.106 A 
HETATM    9  C12 UNL     1     -23.167   7.738 -10.622  1.00  0.00     0.248 A 
HETATM   10  O4  UNL     1     -23.806   8.814 -10.658  1.00  0.00    -0.268 OA
HETATM   11  N4  UNL     1     -23.791   6.585 -10.330  1.00  0.00    -0.320 N 
HETATM   12  C13 UNL     1     -23.192   5.403 -10.271  1.00  0.00     0.089 A 
ATOM     13  H4  UNL     1     -24.793   6.621 -10.141  1.00  0.00     0.169 HD
HETATM   14  C14 UNL     1     -23.896   4.237  -9.980  1.00  0.00     0.144 A 
HETATM   15  C18 UNL     1     -21.818   5.273 -10.516  1.00  0.00     0.061 A 
HETATM   16  F1  UNL     1     -25.239   4.382  -9.738  1.00  0.00    -0.204 F 
HETATM   17  C15 UNL     1     -23.321   2.987  -9.923  1.00  0.00     0.048 A 
HETATM   18  C16 UNL     1     -21.985   2.874 -10.162  1.00  0.00     0.046 A 
HETATM   19  C17 UNL     1     -21.244   4.020 -10.457  1.00  0.00     0.131 A 
HETATM   20  F2  UNL     1     -19.914   3.895 -10.682  1.00  0.00    -0.205 F 
ENDBRANCH   5   7
ENDBRANCH   3   5
BRANCH   1  21
HETATM   21  C8  UNL     1     -17.866   7.681  -9.404  1.00  0.00     0.068 C 
HETATM   22  C7  UNL     1     -16.837   6.895  -9.243  1.00  0.00     0.079 C 
HETATM   23  C6  UNL     1     -16.238   6.271  -8.077  1.00  0.00     0.266 C 
HETATM   24  S1  UNL     1     -15.776   6.222 -10.574  1.00  0.00    -0.055 SA
HETATM   25  N1  UNL     1     -15.568   5.051  -8.335  1.00  0.00    -0.298 N 
HETATM   26  O3  UNL     1     -16.333   6.824  -6.913  1.00  0.00    -0.266 OA
HETATM   27  C19 UNL     1     -15.581   4.628  -9.688  1.00  0.00     0.148 C 
HETATM   28  S2  UNL     1     -15.470   3.157 -10.340  1.00  0.00    -0.052 SA
BRANCH  25  29
HETATM   29  C5  UNL     1     -14.901   4.261  -7.281  1.00  0.00     0.134 C 
BRANCH  29  30
HETATM   30  C4  UNL     1     -13.411   4.248  -7.415  1.00  0.00     0.030 C 
BRANCH  30  31
HETATM   31  C3  UNL     1     -12.800   4.880  -6.160  1.00  0.00     0.113 C 
BRANCH  31  32
HETATM   32  C2  UNL     1     -12.884   6.359  -6.208  1.00  0.00     0.258 C 
HETATM   33  O2  UNL     1     -13.102   6.990  -5.124  1.00  0.00    -0.265 OA
BRANCH  32  34
HETATM   34  O1  UNL     1     -12.734   7.097  -7.387  1.00  0.00    -0.326 OA
HETATM   35  C1  UNL     1     -13.232   8.441  -7.378  1.00  0.00     0.213 C 
ENDBRANCH  32  34
ENDBRANCH  31  32
ENDBRANCH  30  31
ENDBRANCH  29  30
ENDBRANCH  25  29
ENDBRANCH   1  21
TORSDOF 8
ENDMDL
MODEL 5
REMARK VINA RESULT: -8.486348210      3.096      4.003
REMARK  8 active torsions:
REMARK  status: ('A' for Active; 'I' for Inactive)
REMARK    1  A    between atoms: O1_2  and  C2_3 
REMARK    2  A    between atoms: C2_3  and  C3_5 
REMARK    3  A    between atoms: C3_5  and  C4_6 
REMARK    4  A    between atoms: C4_6  and  C5_7 
REMARK    5  A    between atoms: C5_7  and  N1_8 
REMARK    6  A    between atoms: C8_12  and  C9_13 
REMARK    7  A    between atoms: N2_15  and  N3_17 
REMARK    8  A    between atoms: N3_17  and  C10_19 
ROOT
HETATM    1  C9  UNL     1     -20.973   9.067 -10.128  1.00  0.00     0.119 C 
HETATM    2 CL1  UNL     1     -21.462  10.030  -8.763  1.00  0.00    -0.063 Cl
HETATM    3  N2  UNL     1     -21.681   8.062 -10.448  1.00  0.00    -0.289 N 
ATOM      4  H2  UNL     1     -22.506   7.867  -9.881  1.00  0.00     0.188 HD
ENDROOT
BRANCH   3   5
HETATM    5  N3  UNL     1     -21.412   7.189 -11.532  1.00  0.00    -0.298 N 
ATOM      6  H3  UNL     1     -21.531   7.467 -12.506  1.00  0.00     0.187 HD
BRANCH   5   7
HETATM    7  C10 UNL     1     -20.965   5.900 -11.149  1.00  0.00     0.069 A 
HETATM    8  C11 UNL     1     -19.626   5.561 -11.159  1.00  0.00     0.106 A 
HETATM    9  C12 UNL     1     -19.151   4.316 -10.782  1.00  0.00     0.248 A 
HETATM   10  O4  UNL     1     -17.944   3.986 -10.784  1.00  0.00    -0.268 OA
HETATM   11  N4  UNL     1     -20.095   3.440 -10.396  1.00  0.00    -0.320 N 
HETATM   12  C13 UNL     1     -21.394   3.706 -10.364  1.00  0.00     0.089 A 
ATOM     13  H4  UNL     1     -19.792   2.509 -10.110  1.00  0.00     0.169 HD
HETATM   14  C14 UNL     1     -22.326   2.763  -9.937  1.00  0.00     0.144 A 
HETATM   15  C18 UNL     1     -21.887   4.961 -10.744  1.00  0.00     0.061 A 
HETATM   16  F1  UNL     1     -21.827   1.537  -9.573  1.00  0.00    -0.204 F 
HETATM   17  C15 UNL     1     -23.681   2.998  -9.871  1.00  0.00     0.048 A 
HETATM   18  C16 UNL     1     -24.148   4.221 -10.244  1.00  0.00     0.046 A 
HETATM   19  C17 UNL     1     -23.246   5.195 -10.678  1.00  0.00     0.131 A 
HETATM   20  F2  UNL     1     -23.725   6.403 -11.057  1.00  0.00    -0.205 F 
ENDBRANCH   5   7
ENDBRANCH   3   5
BRANCH   1  21
HETATM   21  C8  UNL     1     -19.781   9.429 -10.866  1.00  0.00     0.068 C 
HETATM   22  C7  UNL     1     -18.595   8.942 -10.620  1.00  0.00     0.079 C 
HETATM   23  C6  UNL     1     -17.291   9.155 -11.220  1.00  0.00     0.266 C 
HETATM   24  S1  UNL     1     -18.167   7.783  -9.271  1.00  0.00    -0.055 SA
HETATM   25  N1  UNL     1     -16.197   8.962 -10.344  1.00  0.00    -0.298 N 
HETATM   26  O3  UNL     1     -17.186   9.491 -12.464  1.00  0.00    -0.266 OA
HETATM   27  C19 UNL     1     -16.539   8.590  -9.019  1.00  0.00     0.148 C 
HETATM   28  S2  UNL     1     -15.759   8.800  -7.624  1.00  0.00    -0.052 SA
BRANCH  25  29
HETATM   29  C5  UNL     1     -14.791   9.138 -10.762  1.00  0.00     0.134 C 
BRANCH  29  30
HETATM   30  C4  UNL     1     -14.441  10.562 -11.053  1.00  0.00     0.030 C 
BRANCH  30  31
HETATM   31  C3  UNL     1     -14.298  11.314  -9.726  1.00  0.00     0.113 C 
BRANCH  31  32
HETATM   32  C2  UNL     1     -12.883  11.666  -9.459  1.00  0.00     0.258 C 
HETATM   33  O2  UNL     1     -12.110  10.766  -9.000  1.00  0.00    -0.265 OA
BRANCH  32  34
HETATM   34  O1  UNL     1     -12.354  12.941  -9.690  1.00  0.00    -0.326 OA
HETATM   35  C1  UNL     1     -11.480  13.086 -10.817  1.00  0.00     0.213 C 
ENDBRANCH  32  34
ENDBRANCH  31  32
ENDBRANCH  30  31
ENDBRANCH  29  30
ENDBRANCH  25  29
ENDBRANCH   1  21
TORSDOF 8
ENDMDL
