MODEL 1
REMARK VINA RESULT: -8.974801280      0.000      0.000
REMARK  8 active torsions:
REMARK  status: ('A' for Active; 'I' for Inactive)
REMARK    1  A    between atoms: C4_6  and  N2_7 
REMARK    2  A    between atoms: N2_7  and  C5_9 
REMARK    3  A    between atoms: N4_13  and  C7_14 
REMARK    4  A    between atoms: C7_14  and  C8_15 
REMARK    5  A    between atoms: C8_15  and  S1_16 
REMARK    6  A    between atoms: S1_16  and  C9_17 
REMARK    7  A    between atoms: C9_17  and  C10_18 
REMARK    8  A    between atoms: C13_24  and  C14_25 
ROOT
HETATM    1  C1  UNL     1     -21.851   4.757 -10.711  1.00  0.00     0.019 C 
HETATM    2  C2  UNL     1     -22.938   4.269 -10.459  1.00  0.00    -0.056 C 
HETATM    3  C3  UNL     1     -24.209   3.676 -10.148  1.00  0.00     0.126 A 
HETATM    4  N1  UNL     1     -24.358   3.106  -8.958  1.00  0.00    -0.332 N 
ATOM      5  H1  UNL     1     -23.585   3.097  -8.293  1.00  0.00     0.168 HD
HETATM    6  C4  UNL     1     -25.534   2.542  -8.635  1.00  0.00     0.122 A 
HETATM    7  C20 UNL     1     -26.566   2.555  -9.528  1.00  0.00     0.137 A 
HETATM    8  N7  UNL     1     -26.390   3.143 -10.736  1.00  0.00    -0.351 N 
ATOM      9  H7  UNL     1     -27.162   3.153 -11.403  1.00  0.00     0.166 HD
HETATM   10  C21 UNL     1     -25.223   3.711 -11.076  1.00  0.00     0.139 A 
HETATM   11 CL3  UNL     1     -25.038   4.454 -12.639  1.00  0.00    -0.061 Cl
ENDROOT
BRANCH   6  12
HETATM   12  N2  UNL     1     -25.640   1.997  -7.464  1.00  0.00    -0.339 N 
ATOM     13  H2  UNL     1     -25.362   1.023  -7.341  1.00  0.00     0.167 HD
BRANCH  12  14
HETATM   14  C5  UNL     1     -26.137   2.728  -6.342  1.00  0.00     0.068 A 
HETATM   15  C6  UNL     1     -26.330   4.084  -6.292  1.00  0.00     0.138 A 
HETATM   16  N3  UNL     1     -26.802   4.345  -5.056  1.00  0.00    -0.308 N 
HETATM   17  N4  UNL     1     -26.903   3.231  -4.366  1.00  0.00    -0.301 N 
ATOM     18  H3  UNL     1     -27.045   5.273  -4.708  1.00  0.00     0.186 HD
HETATM   19  C19 UNL     1     -26.509   2.215  -5.108  1.00  0.00     0.141 A 
BRANCH  17  20
HETATM   20  C7  UNL     1     -27.389   3.182  -2.971  1.00  0.00     0.158 C 
BRANCH  20  21
HETATM   21  C8  UNL     1     -26.321   2.459  -2.201  1.00  0.00     0.095 C 
BRANCH  21  22
HETATM   22  S1  UNL     1     -26.819   1.175  -1.100  1.00  0.00    -0.167 SA
BRANCH  22  23
HETATM   23  C9  UNL     1     -26.287  -0.477  -1.463  1.00  0.00     0.080 C 
BRANCH  23  24
HETATM   24  C10 UNL     1     -27.316  -1.297  -2.109  1.00  0.00     0.032 C 
HETATM   25  C11 UNL     1     -28.038  -0.614  -3.273  1.00  0.00     0.238 C 
HETATM   26  N5  UNL     1     -28.965  -1.668  -3.636  1.00  0.00    -0.074 N 
HETATM   27  C12 UNL     1     -28.193  -2.887  -3.593  1.00  0.00     0.243 C 
ATOM     28  H52 UNL     1     -29.805  -1.693  -3.058  1.00  0.00     0.277 HD
ATOM     29  H51 UNL     1     -29.436  -1.512  -4.526  1.00  0.00     0.277 HD
HETATM   30  C13 UNL     1     -26.968  -2.598  -2.698  1.00  0.00     0.069 C 
BRANCH  30  31
HETATM   31  C14 UNL     1     -25.807  -2.666  -3.582  1.00  0.00     0.037 A 
HETATM   32  N6  UNL     1     -25.747  -2.243  -4.844  1.00  0.00    -0.366 N 
HETATM   33  C15 UNL     1     -24.680  -2.325  -5.639  1.00  0.00     0.112 A 
ATOM     34  H6  UNL     1     -26.588  -1.820  -5.235  1.00  0.00     0.165 HD
HETATM   35  C16 UNL     1     -23.499  -2.887  -5.181  1.00  0.00     0.051 A 
HETATM   36 CL1  UNL     1     -22.070  -3.016  -6.190  1.00  0.00    -0.083 Cl
HETATM   37  C17 UNL     1     -23.504  -3.346  -3.870  1.00  0.00     0.051 A 
HETATM   38  C18 UNL     1     -24.634  -3.237  -3.086  1.00  0.00     0.058 A 
HETATM   39 CL2  UNL     1     -24.610  -3.824  -1.439  1.00  0.00    -0.082 Cl
ENDBRANCH  30  31
ENDBRANCH  23  24
ENDBRANCH  22  23
ENDBRANCH  21  22
ENDBRANCH  20  21
ENDBRANCH  17  20
ENDBRANCH  12  14
ENDBRANCH   6  12
TORSDOF 8
ENDMDL
MODEL 2
REMARK VINA RESULT: -8.740623955      5.101     11.246
REMARK  8 active torsions:
REMARK  status: ('A' for Active; 'I' for Inactive)
REMARK    1  A    between atoms: C4_6  and  N2_7 
REMARK    2  A    between atoms: N2_7  and  C5_9 
REMARK    3  A    between atoms: N4_13  and  C7_14 
REMARK    4  A    between atoms: C7_14  and  C8_15 
REMARK    5  A    between atoms: C8_15  and  S1_16 
REMARK    6  A    between atoms: S1_16  and  C9_17 
REMARK    7  A    between atoms: C9_17  and  C10_18 
REMARK    8  A    between atoms: C13_24  and  C14_25 
ROOT
HETATM    1  C1  UNL     1     -27.626   0.598  -2.326  1.00  0.00     0.019 C 
HETATM    2  C2  UNL     1     -27.321   1.359  -3.225  1.00  0.00    -0.056 C 
HETATM    3  C3  UNL     1     -26.939   2.243  -4.293  1.00  0.00     0.126 A 
HETATM    4  N1  UNL     1     -26.402   1.708  -5.384  1.00  0.00    -0.332 N 
ATOM      5  H1  UNL     1     -26.269   0.700  -5.450  1.00  0.00     0.168 HD
HETATM    6  C4  UNL     1     -26.035   2.507  -6.400  1.00  0.00     0.122 A 
HETATM    7  C20 UNL     1     -26.213   3.857  -6.308  1.00  0.00     0.137 A 
HETATM    8  N7  UNL     1     -26.763   4.378  -5.186  1.00  0.00    -0.351 N 
ATOM      9  H7  UNL     1     -26.897   5.386  -5.117  1.00  0.00     0.166 HD
HETATM   10  C21 UNL     1     -27.136   3.597  -4.160  1.00  0.00     0.139 A 
HETATM   11 CL3  UNL     1     -27.838   4.307  -2.735  1.00  0.00    -0.061 Cl
ENDROOT
BRANCH   6  12
HETATM   12  N2  UNL     1     -25.515   1.947  -7.448  1.00  0.00    -0.339 N 
ATOM     13  H2  UNL     1     -25.010   1.067  -7.343  1.00  0.00     0.167 HD
BRANCH  12  14
HETATM   14  C5  UNL     1     -25.635   2.534  -8.744  1.00  0.00     0.068 A 
HETATM   15  C6  UNL     1     -26.745   2.486  -9.545  1.00  0.00     0.138 A 
HETATM   16  N3  UNL     1     -26.420   3.159 -10.668  1.00  0.00    -0.308 N 
HETATM   17  N4  UNL     1     -25.186   3.605 -10.588  1.00  0.00    -0.301 N 
ATOM     18  H3  UNL     1     -27.041   3.301 -11.465  1.00  0.00     0.186 HD
HETATM   19  C19 UNL     1     -24.663   3.249  -9.430  1.00  0.00     0.141 A 
BRANCH  17  20
HETATM   20  C7  UNL     1     -24.531   4.380 -11.661  1.00  0.00     0.158 C 
BRANCH  20  21
HETATM   21  C8  UNL     1     -23.133   4.636 -11.175  1.00  0.00     0.095 C 
BRANCH  21  22
HETATM   22  S1  UNL     1     -22.676   6.298 -10.806  1.00  0.00    -0.167 SA
BRANCH  22  23
HETATM   23  C9  UNL     1     -21.218   6.946 -11.580  1.00  0.00     0.080 C 
BRANCH  23  24
HETATM   24  C10 UNL     1     -21.163   8.411 -11.597  1.00  0.00     0.032 C 
HETATM   25  C11 UNL     1     -21.867   9.089 -10.419  1.00  0.00     0.238 C 
HETATM   26  N5  UNL     1     -21.640  10.478 -10.769  1.00  0.00    -0.074 N 
HETATM   27  C12 UNL     1     -20.267  10.542 -11.207  1.00  0.00     0.243 C 
ATOM     28  H52 UNL     1     -22.306  10.845 -11.449  1.00  0.00     0.277 HD
ATOM     29  H51 UNL     1     -21.863  11.131 -10.019  1.00  0.00     0.277 HD
HETATM   30  C13 UNL     1     -19.868   9.105 -11.609  1.00  0.00     0.069 C 
BRANCH  30  31
HETATM   31  C14 UNL     1     -18.854   8.691 -10.641  1.00  0.00     0.037 A 
HETATM   32  N6  UNL     1     -19.076   8.185  -9.429  1.00  0.00    -0.366 N 
HETATM   33  C15 UNL     1     -18.136   7.825  -8.556  1.00  0.00     0.112 A 
ATOM     34  H6  UNL     1     -20.048   8.064  -9.144  1.00  0.00     0.165 HD
HETATM   35  C16 UNL     1     -16.793   7.960  -8.868  1.00  0.00     0.051 A 
HETATM   36 CL1  UNL     1     -15.520   7.498  -7.751  1.00  0.00    -0.083 Cl
HETATM   37  C17 UNL     1     -16.501   8.482 -10.121  1.00  0.00     0.051 A 
HETATM   38  C18 UNL     1     -17.511   8.840 -10.991  1.00  0.00     0.058 A 
HETATM   39 CL2  UNL     1     -17.114   9.495 -12.562  1.00  0.00    -0.082 Cl
ENDBRANCH  30  31
ENDBRANCH  23  24
ENDBRANCH  22  23
ENDBRANCH  21  22
ENDBRANCH  20  21
ENDBRANCH  17  20
ENDBRANCH  12  14
ENDBRANCH   6  12
TORSDOF 8
ENDMDL
MODEL 3
REMARK VINA RESULT: -8.730234179      1.637      2.048
REMARK  8 active torsions:
REMARK  status: ('A' for Active; 'I' for Inactive)
REMARK    1  A    between atoms: C4_6  and  N2_7 
REMARK    2  A    between atoms: N2_7  and  C5_9 
REMARK    3  A    between atoms: N4_13  and  C7_14 
REMARK    4  A    between atoms: C7_14  and  C8_15 
REMARK    5  A    between atoms: C8_15  and  S1_16 
REMARK    6  A    between atoms: S1_16  and  C9_17 
REMARK    7  A    between atoms: C9_17  and  C10_18 
REMARK    8  A    between atoms: C13_24  and  C14_25 
ROOT
HETATM    1  C1  UNL     1     -21.306   4.247 -10.467  1.00  0.00     0.019 C 
HETATM    2  C2  UNL     1     -22.463   3.911 -10.292  1.00  0.00    -0.056 C 
HETATM    3  C3  UNL     1     -23.820   3.493 -10.072  1.00  0.00     0.126 A 
HETATM    4  N1  UNL     1     -24.106   2.872  -8.934  1.00  0.00    -0.332 N 
ATOM      5  H1  UNL     1     -23.376   2.703  -8.243  1.00  0.00     0.168 HD
HETATM    6  C4  UNL     1     -25.366   2.469  -8.698  1.00  0.00     0.122 A 
HETATM    7  C20 UNL     1     -26.342   2.696  -9.624  1.00  0.00     0.137 A 
HETATM    8  N7  UNL     1     -26.025   3.331 -10.778  1.00  0.00    -0.351 N 
ATOM      9  H7  UNL     1     -26.755   3.501 -11.470  1.00  0.00     0.166 HD
HETATM   10  C21 UNL     1     -24.773   3.742 -11.031  1.00  0.00     0.139 A 
HETATM   11 CL3  UNL     1     -24.409   4.553 -12.527  1.00  0.00    -0.061 Cl
ENDROOT
BRANCH   6  12
HETATM   12  N2  UNL     1     -25.605   1.867  -7.574  1.00  0.00    -0.339 N 
ATOM     13  H2  UNL     1     -25.426   0.866  -7.498  1.00  0.00     0.167 HD
BRANCH  12  14
HETATM   14  C5  UNL     1     -26.114   2.574  -6.442  1.00  0.00     0.068 A 
HETATM   15  C6  UNL     1     -26.230   3.935  -6.335  1.00  0.00     0.138 A 
HETATM   16  N3  UNL     1     -26.747   4.166  -5.110  1.00  0.00    -0.308 N 
HETATM   17  N4  UNL     1     -26.946   3.029  -4.481  1.00  0.00    -0.301 N 
ATOM     18  H3  UNL     1     -26.953   5.089  -4.728  1.00  0.00     0.186 HD
HETATM   19  C19 UNL     1     -26.575   2.027  -5.253  1.00  0.00     0.141 A 
BRANCH  17  20
HETATM   20  C7  UNL     1     -27.501   2.944  -3.115  1.00  0.00     0.158 C 
BRANCH  20  21
HETATM   21  C8  UNL     1     -26.325   2.671  -2.220  1.00  0.00     0.095 C 
BRANCH  21  22
HETATM   22  S1  UNL     1     -26.224   1.091  -1.445  1.00  0.00    -0.167 SA
BRANCH  22  23
HETATM   23  C9  UNL     1     -27.592  -0.019  -1.650  1.00  0.00     0.080 C 
BRANCH  23  24
HETATM   24  C10 UNL     1     -27.600  -1.124  -0.686  1.00  0.00     0.032 C 
HETATM   25  C11 UNL     1     -28.985  -1.709  -0.398  1.00  0.00     0.238 C 
HETATM   26  N5  UNL     1     -28.623  -2.719   0.577  1.00  0.00    -0.074 N 
HETATM   27  C12 UNL     1     -27.429  -3.341   0.058  1.00  0.00     0.243 C 
ATOM     28  H52 UNL     1     -28.519  -2.356   1.525  1.00  0.00     0.277 HD
ATOM     29  H51 UNL     1     -29.373  -3.378   0.783  1.00  0.00     0.277 HD
HETATM   30  C13 UNL     1     -26.812  -2.337  -0.941  1.00  0.00     0.069 C 
BRANCH  30  31
HETATM   31  C14 UNL     1     -26.923  -2.969  -2.254  1.00  0.00     0.037 A 
HETATM   32  N6  UNL     1     -28.050  -3.226  -2.917  1.00  0.00    -0.366 N 
HETATM   33  C15 UNL     1     -28.130  -3.814  -4.110  1.00  0.00     0.112 A 
ATOM     34  H6  UNL     1     -28.925  -2.950  -2.473  1.00  0.00     0.165 HD
HETATM   35  C16 UNL     1     -26.985  -4.220  -4.776  1.00  0.00     0.051 A 
HETATM   36 CL1  UNL     1     -27.040  -4.998  -6.348  1.00  0.00    -0.083 Cl
HETATM   37  C17 UNL     1     -25.779  -3.976  -4.132  1.00  0.00     0.051 A 
HETATM   38  C18 UNL     1     -25.748  -3.363  -2.896  1.00  0.00     0.058 A 
HETATM   39 CL2  UNL     1     -24.215  -3.069  -2.109  1.00  0.00    -0.082 Cl
ENDBRANCH  30  31
ENDBRANCH  23  24
ENDBRANCH  22  23
ENDBRANCH  21  22
ENDBRANCH  20  21
ENDBRANCH  17  20
ENDBRANCH  12  14
ENDBRANCH   6  12
TORSDOF 8
ENDMDL
MODEL 4
REMARK VINA RESULT: -8.545430427      3.166      5.076
REMARK  8 active torsions:
REMARK  status: ('A' for Active; 'I' for Inactive)
REMARK    1  A    between atoms: C4_6  and  N2_7 
REMARK    2  A    between atoms: N2_7  and  C5_9 
REMARK    3  A    between atoms: N4_13  and  C7_14 
REMARK    4  A    between atoms: C7_14  and  C8_15 
REMARK    5  A    between atoms: C8_15  and  S1_16 
REMARK    6  A    between atoms: S1_16  and  C9_17 
REMARK    7  A    between atoms: C9_17  and  C10_18 
REMARK    8  A    between atoms: C13_24  and  C14_25 
ROOT
HETATM    1  C1  UNL     1     -18.213   8.282 -10.297  1.00  0.00     0.019 C 
HETATM    2  C2  UNL     1     -19.416   8.101 -10.352  1.00  0.00    -0.056 C 
HETATM    3  C3  UNL     1     -20.831   7.872 -10.437  1.00  0.00     0.126 A 
HETATM    4  N1  UNL     1     -21.247   6.672 -10.826  1.00  0.00    -0.332 N 
ATOM      5  H1  UNL     1     -20.572   5.943 -11.056  1.00  0.00     0.168 HD
HETATM    6  C4  UNL     1     -22.565   6.425 -10.916  1.00  0.00     0.122 A 
HETATM    7  C20 UNL     1     -23.467   7.402 -10.610  1.00  0.00     0.137 A 
HETATM    8  N7  UNL     1     -23.018   8.617 -10.215  1.00  0.00    -0.351 N 
ATOM      9  H7  UNL     1     -23.692   9.347  -9.986  1.00  0.00     0.166 HD
HETATM   10  C21 UNL     1     -21.706   8.883 -10.119  1.00  0.00     0.139 A 
HETATM   11 CL3  UNL     1     -21.172  10.459  -9.609  1.00  0.00    -0.061 Cl
ENDROOT
BRANCH   6  12
HETATM   12  N2  UNL     1     -22.931   5.241 -11.299  1.00  0.00    -0.339 N 
ATOM     13  H2  UNL     1     -22.727   4.941 -12.253  1.00  0.00     0.167 HD
BRANCH  12  14
HETATM   14  C5  UNL     1     -23.612   4.348 -10.418  1.00  0.00     0.068 A 
HETATM   15  C6  UNL     1     -23.033   3.335  -9.700  1.00  0.00     0.138 A 
HETATM   16  N3  UNL     1     -24.035   2.750  -9.012  1.00  0.00    -0.308 N 
HETATM   17  N4  UNL     1     -25.174   3.350  -9.273  1.00  0.00    -0.301 N 
ATOM     18  H3  UNL     1     -23.923   1.956  -8.380  1.00  0.00     0.186 HD
HETATM   19  C19 UNL     1     -24.969   4.334 -10.127  1.00  0.00     0.141 A 
BRANCH  17  20
HETATM   20  C7  UNL     1     -26.463   2.942  -8.676  1.00  0.00     0.158 C 
BRANCH  20  21
HETATM   21  C8  UNL     1     -26.356   3.287  -7.218  1.00  0.00     0.095 C 
BRANCH  21  22
HETATM   22  S1  UNL     1     -26.046   1.978  -6.078  1.00  0.00    -0.167 SA
BRANCH  22  23
HETATM   23  C9  UNL     1     -27.340   1.545  -4.946  1.00  0.00     0.080 C 
BRANCH  23  24
HETATM   24  C10 UNL     1     -26.915   1.538  -3.543  1.00  0.00     0.032 C 
HETATM   25  C11 UNL     1     -28.001   1.941  -2.544  1.00  0.00     0.238 C 
HETATM   26  N5  UNL     1     -27.244   1.849  -1.311  1.00  0.00    -0.074 N 
HETATM   27  C12 UNL     1     -26.475   0.634  -1.424  1.00  0.00     0.243 C 
ATOM     28  H52 UNL     1     -26.680   2.676  -1.113  1.00  0.00     0.277 HD
ATOM     29  H51 UNL     1     -27.820   1.895  -0.471  1.00  0.00     0.277 HD
HETATM   30  C13 UNL     1     -26.391   0.308  -2.932  1.00  0.00     0.069 C 
BRANCH  30  31
HETATM   31  C14 UNL     1     -27.148  -0.928  -3.112  1.00  0.00     0.037 A 
HETATM   32  N6  UNL     1     -28.249  -1.286  -2.452  1.00  0.00    -0.366 N 
HETATM   33  C15 UNL     1     -28.919  -2.425  -2.623  1.00  0.00     0.112 A 
ATOM     34  H6  UNL     1     -28.609  -0.633  -1.756  1.00  0.00     0.165 HD
HETATM   35  C16 UNL     1     -28.493  -3.364  -3.549  1.00  0.00     0.051 A 
HETATM   36 CL1  UNL     1     -29.342  -4.877  -3.810  1.00  0.00    -0.083 Cl
HETATM   37  C17 UNL     1     -27.349  -3.044  -4.268  1.00  0.00     0.051 A 
HETATM   38  C18 UNL     1     -26.690  -1.850  -4.055  1.00  0.00     0.058 A 
HETATM   39 CL2  UNL     1     -25.252  -1.473  -4.975  1.00  0.00    -0.082 Cl
ENDBRANCH  30  31
ENDBRANCH  23  24
ENDBRANCH  22  23
ENDBRANCH  21  22
ENDBRANCH  20  21
ENDBRANCH  17  20
ENDBRANCH  12  14
ENDBRANCH   6  12
TORSDOF 8
ENDMDL
MODEL 5
REMARK VINA RESULT: -8.534940555      2.825      9.693
REMARK  8 active torsions:
REMARK  status: ('A' for Active; 'I' for Inactive)
REMARK    1  A    between atoms: C4_6  and  N2_7 
REMARK    2  A    between atoms: N2_7  and  C5_9 
REMARK    3  A    between atoms: N4_13  and  C7_14 
REMARK    4  A    between atoms: C7_14  and  C8_15 
REMARK    5  A    between atoms: C8_15  and  S1_16 
REMARK    6  A    between atoms: S1_16  and  C9_17 
REMARK    7  A    between atoms: C9_17  and  C10_18 
REMARK    8  A    between atoms: C13_24  and  C14_25 
ROOT
HETATM    1  C1  UNL     1     -29.189  -2.534  -3.580  1.00  0.00     0.019 C 
HETATM    2  C2  UNL     1     -28.379  -1.808  -3.031  1.00  0.00    -0.056 C 
HETATM    3  C3  UNL     1     -27.432  -0.933  -2.399  1.00  0.00     0.126 A 
HETATM    4  N1  UNL     1     -27.779   0.336  -2.217  1.00  0.00    -0.332 N 
ATOM      5  H1  UNL     1     -28.693   0.668  -2.522  1.00  0.00     0.168 HD
HETATM    6  C4  UNL     1     -26.916   1.181  -1.629  1.00  0.00     0.122 A 
HETATM    7  C20 UNL     1     -25.691   0.735  -1.223  1.00  0.00     0.137 A 
HETATM    8  N7  UNL     1     -25.361  -0.563  -1.418  1.00  0.00    -0.351 N 
ATOM      9  H7  UNL     1     -24.446  -0.897  -1.114  1.00  0.00     0.166 HD
HETATM   10  C21 UNL     1     -26.209  -1.422  -2.004  1.00  0.00     0.139 A 
HETATM   11 CL3  UNL     1     -25.745  -3.083  -2.238  1.00  0.00    -0.061 Cl
ENDROOT
BRANCH   6  12
HETATM   12  N2  UNL     1     -27.291   2.412  -1.469  1.00  0.00    -0.339 N 
ATOM     13  H2  UNL     1     -27.605   2.721  -0.548  1.00  0.00     0.167 HD
BRANCH  12  14
HETATM   14  C5  UNL     1     -27.277   3.343  -2.551  1.00  0.00     0.068 A 
HETATM   15  C6  UNL     1     -27.739   4.632  -2.504  1.00  0.00     0.138 A 
HETATM   16  N3  UNL     1     -27.536   5.143  -3.736  1.00  0.00    -0.308 N 
HETATM   17  N4  UNL     1     -26.983   4.241  -4.515  1.00  0.00    -0.301 N 
ATOM     18  H3  UNL     1     -27.778   6.093  -4.021  1.00  0.00     0.186 HD
HETATM   19  C19 UNL     1     -26.804   3.123  -3.837  1.00  0.00     0.141 A 
BRANCH  17  20
HETATM   20  C7  UNL     1     -26.637   4.491  -5.929  1.00  0.00     0.158 C 
BRANCH  20  21
HETATM   21  C8  UNL     1     -26.073   3.195  -6.439  1.00  0.00     0.095 C 
BRANCH  21  22
HETATM   22  S1  UNL     1     -25.810   3.033  -8.175  1.00  0.00    -0.167 SA
BRANCH  22  23
HETATM   23  C9  UNL     1     -24.450   3.919  -8.890  1.00  0.00     0.080 C 
BRANCH  23  24
HETATM   24  C10 UNL     1     -24.365   3.784 -10.348  1.00  0.00     0.032 C 
HETATM   25  C11 UNL     1     -25.555   4.365 -11.114  1.00  0.00     0.238 C 
HETATM   26  N5  UNL     1     -25.153   4.042 -12.468  1.00  0.00    -0.074 N 
HETATM   27  C12 UNL     1     -23.748   4.358 -12.536  1.00  0.00     0.243 C 
ATOM     28  H52 UNL     1     -25.373   3.085 -12.745  1.00  0.00     0.277 HD
ATOM     29  H51 UNL     1     -25.714   4.504 -13.184  1.00  0.00     0.277 HD
HETATM   30  C13 UNL     1     -23.229   4.363 -11.080  1.00  0.00     0.069 C 
BRANCH  30  31
HETATM   31  C14 UNL     1     -22.858   5.747 -10.797  1.00  0.00     0.037 A 
HETATM   32  N6  UNL     1     -23.693   6.767 -10.605  1.00  0.00    -0.366 N 
HETATM   33  C15 UNL     1     -23.333   8.027 -10.359  1.00  0.00     0.112 A 
ATOM     34  H6  UNL     1     -24.692   6.568 -10.649  1.00  0.00     0.165 HD
HETATM   35  C16 UNL     1     -21.995   8.378 -10.283  1.00  0.00     0.051 A 
HETATM   36 CL1  UNL     1     -21.474  10.022  -9.961  1.00  0.00    -0.083 Cl
HETATM   37  C17 UNL     1     -21.078   7.353 -10.476  1.00  0.00     0.051 A 
HETATM   38  C18 UNL     1     -21.501   6.063 -10.727  1.00  0.00     0.058 A 
HETATM   39 CL2  UNL     1     -20.323   4.793 -10.966  1.00  0.00    -0.082 Cl
ENDBRANCH  30  31
ENDBRANCH  23  24
ENDBRANCH  22  23
ENDBRANCH  21  22
ENDBRANCH  20  21
ENDBRANCH  17  20
ENDBRANCH  12  14
ENDBRANCH   6  12
TORSDOF 8
ENDMDL
