MODEL 1
REMARK VINA RESULT: -9.088247367      0.000      0.000
REMARK  11 active torsions:
REMARK  status: ('A' for Active; 'I' for Inactive)
REMARK    1  A    between atoms: C2_2  and  O1_3 
REMARK    2  A    between atoms: O1_3  and  C3_4 
REMARK    3  A    between atoms: C3_4  and  C4_6 
REMARK    4  A    between atoms: C7_13  and  C8_14 
REMARK       I    between atoms: C8_14  and  N3_16 
REMARK    5  A    between atoms: C9_18  and  O4_19 
REMARK    6  A    between atoms: C9_18  and  C10_21 
REMARK    7  A    between atoms: C10_21  and  O5_22 
REMARK    8  A    between atoms: C10_21  and  C20_36 
REMARK    9  A    between atoms: O5_22  and  C11_23 
REMARK       I    between atoms: C11_23  and  N4_25 
REMARK   10  A    between atoms: N4_25  and  C12_27 
REMARK   11  A    between atoms: C12_27  and  C15_30 
ROOT
HETATM    1  C8  UNL     1     -18.212   8.225 -10.169  1.00  0.00     0.262 C 
HETATM    2  O3  UNL     1     -18.414   7.783  -9.022  1.00  0.00    -0.267 OA
HETATM    3  N3  UNL     1     -19.224   8.746 -11.040  1.00  0.00    -0.304 N 
ATOM      4  H3  UNL     1     -18.880   9.042 -11.954  1.00  0.00     0.171 HD
HETATM    5  C9  UNL     1     -20.566   8.917 -10.863  1.00  0.00     0.158 C 
ENDROOT
BRANCH   5   6
HETATM    6  O4  UNL     1     -21.151   9.269 -12.060  1.00  0.00    -0.347 OA
ATOM      7  H4  UNL     1     -21.782   9.966 -11.916  1.00  0.00     0.219 HD
ENDBRANCH   5   6
BRANCH   5   8
HETATM    8  C10 UNL     1     -21.566   8.849  -9.838  1.00  0.00     0.315 C 
BRANCH   8   9
HETATM    9  O5  UNL     1     -22.763   8.157 -10.287  1.00  0.00    -0.281 OA
BRANCH   9  10
HETATM   10  C11 UNL     1     -22.754   6.858 -10.766  1.00  0.00     0.362 C 
HETATM   11  O6  UNL     1     -21.803   6.526 -11.488  1.00  0.00    -0.238 OA
HETATM   12  N4  UNL     1     -23.834   5.967 -10.400  1.00  0.00    -0.324 N 
ATOM     13  H4  UNL     1     -24.581   6.297  -9.788  1.00  0.00     0.165 HD
BRANCH  12  14
HETATM   14  C12 UNL     1     -23.857   4.597 -10.905  1.00  0.00     0.061 C 
HETATM   15  C13 UNL     1     -22.593   3.860 -10.631  1.00  0.00     0.044 C 
HETATM   16  C14 UNL     1     -24.258   4.507 -12.348  1.00  0.00     0.044 C 
BRANCH  14  17
HETATM   17  C15 UNL     1     -24.939   3.866 -10.110  1.00  0.00     0.010 A 
HETATM   18  C16 UNL     1     -25.091   3.750  -8.764  1.00  0.00     0.024 A 
HETATM   19  C17 UNL     1     -26.151   3.044  -8.322  1.00  0.00    -0.054 A 
HETATM   20  C18 UNL     1     -26.461   2.822  -6.854  1.00  0.00     0.048 C 
HETATM   21  C19 UNL     1     -26.985   2.505  -9.266  1.00  0.00     0.056 A 
HETATM   22  S1  UNL     1     -26.263   2.996 -10.724  1.00  0.00    -0.103 SA
ENDBRANCH  14  17
ENDBRANCH  12  14
ENDBRANCH   9  10
ENDBRANCH   8   9
BRANCH   8  23
HETATM   23  C20 UNL     1     -22.074  10.278  -9.472  1.00  0.00     0.421 C 
HETATM   24  F1  UNL     1     -21.119  11.218  -9.767  1.00  0.00    -0.168 F 
HETATM   25  F2  UNL     1     -23.241  10.575 -10.068  1.00  0.00    -0.168 F 
HETATM   26  F3  UNL     1     -22.262  10.315  -8.086  1.00  0.00    -0.168 F 
ENDBRANCH   8  23
ENDBRANCH   5   8
BRANCH   1  27
HETATM   27  C7  UNL     1     -16.793   8.175 -10.604  1.00  0.00     0.090 A 
HETATM   28  C4  UNL     1     -16.004   7.060 -10.585  1.00  0.00     0.141 A 
HETATM   29  N1  UNL     1     -14.767   7.478 -10.989  1.00  0.00    -0.294 N 
HETATM   30  N2  UNL     1     -14.809   8.775 -11.241  1.00  0.00    -0.304 N 
ATOM     31  H1  UNL     1     -13.943   6.884 -11.080  1.00  0.00     0.187 HD
HETATM   32  C5  UNL     1     -16.052   9.275 -11.019  1.00  0.00     0.040 A 
ATOM     33  H2  UNL     1     -14.013   9.327 -11.561  1.00  0.00     0.186 HD
HETATM   34  C6  UNL     1     -16.504  10.682 -11.176  1.00  0.00     0.071 C 
BRANCH  28  35
HETATM   35  C3  UNL     1     -16.275   5.670 -10.251  1.00  0.00     0.312 C 
HETATM   36  O2  UNL     1     -16.261   5.274  -9.042  1.00  0.00    -0.258 OA
BRANCH  35  37
HETATM   37  O1  UNL     1     -16.557   4.723 -11.208  1.00  0.00    -0.317 OA
BRANCH  37  38
HETATM   38  C2  UNL     1     -17.683   3.893 -11.205  1.00  0.00     0.175 C 
HETATM   39  C1  UNL     1     -18.987   4.652 -11.020  1.00  0.00     0.034 C 
ENDBRANCH  37  38
ENDBRANCH  35  37
ENDBRANCH  28  35
ENDBRANCH   1  27
TORSDOF 11
ENDMDL
MODEL 2
REMARK VINA RESULT: -9.048308746      1.244      2.788
REMARK  11 active torsions:
REMARK  status: ('A' for Active; 'I' for Inactive)
REMARK    1  A    between atoms: C2_2  and  O1_3 
REMARK    2  A    between atoms: O1_3  and  C3_4 
REMARK    3  A    between atoms: C3_4  and  C4_6 
REMARK    4  A    between atoms: C7_13  and  C8_14 
REMARK       I    between atoms: C8_14  and  N3_16 
REMARK    5  A    between atoms: C9_18  and  O4_19 
REMARK    6  A    between atoms: C9_18  and  C10_21 
REMARK    7  A    between atoms: C10_21  and  O5_22 
REMARK    8  A    between atoms: C10_21  and  C20_36 
REMARK    9  A    between atoms: O5_22  and  C11_23 
REMARK       I    between atoms: C11_23  and  N4_25 
REMARK   10  A    between atoms: N4_25  and  C12_27 
REMARK   11  A    between atoms: C12_27  and  C15_30 
ROOT
HETATM    1  C8  UNL     1     -18.344   7.765 -10.399  1.00  0.00     0.262 C 
HETATM    2  O3  UNL     1     -18.611   7.160  -9.343  1.00  0.00    -0.267 OA
HETATM    3  N3  UNL     1     -19.259   8.596 -11.126  1.00  0.00    -0.304 N 
ATOM      4  H3  UNL     1     -18.876   8.993 -11.984  1.00  0.00     0.171 HD
HETATM    5  C9  UNL     1     -20.552   8.949 -10.872  1.00  0.00     0.158 C 
ENDROOT
BRANCH   5   6
HETATM    6  O4  UNL     1     -21.077   9.606 -11.964  1.00  0.00    -0.347 OA
ATOM      7  H4  UNL     1     -21.407   8.972 -12.591  1.00  0.00     0.219 HD
ENDBRANCH   5   6
BRANCH   5   8
HETATM    8  C10 UNL     1     -21.543   8.860  -9.840  1.00  0.00     0.315 C 
BRANCH   8   9
HETATM    9  O5  UNL     1     -22.741   8.172 -10.291  1.00  0.00    -0.281 OA
BRANCH   9  10
HETATM   10  C11 UNL     1     -22.734   6.877 -10.781  1.00  0.00     0.362 C 
HETATM   11  O6  UNL     1     -21.794   6.558 -11.524  1.00  0.00    -0.238 OA
HETATM   12  N4  UNL     1     -23.801   5.976 -10.403  1.00  0.00    -0.324 N 
ATOM     13  H4  UNL     1     -24.538   6.296  -9.774  1.00  0.00     0.165 HD
BRANCH  12  14
HETATM   14  C12 UNL     1     -23.825   4.610 -10.919  1.00  0.00     0.061 C 
HETATM   15  C13 UNL     1     -22.562   3.870 -10.651  1.00  0.00     0.044 C 
HETATM   16  C14 UNL     1     -24.225   4.533 -12.364  1.00  0.00     0.044 C 
BRANCH  14  17
HETATM   17  C15 UNL     1     -24.908   3.874 -10.132  1.00  0.00     0.010 A 
HETATM   18  C16 UNL     1     -25.060   3.744  -8.787  1.00  0.00     0.024 A 
HETATM   19  C17 UNL     1     -26.121   3.037  -8.352  1.00  0.00    -0.054 A 
HETATM   20  C18 UNL     1     -26.433   2.800  -6.887  1.00  0.00     0.048 C 
HETATM   21  C19 UNL     1     -26.957   2.509  -9.302  1.00  0.00     0.056 A 
HETATM   22  S1  UNL     1     -26.234   3.012 -10.754  1.00  0.00    -0.103 SA
ENDBRANCH  14  17
ENDBRANCH  12  14
ENDBRANCH   9  10
ENDBRANCH   8   9
BRANCH   8  23
HETATM   23  C20 UNL     1     -22.054  10.282  -9.446  1.00  0.00     0.421 C 
HETATM   24  F1  UNL     1     -21.106  11.230  -9.736  1.00  0.00    -0.168 F 
HETATM   25  F2  UNL     1     -23.228  10.582 -10.024  1.00  0.00    -0.168 F 
HETATM   26  F3  UNL     1     -22.226  10.296  -8.058  1.00  0.00    -0.168 F 
ENDBRANCH   8  23
ENDBRANCH   5   8
BRANCH   1  27
HETATM   27  C7  UNL     1     -16.957   7.562 -10.887  1.00  0.00     0.090 A 
HETATM   28  C4  UNL     1     -16.046   8.556 -11.104  1.00  0.00     0.141 A 
HETATM   29  N1  UNL     1     -14.941   7.938 -11.619  1.00  0.00    -0.294 N 
HETATM   30  N2  UNL     1     -15.173   6.639 -11.705  1.00  0.00    -0.304 N 
ATOM     31  H1  UNL     1     -14.077   8.404 -11.895  1.00  0.00     0.187 HD
HETATM   32  C5  UNL     1     -16.420   6.335 -11.263  1.00  0.00     0.040 A 
ATOM     33  H2  UNL     1     -14.503   5.955 -12.057  1.00  0.00     0.186 HD
HETATM   34  C6  UNL     1     -17.061   4.996 -11.207  1.00  0.00     0.071 C 
BRANCH  28  35
HETATM   35  C3  UNL     1     -16.086   9.992 -10.875  1.00  0.00     0.312 C 
HETATM   36  O2  UNL     1     -15.242  10.556 -10.107  1.00  0.00    -0.258 OA
BRANCH  35  37
HETATM   37  O1  UNL     1     -17.023  10.808 -11.467  1.00  0.00    -0.317 OA
BRANCH  37  38
HETATM   38  C2  UNL     1     -16.732  11.846 -12.358  1.00  0.00     0.175 C 
HETATM   39  C1  UNL     1     -15.916  11.393 -13.558  1.00  0.00     0.034 C 
ENDBRANCH  37  38
ENDBRANCH  35  37
ENDBRANCH  28  35
ENDBRANCH   1  27
TORSDOF 11
ENDMDL
MODEL 3
REMARK VINA RESULT: -9.031754256      1.397      2.762
REMARK  11 active torsions:
REMARK  status: ('A' for Active; 'I' for Inactive)
REMARK    1  A    between atoms: C2_2  and  O1_3 
REMARK    2  A    between atoms: O1_3  and  C3_4 
REMARK    3  A    between atoms: C3_4  and  C4_6 
REMARK    4  A    between atoms: C7_13  and  C8_14 
REMARK       I    between atoms: C8_14  and  N3_16 
REMARK    5  A    between atoms: C9_18  and  O4_19 
REMARK    6  A    between atoms: C9_18  and  C10_21 
REMARK    7  A    between atoms: C10_21  and  O5_22 
REMARK    8  A    between atoms: C10_21  and  C20_36 
REMARK    9  A    between atoms: O5_22  and  C11_23 
REMARK       I    between atoms: C11_23  and  N4_25 
REMARK   10  A    between atoms: N4_25  and  C12_27 
REMARK   11  A    between atoms: C12_27  and  C15_30 
ROOT
HETATM    1  C8  UNL     1     -18.339   7.666 -10.353  1.00  0.00     0.262 C 
HETATM    2  O3  UNL     1     -18.647   7.057  -9.311  1.00  0.00    -0.267 OA
HETATM    3  N3  UNL     1     -19.213   8.531 -11.089  1.00  0.00    -0.304 N 
ATOM      4  H3  UNL     1     -18.799   8.927 -11.934  1.00  0.00     0.171 HD
HETATM    5  C9  UNL     1     -20.501   8.919 -10.860  1.00  0.00     0.158 C 
ENDROOT
BRANCH   5   6
HETATM    6  O4  UNL     1     -20.982   9.603 -11.956  1.00  0.00    -0.347 OA
ATOM      7  H4  UNL     1     -21.896   9.823 -11.820  1.00  0.00     0.219 HD
ENDBRANCH   5   6
BRANCH   5   8
HETATM    8  C10 UNL     1     -21.517   8.846  -9.852  1.00  0.00     0.315 C 
BRANCH   8   9
HETATM    9  O5  UNL     1     -22.713   8.173 -10.328  1.00  0.00    -0.281 OA
BRANCH   9  10
HETATM   10  C11 UNL     1     -22.713   6.874 -10.809  1.00  0.00     0.362 C 
HETATM   11  O6  UNL     1     -21.775   6.544 -11.549  1.00  0.00    -0.238 OA
HETATM   12  N4  UNL     1     -23.786   5.983 -10.425  1.00  0.00    -0.324 N 
ATOM     13  H4  UNL     1     -24.522   6.311  -9.799  1.00  0.00     0.165 HD
BRANCH  12  14
HETATM   14  C12 UNL     1     -23.817   4.613 -10.931  1.00  0.00     0.061 C 
HETATM   15  C13 UNL     1     -22.558   3.868 -10.657  1.00  0.00     0.044 C 
HETATM   16  C14 UNL     1     -24.218   4.527 -12.375  1.00  0.00     0.044 C 
BRANCH  14  17
HETATM   17  C15 UNL     1     -24.904   3.888 -10.138  1.00  0.00     0.010 A 
HETATM   18  C16 UNL     1     -25.048   3.757  -8.792  1.00  0.00     0.024 A 
HETATM   19  C17 UNL     1     -26.115   3.062  -8.352  1.00  0.00    -0.054 A 
HETATM   20  C18 UNL     1     -26.419   2.825  -6.885  1.00  0.00     0.048 C 
HETATM   21  C19 UNL     1     -26.964   2.547  -9.297  1.00  0.00     0.056 A 
HETATM   22  S1  UNL     1     -26.246   3.046 -10.753  1.00  0.00    -0.103 SA
ENDBRANCH  14  17
ENDBRANCH  12  14
ENDBRANCH   9  10
ENDBRANCH   8   9
BRANCH   8  23
HETATM   23  C20 UNL     1     -22.018  10.276  -9.474  1.00  0.00     0.421 C 
HETATM   24  F1  UNL     1     -21.061  11.214  -9.769  1.00  0.00    -0.168 F 
HETATM   25  F2  UNL     1     -23.187  10.580 -10.059  1.00  0.00    -0.168 F 
HETATM   26  F3  UNL     1     -22.195  10.305  -8.086  1.00  0.00    -0.168 F 
ENDBRANCH   8  23
ENDBRANCH   5   8
BRANCH   1  27
HETATM   27  C7  UNL     1     -16.947   7.429 -10.813  1.00  0.00     0.090 A 
HETATM   28  C4  UNL     1     -15.990   8.393 -10.951  1.00  0.00     0.141 A 
HETATM   29  N1  UNL     1     -14.897   7.755 -11.468  1.00  0.00    -0.294 N 
HETATM   30  N2  UNL     1     -15.179   6.474 -11.628  1.00  0.00    -0.304 N 
ATOM     31  H1  UNL     1     -14.006   8.197 -11.694  1.00  0.00     0.187 HD
HETATM   32  C5  UNL     1     -16.451   6.201 -11.237  1.00  0.00     0.040 A 
ATOM     33  H2  UNL     1     -14.528   5.781 -11.997  1.00  0.00     0.186 HD
HETATM   34  C6  UNL     1     -17.148   4.890 -11.269  1.00  0.00     0.071 C 
BRANCH  28  35
HETATM   35  C3  UNL     1     -15.977   9.816 -10.648  1.00  0.00     0.312 C 
HETATM   36  O2  UNL     1     -16.715  10.628 -11.292  1.00  0.00    -0.258 OA
BRANCH  35  37
HETATM   37  O1  UNL     1     -15.179  10.354  -9.664  1.00  0.00    -0.317 OA
BRANCH  37  38
HETATM   38  C2  UNL     1     -14.966   9.782  -8.405  1.00  0.00     0.175 C 
HETATM   39  C1  UNL     1     -13.589  10.083  -7.836  1.00  0.00     0.034 C 
ENDBRANCH  37  38
ENDBRANCH  35  37
ENDBRANCH  28  35
ENDBRANCH   1  27
TORSDOF 11
ENDMDL
MODEL 4
REMARK VINA RESULT: -8.832697547      0.718      1.285
REMARK  11 active torsions:
REMARK  status: ('A' for Active; 'I' for Inactive)
REMARK    1  A    between atoms: C2_2  and  O1_3 
REMARK    2  A    between atoms: O1_3  and  C3_4 
REMARK    3  A    between atoms: C3_4  and  C4_6 
REMARK    4  A    between atoms: C7_13  and  C8_14 
REMARK       I    between atoms: C8_14  and  N3_16 
REMARK    5  A    between atoms: C9_18  and  O4_19 
REMARK    6  A    between atoms: C9_18  and  C10_21 
REMARK    7  A    between atoms: C10_21  and  O5_22 
REMARK    8  A    between atoms: C10_21  and  C20_36 
REMARK    9  A    between atoms: O5_22  and  C11_23 
REMARK       I    between atoms: C11_23  and  N4_25 
REMARK   10  A    between atoms: N4_25  and  C12_27 
REMARK   11  A    between atoms: C12_27  and  C15_30 
ROOT
HETATM    1  C8  UNL     1     -18.189   8.191 -10.151  1.00  0.00     0.262 C 
HETATM    2  O3  UNL     1     -18.409   7.721  -9.018  1.00  0.00    -0.267 OA
HETATM    3  N3  UNL     1     -19.182   8.764 -11.012  1.00  0.00    -0.304 N 
ATOM      4  H3  UNL     1     -18.825   9.077 -11.915  1.00  0.00     0.171 HD
HETATM    5  C9  UNL     1     -20.520   8.965 -10.837  1.00  0.00     0.158 C 
ENDROOT
BRANCH   5   6
HETATM    6  O4  UNL     1     -21.089   9.368 -12.026  1.00  0.00    -0.347 OA
ATOM      7  H4  UNL     1     -21.286   8.607 -12.560  1.00  0.00     0.219 HD
ENDBRANCH   5   6
BRANCH   5   8
HETATM    8  C10 UNL     1     -21.527   8.893  -9.819  1.00  0.00     0.315 C 
BRANCH   8   9
HETATM    9  O5  UNL     1     -22.716   8.193 -10.276  1.00  0.00    -0.281 OA
BRANCH   9  10
HETATM   10  C11 UNL     1     -22.697   6.892 -10.748  1.00  0.00     0.362 C 
HETATM   11  O6  UNL     1     -21.744   6.565 -11.470  1.00  0.00    -0.238 OA
HETATM   12  N4  UNL     1     -23.768   5.994 -10.376  1.00  0.00    -0.324 N 
ATOM     13  H4  UNL     1     -24.517   6.319  -9.765  1.00  0.00     0.165 HD
BRANCH  12  14
HETATM   14  C12 UNL     1     -23.779   4.620 -10.875  1.00  0.00     0.061 C 
HETATM   15  C13 UNL     1     -22.516   3.889 -10.580  1.00  0.00     0.044 C 
HETATM   16  C14 UNL     1     -24.160   4.522 -12.323  1.00  0.00     0.044 C 
BRANCH  14  17
HETATM   17  C15 UNL     1     -24.869   3.890 -10.091  1.00  0.00     0.010 A 
HETATM   18  C16 UNL     1     -25.028   3.762  -8.747  1.00  0.00     0.024 A 
HETATM   19  C17 UNL     1     -26.094   3.060  -8.316  1.00  0.00    -0.054 A 
HETATM   20  C18 UNL     1     -26.413   2.826  -6.852  1.00  0.00     0.048 C 
HETATM   21  C19 UNL     1     -26.928   2.535  -9.268  1.00  0.00     0.056 A 
HETATM   22  S1  UNL     1     -26.197   3.034 -10.718  1.00  0.00    -0.103 SA
ENDBRANCH  14  17
ENDBRANCH  12  14
ENDBRANCH   9  10
ENDBRANCH   8   9
BRANCH   8  23
HETATM   23  C20 UNL     1     -22.047  10.321  -9.461  1.00  0.00     0.421 C 
HETATM   24  F1  UNL     1     -21.109  11.269  -9.782  1.00  0.00    -0.168 F 
HETATM   25  F2  UNL     1     -23.227  10.596 -10.040  1.00  0.00    -0.168 F 
HETATM   26  F3  UNL     1     -22.212  10.371  -8.073  1.00  0.00    -0.168 F 
ENDBRANCH   8  23
ENDBRANCH   5   8
BRANCH   1  27
HETATM   27  C7  UNL     1     -16.770   8.116 -10.580  1.00  0.00     0.090 A 
HETATM   28  C4  UNL     1     -16.012   6.979 -10.596  1.00  0.00     0.141 A 
HETATM   29  N1  UNL     1     -14.761   7.376 -10.979  1.00  0.00    -0.294 N 
HETATM   30  N2  UNL     1     -14.765   8.682 -11.186  1.00  0.00    -0.304 N 
ATOM     31  H1  UNL     1     -13.953   6.763 -11.086  1.00  0.00     0.187 HD
HETATM   32  C5  UNL     1     -15.995   9.209 -10.953  1.00  0.00     0.040 A 
ATOM     33  H2  UNL     1     -13.952   9.222 -11.482  1.00  0.00     0.186 HD
HETATM   34  C6  UNL     1     -16.407  10.632 -11.062  1.00  0.00     0.071 C 
BRANCH  28  35
HETATM   35  C3  UNL     1     -16.324   5.587 -10.313  1.00  0.00     0.312 C 
HETATM   36  O2  UNL     1     -16.602   4.775 -11.252  1.00  0.00    -0.258 OA
BRANCH  35  37
HETATM   37  O1  UNL     1     -16.334   5.079  -9.034  1.00  0.00    -0.317 OA
BRANCH  37  38
HETATM   38  C2  UNL     1     -15.407   5.400  -8.037  1.00  0.00     0.175 C 
HETATM   39  C1  UNL     1     -16.000   6.236  -6.914  1.00  0.00     0.034 C 
ENDBRANCH  37  38
ENDBRANCH  35  37
ENDBRANCH  28  35
ENDBRANCH   1  27
TORSDOF 11
ENDMDL
MODEL 5
REMARK VINA RESULT: -8.830459447      3.991      6.077
REMARK  11 active torsions:
REMARK  status: ('A' for Active; 'I' for Inactive)
REMARK    1  A    between atoms: C2_2  and  O1_3 
REMARK    2  A    between atoms: O1_3  and  C3_4 
REMARK    3  A    between atoms: C3_4  and  C4_6 
REMARK    4  A    between atoms: C7_13  and  C8_14 
REMARK       I    between atoms: C8_14  and  N3_16 
REMARK    5  A    between atoms: C9_18  and  O4_19 
REMARK    6  A    between atoms: C9_18  and  C10_21 
REMARK    7  A    between atoms: C10_21  and  O5_22 
REMARK    8  A    between atoms: C10_21  and  C20_36 
REMARK    9  A    between atoms: O5_22  and  C11_23 
REMARK       I    between atoms: C11_23  and  N4_25 
REMARK   10  A    between atoms: N4_25  and  C12_27 
REMARK   11  A    between atoms: C12_27  and  C15_30 
ROOT
HETATM    1  C8  UNL     1     -15.156   9.021  -9.750  1.00  0.00     0.262 C 
HETATM    2  O3  UNL     1     -15.316   8.082 -10.553  1.00  0.00    -0.267 OA
HETATM    3  N3  UNL     1     -15.418  10.401 -10.034  1.00  0.00    -0.304 N 
ATOM      4  H3  UNL     1     -15.206  11.037  -9.264  1.00  0.00     0.171 HD
HETATM    5  C9  UNL     1     -15.901  11.016 -11.152  1.00  0.00     0.158 C 
ENDROOT
BRANCH   5   6
HETATM    6  O4  UNL     1     -15.789  12.383 -11.016  1.00  0.00    -0.347 OA
ATOM      7  H4  UNL     1     -15.048  12.696 -11.521  1.00  0.00     0.219 HD
ENDBRANCH   5   6
BRANCH   5   8
HETATM    8  C10 UNL     1     -16.485  10.703 -12.423  1.00  0.00     0.315 C 
BRANCH   8   9
HETATM    9  O5  UNL     1     -17.447   9.617 -12.330  1.00  0.00    -0.281 OA
BRANCH   9  10
HETATM   10  C11 UNL     1     -18.707   9.764 -11.775  1.00  0.00     0.362 C 
HETATM   11  O6  UNL     1     -19.099  10.920 -11.558  1.00  0.00    -0.238 OA
HETATM   12  N4  UNL     1     -19.490   8.582 -11.488  1.00  0.00    -0.324 N 
ATOM     13  H4  UNL     1     -19.117   7.658 -11.706  1.00  0.00     0.165 HD
BRANCH  12  14
HETATM   14  C12 UNL     1     -20.816   8.710 -10.888  1.00  0.00     0.061 C 
HETATM   15  C13 UNL     1     -21.762   9.484 -11.738  1.00  0.00     0.044 C 
HETATM   16  C14 UNL     1     -20.777   9.224  -9.478  1.00  0.00     0.044 C 
BRANCH  14  17
HETATM   17  C15 UNL     1     -21.391   7.296 -10.817  1.00  0.00     0.010 A 
HETATM   18  C16 UNL     1     -22.682   6.895 -10.664  1.00  0.00     0.024 A 
HETATM   19  C17 UNL     1     -22.916   5.568 -10.639  1.00  0.00    -0.054 A 
HETATM   20  C18 UNL     1     -24.296   4.960 -10.475  1.00  0.00     0.048 C 
HETATM   21  C19 UNL     1     -21.835   4.736 -10.770  1.00  0.00     0.056 A 
HETATM   22  S1  UNL     1     -20.542   5.827 -10.920  1.00  0.00    -0.103 SA
ENDBRANCH  14  17
ENDBRANCH  12  14
ENDBRANCH   9  10
ENDBRANCH   8   9
BRANCH   8  23
HETATM   23  C20 UNL     1     -15.402  10.161 -13.407  1.00  0.00     0.421 C 
HETATM   24  F1  UNL     1     -14.151  10.564 -13.014  1.00  0.00    -0.168 F 
HETATM   25  F2  UNL     1     -15.456   8.826 -13.543  1.00  0.00    -0.168 F 
HETATM   26  F3  UNL     1     -15.639  10.745 -14.656  1.00  0.00    -0.168 F 
ENDBRANCH   8  23
ENDBRANCH   5   8
BRANCH   1  27
HETATM   27  C7  UNL     1     -14.649   8.607  -8.417  1.00  0.00     0.090 A 
HETATM   28  C4  UNL     1     -13.395   8.858  -7.940  1.00  0.00     0.141 A 
HETATM   29  N1  UNL     1     -13.332   8.238  -6.723  1.00  0.00    -0.294 N 
HETATM   30  N2  UNL     1     -14.489   7.648  -6.478  1.00  0.00    -0.304 N 
ATOM     31  H1  UNL     1     -12.522   8.232  -6.103  1.00  0.00     0.187 HD
HETATM   32  C5  UNL     1     -15.361   7.839  -7.502  1.00  0.00     0.040 A 
ATOM     33  H2  UNL     1     -14.700   7.118  -5.632  1.00  0.00     0.186 HD
HETATM   34  C6  UNL     1     -16.752   7.330  -7.614  1.00  0.00     0.071 C 
BRANCH  28  35
HETATM   35  C3  UNL     1     -12.272   9.611  -8.477  1.00  0.00     0.312 C 
HETATM   36  O2  UNL     1     -11.117   9.084  -8.573  1.00  0.00    -0.258 OA
BRANCH  35  37
HETATM   37  O1  UNL     1     -12.393  10.913  -8.905  1.00  0.00    -0.317 OA
BRANCH  37  38
HETATM   38  C2  UNL     1     -11.929  11.400 -10.132  1.00  0.00     0.175 C 
HETATM   39  C1  UNL     1     -12.241  12.872 -10.349  1.00  0.00     0.034 C 
ENDBRANCH  37  38
ENDBRANCH  35  37
ENDBRANCH  28  35
ENDBRANCH   1  27
TORSDOF 11
ENDMDL
