MODEL 1
REMARK VINA RESULT: -8.141328862      0.000      0.000
REMARK  8 active torsions:
REMARK  status: ('A' for Active; 'I' for Inactive)
REMARK    1  A    between atoms: C2_2  and  C3_3 
REMARK    2  A    between atoms: C3_3  and  C4_4 
REMARK    3  A    between atoms: C3_3  and  C10_15 
REMARK    4  A    between atoms: C4_4  and  N1_5 
REMARK    5  A    between atoms: N1_5  and  C5_8 
REMARK    6  A    between atoms: C5_8  and  C6_9 
REMARK    7  A    between atoms: C6_9  and  S1_10 
REMARK    8  A    between atoms: S1_10  and  C7_12 
ROOT
HETATM    1  C3  UNL     1       9.532  83.936 107.018  1.00  0.00     0.044 C 
ENDROOT
BRANCH   1   2
HETATM    2  C2  UNL     1       8.636  84.424 108.107  1.00  0.00     0.006 C 
HETATM    3  C1  UNL     1       8.099  83.244 108.889  1.00  0.00     0.006 C 
ENDBRANCH   1   2
BRANCH   1   4
HETATM    4  C4  UNL     1       9.821  84.859 105.907  1.00  0.00     0.241 C 
BRANCH   4   5
HETATM    5  N1  UNL     1       8.838  85.799 105.543  1.00  0.00    -0.074 N 
ATOM      6  H12 UNL     1       7.925  85.566 105.936  1.00  0.00     0.277 HD
ATOM      7  H11 UNL     1       8.978  86.696 106.009  1.00  0.00     0.277 HD
BRANCH   5   8
HETATM    8  C5  UNL     1       8.784  85.941 104.112  1.00  0.00     0.244 C 
BRANCH   8   9
HETATM    9  C6  UNL     1       7.729  86.865 103.620  1.00  0.00     0.136 C 
BRANCH   9  10
HETATM   10  S1  UNL     1       6.979  87.900 104.808  1.00  0.00     0.020 S 
HETATM   11  O1  UNL     1       5.898  87.126 105.826  1.00  0.00    -0.258 OA
BRANCH  10  12
HETATM   12  C7  UNL     1       6.026  89.126 103.906  1.00  0.00     0.071 C 
HETATM   13  C8  UNL     1       6.890  90.188 103.312  1.00  0.00     0.023 C 
HETATM   14  C9  UNL     1       5.152  88.449 102.889  1.00  0.00     0.023 C 
ENDBRANCH  10  12
ENDBRANCH   9  10
ENDBRANCH   8   9
ENDBRANCH   5   8
ENDBRANCH   4   5
ENDBRANCH   1   4
BRANCH   1  15
HETATM   15  C10 UNL     1      10.752  83.371 107.648  1.00  0.00    -0.051 A 
HETATM   16  C11 UNL     1      11.464  84.045 108.622  1.00  0.00     0.010 A 
HETATM   17  C12 UNL     1      12.607  83.525 109.220  1.00  0.00     0.031 A 
HETATM   18  C13 UNL     1      13.053  82.269 108.820  1.00  0.00     0.045 A 
HETATM   19  N2  UNL     1      14.099  81.502 109.195  1.00  0.00    -0.345 N 
HETATM   20  C16 UNL     1      12.372  81.561 107.852  1.00  0.00     0.012 A 
HETATM   21  C14 UNL     1      14.116  80.351 108.516  1.00  0.00     0.122 A 
ATOM     22  H2  UNL     1      14.785  81.767 109.901  1.00  0.00     0.167 HD
HETATM   23 CL1  UNL     1      15.271  79.018 108.635  1.00  0.00    -0.063 Cl
HETATM   24  C15 UNL     1      13.041  80.357 107.662  1.00  0.00     0.062 A 
HETATM   25 BR1  UNL     1      12.498  78.997 106.413  1.00  0.00    -0.047 Br
HETATM   26  C17 UNL     1      11.253  82.123 107.297  1.00  0.00     0.022 A 
ENDBRANCH   1  15
TORSDOF 8
ENDMDL
MODEL 2
REMARK VINA RESULT: -7.489867798      9.462     11.631
REMARK  8 active torsions:
REMARK  status: ('A' for Active; 'I' for Inactive)
REMARK    1  A    between atoms: C2_2  and  C3_3 
REMARK    2  A    between atoms: C3_3  and  C4_4 
REMARK    3  A    between atoms: C3_3  and  C10_15 
REMARK    4  A    between atoms: C4_4  and  N1_5 
REMARK    5  A    between atoms: N1_5  and  C5_8 
REMARK    6  A    between atoms: C5_8  and  C6_9 
REMARK    7  A    between atoms: C6_9  and  S1_10 
REMARK    8  A    between atoms: S1_10  and  C7_12 
ROOT
HETATM    1  C3  UNL     1       1.365  87.341 100.064  1.00  0.00     0.044 C 
ENDROOT
BRANCH   1   2
HETATM    2  C2  UNL     1       1.290  86.334 101.162  1.00  0.00     0.006 C 
HETATM    3  C1  UNL     1       0.387  85.193 100.743  1.00  0.00     0.006 C 
ENDBRANCH   1   2
BRANCH   1   4
HETATM    4  C4  UNL     1       0.237  88.276  99.918  1.00  0.00     0.241 C 
BRANCH   4   5
HETATM    5  N1  UNL     1      -0.480  88.278  98.705  1.00  0.00    -0.074 N 
ATOM      6  H12 UNL     1       0.111  88.020  97.915  1.00  0.00     0.277 HD
ATOM      7  H11 UNL     1      -1.145  87.506  98.656  1.00  0.00     0.277 HD
BRANCH   5   8
HETATM    8  C5  UNL     1      -1.120  89.551  98.503  1.00  0.00     0.244 C 
BRANCH   8   9
HETATM    9  C6  UNL     1      -0.327  90.723  98.958  1.00  0.00     0.136 C 
BRANCH   9  10
HETATM   10  S1  UNL     1      -1.149  91.876  99.978  1.00  0.00     0.020 S 
HETATM   11  O1  UNL     1      -1.077  93.460  99.439  1.00  0.00    -0.258 OA
BRANCH  10  12
HETATM   12  C7  UNL     1      -0.317  91.852 101.570  1.00  0.00     0.071 C 
HETATM   13  C8  UNL     1      -0.942  90.883 102.519  1.00  0.00     0.023 C 
HETATM   14  C9  UNL     1       1.153  91.613 101.377  1.00  0.00     0.023 C 
ENDBRANCH  10  12
ENDBRANCH   9  10
ENDBRANCH   8   9
ENDBRANCH   5   8
ENDBRANCH   4   5
ENDBRANCH   1   4
BRANCH   1  15
HETATM   15  C10 UNL     1       2.684  88.017 100.153  1.00  0.00    -0.051 A 
HETATM   16  C11 UNL     1       3.208  88.761  99.114  1.00  0.00     0.010 A 
HETATM   17  C12 UNL     1       4.441  89.400  99.186  1.00  0.00     0.031 A 
HETATM   18  C13 UNL     1       5.181  89.284 100.359  1.00  0.00     0.045 A 
HETATM   19  N2  UNL     1       6.381  89.770 100.741  1.00  0.00    -0.345 N 
HETATM   20  C16 UNL     1       4.696  88.551 101.422  1.00  0.00     0.012 A 
HETATM   21  C14 UNL     1       6.680  89.384 101.985  1.00  0.00     0.122 A 
ATOM     22  H2  UNL     1       6.980  90.354 100.157  1.00  0.00     0.167 HD
HETATM   23 CL1  UNL     1       8.125  89.750 102.936  1.00  0.00    -0.063 Cl
HETATM   24  C15 UNL     1       5.639  88.615 102.442  1.00  0.00     0.062 A 
HETATM   25 BR1  UNL     1       5.447  87.756 104.154  1.00  0.00    -0.047 Br
HETATM   26  C17 UNL     1       3.476  87.944 101.294  1.00  0.00     0.022 A 
ENDBRANCH   1  15
TORSDOF 8
ENDMDL
MODEL 3
REMARK VINA RESULT: -7.441513484     10.220     12.670
REMARK  8 active torsions:
REMARK  status: ('A' for Active; 'I' for Inactive)
REMARK    1  A    between atoms: C2_2  and  C3_3 
REMARK    2  A    between atoms: C3_3  and  C4_4 
REMARK    3  A    between atoms: C3_3  and  C10_15 
REMARK    4  A    between atoms: C4_4  and  N1_5 
REMARK    5  A    between atoms: N1_5  and  C5_8 
REMARK    6  A    between atoms: C5_8  and  C6_9 
REMARK    7  A    between atoms: C6_9  and  S1_10 
REMARK    8  A    between atoms: S1_10  and  C7_12 
ROOT
HETATM    1  C3  UNL     1       5.228  89.836 102.127  1.00  0.00     0.044 C 
ENDROOT
BRANCH   1   2
HETATM    2  C2  UNL     1       5.665  88.970 103.260  1.00  0.00     0.006 C 
HETATM    3  C1  UNL     1       6.911  89.552 103.894  1.00  0.00     0.006 C 
ENDBRANCH   1   2
BRANCH   1   4
HETATM    4  C4  UNL     1       6.166  90.019 101.007  1.00  0.00     0.241 C 
BRANCH   4   5
HETATM    5  N1  UNL     1       5.909  91.045 100.077  1.00  0.00    -0.074 N 
ATOM      6  H12 UNL     1       4.964  91.417 100.174  1.00  0.00     0.277 HD
ATOM      7  H11 UNL     1       6.430  91.895 100.295  1.00  0.00     0.277 HD
BRANCH   5   8
HETATM    8  C5  UNL     1       6.169  90.586  98.738  1.00  0.00     0.244 C 
BRANCH   8   9
HETATM    9  C6  UNL     1       6.049  89.116  98.553  1.00  0.00     0.136 C 
BRANCH   9  10
HETATM   10  S1  UNL     1       6.180  88.521  96.918  1.00  0.00     0.020 S 
HETATM   11  O1  UNL     1       6.824  89.615  95.825  1.00  0.00    -0.258 OA
BRANCH  10  12
HETATM   12  C7  UNL     1       4.511  88.173  96.352  1.00  0.00     0.071 C 
HETATM   13  C8  UNL     1       4.405  86.841  95.688  1.00  0.00     0.023 C 
HETATM   14  C9  UNL     1       3.541  88.337  97.487  1.00  0.00     0.023 C 
ENDBRANCH  10  12
ENDBRANCH   9  10
ENDBRANCH   8   9
ENDBRANCH   5   8
ENDBRANCH   4   5
ENDBRANCH   1   4
BRANCH   1  15
HETATM   15  C10 UNL     1       3.880  89.385 101.700  1.00  0.00    -0.051 A 
HETATM   16  C11 UNL     1       3.602  88.068 101.388  1.00  0.00     0.010 A 
HETATM   17  C12 UNL     1       2.343  87.634 100.988  1.00  0.00     0.031 A 
HETATM   18  C13 UNL     1       1.315  88.568 100.900  1.00  0.00     0.045 A 
HETATM   19  N2  UNL     1       0.014  88.474 100.554  1.00  0.00    -0.345 N 
HETATM   20  C16 UNL     1       1.548  89.893 101.204  1.00  0.00     0.012 A 
HETATM   21  C14 UNL     1      -0.587  89.666 100.622  1.00  0.00     0.122 A 
ATOM     22  H2  UNL     1      -0.449  87.608 100.277  1.00  0.00     0.167 HD
HETATM   23 CL1  UNL     1      -2.271  90.073 100.271  1.00  0.00    -0.063 Cl
HETATM   24  C15 UNL     1       0.352  90.581 101.029  1.00  0.00     0.062 A 
HETATM   25 BR1  UNL     1       0.132  92.471 101.323  1.00  0.00    -0.047 Br
HETATM   26  C17 UNL     1       2.808  90.264 101.591  1.00  0.00     0.022 A 
ENDBRANCH   1  15
TORSDOF 8
ENDMDL
MODEL 4
REMARK VINA RESULT: -7.433301201     11.606     15.054
REMARK  8 active torsions:
REMARK  status: ('A' for Active; 'I' for Inactive)
REMARK    1  A    between atoms: C2_2  and  C3_3 
REMARK    2  A    between atoms: C3_3  and  C4_4 
REMARK    3  A    between atoms: C3_3  and  C10_15 
REMARK    4  A    between atoms: C4_4  and  N1_5 
REMARK    5  A    between atoms: N1_5  and  C5_8 
REMARK    6  A    between atoms: C5_8  and  C6_9 
REMARK    7  A    between atoms: C6_9  and  S1_10 
REMARK    8  A    between atoms: S1_10  and  C7_12 
ROOT
HETATM    1  C3  UNL     1       0.094  90.043 101.681  1.00  0.00     0.044 C 
ENDROOT
BRANCH   1   2
HETATM    2  C2  UNL     1      -0.162  91.226 102.553  1.00  0.00     0.006 C 
HETATM    3  C1  UNL     1       0.477  92.455 101.942  1.00  0.00     0.006 C 
ENDBRANCH   1   2
BRANCH   1   4
HETATM    4  C4  UNL     1       0.186  88.724 102.330  1.00  0.00     0.241 C 
BRANCH   4   5
HETATM    5  N1  UNL     1       1.463  88.183 102.573  1.00  0.00    -0.074 N 
ATOM      6  H12 UNL     1       2.122  88.894 102.892  1.00  0.00     0.277 HD
ATOM      7  H11 UNL     1       1.472  87.587 103.401  1.00  0.00     0.277 HD
BRANCH   5   8
HETATM    8  C5  UNL     1       1.946  87.490 101.408  1.00  0.00     0.244 C 
BRANCH   8   9
HETATM    9  C6  UNL     1       3.117  88.126 100.749  1.00  0.00     0.136 C 
BRANCH   9  10
HETATM   10  S1  UNL     1       4.501  88.452 101.761  1.00  0.00     0.020 S 
HETATM   11  O1  UNL     1       4.277  88.104 103.384  1.00  0.00    -0.258 OA
BRANCH  10  12
HETATM   12  C7  UNL     1       4.812  90.218 101.667  1.00  0.00     0.071 C 
HETATM   13  C8  UNL     1       6.089  90.530 100.960  1.00  0.00     0.023 C 
HETATM   14  C9  UNL     1       3.627  90.917 101.064  1.00  0.00     0.023 C 
ENDBRANCH  10  12
ENDBRANCH   9  10
ENDBRANCH   8   9
ENDBRANCH   5   8
ENDBRANCH   4   5
ENDBRANCH   1   4
BRANCH   1  15
HETATM   15  C10 UNL     1      -0.878  90.082 100.559  1.00  0.00    -0.051 A 
HETATM   16  C11 UNL     1      -2.225  90.321 100.753  1.00  0.00     0.010 A 
HETATM   17  C12 UNL     1      -3.144  90.362  99.710  1.00  0.00     0.031 A 
HETATM   18  C13 UNL     1      -2.687  90.153  98.412  1.00  0.00     0.045 A 
HETATM   19  N2  UNL     1      -3.303  90.131  97.212  1.00  0.00    -0.345 N 
HETATM   20  C16 UNL     1      -1.349  89.913  98.174  1.00  0.00     0.012 A 
HETATM   21  C14 UNL     1      -2.430  89.888  96.230  1.00  0.00     0.122 A 
ATOM     22  H2  UNL     1      -4.303  90.278  97.074  1.00  0.00     0.167 HD
HETATM   23 CL1  UNL     1      -2.733  89.757  94.493  1.00  0.00    -0.063 Cl
HETATM   24  C15 UNL     1      -1.191  89.746  96.802  1.00  0.00     0.062 A 
HETATM   25 BR1  UNL     1       0.492  89.386  95.939  1.00  0.00    -0.047 Br
HETATM   26  C17 UNL     1      -0.490  89.883  99.239  1.00  0.00     0.022 A 
ENDBRANCH   1  15
TORSDOF 8
ENDMDL
MODEL 5
REMARK VINA RESULT: -7.405899854     10.083     15.037
REMARK  8 active torsions:
REMARK  status: ('A' for Active; 'I' for Inactive)
REMARK    1  A    between atoms: C2_2  and  C3_3 
REMARK    2  A    between atoms: C3_3  and  C4_4 
REMARK    3  A    between atoms: C3_3  and  C10_15 
REMARK    4  A    between atoms: C4_4  and  N1_5 
REMARK    5  A    between atoms: N1_5  and  C5_8 
REMARK    6  A    between atoms: C5_8  and  C6_9 
REMARK    7  A    between atoms: C6_9  and  S1_10 
REMARK    8  A    between atoms: S1_10  and  C7_12 
ROOT
HETATM    1  C3  UNL     1       0.384  90.099 101.359  1.00  0.00     0.044 C 
ENDROOT
BRANCH   1   2
HETATM    2  C2  UNL     1       0.567  88.689 101.811  1.00  0.00     0.006 C 
HETATM    3  C1  UNL     1       0.283  88.590 103.295  1.00  0.00     0.006 C 
ENDBRANCH   1   2
BRANCH   1   4
HETATM    4  C4  UNL     1       1.573  90.820 100.873  1.00  0.00     0.241 C 
BRANCH   4   5
HETATM    5  N1  UNL     1       2.839  90.412 101.333  1.00  0.00    -0.074 N 
ATOM      6  H12 UNL     1       3.184  91.015 102.081  1.00  0.00     0.277 HD
ATOM      7  H11 UNL     1       2.791  89.536 101.855  1.00  0.00     0.277 HD
BRANCH   5   8
HETATM    8  C5  UNL     1       3.770  90.332 100.238  1.00  0.00     0.244 C 
BRANCH   8   9
HETATM    9  C6  UNL     1       5.160  89.983 100.630  1.00  0.00     0.136 C 
BRANCH   9  10
HETATM   10  S1  UNL     1       5.347  88.661 101.754  1.00  0.00     0.020 S 
HETATM   11  O1  UNL     1       3.961  87.755 102.003  1.00  0.00    -0.258 OA
BRANCH  10  12
HETATM   12  C7  UNL     1       5.764  89.383 103.345  1.00  0.00     0.071 C 
HETATM   13  C8  UNL     1       6.208  88.356 104.333  1.00  0.00     0.023 C 
HETATM   14  C9  UNL     1       6.768  90.486 103.161  1.00  0.00     0.023 C 
ENDBRANCH  10  12
ENDBRANCH   9  10
ENDBRANCH   8   9
ENDBRANCH   5   8
ENDBRANCH   4   5
ENDBRANCH   1   4
BRANCH   1  15
HETATM   15  C10 UNL     1      -0.756  90.130 100.408  1.00  0.00    -0.051 A 
HETATM   16  C11 UNL     1      -2.050  90.405 100.808  1.00  0.00     0.010 A 
HETATM   17  C12 UNL     1      -3.124  90.439  99.927  1.00  0.00     0.031 A 
HETATM   18  C13 UNL     1      -2.886  90.185  98.579  1.00  0.00     0.045 A 
HETATM   19  N2  UNL     1      -3.689  90.144  97.495  1.00  0.00    -0.345 N 
HETATM   20  C16 UNL     1      -1.609  89.907  98.136  1.00  0.00     0.012 A 
HETATM   21  C14 UNL     1      -2.990  89.855  96.393  1.00  0.00     0.122 A 
ATOM     22  H2  UNL     1      -4.695  90.310  97.515  1.00  0.00     0.167 HD
HETATM   23 CL1  UNL     1      -3.573  89.685  94.732  1.00  0.00    -0.063 Cl
HETATM   24  C15 UNL     1      -1.678  89.701  96.762  1.00  0.00     0.062 A 
HETATM   25 BR1  UNL     1      -0.163  89.279  95.650  1.00  0.00    -0.047 Br
HETATM   26  C17 UNL     1      -0.590  89.887  99.049  1.00  0.00     0.022 A 
ENDBRANCH   1  15
TORSDOF 8
ENDMDL
