MODEL 1
REMARK VINA RESULT: -7.544404563      0.000      0.000
REMARK  10 active torsions:
REMARK  status: ('A' for Active; 'I' for Inactive)
REMARK    1  A    between atoms: C2_2  and  C3_3 
REMARK    2  A    between atoms: C4_4  and  C5_5 
REMARK    3  A    between atoms: C8_8  and  C9_9 
REMARK    4  A    between atoms: C9_9  and  C10_10 
REMARK    5  A    between atoms: C10_10  and  C12_12 
REMARK    6  A    between atoms: C12_12  and  C14_14 
REMARK       I    between atoms: C14_14  and  N1_16 
REMARK    7  A    between atoms: N1_16  and  C15_18 
REMARK    8  A    between atoms: C15_18  and  C16_19 
REMARK    9  A    between atoms: C15_18  and  C20_23 
REMARK   10  A    between atoms: C16_19  and  C17_20 
ROOT
HETATM    1  C10 UNL     1       2.191  88.843  98.436  1.00  0.00    -0.002 C 
HETATM    2  C11 UNL     1       3.093  88.426  97.312  1.00  0.00     0.011 C 
ENDROOT
BRANCH   1   3
HETATM    3  C9  UNL     1       2.898  89.912  99.238  1.00  0.00     0.045 C 
BRANCH   3   4
HETATM    4  C8  UNL     1       3.833  89.366 100.256  1.00  0.00    -0.036 A 
HETATM    5  C7  UNL     1       3.383  88.697 101.378  1.00  0.00     0.010 A 
HETATM    6  C6  UNL     1       4.254  88.188 102.317  1.00  0.00     0.021 A 
HETATM    7  C5  UNL     1       5.622  88.316 102.192  1.00  0.00     0.019 A 
HETATM    8  C22 UNL     1       6.071  88.984 101.072  1.00  0.00     0.045 A 
HETATM    9  C21 UNL     1       5.200  89.493 100.132  1.00  0.00     0.041 A 
HETATM   10 CL1  UNL     1       5.804  90.333  98.723  1.00  0.00    -0.084 Cl
BRANCH   7  11
HETATM   11  C4  UNL     1       6.531  87.781 103.176  1.00  0.00    -0.067 C 
HETATM   12  C3  UNL     1       7.298  87.324 103.988  1.00  0.00    -0.101 C 
BRANCH  12  13
HETATM   13  C2  UNL     1       8.240  86.764 104.957  1.00  0.00     0.090 C 
HETATM   14  C1  UNL     1       9.096  85.755 104.237  1.00  0.00     0.018 C 
ENDBRANCH  12  13
ENDBRANCH   7  11
ENDBRANCH   3   4
ENDBRANCH   1   3
BRANCH   1  15
HETATM   15  C12 UNL     1       0.950  89.483  97.874  1.00  0.00     0.078 C 
HETATM   16  C13 UNL     1       0.562  88.877  96.537  1.00  0.00     0.020 C 
BRANCH  15  17
HETATM   17  C14 UNL     1      -0.207  89.444  98.783  1.00  0.00     0.222 C 
HETATM   18  O1  UNL     1      -0.651  88.300  99.088  1.00  0.00    -0.273 OA
HETATM   19  N1  UNL     1      -0.818  90.577  99.312  1.00  0.00    -0.346 N 
ATOM     20  H1  UNL     1      -0.474  91.507  99.071  1.00  0.00     0.163 HD
BRANCH  19  21
HETATM   21  C15 UNL     1      -1.957  90.424 100.216  1.00  0.00     0.185 C 
BRANCH  21  22
HETATM   22  C16 UNL     1      -1.696  91.272 101.426  1.00  0.00     0.040 C 
BRANCH  22  23
HETATM   23  C17 UNL     1      -0.360  91.031 102.058  1.00  0.00    -0.020 C 
HETATM   24  C18 UNL     1       0.524  92.263 102.012  1.00  0.00     0.009 C 
HETATM   25  C19 UNL     1      -0.609  90.611 103.510  1.00  0.00     0.009 C 
ENDBRANCH  22  23
ENDBRANCH  21  22
BRANCH  21  26
HETATM   26  C20 UNL     1      -3.163  90.766  99.461  1.00  0.00     0.196 C 
HETATM   27  O2  UNL     1      -3.559  91.967  99.412  1.00  0.00    -0.646 OA
HETATM   28  O3  UNL     1      -3.953  89.864  98.758  1.00  0.00    -0.646 OA
ENDBRANCH  21  26
ENDBRANCH  19  21
ENDBRANCH  15  17
ENDBRANCH   1  15
TORSDOF 10
ENDMDL
MODEL 2
REMARK VINA RESULT: -7.453293345      3.837      8.777
REMARK  10 active torsions:
REMARK  status: ('A' for Active; 'I' for Inactive)
REMARK    1  A    between atoms: C2_2  and  C3_3 
REMARK    2  A    between atoms: C4_4  and  C5_5 
REMARK    3  A    between atoms: C8_8  and  C9_9 
REMARK    4  A    between atoms: C9_9  and  C10_10 
REMARK    5  A    between atoms: C10_10  and  C12_12 
REMARK    6  A    between atoms: C12_12  and  C14_14 
REMARK       I    between atoms: C14_14  and  N1_16 
REMARK    7  A    between atoms: N1_16  and  C15_18 
REMARK    8  A    between atoms: C15_18  and  C16_19 
REMARK    9  A    between atoms: C15_18  and  C20_23 
REMARK   10  A    between atoms: C16_19  and  C17_20 
ROOT
HETATM    1  C10 UNL     1       1.405  89.063 100.739  1.00  0.00    -0.002 C 
HETATM    2  C11 UNL     1       1.935  88.525 102.035  1.00  0.00     0.011 C 
ENDROOT
BRANCH   1   3
HETATM    3  C9  UNL     1      -0.103  89.122 100.833  1.00  0.00     0.045 C 
BRANCH   3   4
HETATM    4  C8  UNL     1      -0.770  89.292  99.515  1.00  0.00    -0.036 A 
HETATM    5  C7  UNL     1      -0.335  88.627  98.384  1.00  0.00     0.010 A 
HETATM    6  C6  UNL     1      -0.959  88.785  97.165  1.00  0.00     0.021 A 
HETATM    7  C5  UNL     1      -2.051  89.612  97.003  1.00  0.00     0.019 A 
HETATM    8  C22 UNL     1      -2.485  90.274  98.132  1.00  0.00     0.045 A 
HETATM    9  C21 UNL     1      -1.861  90.117  99.352  1.00  0.00     0.041 A 
HETATM   10 CL1  UNL     1      -2.439  90.972 100.762  1.00  0.00    -0.084 Cl
BRANCH   7  11
HETATM   11  C4  UNL     1      -2.704  89.773  95.726  1.00  0.00    -0.067 C 
HETATM   12  C3  UNL     1      -3.260  89.897  94.663  1.00  0.00    -0.101 C 
BRANCH  12  13
HETATM   13  C2  UNL     1      -3.953  90.042  93.383  1.00  0.00     0.090 C 
HETATM   14  C1  UNL     1      -2.975  90.618  92.392  1.00  0.00     0.018 C 
ENDBRANCH  12  13
ENDBRANCH   7  11
ENDBRANCH   3   4
ENDBRANCH   1   3
BRANCH   1  15
HETATM   15  C12 UNL     1       1.874  90.482 100.554  1.00  0.00     0.078 C 
HETATM   16  C13 UNL     1       1.112  91.446 101.447  1.00  0.00     0.020 C 
BRANCH  15  17
HETATM   17  C14 UNL     1       3.320  90.664 100.758  1.00  0.00     0.222 C 
HETATM   18  O1  UNL     1       3.674  91.648 101.469  1.00  0.00    -0.273 OA
HETATM   19  N1  UNL     1       4.292  89.824 100.221  1.00  0.00    -0.346 N 
ATOM     20  H1  UNL     1       4.022  89.029  99.641  1.00  0.00     0.163 HD
BRANCH  19  21
HETATM   21  C15 UNL     1       5.704  90.091 100.496  1.00  0.00     0.185 C 
BRANCH  21  22
HETATM   22  C16 UNL     1       6.268  88.886 101.190  1.00  0.00     0.040 C 
BRANCH  22  23
HETATM   23  C17 UNL     1       6.551  89.103 102.645  1.00  0.00    -0.020 C 
HETATM   24  C18 UNL     1       6.697  90.575 102.984  1.00  0.00     0.009 C 
HETATM   25  C19 UNL     1       5.390  88.491 103.433  1.00  0.00     0.009 C 
ENDBRANCH  22  23
ENDBRANCH  21  22
BRANCH  21  26
HETATM   26  C20 UNL     1       6.338  90.433  99.222  1.00  0.00     0.196 C 
HETATM   27  O2  UNL     1       6.186  91.589  98.730  1.00  0.00    -0.646 OA
HETATM   28  O3  UNL     1       7.129  89.577  98.464  1.00  0.00    -0.646 OA
ENDBRANCH  21  26
ENDBRANCH  19  21
ENDBRANCH  15  17
ENDBRANCH   1  15
TORSDOF 10
ENDMDL
MODEL 3
REMARK VINA RESULT: -7.431522641      3.009      5.413
REMARK  10 active torsions:
REMARK  status: ('A' for Active; 'I' for Inactive)
REMARK    1  A    between atoms: C2_2  and  C3_3 
REMARK    2  A    between atoms: C4_4  and  C5_5 
REMARK    3  A    between atoms: C8_8  and  C9_9 
REMARK    4  A    between atoms: C9_9  and  C10_10 
REMARK    5  A    between atoms: C10_10  and  C12_12 
REMARK    6  A    between atoms: C12_12  and  C14_14 
REMARK       I    between atoms: C14_14  and  N1_16 
REMARK    7  A    between atoms: N1_16  and  C15_18 
REMARK    8  A    between atoms: C15_18  and  C16_19 
REMARK    9  A    between atoms: C15_18  and  C20_23 
REMARK   10  A    between atoms: C16_19  and  C17_20 
ROOT
HETATM    1  C10 UNL     1      -0.504  89.676  98.636  1.00  0.00    -0.002 C 
HETATM    2  C11 UNL     1      -1.947  90.047  98.466  1.00  0.00     0.011 C 
ENDROOT
BRANCH   1   3
HETATM    3  C9  UNL     1      -0.360  88.920  99.937  1.00  0.00     0.045 C 
BRANCH   3   4
HETATM    4  C8  UNL     1       0.991  89.044 100.546  1.00  0.00    -0.036 A 
HETATM    5  C7  UNL     1       1.636  90.262 100.651  1.00  0.00     0.010 A 
HETATM    6  C6  UNL     1       2.886  90.374 101.220  1.00  0.00     0.021 A 
HETATM    7  C5  UNL     1       3.565  89.280 101.717  1.00  0.00     0.019 A 
HETATM    8  C22 UNL     1       2.921  88.066 101.612  1.00  0.00     0.045 A 
HETATM    9  C21 UNL     1       1.670  87.953 101.042  1.00  0.00     0.041 A 
HETATM   10 CL1  UNL     1       0.883  86.397 100.927  1.00  0.00    -0.084 Cl
BRANCH   7  11
HETATM   11  C4  UNL     1       4.873  89.401 102.314  1.00  0.00    -0.067 C 
HETATM   12  C3  UNL     1       5.960  89.506 102.827  1.00  0.00    -0.101 C 
BRANCH  12  13
HETATM   13  C2  UNL     1       7.269  89.631 103.467  1.00  0.00     0.090 C 
HETATM   14  C1  UNL     1       7.227  88.855 104.758  1.00  0.00     0.018 C 
ENDBRANCH  12  13
ENDBRANCH   7  11
ENDBRANCH   3   4
ENDBRANCH   1   3
BRANCH   1  15
HETATM   15  C12 UNL     1      -0.097  88.723  97.543  1.00  0.00     0.078 C 
HETATM   16  C13 UNL     1      -1.081  88.743  96.387  1.00  0.00     0.020 C 
BRANCH  15  17
HETATM   17  C14 UNL     1       1.264  88.949  97.031  1.00  0.00     0.222 C 
HETATM   18  O1  UNL     1       1.378  89.736  96.049  1.00  0.00    -0.273 OA
HETATM   19  N1  UNL     1       2.404  88.353  97.565  1.00  0.00    -0.346 N 
ATOM     20  H1  UNL     1       2.326  87.711  98.355  1.00  0.00     0.163 HD
BRANCH  19  21
HETATM   21  C15 UNL     1       3.712  88.654  96.985  1.00  0.00     0.185 C 
BRANCH  21  22
HETATM   22  C16 UNL     1       4.717  88.645  98.099  1.00  0.00     0.040 C 
BRANCH  22  23
HETATM   23  C17 UNL     1       5.901  89.528  97.854  1.00  0.00    -0.020 C 
HETATM   24  C18 UNL     1       6.103  90.535  98.971  1.00  0.00     0.009 C 
HETATM   25  C19 UNL     1       7.130  88.622  97.727  1.00  0.00     0.009 C 
ENDBRANCH  22  23
ENDBRANCH  21  22
BRANCH  21  26
HETATM   26  C20 UNL     1       3.951  87.681  95.919  1.00  0.00     0.196 C 
HETATM   27  O2  UNL     1       4.543  86.592  96.177  1.00  0.00    -0.646 OA
HETATM   28  O3  UNL     1       3.575  87.838  94.590  1.00  0.00    -0.646 OA
ENDBRANCH  21  26
ENDBRANCH  19  21
ENDBRANCH  15  17
ENDBRANCH   1  15
TORSDOF 10
ENDMDL
MODEL 4
REMARK VINA RESULT: -7.265574672      2.526      4.542
REMARK  10 active torsions:
REMARK  status: ('A' for Active; 'I' for Inactive)
REMARK    1  A    between atoms: C2_2  and  C3_3 
REMARK    2  A    between atoms: C4_4  and  C5_5 
REMARK    3  A    between atoms: C8_8  and  C9_9 
REMARK    4  A    between atoms: C9_9  and  C10_10 
REMARK    5  A    between atoms: C10_10  and  C12_12 
REMARK    6  A    between atoms: C12_12  and  C14_14 
REMARK       I    between atoms: C14_14  and  N1_16 
REMARK    7  A    between atoms: N1_16  and  C15_18 
REMARK    8  A    between atoms: C15_18  and  C16_19 
REMARK    9  A    between atoms: C15_18  and  C20_23 
REMARK   10  A    between atoms: C16_19  and  C17_20 
ROOT
HETATM    1  C10 UNL     1      -0.691  90.204 100.143  1.00  0.00    -0.002 C 
HETATM    2  C11 UNL     1      -0.995  90.054 101.604  1.00  0.00     0.011 C 
ENDROOT
BRANCH   1   3
HETATM    3  C9  UNL     1       0.245  89.088  99.737  1.00  0.00     0.045 C 
BRANCH   3   4
HETATM    4  C8  UNL     1       1.522  89.082 100.498  1.00  0.00    -0.036 A 
HETATM    5  C7  UNL     1       2.284  90.225 100.656  1.00  0.00     0.010 A 
HETATM    6  C6  UNL     1       3.466  90.215 101.366  1.00  0.00     0.021 A 
HETATM    7  C5  UNL     1       3.955  89.069 101.957  1.00  0.00     0.019 A 
HETATM    8  C22 UNL     1       3.195  87.930 101.798  1.00  0.00     0.045 A 
HETATM    9  C21 UNL     1       2.012  87.938 101.089  1.00  0.00     0.041 A 
HETATM   10 CL1  UNL     1       1.074  86.475 100.908  1.00  0.00    -0.084 Cl
BRANCH   7  11
HETATM   11  C4  UNL     1       5.192  89.063 102.701  1.00  0.00    -0.067 C 
HETATM   12  C3  UNL     1       6.224  89.042 103.326  1.00  0.00    -0.101 C 
BRANCH  12  13
HETATM   13  C2  UNL     1       7.476  88.997 104.080  1.00  0.00     0.090 C 
HETATM   14  C1  UNL     1       7.904  87.556 104.177  1.00  0.00     0.018 C 
ENDBRANCH  12  13
ENDBRANCH   7  11
ENDBRANCH   3   4
ENDBRANCH   1   3
BRANCH   1  15
HETATM   15  C12 UNL     1      -1.952  90.014  99.344  1.00  0.00     0.078 C 
HETATM   16  C13 UNL     1      -3.068  90.920  99.832  1.00  0.00     0.020 C 
BRANCH  15  17
HETATM   17  C14 UNL     1      -1.774  90.196  97.894  1.00  0.00     0.222 C 
HETATM   18  O1  UNL     1      -1.175  91.245  97.523  1.00  0.00    -0.273 OA
HETATM   19  N1  UNL     1      -2.219  89.288  96.937  1.00  0.00    -0.346 N 
ATOM     20  H1  UNL     1      -2.709  88.439  97.222  1.00  0.00     0.163 HD
BRANCH  19  21
HETATM   21  C15 UNL     1      -1.980  89.562  95.520  1.00  0.00     0.185 C 
BRANCH  21  22
HETATM   22  C16 UNL     1      -0.894  88.637  95.055  1.00  0.00     0.040 C 
BRANCH  22  23
HETATM   23  C17 UNL     1       0.389  89.331  94.719  1.00  0.00    -0.020 C 
HETATM   24  C18 UNL     1       0.170  90.784  94.340  1.00  0.00     0.009 C 
HETATM   25  C19 UNL     1       1.297  89.236  95.949  1.00  0.00     0.009 C 
ENDBRANCH  22  23
ENDBRANCH  21  22
BRANCH  21  26
HETATM   26  C20 UNL     1      -3.261  89.421  94.827  1.00  0.00     0.196 C 
HETATM   27  O2  UNL     1      -3.953  88.372  94.981  1.00  0.00    -0.646 OA
HETATM   28  O3  UNL     1      -3.822  90.367  93.977  1.00  0.00    -0.646 OA
ENDBRANCH  21  26
ENDBRANCH  19  21
ENDBRANCH  15  17
ENDBRANCH   1  15
TORSDOF 10
ENDMDL
MODEL 5
REMARK VINA RESULT: -7.261067067      1.094      1.496
REMARK  10 active torsions:
REMARK  status: ('A' for Active; 'I' for Inactive)
REMARK    1  A    between atoms: C2_2  and  C3_3 
REMARK    2  A    between atoms: C4_4  and  C5_5 
REMARK    3  A    between atoms: C8_8  and  C9_9 
REMARK    4  A    between atoms: C9_9  and  C10_10 
REMARK    5  A    between atoms: C10_10  and  C12_12 
REMARK    6  A    between atoms: C12_12  and  C14_14 
REMARK       I    between atoms: C14_14  and  N1_16 
REMARK    7  A    between atoms: N1_16  and  C15_18 
REMARK    8  A    between atoms: C15_18  and  C16_19 
REMARK    9  A    between atoms: C15_18  and  C20_23 
REMARK   10  A    between atoms: C16_19  and  C17_20 
ROOT
HETATM    1  C10 UNL     1       3.155  88.501  97.817  1.00  0.00    -0.002 C 
HETATM    2  C11 UNL     1       3.744  88.006  96.529  1.00  0.00     0.011 C 
ENDROOT
BRANCH   1   3
HETATM    3  C9  UNL     1       4.100  89.523  98.407  1.00  0.00     0.045 C 
BRANCH   3   4
HETATM    4  C8  UNL     1       4.576  89.169  99.771  1.00  0.00    -0.036 A 
HETATM    5  C7  UNL     1       3.705  88.779 100.771  1.00  0.00     0.010 A 
HETATM    6  C6  UNL     1       4.152  88.448 102.032  1.00  0.00     0.021 A 
HETATM    7  C5  UNL     1       5.489  88.485 102.369  1.00  0.00     0.019 A 
HETATM    8  C22 UNL     1       6.357  88.874 101.371  1.00  0.00     0.045 A 
HETATM    9  C21 UNL     1       5.911  89.205 100.108  1.00  0.00     0.041 A 
HETATM   10 CL1  UNL     1       7.041  89.693  98.867  1.00  0.00    -0.084 Cl
BRANCH   7  11
HETATM   11  C4  UNL     1       5.953  88.135 103.690  1.00  0.00    -0.067 C 
HETATM   12  C3  UNL     1       6.356  87.844 104.789  1.00  0.00    -0.101 C 
BRANCH  12  13
HETATM   13  C2  UNL     1       6.862  87.498 106.117  1.00  0.00     0.090 C 
HETATM   14  C1  UNL     1       7.933  86.453 105.944  1.00  0.00     0.018 C 
ENDBRANCH  12  13
ENDBRANCH   7  11
ENDBRANCH   3   4
ENDBRANCH   1   3
BRANCH   1  15
HETATM   15  C12 UNL     1       1.867  89.226  97.536  1.00  0.00     0.078 C 
HETATM   16  C13 UNL     1       1.358  88.943  96.133  1.00  0.00     0.020 C 
BRANCH  15  17
HETATM   17  C14 UNL     1       0.799  88.947  98.509  1.00  0.00     0.222 C 
HETATM   18  O1  UNL     1       0.357  87.763  98.543  1.00  0.00    -0.273 OA
HETATM   19  N1  UNL     1       0.268  89.900  99.375  1.00  0.00    -0.346 N 
ATOM     20  H1  UNL     1       0.611  90.860  99.354  1.00  0.00     0.163 HD
BRANCH  19  21
HETATM   21  C15 UNL     1      -0.786  89.512 100.312  1.00  0.00     0.185 C 
BRANCH  21  22
HETATM   22  C16 UNL     1      -0.259  89.720 101.701  1.00  0.00     0.040 C 
BRANCH  22  23
HETATM   23  C17 UNL     1      -0.703  91.004 102.331  1.00  0.00    -0.020 C 
HETATM   24  C18 UNL     1      -0.956  90.851 103.820  1.00  0.00     0.009 C 
HETATM   25  C19 UNL     1       0.397  92.040 102.085  1.00  0.00     0.009 C 
ENDBRANCH  22  23
ENDBRANCH  21  22
BRANCH  21  26
HETATM   26  C20 UNL     1      -1.978  90.288  99.972  1.00  0.00     0.196 C 
HETATM   27  O2  UNL     1      -3.126  89.853 100.281  1.00  0.00    -0.646 OA
HETATM   28  O3  UNL     1      -1.979  91.513  99.315  1.00  0.00    -0.646 OA
ENDBRANCH  21  26
ENDBRANCH  19  21
ENDBRANCH  15  17
ENDBRANCH   1  15
TORSDOF 10
ENDMDL
