MODEL 1
REMARK VINA RESULT: -6.968360997      0.000      0.000
REMARK  9 active torsions:
REMARK  status: ('A' for Active; 'I' for Inactive)
REMARK    1  A    between atoms: C2_2  and  C3_3 
REMARK    2  A    between atoms: C3_3  and  C4_4 
REMARK    3  A    between atoms: C4_4  and  C5_5 
REMARK    4  A    between atoms: C5_5  and  C6_6 
REMARK    5  A    between atoms: C6_6  and  S1_7 
REMARK    6  A    between atoms: S1_7  and  C7_9 
REMARK    7  A    between atoms: S1_7  and  N1_11 
REMARK    8  A    between atoms: N1_11  and  C8_13 
REMARK       I    between atoms: N3_19  and  C12_21 
REMARK    9  A    between atoms: C12_21  and  C13_23 
ROOT
HETATM    1  C8  UNL     1       1.086  89.239  98.698  1.00  0.00     0.044 A 
HETATM    2  C9  UNL     1       1.772  88.608  97.686  1.00  0.00     0.047 A 
HETATM    3  C10 UNL     1       3.152  88.686  97.573  1.00  0.00     0.092 A 
HETATM    4  N2  UNL     1       3.861  89.402  98.481  1.00  0.00    -0.352 N 
ATOM      5  H2  UNL     1       4.877  89.464  98.404  1.00  0.00     0.166 HD
HETATM    6  C11 UNL     1       3.225  90.030  99.480  1.00  0.00     0.109 A 
HETATM    7  N3  UNL     1       3.910  90.714 100.346  1.00  0.00    -0.308 N 
ATOM      8  H3  UNL     1       3.432  91.193 101.108  1.00  0.00     0.170 HD
HETATM    9  C12 UNL     1       5.339  90.796 100.232  1.00  0.00     0.269 C 
HETATM   10  O2  UNL     1       5.803  91.817  99.704  1.00  0.00    -0.266 OA
HETATM   11  C17 UNL     1       1.836  89.956  99.601  1.00  0.00     0.078 A 
ENDROOT
BRANCH   1  12
HETATM   12  N1  UNL     1      -0.314  89.188  98.845  1.00  0.00    -0.313 N 
ATOM     13  H1  UNL     1      -0.675  88.451  99.451  1.00  0.00     0.176 HD
BRANCH  12  14
HETATM   14  S1  UNL     1      -1.470  90.200  98.139  1.00  0.00     0.057 S 
HETATM   15  O1  UNL     1      -0.925  91.596  97.852  1.00  0.00    -0.244 OA
BRANCH  14  16
HETATM   16  C6  UNL     1      -2.890  90.428  99.205  1.00  0.00     0.122 C 
BRANCH  16  17
HETATM   17  C5  UNL     1      -2.441  90.161 100.627  1.00  0.00     0.014 C 
BRANCH  17  18
HETATM   18  C4  UNL     1      -1.951  91.451 101.257  1.00  0.00     0.001 C 
BRANCH  18  19
HETATM   19  C3  UNL     1      -0.889  91.034 102.277  1.00  0.00    -0.000 C 
BRANCH  19  20
HETATM   20  C2  UNL     1       0.341  91.907 102.175  1.00  0.00    -0.005 C 
HETATM   21  C1  UNL     1       0.024  93.016 101.204  1.00  0.00     0.005 C 
ENDBRANCH  19  20
ENDBRANCH  18  19
ENDBRANCH  17  18
ENDBRANCH  16  17
ENDBRANCH  14  16
BRANCH  14  22
HETATM   22  C7  UNL     1      -1.930  89.778  96.681  1.00  0.00     0.171 C 
HETATM   23 CL1  UNL     1      -3.613  89.743  96.345  1.00  0.00    -0.086 Cl
ENDBRANCH  14  22
ENDBRANCH  12  14
ENDBRANCH   1  12
BRANCH   9  24
HETATM   24  C13 UNL     1       6.201  89.746 100.709  1.00  0.00     0.103 C 
HETATM   25 CL2  UNL     1       6.932  88.641  99.550  1.00  0.00    -0.078 Cl
HETATM   26  C14 UNL     1       6.469  89.573 101.971  1.00  0.00    -0.060 C 
HETATM   27  C15 UNL     1       7.379  88.457 102.416  1.00  0.00     0.045 C 
HETATM   28  C16 UNL     1       5.903  90.443 103.005  1.00  0.00     0.045 C 
ENDBRANCH   9  24
TORSDOF 9
ENDMDL
MODEL 2
REMARK VINA RESULT: -6.891684097      2.944      7.619
REMARK  9 active torsions:
REMARK  status: ('A' for Active; 'I' for Inactive)
REMARK    1  A    between atoms: C2_2  and  C3_3 
REMARK    2  A    between atoms: C3_3  and  C4_4 
REMARK    3  A    between atoms: C4_4  and  C5_5 
REMARK    4  A    between atoms: C5_5  and  C6_6 
REMARK    5  A    between atoms: C6_6  and  S1_7 
REMARK    6  A    between atoms: S1_7  and  C7_9 
REMARK    7  A    between atoms: S1_7  and  N1_11 
REMARK    8  A    between atoms: N1_11  and  C8_13 
REMARK       I    between atoms: N3_19  and  C12_21 
REMARK    9  A    between atoms: C12_21  and  C13_23 
ROOT
HETATM    1  C8  UNL     1      -0.467  89.747 100.578  1.00  0.00     0.044 A 
HETATM    2  C9  UNL     1      -1.742  90.233 100.753  1.00  0.00     0.047 A 
HETATM    3  C10 UNL     1      -2.536  90.619  99.683  1.00  0.00     0.092 A 
HETATM    4  N2  UNL     1      -2.053  90.520  98.419  1.00  0.00    -0.352 N 
ATOM      5  H2  UNL     1      -2.632  90.803  97.627  1.00  0.00     0.166 HD
HETATM    6  C11 UNL     1      -0.815  90.051  98.212  1.00  0.00     0.109 A 
HETATM    7  N3  UNL     1      -0.360  89.959  96.999  1.00  0.00    -0.308 N 
ATOM      8  H3  UNL     1       0.581  89.602  96.835  1.00  0.00     0.170 HD
HETATM    9  C12 UNL     1      -1.178  90.357  95.889  1.00  0.00     0.269 C 
HETATM   10  O2  UNL     1      -0.976  91.486  95.418  1.00  0.00    -0.266 OA
HETATM   11  C17 UNL     1      -0.011  89.659  99.283  1.00  0.00     0.078 A 
ENDROOT
BRANCH   1  12
HETATM   12  N1  UNL     1       0.371  89.348 101.638  1.00  0.00    -0.313 N 
ATOM     13  H1  UNL     1       0.005  89.495 102.579  1.00  0.00     0.176 HD
BRANCH  12  14
HETATM   14  S1  UNL     1       1.910  88.654 101.540  1.00  0.00     0.057 S 
HETATM   15  O1  UNL     1       2.348  88.019 102.856  1.00  0.00    -0.244 OA
BRANCH  14  16
HETATM   16  C6  UNL     1       3.159  89.871 101.132  1.00  0.00     0.122 C 
BRANCH  16  17
HETATM   17  C5  UNL     1       4.442  89.456 101.822  1.00  0.00     0.014 C 
BRANCH  17  18
HETATM   18  C4  UNL     1       5.402  90.630 101.860  1.00  0.00     0.001 C 
BRANCH  18  19
HETATM   19  C3  UNL     1       6.386  90.321 102.991  1.00  0.00    -0.000 C 
BRANCH  19  20
HETATM   20  C2  UNL     1       6.023  89.034 103.696  1.00  0.00    -0.005 C 
HETATM   21  C1  UNL     1       7.075  88.787 104.746  1.00  0.00     0.005 C 
ENDBRANCH  19  20
ENDBRANCH  18  19
ENDBRANCH  17  18
ENDBRANCH  16  17
ENDBRANCH  14  16
BRANCH  14  22
HETATM   22  C7  UNL     1       2.019  87.399 100.577  1.00  0.00     0.171 C 
HETATM   23 CL1  UNL     1       1.020  86.041 100.907  1.00  0.00    -0.086 Cl
ENDBRANCH  14  22
ENDBRANCH  12  14
ENDBRANCH   1  12
BRANCH   9  24
HETATM   24  C13 UNL     1      -2.189  89.491  95.340  1.00  0.00     0.103 C 
HETATM   25 CL2  UNL     1      -3.842  89.615  95.933  1.00  0.00    -0.078 Cl
HETATM   26  C14 UNL     1      -1.936  88.610  94.415  1.00  0.00    -0.060 C 
HETATM   27  C15 UNL     1      -3.032  87.728  93.876  1.00  0.00     0.045 C 
HETATM   28  C16 UNL     1      -0.589  88.437  93.865  1.00  0.00     0.045 C 
ENDBRANCH   9  24
TORSDOF 9
ENDMDL
MODEL 3
REMARK VINA RESULT: -6.824592744      1.281      1.973
REMARK  9 active torsions:
REMARK  status: ('A' for Active; 'I' for Inactive)
REMARK    1  A    between atoms: C2_2  and  C3_3 
REMARK    2  A    between atoms: C3_3  and  C4_4 
REMARK    3  A    between atoms: C4_4  and  C5_5 
REMARK    4  A    between atoms: C5_5  and  C6_6 
REMARK    5  A    between atoms: C6_6  and  S1_7 
REMARK    6  A    between atoms: S1_7  and  C7_9 
REMARK    7  A    between atoms: S1_7  and  N1_11 
REMARK    8  A    between atoms: N1_11  and  C8_13 
REMARK       I    between atoms: N3_19  and  C12_21 
REMARK    9  A    between atoms: C12_21  and  C13_23 
ROOT
HETATM    1  C8  UNL     1       1.104  89.360  98.661  1.00  0.00     0.044 A 
HETATM    2  C9  UNL     1       1.757  88.665  97.668  1.00  0.00     0.047 A 
HETATM    3  C10 UNL     1       3.139  88.676  97.550  1.00  0.00     0.092 A 
HETATM    4  N2  UNL     1       3.883  89.388  98.433  1.00  0.00    -0.352 N 
ATOM      5  H2  UNL     1       4.900  89.400  98.352  1.00  0.00     0.166 HD
HETATM    6  C11 UNL     1       3.280  90.077  99.412  1.00  0.00     0.109 A 
HETATM    7  N3  UNL     1       3.999  90.756 100.253  1.00  0.00    -0.308 N 
ATOM      8  H3  UNL     1       3.545  91.281 101.001  1.00  0.00     0.170 HD
HETATM    9  C12 UNL     1       5.429  90.768 100.135  1.00  0.00     0.269 C 
HETATM   10  O2  UNL     1       5.938  91.750  99.572  1.00  0.00    -0.266 OA
HETATM   11  C17 UNL     1       1.890  90.070  99.538  1.00  0.00     0.078 A 
ENDROOT
BRANCH   1  12
HETATM   12  N1  UNL     1      -0.297  89.378  98.812  1.00  0.00    -0.313 N 
ATOM     13  H1  UNL     1      -0.779  88.499  98.626  1.00  0.00     0.176 HD
BRANCH  12  14
HETATM   14  S1  UNL     1      -1.275  90.680  99.266  1.00  0.00     0.057 S 
HETATM   15  O1  UNL     1      -1.038  91.916  98.403  1.00  0.00    -0.244 OA
BRANCH  14  16
HETATM   16  C6  UNL     1      -0.965  91.184 100.956  1.00  0.00     0.122 C 
BRANCH  16  17
HETATM   17  C5  UNL     1      -1.170  89.969 101.838  1.00  0.00     0.014 C 
BRANCH  17  18
HETATM   18  C4  UNL     1       0.077  89.728 102.669  1.00  0.00     0.001 C 
BRANCH  18  19
HETATM   19  C3  UNL     1       0.471  88.273 102.406  1.00  0.00    -0.000 C 
BRANCH  19  20
HETATM   20  C2  UNL     1       1.973  88.117 102.330  1.00  0.00    -0.005 C 
HETATM   21  C1  UNL     1       2.261  87.038 101.318  1.00  0.00     0.005 C 
ENDBRANCH  19  20
ENDBRANCH  18  19
ENDBRANCH  17  18
ENDBRANCH  16  17
ENDBRANCH  14  16
BRANCH  14  22
HETATM   22  C7  UNL     1      -2.828  90.468  99.024  1.00  0.00     0.171 C 
HETATM   23 CL1  UNL     1      -3.338  89.959  97.465  1.00  0.00    -0.086 Cl
ENDBRANCH  14  22
ENDBRANCH  12  14
ENDBRANCH   1  12
BRANCH   9  24
HETATM   24  C13 UNL     1       6.244  89.696 100.644  1.00  0.00     0.103 C 
HETATM   25 CL2  UNL     1       7.100  88.654  99.512  1.00  0.00    -0.078 Cl
HETATM   26  C14 UNL     1       6.379  89.457 101.916  1.00  0.00    -0.060 C 
HETATM   27  C15 UNL     1       7.245  88.320 102.395  1.00  0.00     0.045 C 
HETATM   28  C16 UNL     1       5.703  90.272 102.929  1.00  0.00     0.045 C 
ENDBRANCH   9  24
TORSDOF 9
ENDMDL
MODEL 4
REMARK VINA RESULT: -6.716446332      2.913      7.951
REMARK  9 active torsions:
REMARK  status: ('A' for Active; 'I' for Inactive)
REMARK    1  A    between atoms: C2_2  and  C3_3 
REMARK    2  A    between atoms: C3_3  and  C4_4 
REMARK    3  A    between atoms: C4_4  and  C5_5 
REMARK    4  A    between atoms: C5_5  and  C6_6 
REMARK    5  A    between atoms: C6_6  and  S1_7 
REMARK    6  A    between atoms: S1_7  and  C7_9 
REMARK    7  A    between atoms: S1_7  and  N1_11 
REMARK    8  A    between atoms: N1_11  and  C8_13 
REMARK       I    between atoms: N3_19  and  C12_21 
REMARK    9  A    between atoms: C12_21  and  C13_23 
ROOT
HETATM    1  C8  UNL     1       2.498  88.477 101.687  1.00  0.00     0.044 A 
HETATM    2  C9  UNL     1       1.522  88.263 102.632  1.00  0.00     0.047 A 
HETATM    3  C10 UNL     1       0.265  88.843 102.536  1.00  0.00     0.092 A 
HETATM    4  N2  UNL     1      -0.024  89.648 101.482  1.00  0.00    -0.352 N 
ATOM      5  H2  UNL     1      -0.946  90.078 101.405  1.00  0.00     0.166 HD
HETATM    6  C11 UNL     1       0.905  89.878 100.543  1.00  0.00     0.109 A 
HETATM    7  N3  UNL     1       0.621  90.649  99.538  1.00  0.00    -0.308 N 
ATOM      8  H3  UNL     1       1.323  90.828  98.820  1.00  0.00     0.170 HD
HETATM    9  C12 UNL     1      -0.679  91.251  99.434  1.00  0.00     0.269 C 
HETATM   10  O2  UNL     1      -0.785  92.428  99.811  1.00  0.00    -0.266 OA
HETATM   11  C17 UNL     1       2.171  89.297 100.633  1.00  0.00     0.078 A 
ENDROOT
BRANCH   1  12
HETATM   12  N1  UNL     1       3.787  87.909 101.750  1.00  0.00    -0.313 N 
ATOM     13  H1  UNL     1       3.842  86.904 101.588  1.00  0.00     0.176 HD
BRANCH  12  14
HETATM   14  S1  UNL     1       5.252  88.693 102.063  1.00  0.00     0.057 S 
HETATM   15  O1  UNL     1       5.055  90.059 102.715  1.00  0.00    -0.244 OA
BRANCH  14  16
HETATM   16  C6  UNL     1       6.180  88.986 100.560  1.00  0.00     0.122 C 
BRANCH  16  17
HETATM   17  C5  UNL     1       5.822  90.373 100.066  1.00  0.00     0.014 C 
BRANCH  17  18
HETATM   18  C4  UNL     1       6.233  90.517  98.613  1.00  0.00     0.001 C 
BRANCH  18  19
HETATM   19  C3  UNL     1       7.107  89.298  98.310  1.00  0.00    -0.000 C 
BRANCH  19  20
HETATM   20  C2  UNL     1       6.875  88.794  96.903  1.00  0.00    -0.005 C 
HETATM   21  C1  UNL     1       5.571  88.039  96.908  1.00  0.00     0.005 C 
ENDBRANCH  19  20
ENDBRANCH  18  19
ENDBRANCH  17  18
ENDBRANCH  16  17
ENDBRANCH  14  16
BRANCH  14  22
HETATM   22  C7  UNL     1       6.166  87.995 103.155  1.00  0.00     0.171 C 
HETATM   23 CL1  UNL     1       6.811  88.972 104.411  1.00  0.00    -0.086 Cl
ENDBRANCH  14  22
ENDBRANCH  12  14
ENDBRANCH   1  12
BRANCH   9  24
HETATM   24  C13 UNL     1      -1.812  90.529  98.917  1.00  0.00     0.103 C 
HETATM   25 CL2  UNL     1      -3.157  90.158  99.989  1.00  0.00    -0.078 Cl
HETATM   26  C14 UNL     1      -1.889  90.134  97.679  1.00  0.00    -0.060 C 
HETATM   27  C15 UNL     1      -3.100  89.381  97.188  1.00  0.00     0.045 C 
HETATM   28  C16 UNL     1      -0.815  90.398  96.718  1.00  0.00     0.045 C 
ENDBRANCH   9  24
TORSDOF 9
ENDMDL
MODEL 5
REMARK VINA RESULT: -6.712962759      3.105      6.924
REMARK  9 active torsions:
REMARK  status: ('A' for Active; 'I' for Inactive)
REMARK    1  A    between atoms: C2_2  and  C3_3 
REMARK    2  A    between atoms: C3_3  and  C4_4 
REMARK    3  A    between atoms: C4_4  and  C5_5 
REMARK    4  A    between atoms: C5_5  and  C6_6 
REMARK    5  A    between atoms: C6_6  and  S1_7 
REMARK    6  A    between atoms: S1_7  and  C7_9 
REMARK    7  A    between atoms: S1_7  and  N1_11 
REMARK    8  A    between atoms: N1_11  and  C8_13 
REMARK       I    between atoms: N3_19  and  C12_21 
REMARK    9  A    between atoms: C12_21  and  C13_23 
ROOT
HETATM    1  C8  UNL     1       3.644  88.525  97.651  1.00  0.00     0.044 A 
HETATM    2  C9  UNL     1       2.687  88.731  96.685  1.00  0.00     0.047 A 
HETATM    3  C10 UNL     1       1.398  89.136  97.002  1.00  0.00     0.092 A 
HETATM    4  N2  UNL     1       1.057  89.338  98.300  1.00  0.00    -0.352 N 
ATOM      5  H2  UNL     1       0.111  89.636  98.540  1.00  0.00     0.166 HD
HETATM    6  C11 UNL     1       1.966  89.146  99.267  1.00  0.00     0.109 A 
HETATM    7  N3  UNL     1       1.633  89.342 100.506  1.00  0.00    -0.308 N 
ATOM      8  H3  UNL     1       2.319  89.198 101.246  1.00  0.00     0.170 HD
HETATM    9  C12 UNL     1       0.300  89.762 100.838  1.00  0.00     0.269 C 
HETATM   10  O2  UNL     1      -0.488  88.882 101.215  1.00  0.00    -0.266 OA
HETATM   11  C17 UNL     1       3.265  88.740  98.956  1.00  0.00     0.078 A 
ENDROOT
BRANCH   1  12
HETATM   12  N1  UNL     1       4.962  88.110  97.371  1.00  0.00    -0.313 N 
ATOM     13  H1  UNL     1       5.082  87.126  97.134  1.00  0.00     0.176 HD
BRANCH  12  14
HETATM   14  S1  UNL     1       6.369  89.048  97.380  1.00  0.00     0.057 S 
HETATM   15  O1  UNL     1       7.606  88.239  97.757  1.00  0.00    -0.244 OA
BRANCH  14  16
HETATM   16  C6  UNL     1       6.265  90.386  98.566  1.00  0.00     0.122 C 
BRANCH  16  17
HETATM   17  C5  UNL     1       6.470  89.790  99.944  1.00  0.00     0.014 C 
BRANCH  17  18
HETATM   18  C4  UNL     1       5.701  90.604 100.969  1.00  0.00     0.001 C 
BRANCH  18  19
HETATM   19  C3  UNL     1       5.739  89.781 102.259  1.00  0.00    -0.000 C 
BRANCH  19  20
HETATM   20  C2  UNL     1       6.771  90.321 103.223  1.00  0.00    -0.005 C 
HETATM   21  C1  UNL     1       7.012  89.257 104.263  1.00  0.00     0.005 C 
ENDBRANCH  19  20
ENDBRANCH  18  19
ENDBRANCH  17  18
ENDBRANCH  16  17
ENDBRANCH  14  16
BRANCH  14  22
HETATM   22  C7  UNL     1       6.818  89.595  95.961  1.00  0.00     0.171 C 
HETATM   23 CL1  UNL     1       6.196  88.816  94.563  1.00  0.00    -0.086 Cl
ENDBRANCH  14  22
ENDBRANCH  12  14
ENDBRANCH   1  12
BRANCH   9  24
HETATM   24  C13 UNL     1      -0.110  91.138 100.740  1.00  0.00     0.103 C 
HETATM   25 CL2  UNL     1       0.780  92.366 101.634  1.00  0.00    -0.078 Cl
HETATM   26  C14 UNL     1      -1.119  91.523 100.013  1.00  0.00    -0.060 C 
HETATM   27  C15 UNL     1      -1.505  92.978  99.945  1.00  0.00     0.045 C 
HETATM   28  C16 UNL     1      -1.916  90.569  99.237  1.00  0.00     0.045 C 
ENDBRANCH   9  24
TORSDOF 9
ENDMDL
