MODEL 1
REMARK VINA RESULT: -6.920563907      0.000      0.000
REMARK  9 active torsions:
REMARK  status: ('A' for Active; 'I' for Inactive)
REMARK    1  A    between atoms: C2_2  and  C3_3 
REMARK    2  A    between atoms: C4_4  and  C5_5 
REMARK    3  A    between atoms: C5_5  and  C6_6 
REMARK    4  A    between atoms: C6_6  and  C7_7 
REMARK    5  A    between atoms: C7_7  and  C9_9 
REMARK    6  A    between atoms: C9_9  and  N1_10 
REMARK    7  A    between atoms: C9_9  and  C17_23 
REMARK    8  A    between atoms: N1_10  and  C10_12 
REMARK    9  A    between atoms: C13_18  and  C14_19 
ROOT
HETATM    1  N1  UNL     1       4.317  88.094 101.842  1.00  0.00    -0.375 N 
ATOM      2  H1  UNL     1       4.853  87.267 101.578  1.00  0.00     0.160 HD
ENDROOT
BRANCH   1   3
HETATM    3  C9  UNL     1       5.049  89.215 102.361  1.00  0.00     0.187 C 
BRANCH   3   4
HETATM    4  C7  UNL     1       5.864  89.922 101.335  1.00  0.00     0.015 C 
HETATM    5  C8  UNL     1       5.067  91.170 100.923  1.00  0.00     0.012 C 
BRANCH   4   6
HETATM    6  C6  UNL     1       6.166  89.180 100.090  1.00  0.00     0.010 C 
BRANCH   6   7
HETATM    7  C5  UNL     1       5.645  89.753  98.818  1.00  0.00     0.027 C 
BRANCH   7   8
HETATM    8  C4  UNL     1       4.530  88.869  98.301  1.00  0.00    -0.031 C 
HETATM    9  C3  UNL     1       3.274  89.247  98.347  1.00  0.00    -0.031 C 
BRANCH   9  10
HETATM   10  C2  UNL     1       2.143  88.420  97.854  1.00  0.00     0.022 C 
HETATM   11  C1  UNL     1       0.844  89.149  97.997  1.00  0.00     0.009 C 
ENDBRANCH   9  10
ENDBRANCH   7   8
ENDBRANCH   6   7
ENDBRANCH   4   6
ENDBRANCH   3   4
BRANCH   3  12
HETATM   12  C17 UNL     1       5.749  88.933 103.633  1.00  0.00     0.197 C 
HETATM   13  O1  UNL     1       6.677  89.674 104.041  1.00  0.00    -0.646 OA
HETATM   14  O2  UNL     1       5.439  87.842 104.461  1.00  0.00    -0.646 OA
ENDBRANCH   3  12
ENDBRANCH   1   3
BRANCH   1  15
HETATM   15  C10 UNL     1       3.046  88.044 101.681  1.00  0.00     0.033 A 
HETATM   16  C11 UNL     1       2.403  86.886 101.255  1.00  0.00     0.071 A 
HETATM   17  C12 UNL     1       1.035  86.835 101.082  1.00  0.00     0.105 A 
HETATM   18 CL1  UNL     1       0.238  85.383 100.550  1.00  0.00    -0.064 Cl
HETATM   19  N2  UNL     1       0.269  87.923 101.325  1.00  0.00    -0.349 N 
HETATM   20  C13 UNL     1       0.862  89.056 101.738  1.00  0.00     0.026 A 
ATOM     21  H2  UNL     1      -0.742  87.883 101.198  1.00  0.00     0.166 HD
HETATM   22  C16 UNL     1       2.230  89.126 101.916  1.00  0.00     0.055 A 
BRANCH  20  23
HETATM   23  C14 UNL     1       0.016  90.266 102.010  1.00  0.00     0.103 C 
HETATM   24  C15 UNL     1      -1.288  90.194 101.234  1.00  0.00     0.028 C 
HETATM   25 BR1  UNL     1       1.019  91.832 101.486  1.00  0.00    -0.085 Br
ENDBRANCH  20  23
ENDBRANCH   1  15
TORSDOF 9
ENDMDL
MODEL 2
REMARK VINA RESULT: -6.801493689      1.483      2.084
REMARK  9 active torsions:
REMARK  status: ('A' for Active; 'I' for Inactive)
REMARK    1  A    between atoms: C2_2  and  C3_3 
REMARK    2  A    between atoms: C4_4  and  C5_5 
REMARK    3  A    between atoms: C5_5  and  C6_6 
REMARK    4  A    between atoms: C6_6  and  C7_7 
REMARK    5  A    between atoms: C7_7  and  C9_9 
REMARK    6  A    between atoms: C9_9  and  N1_10 
REMARK    7  A    between atoms: C9_9  and  C17_23 
REMARK    8  A    between atoms: N1_10  and  C10_12 
REMARK    9  A    between atoms: C13_18  and  C14_19 
ROOT
HETATM    1  N1  UNL     1       4.356  88.146 101.595  1.00  0.00    -0.375 N 
ATOM      2  H1  UNL     1       4.871  87.662 100.860  1.00  0.00     0.160 HD
ENDROOT
BRANCH   1   3
HETATM    3  C9  UNL     1       5.125  88.849 102.584  1.00  0.00     0.187 C 
BRANCH   3   4
HETATM    4  C7  UNL     1       5.989  89.921 102.017  1.00  0.00     0.015 C 
HETATM    5  C8  UNL     1       6.653  90.627 103.209  1.00  0.00     0.012 C 
BRANCH   4   6
HETATM    6  C6  UNL     1       5.317  90.973 101.221  1.00  0.00     0.010 C 
BRANCH   6   7
HETATM    7  C5  UNL     1       5.903  91.292  99.890  1.00  0.00     0.027 C 
BRANCH   7   8
HETATM    8  C4  UNL     1       5.965  90.025  99.064  1.00  0.00    -0.031 C 
HETATM    9  C3  UNL     1       7.059  89.667  98.433  1.00  0.00    -0.031 C 
BRANCH   9  10
HETATM   10  C2  UNL     1       7.173  88.435  97.611  1.00  0.00     0.022 C 
HETATM   11  C1  UNL     1       5.868  88.104  96.956  1.00  0.00     0.009 C 
ENDBRANCH   9  10
ENDBRANCH   7   8
ENDBRANCH   6   7
ENDBRANCH   4   6
ENDBRANCH   3   4
BRANCH   3  12
HETATM   12  C17 UNL     1       5.789  87.962 103.565  1.00  0.00     0.197 C 
HETATM   13  O1  UNL     1       5.311  87.795 104.715  1.00  0.00    -0.646 OA
HETATM   14  O2  UNL     1       6.973  87.258 103.295  1.00  0.00    -0.646 OA
ENDBRANCH   3  12
ENDBRANCH   1   3
BRANCH   1  15
HETATM   15  C10 UNL     1       3.077  88.075 101.559  1.00  0.00     0.033 A 
HETATM   16  C11 UNL     1       2.414  86.891 101.253  1.00  0.00     0.071 A 
HETATM   17  C12 UNL     1       1.037  86.818 101.213  1.00  0.00     0.105 A 
HETATM   18 CL1  UNL     1       0.214  85.333 100.830  1.00  0.00    -0.064 Cl
HETATM   19  N2  UNL     1       0.281  87.908 101.475  1.00  0.00    -0.349 N 
HETATM   20  C13 UNL     1       0.893  89.067 101.774  1.00  0.00     0.026 A 
ATOM     21  H2  UNL     1      -0.736  87.852 101.446  1.00  0.00     0.166 HD
HETATM   22  C16 UNL     1       2.271  89.159 101.818  1.00  0.00     0.055 A 
BRANCH  20  23
HETATM   23  C14 UNL     1       0.059  90.280 102.066  1.00  0.00     0.103 C 
HETATM   24  C15 UNL     1      -1.263  90.214 101.321  1.00  0.00     0.028 C 
HETATM   25 BR1  UNL     1       1.055  91.842 101.518  1.00  0.00    -0.085 Br
ENDBRANCH  20  23
ENDBRANCH   1  15
TORSDOF 9
ENDMDL
MODEL 3
REMARK VINA RESULT: -6.539960587      3.211      5.034
REMARK  9 active torsions:
REMARK  status: ('A' for Active; 'I' for Inactive)
REMARK    1  A    between atoms: C2_2  and  C3_3 
REMARK    2  A    between atoms: C4_4  and  C5_5 
REMARK    3  A    between atoms: C5_5  and  C6_6 
REMARK    4  A    between atoms: C6_6  and  C7_7 
REMARK    5  A    between atoms: C7_7  and  C9_9 
REMARK    6  A    between atoms: C9_9  and  N1_10 
REMARK    7  A    between atoms: C9_9  and  C17_23 
REMARK    8  A    between atoms: N1_10  and  C10_12 
REMARK    9  A    between atoms: C13_18  and  C14_19 
ROOT
HETATM    1  N1  UNL     1       2.296  90.405 100.004  1.00  0.00    -0.375 N 
ATOM      2  H1  UNL     1       2.792  91.278  99.822  1.00  0.00     0.160 HD
ENDROOT
BRANCH   1   3
HETATM    3  C9  UNL     1       3.014  89.181  99.785  1.00  0.00     0.187 C 
BRANCH   3   4
HETATM    4  C7  UNL     1       4.096  88.938 100.779  1.00  0.00     0.015 C 
HETATM    5  C8  UNL     1       3.514  87.988 101.838  1.00  0.00     0.012 C 
BRANCH   4   6
HETATM    6  C6  UNL     1       4.616  90.118 101.507  1.00  0.00     0.010 C 
BRANCH   6   7
HETATM    7  C5  UNL     1       6.064  90.423 101.352  1.00  0.00     0.027 C 
BRANCH   7   8
HETATM    8  C4  UNL     1       6.843  89.657 102.400  1.00  0.00    -0.031 C 
HETATM    9  C3  UNL     1       6.476  89.646 103.659  1.00  0.00    -0.031 C 
BRANCH   9  10
HETATM   10  C2  UNL     1       7.203  88.912 104.726  1.00  0.00     0.022 C 
HETATM   11  C1  UNL     1       6.445  87.693 105.151  1.00  0.00     0.009 C 
ENDBRANCH   9  10
ENDBRANCH   7   8
ENDBRANCH   6   7
ENDBRANCH   4   6
ENDBRANCH   3   4
BRANCH   3  12
HETATM   12  C17 UNL     1       3.399  88.959  98.373  1.00  0.00     0.197 C 
HETATM   13  O1  UNL     1       2.540  88.979  97.457  1.00  0.00    -0.646 OA
HETATM   14  O2  UNL     1       4.718  88.716  97.960  1.00  0.00    -0.646 OA
ENDBRANCH   3  12
ENDBRANCH   1   3
BRANCH   1  15
HETATM   15  C10 UNL     1       1.083  90.495 100.409  1.00  0.00     0.033 A 
HETATM   16  C11 UNL     1       0.757  90.501 101.762  1.00  0.00     0.071 A 
HETATM   17  C12 UNL     1      -0.549  90.596 102.195  1.00  0.00     0.105 A 
HETATM   18 CL1  UNL     1      -0.947  90.604 103.889  1.00  0.00    -0.064 Cl
HETATM   19  N2  UNL     1      -1.564  90.688 101.308  1.00  0.00    -0.349 N 
HETATM   20  C13 UNL     1      -1.281  90.685  99.994  1.00  0.00     0.026 A 
ATOM     21  H2  UNL     1      -2.529  90.760 101.629  1.00  0.00     0.166 HD
HETATM   22  C16 UNL     1       0.021  90.590  99.541  1.00  0.00     0.055 A 
BRANCH  20  23
HETATM   23  C14 UNL     1      -2.405  90.787  99.004  1.00  0.00     0.103 C 
HETATM   24  C15 UNL     1      -3.702  90.280  99.610  1.00  0.00     0.028 C 
HETATM   25 BR1  UNL     1      -1.938  89.735  97.452  1.00  0.00    -0.085 Br
ENDBRANCH  20  23
ENDBRANCH   1  15
TORSDOF 9
ENDMDL
MODEL 4
REMARK VINA RESULT: -6.391280582      2.681      4.720
REMARK  9 active torsions:
REMARK  status: ('A' for Active; 'I' for Inactive)
REMARK    1  A    between atoms: C2_2  and  C3_3 
REMARK    2  A    between atoms: C4_4  and  C5_5 
REMARK    3  A    between atoms: C5_5  and  C6_6 
REMARK    4  A    between atoms: C6_6  and  C7_7 
REMARK    5  A    between atoms: C7_7  and  C9_9 
REMARK    6  A    between atoms: C9_9  and  N1_10 
REMARK    7  A    between atoms: C9_9  and  C17_23 
REMARK    8  A    between atoms: N1_10  and  C10_12 
REMARK    9  A    between atoms: C13_18  and  C14_19 
ROOT
HETATM    1  N1  UNL     1       3.863  90.789 100.460  1.00  0.00    -0.375 N 
ATOM      2  H1  UNL     1       4.102  91.713 100.819  1.00  0.00     0.160 HD
ENDROOT
BRANCH   1   3
HETATM    3  C9  UNL     1       4.938  89.854 100.280  1.00  0.00     0.187 C 
BRANCH   3   4
HETATM    4  C7  UNL     1       5.437  89.266 101.554  1.00  0.00     0.015 C 
HETATM    5  C8  UNL     1       4.443  88.162 101.948  1.00  0.00     0.012 C 
BRANCH   4   6
HETATM    6  C6  UNL     1       5.543  90.177 102.717  1.00  0.00     0.010 C 
BRANCH   6   7
HETATM    7  C5  UNL     1       6.912  90.486 103.211  1.00  0.00     0.027 C 
BRANCH   7   8
HETATM    8  C4  UNL     1       7.545  89.214 103.733  1.00  0.00    -0.031 C 
HETATM    9  C3  UNL     1       6.965  88.485 104.657  1.00  0.00    -0.031 C 
BRANCH   9  10
HETATM   10  C2  UNL     1       7.542  87.230 105.203  1.00  0.00     0.022 C 
HETATM   11  C1  UNL     1       8.235  86.447 104.132  1.00  0.00     0.009 C 
ENDBRANCH   9  10
ENDBRANCH   7   8
ENDBRANCH   6   7
ENDBRANCH   4   6
ENDBRANCH   3   4
BRANCH   3  12
HETATM   12  C17 UNL     1       5.991  90.325  99.353  1.00  0.00     0.197 C 
HETATM   13  O1  UNL     1       6.832  89.529  98.868  1.00  0.00    -0.646 OA
HETATM   14  O2  UNL     1       6.127  91.665  98.954  1.00  0.00    -0.646 OA
ENDBRANCH   3  12
ENDBRANCH   1   3
BRANCH   1  15
HETATM   15  C10 UNL     1       2.628  90.561 100.206  1.00  0.00     0.033 A 
HETATM   16  C11 UNL     1       2.231  89.737  99.158  1.00  0.00     0.071 A 
HETATM   17  C12 UNL     1       0.901  89.493  98.887  1.00  0.00     0.105 A 
HETATM   18 CL1  UNL     1       0.414  88.460  97.574  1.00  0.00    -0.064 Cl
HETATM   19  N2  UNL     1      -0.070  90.055  99.641  1.00  0.00    -0.349 N 
HETATM   20  C13 UNL     1       0.281  90.856 100.661  1.00  0.00     0.026 A 
ATOM     21  H2  UNL     1      -1.053  89.873  99.440  1.00  0.00     0.166 HD
HETATM   22  C16 UNL     1       1.609  91.112 100.948  1.00  0.00     0.055 A 
BRANCH  20  23
HETATM   23  C14 UNL     1      -0.793  91.482 101.503  1.00  0.00     0.103 C 
HETATM   24  C15 UNL     1      -0.868  90.811 102.863  1.00  0.00     0.028 C 
HETATM   25 BR1  UNL     1      -2.475  91.291 100.571  1.00  0.00    -0.085 Br
ENDBRANCH  20  23
ENDBRANCH   1  15
TORSDOF 9
ENDMDL
MODEL 5
REMARK VINA RESULT: -6.370960720      3.464      6.071
REMARK  9 active torsions:
REMARK  status: ('A' for Active; 'I' for Inactive)
REMARK    1  A    between atoms: C2_2  and  C3_3 
REMARK    2  A    between atoms: C4_4  and  C5_5 
REMARK    3  A    between atoms: C5_5  and  C6_6 
REMARK    4  A    between atoms: C6_6  and  C7_7 
REMARK    5  A    between atoms: C7_7  and  C9_9 
REMARK    6  A    between atoms: C9_9  and  N1_10 
REMARK    7  A    between atoms: C9_9  and  C17_23 
REMARK    8  A    between atoms: N1_10  and  C10_12 
REMARK    9  A    between atoms: C13_18  and  C14_19 
ROOT
HETATM    1  N1  UNL     1       2.717  87.793 101.124  1.00  0.00    -0.375 N 
ATOM      2  H1  UNL     1       2.725  86.804 101.372  1.00  0.00     0.160 HD
ENDROOT
BRANCH   1   3
HETATM    3  C9  UNL     1       1.449  88.377 100.786  1.00  0.00     0.187 C 
BRANCH   3   4
HETATM    4  C7  UNL     1       1.021  89.457 101.717  1.00  0.00     0.015 C 
HETATM    5  C8  UNL     1       0.180  88.785 102.813  1.00  0.00     0.012 C 
BRANCH   4   6
HETATM    6  C6  UNL     1       0.190  90.542 101.148  1.00  0.00     0.010 C 
BRANCH   6   7
HETATM    7  C5  UNL     1      -0.944  91.031 101.979  1.00  0.00     0.027 C 
BRANCH   7   8
HETATM    8  C4  UNL     1      -2.160  91.209 101.096  1.00  0.00    -0.031 C 
HETATM    9  C3  UNL     1      -2.490  90.318 100.191  1.00  0.00    -0.031 C 
BRANCH   9  10
HETATM   10  C2  UNL     1      -3.671  90.444  99.299  1.00  0.00     0.022 C 
HETATM   11  C1  UNL     1      -3.324  90.066  97.893  1.00  0.00     0.009 C 
ENDBRANCH   9  10
ENDBRANCH   7   8
ENDBRANCH   6   7
ENDBRANCH   4   6
ENDBRANCH   3   4
BRANCH   3  12
HETATM   12  C17 UNL     1       0.404  87.382 100.456  1.00  0.00     0.197 C 
HETATM   13  O1  UNL     1      -0.434  87.599  99.546  1.00  0.00    -0.646 OA
HETATM   14  O2  UNL     1       0.270  86.152 101.120  1.00  0.00    -0.646 OA
ENDBRANCH   3  12
ENDBRANCH   1   3
BRANCH   1  15
HETATM   15  C10 UNL     1       3.840  88.410 101.141  1.00  0.00     0.033 A 
HETATM   16  C11 UNL     1       4.390  88.969  99.992  1.00  0.00     0.071 A 
HETATM   17  C12 UNL     1       5.599  89.633 100.013  1.00  0.00     0.105 A 
HETATM   18 CL1  UNL     1       6.280  90.330  98.571  1.00  0.00    -0.064 Cl
HETATM   19  N2  UNL     1       6.295  89.762 101.165  1.00  0.00    -0.349 N 
HETATM   20  C13 UNL     1       5.789  89.232 102.292  1.00  0.00     0.026 A 
ATOM     21  H2  UNL     1       7.188  90.253 101.179  1.00  0.00     0.166 HD
HETATM   22  C16 UNL     1       4.580  88.564 102.290  1.00  0.00     0.055 A 
BRANCH  20  23
HETATM   23  C14 UNL     1       6.558  89.373 103.574  1.00  0.00     0.103 C 
HETATM   24  C15 UNL     1       8.047  89.480 103.298  1.00  0.00     0.028 C 
HETATM   25 BR1  UNL     1       6.191  87.823 104.668  1.00  0.00    -0.085 Br
ENDBRANCH  20  23
ENDBRANCH   1  15
TORSDOF 9
ENDMDL
