MODEL 1
REMARK VINA RESULT: -8.255366274      0.000      0.000
REMARK  6 active torsions:
REMARK  status: ('A' for Active; 'I' for Inactive)
REMARK    1  A    between atoms: N1_6  and  C6_7 
REMARK    2  A    between atoms: C7_10  and  N3_11 
REMARK    3  A    between atoms: C13_22  and  O2_23 
REMARK    4  A    between atoms: O2_23  and  C14_24 
REMARK    5  A    between atoms: C14_24  and  C15_25 
REMARK    6  A    between atoms: C15_25  and  C16_27 
ROOT
HETATM    1  C6  UNL     1      -1.022 -19.682  20.343  1.00  0.00     0.684 A 
HETATM    2  N2  UNL     1      -0.340 -20.314  19.354  1.00  0.00    -0.174 N 
ATOM      3  H2  UNL     1       0.085 -21.220  19.553  1.00  0.00     0.186 HD
HETATM    4  C7  UNL     1      -0.205 -19.792  18.120  1.00  0.00     0.152 A 
HETATM    5  C8  UNL     1      -0.775 -18.578  17.850  1.00  0.00     0.167 A 
HETATM    6  C9  UNL     1      -1.464 -17.949  18.866  1.00  0.00     0.196 A 
HETATM    7  N4  UNL     1      -1.586 -18.491  20.091  1.00  0.00    -0.167 N 
ATOM      8  H4  UNL     1      -2.102 -18.001  20.821  1.00  0.00     0.186 HD
HETATM    9  O1  UNL     1      -2.033 -16.720  18.571  1.00  0.00    -0.318 OA
HETATM   10  C10 UNL     1      -2.240 -16.225  17.280  1.00  0.00     0.112 C 
HETATM   11  C11 UNL     1      -1.586 -14.855  17.108  1.00  0.00     0.051 C 
HETATM   12  C12 UNL     1      -3.751 -16.010  17.124  1.00  0.00     0.051 C 
HETATM   13  C13 UNL     1      -1.768 -17.136  16.189  1.00  0.00     0.301 C 
HETATM   14  O4  UNL     1      -0.683 -17.961  16.591  1.00  0.00    -0.309 OA
ENDROOT
BRANCH  13  15
HETATM   15  O2  UNL     1      -1.305 -16.347  15.137  1.00  0.00    -0.350 OA
BRANCH  15  16
HETATM   16  C14 UNL     1      -2.114 -16.422  14.031  1.00  0.00     0.254 C 
BRANCH  16  17
HETATM   17  C15 UNL     1      -1.790 -15.359  13.060  1.00  0.00     0.204 C 
HETATM   18  O3  UNL     1      -1.293 -14.326  13.469  1.00  0.00    -0.291 OA
BRANCH  17  19
HETATM   19  C16 UNL     1      -2.037 -15.482  11.600  1.00  0.00     0.250 C 
HETATM   20 CL1  UNL     1      -1.075 -16.797  10.892  1.00  0.00    -0.075 Cl
HETATM   21 CL2  UNL     1      -3.751 -15.853  11.286  1.00  0.00    -0.075 Cl
HETATM   22 CL3  UNL     1      -1.578 -13.965  10.783  1.00  0.00    -0.075 Cl
ENDBRANCH  17  19
ENDBRANCH  16  17
ENDBRANCH  15  16
ENDBRANCH  13  15
BRANCH   4  23
HETATM   23  N3  UNL     1       0.443 -20.393  17.179  1.00  0.00    -0.383 N 
ATOM     24  H32 UNL     1      -0.047 -21.085  16.614  1.00  0.00     0.157 HD
ATOM     25  H31 UNL     1       1.425 -20.201  16.981  1.00  0.00     0.157 HD
ENDBRANCH   4  23
BRANCH   1  26
HETATM   26  N1  UNL     1      -1.130 -20.280  21.617  1.00  0.00    -0.217 N 
HETATM   27  C5  UNL     1      -1.888 -19.641  22.652  1.00  0.00     0.141 C 
HETATM   28  C4  UNL     1      -2.835 -20.628  23.255  1.00  0.00     0.021 C 
HETATM   29  C3  UNL     1      -2.327 -22.025  23.360  1.00  0.00     0.007 C 
HETATM   30  C2  UNL     1      -0.853 -22.183  23.141  1.00  0.00     0.000 C 
HETATM   31  C1  UNL     1      -0.024 -21.767  24.309  1.00  0.00     0.011 C 
HETATM   32  C17 UNL     1      -0.464 -21.532  21.842  1.00  0.00     0.145 C 
ENDBRANCH   1  26
TORSDOF 6
ENDMDL
MODEL 2
REMARK VINA RESULT: -7.981891638      5.792      7.113
REMARK  6 active torsions:
REMARK  status: ('A' for Active; 'I' for Inactive)
REMARK    1  A    between atoms: N1_6  and  C6_7 
REMARK    2  A    between atoms: C7_10  and  N3_11 
REMARK    3  A    between atoms: C13_22  and  O2_23 
REMARK    4  A    between atoms: O2_23  and  C14_24 
REMARK    5  A    between atoms: C14_24  and  C15_25 
REMARK    6  A    between atoms: C15_25  and  C16_27 
ROOT
HETATM    1  C6  UNL     1       1.648 -22.283  16.114  1.00  0.00     0.684 A 
HETATM    2  N2  UNL     1       2.526 -21.260  15.954  1.00  0.00    -0.174 N 
ATOM      3  H2  UNL     1       2.937 -20.831  16.784  1.00  0.00     0.186 HD
HETATM    4  C7  UNL     1       2.876 -20.791  14.741  1.00  0.00     0.152 A 
HETATM    5  C8  UNL     1       2.328 -21.365  13.627  1.00  0.00     0.167 A 
HETATM    6  C9  UNL     1       1.437 -22.402  13.808  1.00  0.00     0.196 A 
HETATM    7  N4  UNL     1       1.103 -22.854  15.029  1.00  0.00    -0.167 N 
ATOM      8  H4  UNL     1       0.441 -23.623  15.130  1.00  0.00     0.186 HD
HETATM    9  O1  UNL     1       0.893 -22.968  12.665  1.00  0.00    -0.318 OA
HETATM   10  C10 UNL     1       1.399 -22.801  11.372  1.00  0.00     0.112 C 
HETATM   11  C11 UNL     1       0.321 -22.268  10.429  1.00  0.00     0.051 C 
HETATM   12  C12 UNL     1       1.777 -24.195  10.859  1.00  0.00     0.051 C 
HETATM   13  C13 UNL     1       2.603 -21.914  11.293  1.00  0.00     0.301 C 
HETATM   14  O4  UNL     1       2.638 -20.937  12.324  1.00  0.00    -0.309 OA
ENDROOT
BRANCH  13  15
HETATM   15  O2  UNL     1       2.552 -21.222  10.084  1.00  0.00    -0.350 OA
BRANCH  15  16
HETATM   16  C14 UNL     1       3.797 -20.855   9.638  1.00  0.00     0.254 C 
BRANCH  16  17
HETATM   17  C15 UNL     1       3.751 -19.556   8.939  1.00  0.00     0.204 C 
HETATM   18  O3  UNL     1       3.681 -19.548   7.723  1.00  0.00    -0.291 OA
BRANCH  17  19
HETATM   19  C16 UNL     1       3.786 -18.248   9.642  1.00  0.00     0.250 C 
HETATM   20 CL1  UNL     1       4.630 -18.375  11.199  1.00  0.00    -0.075 Cl
HETATM   21 CL2  UNL     1       4.657 -17.037   8.667  1.00  0.00    -0.075 Cl
HETATM   22 CL3  UNL     1       2.121 -17.695   9.964  1.00  0.00    -0.075 Cl
ENDBRANCH  17  19
ENDBRANCH  16  17
ENDBRANCH  15  16
ENDBRANCH  13  15
BRANCH   4  23
HETATM   23  N3  UNL     1       3.711 -19.819  14.588  1.00  0.00    -0.383 N 
ATOM     24  H32 UNL     1       4.196 -19.727  13.696  1.00  0.00     0.157 HD
ATOM     25  H31 UNL     1       3.903 -19.141  15.325  1.00  0.00     0.157 HD
ENDBRANCH   4  23
BRANCH   1  26
HETATM   26  N1  UNL     1       1.319 -22.732  17.411  1.00  0.00    -0.217 N 
HETATM   27  C5  UNL     1       1.485 -21.863  18.539  1.00  0.00     0.141 C 
HETATM   28  C4  UNL     1       0.229 -21.855  19.349  1.00  0.00     0.021 C 
HETATM   29  C3  UNL     1      -0.498 -23.154  19.420  1.00  0.00     0.007 C 
HETATM   30  C2  UNL     1       0.277 -24.343  18.941  1.00  0.00     0.000 C 
HETATM   31  C1  UNL     1       1.295 -24.830  19.917  1.00  0.00     0.011 C 
HETATM   32  C17 UNL     1       0.819 -24.070  17.565  1.00  0.00     0.145 C 
ENDBRANCH   1  26
TORSDOF 6
ENDMDL
MODEL 3
REMARK VINA RESULT: -7.869554843      6.029      7.466
REMARK  6 active torsions:
REMARK  status: ('A' for Active; 'I' for Inactive)
REMARK    1  A    between atoms: N1_6  and  C6_7 
REMARK    2  A    between atoms: C7_10  and  N3_11 
REMARK    3  A    between atoms: C13_22  and  O2_23 
REMARK    4  A    between atoms: O2_23  and  C14_24 
REMARK    5  A    between atoms: C14_24  and  C15_25 
REMARK    6  A    between atoms: C15_25  and  C16_27 
ROOT
HETATM    1  C6  UNL     1       1.528 -22.450  15.621  1.00  0.00     0.684 A 
HETATM    2  N2  UNL     1       2.397 -21.412  15.529  1.00  0.00    -0.174 N 
ATOM      3  H2  UNL     1       2.775 -21.010  16.388  1.00  0.00     0.186 HD
HETATM    4  C7  UNL     1       2.780 -20.891  14.348  1.00  0.00     0.152 A 
HETATM    5  C8  UNL     1       2.276 -21.427  13.195  1.00  0.00     0.167 A 
HETATM    6  C9  UNL     1       1.394 -22.482  13.306  1.00  0.00     0.196 A 
HETATM    7  N4  UNL     1       1.026 -22.985  14.497  1.00  0.00    -0.167 N 
ATOM      8  H4  UNL     1       0.372 -23.765  14.546  1.00  0.00     0.186 HD
HETATM    9  O1  UNL     1       0.895 -23.009  12.124  1.00  0.00    -0.318 OA
HETATM   10  C10 UNL     1       1.440 -22.785  10.857  1.00  0.00     0.112 C 
HETATM   11  C11 UNL     1       0.386 -22.229   9.900  1.00  0.00     0.051 C 
HETATM   12  C12 UNL     1       1.853 -24.154  10.303  1.00  0.00     0.051 C 
HETATM   13  C13 UNL     1       2.634 -21.882  10.851  1.00  0.00     0.301 C 
HETATM   14  O4  UNL     1       2.622 -20.945  11.921  1.00  0.00    -0.309 OA
ENDROOT
BRANCH  13  15
HETATM   15  O2  UNL     1       2.613 -21.143   9.670  1.00  0.00    -0.350 OA
BRANCH  15  16
HETATM   16  C14 UNL     1       3.866 -20.738   9.282  1.00  0.00     0.254 C 
BRANCH  16  17
HETATM   17  C15 UNL     1       3.830 -19.388   8.688  1.00  0.00     0.204 C 
HETATM   18  O3  UNL     1       3.720 -19.284   7.480  1.00  0.00    -0.291 OA
BRANCH  17  19
HETATM   19  C16 UNL     1       3.921 -18.140   9.488  1.00  0.00     0.250 C 
HETATM   20 CL1  UNL     1       4.813 -18.407  11.000  1.00  0.00    -0.075 Cl
HETATM   21 CL2  UNL     1       4.790 -16.877   8.579  1.00  0.00    -0.075 Cl
HETATM   22 CL3  UNL     1       2.283 -17.576   9.910  1.00  0.00    -0.075 Cl
ENDBRANCH  17  19
ENDBRANCH  16  17
ENDBRANCH  15  16
ENDBRANCH  13  15
BRANCH   4  23
HETATM   23  N3  UNL     1       3.606 -19.903  14.260  1.00  0.00    -0.383 N 
ATOM     24  H32 UNL     1       3.357 -19.018  14.699  1.00  0.00     0.157 HD
ATOM     25  H31 UNL     1       4.498 -19.977  13.770  1.00  0.00     0.157 HD
ENDBRANCH   4  23
BRANCH   1  26
HETATM   26  N1  UNL     1       1.163 -22.954  16.888  1.00  0.00    -0.217 N 
HETATM   27  C5  UNL     1       0.824 -24.337  17.045  1.00  0.00     0.141 C 
HETATM   28  C4  UNL     1       1.594 -24.910  18.191  1.00  0.00     0.021 C 
HETATM   29  C3  UNL     1       1.814 -23.989  19.342  1.00  0.00     0.007 C 
HETATM   30  C2  UNL     1       0.983 -22.743  19.326  1.00  0.00     0.000 C 
HETATM   31  C1  UNL     1      -0.433 -22.960  19.740  1.00  0.00     0.011 C 
HETATM   32  C17 UNL     1       1.142 -22.047  18.002  1.00  0.00     0.145 C 
ENDBRANCH   1  26
TORSDOF 6
ENDMDL
MODEL 4
REMARK VINA RESULT: -7.379591230      6.846     10.354
REMARK  6 active torsions:
REMARK  status: ('A' for Active; 'I' for Inactive)
REMARK    1  A    between atoms: N1_6  and  C6_7 
REMARK    2  A    between atoms: C7_10  and  N3_11 
REMARK    3  A    between atoms: C13_22  and  O2_23 
REMARK    4  A    between atoms: O2_23  and  C14_24 
REMARK    5  A    between atoms: C14_24  and  C15_25 
REMARK    6  A    between atoms: C15_25  and  C16_27 
ROOT
HETATM    1  C6  UNL     1      -2.012 -17.951  19.728  1.00  0.00     0.684 A 
HETATM    2  N2  UNL     1      -3.066 -17.577  20.497  1.00  0.00    -0.174 N 
ATOM      3  H2  UNL     1      -3.675 -16.829  20.164  1.00  0.00     0.186 HD
HETATM    4  C7  UNL     1      -3.339 -18.156  21.682  1.00  0.00     0.152 A 
HETATM    5  C8  UNL     1      -2.524 -19.159  22.130  1.00  0.00     0.167 A 
HETATM    6  C9  UNL     1      -1.457 -19.527  21.337  1.00  0.00     0.196 A 
HETATM    7  N4  UNL     1      -1.205 -18.934  20.157  1.00  0.00    -0.167 N 
ATOM      8  H4  UNL     1      -0.408 -19.228  19.593  1.00  0.00     0.186 HD
HETATM    9  O1  UNL     1      -0.645 -20.545  21.811  1.00  0.00    -0.318 OA
HETATM   10  C10 UNL     1      -0.988 -21.427  22.840  1.00  0.00     0.112 C 
HETATM   11  C11 UNL     1       0.064 -21.410  23.948  1.00  0.00     0.051 C 
HETATM   12  C12 UNL     1      -0.967 -22.838  22.240  1.00  0.00     0.051 C 
HETATM   13  C13 UNL     1      -2.337 -21.178  23.439  1.00  0.00     0.301 C 
HETATM   14  O4  UNL     1      -2.736 -19.817  23.354  1.00  0.00    -0.309 OA
ENDROOT
BRANCH  13  15
HETATM   15  O2  UNL     1      -2.274 -21.495  24.795  1.00  0.00    -0.350 OA
BRANCH  15  16
HETATM   16  C14 UNL     1      -2.753 -20.485  25.592  1.00  0.00     0.254 C 
BRANCH  16  17
HETATM   17  C15 UNL     1      -2.014 -20.415  26.867  1.00  0.00     0.204 C 
HETATM   18  O3  UNL     1      -1.152 -19.566  26.998  1.00  0.00    -0.291 OA
BRANCH  17  19
HETATM   19  C16 UNL     1      -2.266 -21.332  28.009  1.00  0.00     0.250 C 
HETATM   20 CL1  UNL     1      -4.000 -21.443  28.376  1.00  0.00    -0.075 Cl
HETATM   21 CL2  UNL     1      -1.701 -22.978  27.625  1.00  0.00    -0.075 Cl
HETATM   22 CL3  UNL     1      -1.435 -20.722  29.464  1.00  0.00    -0.075 Cl
ENDBRANCH  17  19
ENDBRANCH  16  17
ENDBRANCH  15  16
ENDBRANCH  13  15
BRANCH   4  23
HETATM   23  N3  UNL     1      -4.341 -17.800  22.413  1.00  0.00    -0.383 N 
ATOM     24  H32 UNL     1      -4.901 -17.000  22.119  1.00  0.00     0.157 HD
ATOM     25  H31 UNL     1      -4.594 -18.289  23.272  1.00  0.00     0.157 HD
ENDBRANCH   4  23
BRANCH   1  26
HETATM   26  N1  UNL     1      -1.776 -17.307  18.494  1.00  0.00    -0.217 N 
HETATM   27  C5  UNL     1      -1.328 -18.060  17.361  1.00  0.00     0.141 C 
HETATM   28  C4  UNL     1      -2.187 -17.740  16.181  1.00  0.00     0.021 C 
HETATM   29  C3  UNL     1      -2.652 -16.327  16.089  1.00  0.00     0.007 C 
HETATM   30  C2  UNL     1      -1.953 -15.367  17.001  1.00  0.00     0.000 C 
HETATM   31  C1  UNL     1      -0.592 -14.976  16.533  1.00  0.00     0.011 C 
HETATM   32  C17 UNL     1      -1.997 -15.890  18.411  1.00  0.00     0.145 C 
ENDBRANCH   1  26
TORSDOF 6
ENDMDL
MODEL 5
REMARK VINA RESULT: -7.192762178      4.433      5.884
REMARK  6 active torsions:
REMARK  status: ('A' for Active; 'I' for Inactive)
REMARK    1  A    between atoms: N1_6  and  C6_7 
REMARK    2  A    between atoms: C7_10  and  N3_11 
REMARK    3  A    between atoms: C13_22  and  O2_23 
REMARK    4  A    between atoms: O2_23  and  C14_24 
REMARK    5  A    between atoms: C14_24  and  C15_25 
REMARK    6  A    between atoms: C15_25  and  C16_27 
ROOT
HETATM    1  C6  UNL     1      -0.271 -21.118  20.167  1.00  0.00     0.684 A 
HETATM    2  N2  UNL     1      -0.362 -20.125  19.246  1.00  0.00    -0.174 N 
ATOM      3  H2  UNL     1      -0.849 -19.264  19.498  1.00  0.00     0.186 HD
HETATM    4  C7  UNL     1       0.168 -20.232  18.012  1.00  0.00     0.152 A 
HETATM    5  C8  UNL     1       0.822 -21.384  17.672  1.00  0.00     0.167 A 
HETATM    6  C9  UNL     1       0.905 -22.383  18.620  1.00  0.00     0.196 A 
HETATM    7  N4  UNL     1       0.368 -22.252  19.846  1.00  0.00    -0.167 N 
ATOM      8  H4  UNL     1       0.446 -23.009  20.524  1.00  0.00     0.186 HD
HETATM    9  O1  UNL     1       1.572 -23.542  18.253  1.00  0.00    -0.318 OA
HETATM   10  C10 UNL     1       2.424 -23.658  17.151  1.00  0.00     0.112 C 
HETATM   11  C11 UNL     1       1.982 -24.799  16.236  1.00  0.00     0.051 C 
HETATM   12  C12 UNL     1       3.804 -24.045  17.696  1.00  0.00     0.051 C 
HETATM   13  C13 UNL     1       2.559 -22.404  16.343  1.00  0.00     0.301 C 
HETATM   14  O4  UNL     1       1.404 -21.579  16.408  1.00  0.00    -0.309 OA
ENDROOT
BRANCH  13  15
HETATM   15  O2  UNL     1       2.721 -22.766  15.007  1.00  0.00    -0.350 OA
BRANCH  15  16
HETATM   16  C14 UNL     1       2.535 -21.708  14.151  1.00  0.00     0.254 C 
BRANCH  16  17
HETATM   17  C15 UNL     1       1.849 -22.135  12.916  1.00  0.00     0.204 C 
HETATM   18  O3  UNL     1       0.958 -22.961  12.998  1.00  0.00    -0.291 OA
BRANCH  17  19
HETATM   19  C16 UNL     1       2.189 -21.609  11.569  1.00  0.00     0.250 C 
HETATM   20 CL1  UNL     1       2.473 -22.929  10.415  1.00  0.00    -0.075 Cl
HETATM   21 CL2  UNL     1       0.849 -20.626  10.927  1.00  0.00    -0.075 Cl
HETATM   22 CL3  UNL     1       3.677 -20.632  11.663  1.00  0.00    -0.075 Cl
ENDBRANCH  17  19
ENDBRANCH  16  17
ENDBRANCH  15  16
ENDBRANCH  13  15
BRANCH   4  23
HETATM   23  N3  UNL     1       0.082 -19.288  17.136  1.00  0.00    -0.383 N 
ATOM     24  H32 UNL     1       0.318 -18.337  17.419  1.00  0.00     0.157 HD
ATOM     25  H31 UNL     1      -0.212 -19.458  16.175  1.00  0.00     0.157 HD
ENDBRANCH   4  23
BRANCH   1  26
HETATM   26  N1  UNL     1      -0.847 -20.948  21.445  1.00  0.00    -0.217 N 
HETATM   27  C5  UNL     1      -1.379 -19.675  21.832  1.00  0.00     0.141 C 
HETATM   28  C4  UNL     1      -2.758 -19.858  22.378  1.00  0.00     0.021 C 
HETATM   29  C3  UNL     1      -2.978 -21.107  23.162  1.00  0.00     0.007 C 
HETATM   30  C2  UNL     1      -1.732 -21.840  23.553  1.00  0.00     0.000 C 
HETATM   31  C1  UNL     1      -1.005 -21.220  24.698  1.00  0.00     0.011 C 
HETATM   32  C17 UNL     1      -0.883 -22.075  22.334  1.00  0.00     0.145 C 
ENDBRANCH   1  26
TORSDOF 6
ENDMDL
