MODEL 1
REMARK VINA RESULT: -8.546089685      0.000      0.000
REMARK  9 active torsions:
REMARK  status: ('A' for Active; 'I' for Inactive)
REMARK    1  A    between atoms: C2_2  and  O1_5 
REMARK    2  A    between atoms: O1_5  and  C5_6 
REMARK       I    between atoms: C5_6  and  N1_8 
REMARK    3  A    between atoms: N1_8  and  C6_10 
REMARK    4  A    between atoms: C7_13  and  C8_14 
REMARK    5  A    between atoms: C9_18  and  C10_19 
REMARK    6  A    between atoms: C10_19  and  O4_21 
REMARK    7  A    between atoms: O4_21  and  C11_22 
REMARK    8  A    between atoms: C11_22  and  C12_23 
REMARK       I    between atoms: C12_23  and  N3_25 
REMARK    9  A    between atoms: N3_25  and  C13_27 
ROOT
HETATM    1  C6  UNL     1      -0.964 -19.074  19.735  1.00  0.00     0.154 A 
HETATM    2  N2  UNL     1      -2.013 -18.641  20.432  1.00  0.00    -0.331 N 
ATOM      3  H2  UNL     1      -2.179 -18.976  21.380  1.00  0.00     0.168 HD
HETATM    4  C7  UNL     1      -2.828 -17.775  19.878  1.00  0.00     0.142 A 
HETATM    5  C9  UNL     1      -2.556 -17.364  18.608  1.00  0.00     0.115 A 
HETATM    6  S1  UNL     1      -1.114 -18.253  18.256  1.00  0.00    -0.045 SA
ENDROOT
BRANCH   5   7
HETATM    7  C10 UNL     1      -3.222 -16.421  17.696  1.00  0.00     0.303 C 
HETATM    8  O3  UNL     1      -3.279 -15.218  17.888  1.00  0.00    -0.259 OA
BRANCH   7   9
HETATM    9  O4  UNL     1      -3.821 -16.920  16.552  1.00  0.00    -0.308 OA
BRANCH   9  10
HETATM   10  C11 UNL     1      -3.238 -17.085  15.303  1.00  0.00     0.281 C 
BRANCH  10  11
HETATM   11  C12 UNL     1      -3.721 -16.219  14.237  1.00  0.00     0.242 C 
HETATM   12  O5  UNL     1      -4.909 -15.833  14.219  1.00  0.00    -0.271 OA
HETATM   13  N3  UNL     1      -2.855 -15.796  13.202  1.00  0.00    -0.353 N 
ATOM     14  H3  UNL     1      -1.883 -16.107  13.213  1.00  0.00     0.163 HD
BRANCH  13  15
HETATM   15  C13 UNL     1      -3.308 -14.925  12.116  1.00  0.00     0.108 C 
HETATM   16  C14 UNL     1      -2.126 -14.148  11.608  1.00  0.00     0.029 C 
HETATM   17  C15 UNL     1      -1.160 -15.003  10.830  1.00  0.00     0.028 C 
HETATM   18  C16 UNL     1      -1.830 -16.089  10.042  1.00  0.00     0.167 C 
HETATM   19  O6  UNL     1      -2.772 -16.784  10.798  1.00  0.00    -0.389 OA
HETATM   20  C17 UNL     1      -3.826 -15.877  11.029  1.00  0.00     0.192 C 
ENDBRANCH  13  15
ENDBRANCH  10  11
ENDBRANCH   9  10
ENDBRANCH   7   9
ENDBRANCH   5   7
BRANCH   4  21
HETATM   21  C8  UNL     1      -4.054 -17.249  20.620  1.00  0.00     0.434 C 
HETATM   22  F1  UNL     1      -5.137 -17.134  19.776  1.00  0.00    -0.165 F 
HETATM   23  F2  UNL     1      -4.456 -18.118  21.616  1.00  0.00    -0.165 F 
HETATM   24  F3  UNL     1      -3.748 -16.068  21.282  1.00  0.00    -0.165 F 
ENDBRANCH   4  21
BRANCH   1  25
HETATM   25  N1  UNL     1      -0.035 -19.929  20.094  1.00  0.00    -0.282 N 
HETATM   26  C5  UNL     1      -0.201 -21.315  19.960  1.00  0.00     0.367 C 
HETATM   27  O2  UNL     1      -0.290 -22.012  21.006  1.00  0.00    -0.238 OA
ATOM     28  H1  UNL     1       0.837 -19.573  20.484  1.00  0.00     0.173 HD
BRANCH  26  29
HETATM   29  O1  UNL     1      -0.272 -21.978  18.746  1.00  0.00    -0.294 OA
BRANCH  29  30
HETATM   30  C2  UNL     1       0.823 -22.380  17.983  1.00  0.00     0.061 C 
HETATM   31  C1  UNL     1       1.889 -23.070  18.808  1.00  0.00     0.046 C 
HETATM   32  C3  UNL     1       1.504 -21.219  17.272  1.00  0.00     0.046 C 
HETATM   33  C4  UNL     1       0.342 -23.326  16.905  1.00  0.00     0.046 C 
ENDBRANCH  29  30
ENDBRANCH  26  29
ENDBRANCH   1  25
TORSDOF 9
ENDMDL
MODEL 2
REMARK VINA RESULT: -8.322807878      2.787      8.489
REMARK  9 active torsions:
REMARK  status: ('A' for Active; 'I' for Inactive)
REMARK    1  A    between atoms: C2_2  and  O1_5 
REMARK    2  A    between atoms: O1_5  and  C5_6 
REMARK       I    between atoms: C5_6  and  N1_8 
REMARK    3  A    between atoms: N1_8  and  C6_10 
REMARK    4  A    between atoms: C7_13  and  C8_14 
REMARK    5  A    between atoms: C9_18  and  C10_19 
REMARK    6  A    between atoms: C10_19  and  O4_21 
REMARK    7  A    between atoms: O4_21  and  C11_22 
REMARK    8  A    between atoms: C11_22  and  C12_23 
REMARK       I    between atoms: C12_23  and  N3_25 
REMARK    9  A    between atoms: N3_25  and  C13_27 
ROOT
HETATM    1  C6  UNL     1      -3.324 -16.170  13.808  1.00  0.00     0.154 A 
HETATM    2  N2  UNL     1      -2.261 -15.510  14.263  1.00  0.00    -0.331 N 
ATOM      3  H2  UNL     1      -1.693 -14.945  13.633  1.00  0.00     0.168 HD
HETATM    4  C7  UNL     1      -1.958 -15.599  15.536  1.00  0.00     0.142 A 
HETATM    5  C9  UNL     1      -2.753 -16.368  16.330  1.00  0.00     0.115 A 
HETATM    6  S1  UNL     1      -3.925 -16.943  15.195  1.00  0.00    -0.045 SA
ENDROOT
BRANCH   5   7
HETATM    7  C10 UNL     1      -2.729 -16.686  17.766  1.00  0.00     0.303 C 
HETATM    8  O3  UNL     1      -3.487 -16.189  18.583  1.00  0.00    -0.259 OA
BRANCH   7   9
HETATM    9  O4  UNL     1      -1.796 -17.598  18.226  1.00  0.00    -0.308 OA
BRANCH   9  10
HETATM   10  C11 UNL     1      -1.007 -18.449  17.463  1.00  0.00     0.281 C 
BRANCH  10  11
HETATM   11  C12 UNL     1      -0.256 -19.467  18.185  1.00  0.00     0.242 C 
HETATM   12  O5  UNL     1      -0.204 -19.454  19.433  1.00  0.00    -0.271 OA
HETATM   13  N3  UNL     1       0.427 -20.490  17.488  1.00  0.00    -0.353 N 
ATOM     14  H3  UNL     1       0.386 -20.506  16.469  1.00  0.00     0.163 HD
BRANCH  13  15
HETATM   15  C13 UNL     1       1.190 -21.528  18.182  1.00  0.00     0.108 C 
HETATM   16  C14 UNL     1       0.374 -22.790  18.193  1.00  0.00     0.029 C 
HETATM   17  C15 UNL     1       0.288 -23.437  16.835  1.00  0.00     0.028 C 
HETATM   18  C16 UNL     1       1.535 -23.272  16.019  1.00  0.00     0.167 C 
HETATM   19  O6  UNL     1       2.002 -21.959  16.030  1.00  0.00    -0.389 OA
HETATM   20  C17 UNL     1       2.459 -21.723  17.342  1.00  0.00     0.192 C 
ENDBRANCH  13  15
ENDBRANCH  10  11
ENDBRANCH   9  10
ENDBRANCH   7   9
ENDBRANCH   5   7
BRANCH   4  21
HETATM   21  C8  UNL     1      -0.746 -14.876  16.118  1.00  0.00     0.434 C 
HETATM   22  F1  UNL     1       0.338 -15.721  16.220  1.00  0.00    -0.165 F 
HETATM   23  F2  UNL     1      -0.330 -13.844  15.299  1.00  0.00    -0.165 F 
HETATM   24  F3  UNL     1      -1.078 -14.265  17.319  1.00  0.00    -0.165 F 
ENDBRANCH   4  21
BRANCH   1  25
HETATM   25  N1  UNL     1      -3.799 -16.218  12.585  1.00  0.00    -0.282 N 
HETATM   26  C5  UNL     1      -4.234 -15.073  11.903  1.00  0.00     0.367 C 
HETATM   27  O2  UNL     1      -5.463 -14.956  11.649  1.00  0.00    -0.238 OA
ATOM     28  H1  UNL     1      -3.854 -17.122  12.114  1.00  0.00     0.173 HD
BRANCH  26  29
HETATM   29  O1  UNL     1      -3.398 -14.051  11.485  1.00  0.00    -0.294 OA
BRANCH  29  30
HETATM   30  C2  UNL     1      -2.307 -14.202  10.631  1.00  0.00     0.061 C 
HETATM   31  C1  UNL     1      -2.405 -15.445   9.772  1.00  0.00     0.046 C 
HETATM   32  C3  UNL     1      -0.982 -14.289  11.376  1.00  0.00     0.046 C 
HETATM   33  C4  UNL     1      -2.221 -12.986   9.734  1.00  0.00     0.046 C 
ENDBRANCH  29  30
ENDBRANCH  26  29
ENDBRANCH   1  25
TORSDOF 9
ENDMDL
MODEL 3
REMARK VINA RESULT: -8.308890632      1.011      1.392
REMARK  9 active torsions:
REMARK  status: ('A' for Active; 'I' for Inactive)
REMARK    1  A    between atoms: C2_2  and  O1_5 
REMARK    2  A    between atoms: O1_5  and  C5_6 
REMARK       I    between atoms: C5_6  and  N1_8 
REMARK    3  A    between atoms: N1_8  and  C6_10 
REMARK    4  A    between atoms: C7_13  and  C8_14 
REMARK    5  A    between atoms: C9_18  and  C10_19 
REMARK    6  A    between atoms: C10_19  and  O4_21 
REMARK    7  A    between atoms: O4_21  and  C11_22 
REMARK    8  A    between atoms: C11_22  and  C12_23 
REMARK       I    between atoms: C12_23  and  N3_25 
REMARK    9  A    between atoms: N3_25  and  C13_27 
ROOT
HETATM    1  C6  UNL     1      -0.945 -19.056  19.682  1.00  0.00     0.154 A 
HETATM    2  N2  UNL     1      -2.004 -18.637  20.372  1.00  0.00    -0.331 N 
ATOM      3  H2  UNL     1      -2.187 -18.994  21.310  1.00  0.00     0.168 HD
HETATM    4  C7  UNL     1      -2.809 -17.757  19.825  1.00  0.00     0.142 A 
HETATM    5  C9  UNL     1      -2.514 -17.315  18.571  1.00  0.00     0.115 A 
HETATM    6  S1  UNL     1      -1.068 -18.200  18.222  1.00  0.00    -0.045 SA
ENDROOT
BRANCH   5   7
HETATM    7  C10 UNL     1      -3.162 -16.350  17.670  1.00  0.00     0.303 C 
HETATM    8  O3  UNL     1      -3.263 -15.159  17.913  1.00  0.00    -0.259 OA
BRANCH   7   9
HETATM    9  O4  UNL     1      -3.691 -16.811  16.477  1.00  0.00    -0.308 OA
BRANCH   9  10
HETATM   10  C11 UNL     1      -4.034 -16.056  15.364  1.00  0.00     0.281 C 
BRANCH  10  11
HETATM   11  C12 UNL     1      -3.120 -16.107  14.231  1.00  0.00     0.242 C 
HETATM   12  O5  UNL     1      -1.938 -16.482  14.384  1.00  0.00    -0.271 OA
HETATM   13  N3  UNL     1      -3.553 -15.737  12.937  1.00  0.00    -0.353 N 
ATOM     14  H3  UNL     1      -4.517 -15.431  12.807  1.00  0.00     0.163 HD
BRANCH  13  15
HETATM   15  C13 UNL     1      -2.660 -15.777  11.778  1.00  0.00     0.108 C 
HETATM   16  C14 UNL     1      -3.471 -16.150  10.569  1.00  0.00     0.029 C 
HETATM   17  C15 UNL     1      -4.384 -15.039  10.118  1.00  0.00     0.028 C 
HETATM   18  C16 UNL     1      -3.806 -13.672  10.331  1.00  0.00     0.167 C 
HETATM   19  O6  UNL     1      -3.262 -13.522  11.605  1.00  0.00    -0.389 OA
HETATM   20  C17 UNL     1      -2.120 -14.348  11.637  1.00  0.00     0.192 C 
ENDBRANCH  13  15
ENDBRANCH  10  11
ENDBRANCH   9  10
ENDBRANCH   7   9
ENDBRANCH   5   7
BRANCH   4  21
HETATM   21  C8  UNL     1      -4.045 -17.245  20.559  1.00  0.00     0.434 C 
HETATM   22  F1  UNL     1      -5.117 -17.118  19.703  1.00  0.00    -0.165 F 
HETATM   23  F2  UNL     1      -4.458 -18.131  21.536  1.00  0.00    -0.165 F 
HETATM   24  F3  UNL     1      -3.751 -16.074  21.244  1.00  0.00    -0.165 F 
ENDBRANCH   4  21
BRANCH   1  25
HETATM   25  N1  UNL     1      -0.024 -19.922  20.037  1.00  0.00    -0.282 N 
HETATM   26  C5  UNL     1      -0.191 -21.304  19.870  1.00  0.00     0.367 C 
HETATM   27  O2  UNL     1      -0.299 -22.024  20.899  1.00  0.00    -0.238 OA
ATOM     28  H1  UNL     1       0.843 -19.577  20.447  1.00  0.00     0.173 HD
BRANCH  26  29
HETATM   29  O1  UNL     1      -0.247 -21.940  18.640  1.00  0.00    -0.294 OA
BRANCH  29  30
HETATM   30  C2  UNL     1       0.859 -22.356  17.900  1.00  0.00     0.061 C 
HETATM   31  C1  UNL     1       1.894 -23.069  18.745  1.00  0.00     0.046 C 
HETATM   32  C3  UNL     1       1.575 -21.203  17.211  1.00  0.00     0.046 C 
HETATM   33  C4  UNL     1       0.386 -23.289  16.806  1.00  0.00     0.046 C 
ENDBRANCH  29  30
ENDBRANCH  26  29
ENDBRANCH   1  25
TORSDOF 9
ENDMDL
MODEL 4
REMARK VINA RESULT: -8.278435740      1.265      1.497
REMARK  9 active torsions:
REMARK  status: ('A' for Active; 'I' for Inactive)
REMARK    1  A    between atoms: C2_2  and  O1_5 
REMARK    2  A    between atoms: O1_5  and  C5_6 
REMARK       I    between atoms: C5_6  and  N1_8 
REMARK    3  A    between atoms: N1_8  and  C6_10 
REMARK    4  A    between atoms: C7_13  and  C8_14 
REMARK    5  A    between atoms: C9_18  and  C10_19 
REMARK    6  A    between atoms: C10_19  and  O4_21 
REMARK    7  A    between atoms: O4_21  and  C11_22 
REMARK    8  A    between atoms: C11_22  and  C12_23 
REMARK       I    between atoms: C12_23  and  N3_25 
REMARK    9  A    between atoms: N3_25  and  C13_27 
ROOT
HETATM    1  C6  UNL     1      -0.718 -18.782  18.771  1.00  0.00     0.154 A 
HETATM    2  N2  UNL     1      -1.785 -18.064  19.115  1.00  0.00    -0.331 N 
ATOM      3  H2  UNL     1      -2.130 -18.076  20.075  1.00  0.00     0.168 HD
HETATM    4  C7  UNL     1      -2.386 -17.343  18.198  1.00  0.00     0.142 A 
HETATM    5  C9  UNL     1      -1.880 -17.367  16.934  1.00  0.00     0.115 A 
HETATM    6  S1  UNL     1      -0.539 -18.445  17.117  1.00  0.00    -0.045 SA
ENDROOT
BRANCH   5   7
HETATM    7  C10 UNL     1      -2.271 -16.696  15.686  1.00  0.00     0.303 C 
HETATM    8  O3  UNL     1      -1.631 -15.792  15.172  1.00  0.00    -0.259 OA
BRANCH   7   9
HETATM    9  O4  UNL     1      -3.430 -17.105  15.050  1.00  0.00    -0.308 OA
BRANCH   9  10
HETATM   10  C11 UNL     1      -4.522 -16.319  14.707  1.00  0.00     0.281 C 
BRANCH  10  11
HETATM   11  C12 UNL     1      -4.569 -15.827  13.337  1.00  0.00     0.242 C 
HETATM   12  O5  UNL     1      -5.639 -15.839  12.693  1.00  0.00    -0.271 OA
HETATM   13  N3  UNL     1      -3.405 -15.325  12.710  1.00  0.00    -0.353 N 
ATOM     14  H3  UNL     1      -2.529 -15.312  13.232  1.00  0.00     0.163 HD
BRANCH  13  15
HETATM   15  C13 UNL     1      -3.418 -14.823  11.335  1.00  0.00     0.108 C 
HETATM   16  C14 UNL     1      -2.180 -13.999  11.120  1.00  0.00     0.029 C 
HETATM   17  C15 UNL     1      -0.930 -14.838  11.047  1.00  0.00     0.028 C 
HETATM   18  C16 UNL     1      -1.150 -16.176  10.405  1.00  0.00     0.167 C 
HETATM   19  O6  UNL     1      -2.278 -16.822  10.906  1.00  0.00    -0.389 OA
HETATM   20  C17 UNL     1      -3.384 -16.076  10.450  1.00  0.00     0.192 C 
ENDBRANCH  13  15
ENDBRANCH  10  11
ENDBRANCH   9  10
ENDBRANCH   7   9
ENDBRANCH   5   7
BRANCH   4  21
HETATM   21  C8  UNL     1      -3.620 -16.507  18.526  1.00  0.00     0.434 C 
HETATM   22  F1  UNL     1      -4.759 -17.069  17.992  1.00  0.00    -0.165 F 
HETATM   23  F2  UNL     1      -3.845 -16.447  19.888  1.00  0.00    -0.165 F 
HETATM   24  F3  UNL     1      -3.428 -15.188  18.140  1.00  0.00    -0.165 F 
ENDBRANCH   4  21
BRANCH   1  25
HETATM   25  N1  UNL     1       0.023 -19.564  19.522  1.00  0.00    -0.282 N 
HETATM   26  C5  UNL     1      -0.318 -20.900  19.777  1.00  0.00     0.367 C 
HETATM   27  O2  UNL     1      -0.647 -21.221  20.950  1.00  0.00    -0.238 OA
ATOM     28  H1  UNL     1       0.876 -19.187  19.933  1.00  0.00     0.173 HD
BRANCH  26  29
HETATM   29  O1  UNL     1      -0.319 -21.901  18.819  1.00  0.00    -0.294 OA
BRANCH  29  30
HETATM   30  C2  UNL     1       0.820 -22.482  18.263  1.00  0.00     0.061 C 
HETATM   31  C1  UNL     1       1.574 -23.351  19.248  1.00  0.00     0.046 C 
HETATM   32  C3  UNL     1       1.811 -21.453  17.740  1.00  0.00     0.046 C 
HETATM   33  C4  UNL     1       0.403 -23.325  17.077  1.00  0.00     0.046 C 
ENDBRANCH  29  30
ENDBRANCH  26  29
ENDBRANCH   1  25
TORSDOF 9
ENDMDL
MODEL 5
REMARK VINA RESULT: -8.093217762      1.798      2.421
REMARK  9 active torsions:
REMARK  status: ('A' for Active; 'I' for Inactive)
REMARK    1  A    between atoms: C2_2  and  O1_5 
REMARK    2  A    between atoms: O1_5  and  C5_6 
REMARK       I    between atoms: C5_6  and  N1_8 
REMARK    3  A    between atoms: N1_8  and  C6_10 
REMARK    4  A    between atoms: C7_13  and  C8_14 
REMARK    5  A    between atoms: C9_18  and  C10_19 
REMARK    6  A    between atoms: C10_19  and  O4_21 
REMARK    7  A    between atoms: O4_21  and  C11_22 
REMARK    8  A    between atoms: C11_22  and  C12_23 
REMARK       I    between atoms: C12_23  and  N3_25 
REMARK    9  A    between atoms: N3_25  and  C13_27 
ROOT
HETATM    1  C6  UNL     1      -0.752 -18.759  18.779  1.00  0.00     0.154 A 
HETATM    2  N2  UNL     1      -1.799 -18.051  19.198  1.00  0.00    -0.331 N 
ATOM      3  H2  UNL     1      -2.058 -18.043  20.185  1.00  0.00     0.168 HD
HETATM    4  C7  UNL     1      -2.491 -17.364  18.321  1.00  0.00     0.142 A 
HETATM    5  C9  UNL     1      -2.098 -17.412  17.018  1.00  0.00     0.115 A 
HETATM    6  S1  UNL     1      -0.726 -18.463  17.108  1.00  0.00    -0.045 SA
ENDROOT
BRANCH   5   7
HETATM    7  C10 UNL     1      -2.610 -16.781  15.793  1.00  0.00     0.303 C 
HETATM    8  O3  UNL     1      -3.795 -16.721  15.505  1.00  0.00    -0.259 OA
BRANCH   7   9
HETATM    9  O4  UNL     1      -1.704 -16.220  14.909  1.00  0.00    -0.308 OA
BRANCH   9  10
HETATM   10  C11 UNL     1      -1.872 -15.069  14.153  1.00  0.00     0.281 C 
BRANCH  10  11
HETATM   11  C12 UNL     1      -2.110 -15.252  12.727  1.00  0.00     0.242 C 
HETATM   12  O5  UNL     1      -1.779 -16.313  12.158  1.00  0.00    -0.271 OA
HETATM   13  N3  UNL     1      -2.722 -14.233  11.961  1.00  0.00    -0.353 N 
ATOM     14  H3  UNL     1      -2.995 -13.365  12.422  1.00  0.00     0.163 HD
BRANCH  13  15
HETATM   15  C13 UNL     1      -2.976 -14.384  10.527  1.00  0.00     0.108 C 
HETATM   16  C14 UNL     1      -4.412 -14.785  10.340  1.00  0.00     0.029 C 
HETATM   17  C15 UNL     1      -5.371 -13.658  10.626  1.00  0.00     0.028 C 
HETATM   18  C16 UNL     1      -4.835 -12.311  10.240  1.00  0.00     0.167 C 
HETATM   19  O6  UNL     1      -3.529 -12.116  10.684  1.00  0.00    -0.389 OA
HETATM   20  C17 UNL     1      -2.728 -12.994   9.927  1.00  0.00     0.192 C 
ENDBRANCH  13  15
ENDBRANCH  10  11
ENDBRANCH   9  10
ENDBRANCH   7   9
ENDBRANCH   5   7
BRANCH   4  21
HETATM   21  C8  UNL     1      -3.708 -16.542  18.736  1.00  0.00     0.434 C 
HETATM   22  F1  UNL     1      -3.686 -15.291  18.158  1.00  0.00    -0.165 F 
HETATM   23  F2  UNL     1      -4.885 -17.124  18.306  1.00  0.00    -0.165 F 
HETATM   24  F3  UNL     1      -3.816 -16.503  20.119  1.00  0.00    -0.165 F 
ENDBRANCH   4  21
BRANCH   1  25
HETATM   25  N1  UNL     1       0.067 -19.509  19.480  1.00  0.00    -0.282 N 
HETATM   26  C5  UNL     1      -0.205 -20.855  19.762  1.00  0.00     0.367 C 
HETATM   27  O2  UNL     1      -0.442 -21.182  20.956  1.00  0.00    -0.238 OA
ATOM     28  H1  UNL     1       0.931 -19.097  19.832  1.00  0.00     0.173 HD
BRANCH  26  29
HETATM   29  O1  UNL     1      -0.233 -21.861  18.810  1.00  0.00    -0.294 OA
BRANCH  29  30
HETATM   30  C2  UNL     1       0.890 -22.454  18.234  1.00  0.00     0.061 C 
HETATM   31  C1  UNL     1       1.635 -23.353  19.198  1.00  0.00     0.046 C 
HETATM   32  C3  UNL     1       1.897 -21.435  17.720  1.00  0.00     0.046 C 
HETATM   33  C4  UNL     1       0.448 -23.269  17.039  1.00  0.00     0.046 C 
ENDBRANCH  29  30
ENDBRANCH  26  29
ENDBRANCH   1  25
TORSDOF 9
ENDMDL
