MODEL 1
REMARK VINA RESULT: -6.017564496      0.000      0.000
REMARK  5 active torsions:
REMARK  status: ('A' for Active; 'I' for Inactive)
REMARK    1  A    between atoms: C1_2  and  N1_3 
REMARK    2  A    between atoms: C1_2  and  N3_13 
REMARK    3  A    between atoms: N1_3  and  N2_5 
REMARK    4  A    between atoms: N2_5  and  C2_7 
REMARK    5  A    between atoms: N3_13  and  C6_15 
ROOT
HETATM    1  S1  UNL     1      15.083  24.368  -9.208  1.00  0.00    -0.040 SA
HETATM    2  C1  UNL     1      13.470  24.403  -9.395  1.00  0.00     0.186 C 
ENDROOT
BRANCH   2   3
HETATM    3  N1  UNL     1      12.732  25.449  -8.803  1.00  0.00    -0.274 N 
ATOM      4  H1  UNL     1      12.028  25.228  -8.100  1.00  0.00     0.189 HD
BRANCH   3   5
HETATM    5  N2  UNL     1      12.951  26.806  -9.166  1.00  0.00    -0.278 N 
ATOM      6  H2  UNL     1      13.447  27.431  -8.531  1.00  0.00     0.189 HD
BRANCH   5   7
HETATM    7  C2  UNL     1      12.479  27.289 -10.416  1.00  0.00     0.163 A 
HETATM    8  C3  UNL     1      11.563  28.314 -10.603  1.00  0.00     0.061 A 
HETATM    9  C4  UNL     1      11.383  28.467 -11.960  1.00  0.00     0.049 A 
HETATM   10  C5  UNL     1      12.197  27.525 -12.550  1.00  0.00     0.124 A 
HETATM   11 BR1  UNL     1      12.399  27.226 -14.431  1.00  0.00    -0.023 Br
HETATM   12  O1  UNL     1      12.819  26.861 -11.594  1.00  0.00    -0.285 OA
ENDBRANCH   5   7
ENDBRANCH   3   5
ENDBRANCH   2   3
BRANCH   2  13
HETATM   13  N3  UNL     1      12.832  23.403 -10.134  1.00  0.00    -0.361 N 
ATOM     14  H3  UNL     1      11.864  23.179  -9.903  1.00  0.00     0.162 HD
BRANCH  13  15
HETATM   15  C6  UNL     1      13.462  22.668 -11.208  1.00  0.00     0.083 C 
HETATM   16  C7  UNL     1      12.808  21.338 -11.406  1.00  0.00     0.025 C 
HETATM   17  C8  UNL     1      12.052  21.243 -12.689  1.00  0.00     0.002 C 
HETATM   18  C9  UNL     1      11.272  22.527 -12.852  1.00  0.00     0.000 C 
HETATM   19  C10 UNL     1      12.259  23.610 -13.206  1.00  0.00     0.002 C 
HETATM   20  C11 UNL     1      13.560  23.486 -12.465  1.00  0.00     0.025 C 
ENDBRANCH  13  15
ENDBRANCH   2  13
TORSDOF 5
ENDMDL
MODEL 2
REMARK VINA RESULT: -5.788964735      7.232      8.397
REMARK  5 active torsions:
REMARK  status: ('A' for Active; 'I' for Inactive)
REMARK    1  A    between atoms: C1_2  and  N1_3 
REMARK    2  A    between atoms: C1_2  and  N3_13 
REMARK    3  A    between atoms: N1_3  and  N2_5 
REMARK    4  A    between atoms: N2_5  and  C2_7 
REMARK    5  A    between atoms: N3_13  and  C6_15 
ROOT
HETATM    1  S1  UNL     1       5.788  19.470 -10.764  1.00  0.00    -0.040 SA
HETATM    2  C1  UNL     1       6.113  20.558  -9.603  1.00  0.00     0.186 C 
ENDROOT
BRANCH   2   3
HETATM    3  N1  UNL     1       7.257  21.374  -9.727  1.00  0.00    -0.274 N 
ATOM      4  H1  UNL     1       7.253  22.140 -10.400  1.00  0.00     0.189 HD
BRANCH   3   5
HETATM    5  N2  UNL     1       8.413  21.152  -8.931  1.00  0.00    -0.278 N 
ATOM      6  H2  UNL     1       8.344  20.606  -8.072  1.00  0.00     0.189 HD
BRANCH   5   7
HETATM    7  C2  UNL     1       9.664  21.690  -9.334  1.00  0.00     0.163 A 
HETATM    8  C3  UNL     1      10.421  21.274 -10.419  1.00  0.00     0.061 A 
HETATM    9  C4  UNL     1      11.557  22.054 -10.456  1.00  0.00     0.049 A 
HETATM   10  C5  UNL     1      11.448  22.916  -9.388  1.00  0.00     0.124 A 
HETATM   11 BR1  UNL     1      12.717  24.262  -8.889  1.00  0.00    -0.023 Br
HETATM   12  O1  UNL     1      10.315  22.658  -8.762  1.00  0.00    -0.285 OA
ENDBRANCH   5   7
ENDBRANCH   3   5
ENDBRANCH   2   3
BRANCH   2  13
HETATM   13  N3  UNL     1       5.263  20.675  -8.499  1.00  0.00    -0.361 N 
ATOM     14  H3  UNL     1       5.649  20.483  -7.575  1.00  0.00     0.162 HD
BRANCH  13  15
HETATM   15  C6  UNL     1       3.871  21.053  -8.590  1.00  0.00     0.083 C 
HETATM   16  C7  UNL     1       3.242  21.120  -7.236  1.00  0.00     0.025 C 
HETATM   17  C8  UNL     1       2.895  22.511  -6.820  1.00  0.00     0.002 C 
HETATM   18  C9  UNL     1       4.064  23.398  -7.181  1.00  0.00     0.000 C 
HETATM   19  C10 UNL     1       4.059  23.560  -8.680  1.00  0.00     0.002 C 
HETATM   20  C11 UNL     1       3.681  22.301  -9.407  1.00  0.00     0.025 C 
ENDBRANCH  13  15
ENDBRANCH   2  13
TORSDOF 5
ENDMDL
MODEL 3
REMARK VINA RESULT: -5.732027022      0.824      1.248
REMARK  5 active torsions:
REMARK  status: ('A' for Active; 'I' for Inactive)
REMARK    1  A    between atoms: C1_2  and  N1_3 
REMARK    2  A    between atoms: C1_2  and  N3_13 
REMARK    3  A    between atoms: N1_3  and  N2_5 
REMARK    4  A    between atoms: N2_5  and  C2_7 
REMARK    5  A    between atoms: N3_13  and  C6_15 
ROOT
HETATM    1  S1  UNL     1      14.964  24.442  -9.332  1.00  0.00    -0.040 SA
HETATM    2  C1  UNL     1      13.341  24.447  -9.264  1.00  0.00     0.186 C 
ENDROOT
BRANCH   2   3
HETATM    3  N1  UNL     1      12.681  25.546  -8.676  1.00  0.00    -0.274 N 
ATOM      4  H1  UNL     1      12.010  25.382  -7.926  1.00  0.00     0.189 HD
BRANCH   3   5
HETATM    5  N2  UNL     1      12.934  26.876  -9.106  1.00  0.00    -0.278 N 
ATOM      6  H2  UNL     1      13.452  27.518  -8.505  1.00  0.00     0.189 HD
BRANCH   5   7
HETATM    7  C2  UNL     1      12.465  27.312 -10.374  1.00  0.00     0.163 A 
HETATM    8  C3  UNL     1      11.566  28.343 -10.603  1.00  0.00     0.061 A 
HETATM    9  C4  UNL     1      11.383  28.438 -11.965  1.00  0.00     0.049 A 
HETATM   10  C5  UNL     1      12.179  27.459 -12.516  1.00  0.00     0.124 A 
HETATM   11 BR1  UNL     1      12.368  27.073 -14.382  1.00  0.00    -0.023 Br
HETATM   12  O1  UNL     1      12.793  26.826 -11.534  1.00  0.00    -0.285 OA
ENDBRANCH   5   7
ENDBRANCH   3   5
ENDBRANCH   2   3
BRANCH   2  13
HETATM   13  N3  UNL     1      12.618  23.370  -9.786  1.00  0.00    -0.361 N 
ATOM     14  H3  UNL     1      12.120  22.765  -9.132  1.00  0.00     0.162 HD
BRANCH  13  15
HETATM   15  C6  UNL     1      12.533  23.063 -11.196  1.00  0.00     0.083 C 
HETATM   16  C7  UNL     1      13.220  21.772 -11.508  1.00  0.00     0.025 C 
HETATM   17  C8  UNL     1      12.274  20.687 -11.903  1.00  0.00     0.002 C 
HETATM   18  C9  UNL     1      11.103  20.736 -10.950  1.00  0.00     0.000 C 
HETATM   19  C10 UNL     1      10.281  21.948 -11.310  1.00  0.00     0.002 C 
HETATM   20  C11 UNL     1      11.118  23.132 -11.700  1.00  0.00     0.025 C 
ENDBRANCH  13  15
ENDBRANCH   2  13
TORSDOF 5
ENDMDL
MODEL 4
REMARK VINA RESULT: -5.726527319      4.907      6.361
REMARK  5 active torsions:
REMARK  status: ('A' for Active; 'I' for Inactive)
REMARK    1  A    between atoms: C1_2  and  N1_3 
REMARK    2  A    between atoms: C1_2  and  N3_13 
REMARK    3  A    between atoms: N1_3  and  N2_5 
REMARK    4  A    between atoms: N2_5  and  C2_7 
REMARK    5  A    between atoms: N3_13  and  C6_15 
ROOT
HETATM    1  S1  UNL     1       6.831  19.443 -11.515  1.00  0.00    -0.040 SA
HETATM    2  C1  UNL     1       8.295  20.056 -11.862  1.00  0.00     0.186 C 
ENDROOT
BRANCH   2   3
HETATM    3  N1  UNL     1       9.274  20.113 -10.849  1.00  0.00    -0.274 N 
ATOM      4  H1  UNL     1       8.990  20.320  -9.892  1.00  0.00     0.189 HD
BRANCH   3   5
HETATM    5  N2  UNL     1      10.647  19.889 -11.136  1.00  0.00    -0.278 N 
ATOM      6  H2  UNL     1      10.968  18.957 -11.402  1.00  0.00     0.189 HD
BRANCH   5   7
HETATM    7  C2  UNL     1      11.573  20.963 -11.052  1.00  0.00     0.163 A 
HETATM    8  C3  UNL     1      12.688  21.146 -11.856  1.00  0.00     0.061 A 
HETATM    9  C4  UNL     1      13.310  22.305 -11.446  1.00  0.00     0.049 A 
HETATM   10  C5  UNL     1      12.549  22.785 -10.404  1.00  0.00     0.124 A 
HETATM   11 BR1  UNL     1      12.887  24.378  -9.397  1.00  0.00    -0.023 Br
HETATM   12  O1  UNL     1      11.539  21.956 -10.215  1.00  0.00    -0.285 OA
ENDBRANCH   5   7
ENDBRANCH   3   5
ENDBRANCH   2   3
BRANCH   2  13
HETATM   13  N3  UNL     1       8.569  20.518 -13.153  1.00  0.00    -0.361 N 
ATOM     14  H3  UNL     1       8.806  21.503 -13.269  1.00  0.00     0.162 HD
BRANCH  13  15
HETATM   15  C6  UNL     1       8.535  19.683 -14.333  1.00  0.00     0.083 C 
HETATM   16  C7  UNL     1       8.256  20.493 -15.558  1.00  0.00     0.025 C 
HETATM   17  C8  UNL     1       9.428  20.584 -16.478  1.00  0.00     0.002 C 
HETATM   18  C9  UNL     1      10.651  20.848 -15.631  1.00  0.00     0.000 C 
HETATM   19  C10 UNL     1      10.981  19.567 -14.908  1.00  0.00     0.002 C 
HETATM   20  C11 UNL     1       9.763  18.822 -14.444  1.00  0.00     0.025 C 
ENDBRANCH  13  15
ENDBRANCH   2  13
TORSDOF 5
ENDMDL
MODEL 5
REMARK VINA RESULT: -5.699507593      2.934      4.848
REMARK  5 active torsions:
REMARK  status: ('A' for Active; 'I' for Inactive)
REMARK    1  A    between atoms: C1_2  and  N1_3 
REMARK    2  A    between atoms: C1_2  and  N3_13 
REMARK    3  A    between atoms: N1_3  and  N2_5 
REMARK    4  A    between atoms: N2_5  and  C2_7 
REMARK    5  A    between atoms: N3_13  and  C6_15 
ROOT
HETATM    1  S1  UNL     1      10.042  27.472 -10.910  1.00  0.00    -0.040 SA
HETATM    2  C1  UNL     1      11.641  27.734 -11.023  1.00  0.00     0.186 C 
ENDROOT
BRANCH   2   3
HETATM    3  N1  UNL     1      12.416  27.778  -9.846  1.00  0.00    -0.274 N 
ATOM      4  H1  UNL     1      12.804  28.668  -9.536  1.00  0.00     0.189 HD
BRANCH   3   5
HETATM    5  N2  UNL     1      12.665  26.605  -9.082  1.00  0.00    -0.278 N 
ATOM      6  H2  UNL     1      12.653  26.648  -8.062  1.00  0.00     0.189 HD
BRANCH   5   7
HETATM    7  C2  UNL     1      12.930  25.374  -9.739  1.00  0.00     0.163 A 
HETATM    8  C3  UNL     1      14.128  25.005 -10.330  1.00  0.00     0.061 A 
HETATM    9  C4  UNL     1      13.962  23.740 -10.850  1.00  0.00     0.049 A 
HETATM   10  C5  UNL     1      12.664  23.386 -10.556  1.00  0.00     0.124 A 
HETATM   11 BR1  UNL     1      11.812  21.733 -11.013  1.00  0.00    -0.023 Br
HETATM   12  O1  UNL     1      12.103  24.385  -9.901  1.00  0.00    -0.285 OA
ENDBRANCH   5   7
ENDBRANCH   3   5
ENDBRANCH   2   3
BRANCH   2  13
HETATM   13  N3  UNL     1      12.231  27.914 -12.278  1.00  0.00    -0.361 N 
ATOM     14  H3  UNL     1      12.987  28.593 -12.359  1.00  0.00     0.162 HD
BRANCH  13  15
HETATM   15  C6  UNL     1      11.832  27.194 -13.467  1.00  0.00     0.083 C 
HETATM   16  C7  UNL     1      11.957  28.054 -14.683  1.00  0.00     0.025 C 
HETATM   17  C8  UNL     1      13.050  27.615 -15.600  1.00  0.00     0.002 C 
HETATM   18  C9  UNL     1      14.255  27.291 -14.749  1.00  0.00     0.000 C 
HETATM   19  C10 UNL     1      13.967  25.993 -14.038  1.00  0.00     0.002 C 
HETATM   20  C11 UNL     1      12.541  25.873 -13.585  1.00  0.00     0.025 C 
ENDBRANCH  13  15
ENDBRANCH   2  13
TORSDOF 5
ENDMDL
