MODEL 1
REMARK VINA RESULT: -6.614523239      0.000      0.000
REMARK  5 active torsions:
REMARK  status: ('A' for Active; 'I' for Inactive)
REMARK    1  A    between atoms: C4_6  and  C5_7 
REMARK    2  A    between atoms: C6_8  and  C7_9 
REMARK    3  A    between atoms: C15_18  and  O1_19 
REMARK    4  A    between atoms: C15_18  and  C16_21 
REMARK    5  A    between atoms: C16_21  and  O2_22 
ROOT
HETATM    1  C5  UNL     1      11.588  22.476 -10.410  1.00  0.00     0.045 C 
HETATM    2  C6  UNL     1      12.653  21.997 -11.393  1.00  0.00    -0.063 C 
HETATM    3  C8  UNL     1      13.359  22.769 -12.227  1.00  0.00    -0.022 C 
HETATM    4  C9  UNL     1      13.419  24.188 -12.526  1.00  0.00     0.035 C 
HETATM    5  C10 UNL     1      13.182  25.222 -11.485  1.00  0.00     0.026 C 
HETATM    6  C11 UNL     1      11.971  26.051 -11.908  1.00  0.00     0.008 C 
HETATM    7  C12 UNL     1      10.759  26.083 -11.092  1.00  0.00     0.001 C 
HETATM    8  C13 UNL     1      10.415  24.823 -10.272  1.00  0.00     0.008 C 
HETATM    9  C14 UNL     1      11.505  23.910 -10.596  1.00  0.00     0.033 C 
HETATM   10  C15 UNL     1      12.754  24.587 -10.176  1.00  0.00     0.087 C 
ENDROOT
BRANCH   1  11
HETATM   11  C4  UNL     1      10.350  21.657 -10.573  1.00  0.00     0.089 C 
HETATM   12  N1  UNL     1       9.557  21.721  -9.381  1.00  0.00    -0.393 N 
HETATM   13  C3  UNL     1       8.306  21.056  -9.406  1.00  0.00     0.085 C 
ATOM     14  H1  UNL     1       9.878  22.222  -8.552  1.00  0.00     0.159 HD
HETATM   15  C2  UNL     1       7.817  20.677 -10.569  1.00  0.00    -0.069 C 
HETATM   16  C1  UNL     1       6.485  19.966 -10.622  1.00  0.00     0.044 C 
HETATM   17  C18 UNL     1       8.482  20.896 -11.880  1.00  0.00     0.037 C 
HETATM   18  C17 UNL     1       9.489  22.051 -11.736  1.00  0.00     0.030 C 
ENDBRANCH   1  11
BRANCH   2  19
HETATM   19  C7  UNL     1      12.915  20.537 -11.410  1.00  0.00     0.149 C 
HETATM   20 CL1  UNL     1      12.125  19.837 -12.842  1.00  0.00    -0.126 Cl
ENDBRANCH   2  19
BRANCH  10  21
HETATM   21  O1  UNL     1      12.525  25.758  -9.375  1.00  0.00    -0.387 OA
ATOM     22  H1  UNL     1      13.026  26.403  -9.860  1.00  0.00     0.210 HD
ENDBRANCH  10  21
BRANCH  10  23
HETATM   23  C16 UNL     1      13.788  23.952  -9.391  1.00  0.00     0.202 C 
BRANCH  23  24
HETATM   24  O2  UNL     1      13.637  24.240  -8.021  1.00  0.00    -0.398 OA
ATOM     25  H2  UNL     1      13.247  23.508  -7.558  1.00  0.00     0.209 HD
ENDBRANCH  23  24
ENDBRANCH  10  23
TORSDOF 5
ENDMDL
MODEL 2
REMARK VINA RESULT: -6.466953598      2.487      3.177
REMARK  5 active torsions:
REMARK  status: ('A' for Active; 'I' for Inactive)
REMARK    1  A    between atoms: C4_6  and  C5_7 
REMARK    2  A    between atoms: C6_8  and  C7_9 
REMARK    3  A    between atoms: C15_18  and  O1_19 
REMARK    4  A    between atoms: C15_18  and  C16_21 
REMARK    5  A    between atoms: C16_21  and  O2_22 
ROOT
HETATM    1  C5  UNL     1      10.682  22.252 -12.105  1.00  0.00     0.045 C 
HETATM    2  C6  UNL     1      11.808  21.299 -11.713  1.00  0.00    -0.063 C 
HETATM    3  C8  UNL     1      13.043  21.651 -11.338  1.00  0.00    -0.022 C 
HETATM    4  C9  UNL     1      13.756  22.902 -11.161  1.00  0.00     0.035 C 
HETATM    5  C10 UNL     1      13.071  24.140 -10.703  1.00  0.00     0.026 C 
HETATM    6  C11 UNL     1      13.216  25.195 -11.799  1.00  0.00     0.008 C 
HETATM    7  C12 UNL     1      12.043  25.741 -12.476  1.00  0.00     0.001 C 
HETATM    8  C13 UNL     1      10.814  24.823 -12.633  1.00  0.00     0.008 C 
HETATM    9  C14 UNL     1      11.246  23.583 -11.999  1.00  0.00     0.033 C 
HETATM   10  C15 UNL     1      11.574  23.924 -10.596  1.00  0.00     0.087 C 
ENDROOT
BRANCH   1  11
HETATM   11  C4  UNL     1      10.091  21.823 -13.407  1.00  0.00     0.089 C 
HETATM   12  N1  UNL     1       8.876  22.541 -13.657  1.00  0.00    -0.393 N 
HETATM   13  C3  UNL     1       8.233  22.303 -14.897  1.00  0.00     0.085 C 
ATOM     14  H1  UNL     1       8.492  23.194 -12.974  1.00  0.00     0.159 HD
HETATM   15  C2  UNL     1       8.905  21.684 -15.847  1.00  0.00    -0.069 C 
HETATM   16  C1  UNL     1       8.241  21.418 -17.177  1.00  0.00     0.044 C 
HETATM   17  C18 UNL     1      10.308  21.210 -15.721  1.00  0.00     0.037 C 
HETATM   18  C17 UNL     1      10.995  21.997 -14.591  1.00  0.00     0.030 C 
ENDBRANCH   1  11
BRANCH   2  19
HETATM   19  C7  UNL     1      11.483  19.852 -11.761  1.00  0.00     0.149 C 
HETATM   20 CL1  UNL     1      13.000  18.928 -11.680  1.00  0.00    -0.126 Cl
ENDBRANCH   2  19
BRANCH  10  21
HETATM   21  O1  UNL     1      11.143  25.242 -10.215  1.00  0.00    -0.387 OA
ATOM     22  H1  UNL     1      10.202  25.115 -10.177  1.00  0.00     0.210 HD
ENDBRANCH  10  21
BRANCH  10  23
HETATM   23  C16 UNL     1      11.105  23.173  -9.453  1.00  0.00     0.202 C 
BRANCH  23  24
HETATM   24  O2  UNL     1      10.347  23.984  -8.587  1.00  0.00    -0.398 OA
ATOM     25  H2  UNL     1      10.902  24.417  -7.948  1.00  0.00     0.209 HD
ENDBRANCH  23  24
ENDBRANCH  10  23
TORSDOF 5
ENDMDL
MODEL 3
REMARK VINA RESULT: -6.424398128      2.673      3.448
REMARK  5 active torsions:
REMARK  status: ('A' for Active; 'I' for Inactive)
REMARK    1  A    between atoms: C4_6  and  C5_7 
REMARK    2  A    between atoms: C6_8  and  C7_9 
REMARK    3  A    between atoms: C15_18  and  O1_19 
REMARK    4  A    between atoms: C15_18  and  C16_21 
REMARK    5  A    between atoms: C16_21  and  O2_22 
ROOT
HETATM    1  C5  UNL     1      10.038  21.749 -11.952  1.00  0.00     0.045 C 
HETATM    2  C6  UNL     1      11.333  21.022 -11.599  1.00  0.00    -0.063 C 
HETATM    3  C8  UNL     1      12.402  21.563 -11.003  1.00  0.00    -0.022 C 
HETATM    4  C9  UNL     1      12.756  22.879 -10.504  1.00  0.00     0.035 C 
HETATM    5  C10 UNL     1      11.744  23.796  -9.918  1.00  0.00     0.026 C 
HETATM    6  C11 UNL     1      11.705  25.064 -10.769  1.00  0.00     0.008 C 
HETATM    7  C12 UNL     1      10.491  25.455 -11.482  1.00  0.00     0.001 C 
HETATM    8  C13 UNL     1       9.554  24.331 -11.969  1.00  0.00     0.008 C 
HETATM    9  C14 UNL     1      10.234  23.119 -11.526  1.00  0.00     0.033 C 
HETATM   10  C15 UNL     1      10.347  23.221 -10.053  1.00  0.00     0.087 C 
ENDROOT
BRANCH   1  11
HETATM   11  C4  UNL     1       9.686  21.482 -13.378  1.00  0.00     0.089 C 
HETATM   12  N1  UNL     1       8.351  21.929 -13.648  1.00  0.00    -0.393 N 
HETATM   13  C3  UNL     1       7.894  21.818 -14.984  1.00  0.00     0.085 C 
ATOM     14  H1  UNL     1       7.757  22.311 -12.911  1.00  0.00     0.159 HD
HETATM   15  C2  UNL     1       8.778  21.594 -15.936  1.00  0.00    -0.069 C 
HETATM   16  C1  UNL     1       8.316  21.471 -17.368  1.00  0.00     0.044 C 
HETATM   17  C18 UNL     1      10.241  21.449 -15.716  1.00  0.00     0.037 C 
HETATM   18  C17 UNL     1      10.608  22.114 -14.378  1.00  0.00     0.030 C 
ENDBRANCH   1  11
BRANCH   2  19
HETATM   19  C7  UNL     1      11.393  19.584 -11.958  1.00  0.00     0.149 C 
HETATM   20 CL1  UNL     1      13.053  19.002 -11.696  1.00  0.00    -0.126 Cl
ENDBRANCH   2  19
BRANCH  10  21
HETATM   21  O1  UNL     1       9.565  24.289  -9.493  1.00  0.00    -0.387 OA
ATOM     22  H1  UNL     1      10.243  24.932  -9.320  1.00  0.00     0.210 HD
ENDBRANCH  10  21
BRANCH  10  23
HETATM   23  C16 UNL     1       9.992  22.155  -9.143  1.00  0.00     0.202 C 
BRANCH  23  24
HETATM   24  O2  UNL     1       9.955  22.613  -7.812  1.00  0.00    -0.398 OA
ATOM     25  H2  UNL     1       9.574  21.962  -7.235  1.00  0.00     0.209 HD
ENDBRANCH  23  24
ENDBRANCH  10  23
TORSDOF 5
ENDMDL
MODEL 4
REMARK VINA RESULT: -6.413501961      2.286      3.288
REMARK  5 active torsions:
REMARK  status: ('A' for Active; 'I' for Inactive)
REMARK    1  A    between atoms: C4_6  and  C5_7 
REMARK    2  A    between atoms: C6_8  and  C7_9 
REMARK    3  A    between atoms: C15_18  and  O1_19 
REMARK    4  A    between atoms: C15_18  and  C16_21 
REMARK    5  A    between atoms: C16_21  and  O2_22 
ROOT
HETATM    1  C5  UNL     1      10.885  24.255 -10.290  1.00  0.00     0.045 C 
HETATM    2  C6  UNL     1      11.014  22.747 -10.094  1.00  0.00    -0.063 C 
HETATM    3  C8  UNL     1      11.921  21.953 -10.675  1.00  0.00    -0.022 C 
HETATM    4  C9  UNL     1      13.018  22.139 -11.606  1.00  0.00     0.035 C 
HETATM    5  C10 UNL     1      13.834  23.381 -11.621  1.00  0.00     0.026 C 
HETATM    6  C11 UNL     1      13.679  24.033 -12.994  1.00  0.00     0.008 C 
HETATM    7  C12 UNL     1      13.088  25.362 -13.133  1.00  0.00     0.001 C 
HETATM    8  C13 UNL     1      12.019  25.781 -12.103  1.00  0.00     0.008 C 
HETATM    9  C14 UNL     1      11.924  24.615 -11.233  1.00  0.00     0.033 C 
HETATM   10  C15 UNL     1      13.274  24.411 -10.660  1.00  0.00     0.087 C 
ENDROOT
BRANCH   1  11
HETATM   11  C4  UNL     1       9.468  24.600 -10.613  1.00  0.00     0.089 C 
HETATM   12  N1  UNL     1       9.220  25.982 -10.325  1.00  0.00    -0.393 N 
HETATM   13  C3  UNL     1       7.937  26.486 -10.654  1.00  0.00     0.085 C 
ATOM     14  H1  UNL     1       9.933  26.576  -9.902  1.00  0.00     0.159 HD
HETATM   15  C2  UNL     1       7.164  25.771 -11.447  1.00  0.00    -0.069 C 
HETATM   16  C1  UNL     1       5.792  26.286 -11.812  1.00  0.00     0.044 C 
HETATM   17  C18 UNL     1       7.536  24.459 -12.036  1.00  0.00     0.037 C 
HETATM   18  C17 UNL     1       9.070  24.335 -12.035  1.00  0.00     0.030 C 
ENDBRANCH   1  11
BRANCH   2  19
HETATM   19  C7  UNL     1      10.033  22.123  -9.172  1.00  0.00     0.149 C 
HETATM   20 CL1  UNL     1       9.288  20.733  -9.994  1.00  0.00    -0.126 Cl
ENDBRANCH   2  19
BRANCH  10  21
HETATM   21  O1  UNL     1      14.167  25.512 -10.900  1.00  0.00    -0.387 OA
ATOM     22  H1  UNL     1      13.674  25.999 -11.551  1.00  0.00     0.210 HD
ENDBRANCH  10  21
BRANCH  10  23
HETATM   23  C16 UNL     1      13.526  24.194  -9.253  1.00  0.00     0.202 C 
BRANCH  23  24
HETATM   24  O2  UNL     1      14.877  24.436  -8.935  1.00  0.00    -0.398 OA
ATOM     25  H2  UNL     1      14.967  24.768  -8.049  1.00  0.00     0.209 HD
ENDBRANCH  23  24
ENDBRANCH  10  23
TORSDOF 5
ENDMDL
MODEL 5
REMARK VINA RESULT: -6.407858787      3.722      6.423
REMARK  5 active torsions:
REMARK  status: ('A' for Active; 'I' for Inactive)
REMARK    1  A    between atoms: C4_6  and  C5_7 
REMARK    2  A    between atoms: C6_8  and  C7_9 
REMARK    3  A    between atoms: C15_18  and  O1_19 
REMARK    4  A    between atoms: C15_18  and  C16_21 
REMARK    5  A    between atoms: C16_21  and  O2_22 
ROOT
HETATM    1  C5  UNL     1      12.998  26.279 -12.399  1.00  0.00     0.045 C 
HETATM    2  C6  UNL     1      12.002  26.710 -11.326  1.00  0.00    -0.063 C 
HETATM    3  C8  UNL     1      11.211  25.899 -10.615  1.00  0.00    -0.022 C 
HETATM    4  C9  UNL     1      10.981  24.467 -10.554  1.00  0.00     0.035 C 
HETATM    5  C10 UNL     1      12.068  23.485 -10.799  1.00  0.00     0.026 C 
HETATM    6  C11 UNL     1      11.677  22.636 -12.008  1.00  0.00     0.008 C 
HETATM    7  C12 UNL     1      12.483  22.644 -13.226  1.00  0.00     0.001 C 
HETATM    8  C13 UNL     1      13.240  23.942 -13.575  1.00  0.00     0.008 C 
HETATM    9  C14 UNL     1      12.880  24.838 -12.482  1.00  0.00     0.033 C 
HETATM   10  C15 UNL     1      13.342  24.182 -11.237  1.00  0.00     0.087 C 
ENDROOT
BRANCH   1  11
HETATM   11  C4  UNL     1      12.787  27.090 -13.635  1.00  0.00     0.089 C 
HETATM   12  N1  UNL     1      13.971  27.073 -14.444  1.00  0.00    -0.393 N 
HETATM   13  C3  UNL     1      13.903  27.735 -15.695  1.00  0.00     0.085 C 
ATOM     14  H1  UNL     1      14.823  26.606 -14.133  1.00  0.00     0.159 HD
HETATM   15  C2  UNL     1      12.719  28.067 -16.169  1.00  0.00    -0.069 C 
HETATM   16  C1  UNL     1      12.621  28.774 -17.500  1.00  0.00     0.044 C 
HETATM   17  C18 UNL     1      11.427  27.796 -15.487  1.00  0.00     0.037 C 
HETATM   18  C17 UNL     1      11.630  26.649 -14.482  1.00  0.00     0.030 C 
ENDBRANCH   1  11
BRANCH   2  19
HETATM   19  C7  UNL     1      11.917  28.168 -11.064  1.00  0.00     0.149 C 
HETATM   20 CL1  UNL     1      10.206  28.608 -10.860  1.00  0.00    -0.126 Cl
ENDBRANCH   2  19
BRANCH  10  21
HETATM   21  O1  UNL     1      14.197  23.050 -11.473  1.00  0.00    -0.387 OA
ATOM     22  H1  UNL     1      14.804  23.417 -12.104  1.00  0.00     0.210 HD
ENDBRANCH  10  21
BRANCH  10  23
HETATM   23  C16 UNL     1      14.103  24.853 -10.208  1.00  0.00     0.202 C 
BRANCH  23  24
HETATM   24  O2  UNL     1      15.115  24.019  -9.697  1.00  0.00    -0.398 OA
ATOM     25  H2  UNL     1      14.876  23.103  -9.771  1.00  0.00     0.209 HD
ENDBRANCH  23  24
ENDBRANCH  10  23
TORSDOF 5
ENDMDL
