MODEL 1
REMARK VINA RESULT: -6.387123683      0.000      0.000
REMARK  7 active torsions:
REMARK  status: ('A' for Active; 'I' for Inactive)
REMARK    1  A    between atoms: C3_3  and  C14_25 
REMARK    2  A    between atoms: N1_4  and  C4_6 
REMARK    3  A    between atoms: C7_9  and  N2_10 
REMARK    4  A    between atoms: N2_10  and  C8_12 
REMARK    5  A    between atoms: C8_12  and  N3_14 
REMARK    6  A    between atoms: N3_14  and  N4_16 
REMARK    7  A    between atoms: C9_19  and  C10_20 
ROOT
HETATM    1  C1  UNL     1      11.648  18.763 -14.219  1.00  0.00     0.019 C 
HETATM    2  C2  UNL     1      10.612  19.318 -13.931  1.00  0.00    -0.064 C 
HETATM    3  C3  UNL     1       9.388  19.976 -13.565  1.00  0.00     0.067 C 
HETATM    4  N1  UNL     1       9.333  21.039 -12.834  1.00  0.00    -0.351 N 
ATOM      5  H1  UNL     1       8.427  21.453 -12.614  1.00  0.00     0.166 HD
ENDROOT
BRANCH   3   6
HETATM    6  C14 UNL     1       8.100  19.415 -14.048  1.00  0.00     0.044 A 
HETATM    7  C15 UNL     1       7.497  20.172 -15.234  1.00  0.00     0.012 A 
HETATM    8  C16 UNL     1       6.856  20.233 -13.897  1.00  0.00     0.012 A 
ENDBRANCH   3   6
BRANCH   4   9
HETATM    9  C4  UNL     1      10.525  21.640 -12.331  1.00  0.00     0.056 A 
HETATM   10  C5  UNL     1      11.064  21.122 -11.182  1.00  0.00     0.033 A 
HETATM   11  C6  UNL     1      12.224  21.716 -10.701  1.00  0.00     0.033 A 
HETATM   12  C7  UNL     1      12.832  22.791 -11.335  1.00  0.00     0.055 A 
HETATM   13  C9  UNL     1      12.255  23.301 -12.512  1.00  0.00     0.068 A 
HETATM   14  C13 UNL     1      11.110  22.705 -12.977  1.00  0.00     0.081 A 
HETATM   15 CL1  UNL     1      10.400  23.353 -14.449  1.00  0.00    -0.080 Cl
BRANCH  12  16
HETATM   16  N2  UNL     1      14.006  23.369 -10.858  1.00  0.00    -0.331 N 
ATOM     17  H2  UNL     1      14.817  23.031 -11.375  1.00  0.00     0.168 HD
BRANCH  16  18
HETATM   18  C8  UNL     1      14.378  24.262  -9.893  1.00  0.00     0.190 C 
HETATM   19  S1  UNL     1      13.306  25.546  -9.638  1.00  0.00    -0.039 SA
BRANCH  18  20
HETATM   20  N3  UNL     1      15.498  24.318  -9.058  1.00  0.00    -0.283 N 
ATOM     21  H3  UNL     1      15.757  23.508  -8.495  1.00  0.00     0.188 HD
BRANCH  20  22
HETATM   22  N4  UNL     1      16.289  25.526  -8.998  1.00  0.00    -0.343 N 
ATOM     23  H42 UNL     1      16.272  26.088  -8.147  1.00  0.00     0.176 HD
ATOM     24  H41 UNL     1      16.852  25.804  -9.802  1.00  0.00     0.176 HD
ENDBRANCH  20  22
ENDBRANCH  18  20
ENDBRANCH  16  18
ENDBRANCH  12  16
BRANCH  13  25
HETATM   25  C10 UNL     1      12.880  24.411 -13.165  1.00  0.00    -0.063 C 
HETATM   26  C11 UNL     1      13.405  25.371 -13.707  1.00  0.00    -0.105 C 
HETATM   27  C12 UNL     1      14.030  26.533 -14.335  1.00  0.00     0.112 C 
ENDBRANCH  13  25
ENDBRANCH   4   9
TORSDOF 7
ENDMDL
MODEL 2
REMARK VINA RESULT: -6.222220345      1.099      1.583
REMARK  7 active torsions:
REMARK  status: ('A' for Active; 'I' for Inactive)
REMARK    1  A    between atoms: C3_3  and  C14_25 
REMARK    2  A    between atoms: N1_4  and  C4_6 
REMARK    3  A    between atoms: C7_9  and  N2_10 
REMARK    4  A    between atoms: N2_10  and  C8_12 
REMARK    5  A    between atoms: C8_12  and  N3_14 
REMARK    6  A    between atoms: N3_14  and  N4_16 
REMARK    7  A    between atoms: C9_19  and  C10_20 
ROOT
HETATM    1  C1  UNL     1       8.253  21.354 -11.091  1.00  0.00     0.019 C 
HETATM    2  C2  UNL     1       8.634  20.747 -12.067  1.00  0.00    -0.064 C 
HETATM    3  C3  UNL     1       9.093  20.048 -13.235  1.00  0.00     0.067 C 
HETATM    4  N1  UNL     1      10.300  20.118 -13.688  1.00  0.00    -0.351 N 
ATOM      5  H1  UNL     1      10.556  19.593 -14.524  1.00  0.00     0.166 HD
ENDROOT
BRANCH   3   6
HETATM    6  C14 UNL     1       8.137  19.188 -13.979  1.00  0.00     0.044 A 
HETATM    7  C15 UNL     1       7.094  19.967 -14.784  1.00  0.00     0.012 A 
HETATM    8  C16 UNL     1       6.695  19.199 -13.579  1.00  0.00     0.012 A 
ENDBRANCH   3   6
BRANCH   4   9
HETATM    9  C4  UNL     1      11.279  20.921 -13.032  1.00  0.00     0.056 A 
HETATM   10  C5  UNL     1      11.997  20.348 -12.015  1.00  0.00     0.033 A 
HETATM   11  C6  UNL     1      12.947  21.140 -11.383  1.00  0.00     0.033 A 
HETATM   12  C7  UNL     1      13.181  22.460 -11.743  1.00  0.00     0.055 A 
HETATM   13  C9  UNL     1      12.428  23.022 -12.791  1.00  0.00     0.068 A 
HETATM   14  C13 UNL     1      11.493  22.229 -13.407  1.00  0.00     0.081 A 
HETATM   15 CL1  UNL     1      10.560  22.944 -14.714  1.00  0.00    -0.080 Cl
BRANCH  12  16
HETATM   16  N2  UNL     1      14.148  23.242 -11.118  1.00  0.00    -0.331 N 
ATOM     17  H2  UNL     1      15.026  23.222 -11.637  1.00  0.00     0.168 HD
BRANCH  16  18
HETATM   18  C8  UNL     1      14.255  24.030 -10.007  1.00  0.00     0.190 C 
HETATM   19  S1  UNL     1      12.846  24.172  -9.080  1.00  0.00    -0.039 SA
BRANCH  18  20
HETATM   20  N3  UNL     1      15.327  24.754  -9.479  1.00  0.00    -0.283 N 
ATOM     21  H3  UNL     1      15.370  25.766  -9.602  1.00  0.00     0.188 HD
BRANCH  20  22
HETATM   22  N4  UNL     1      16.373  24.065  -8.758  1.00  0.00    -0.343 N 
ATOM     23  H42 UNL     1      16.120  23.324  -8.104  1.00  0.00     0.176 HD
ATOM     24  H41 UNL     1      17.348  24.324  -8.909  1.00  0.00     0.176 HD
ENDBRANCH  20  22
ENDBRANCH  18  20
ENDBRANCH  16  18
ENDBRANCH  12  16
BRANCH  13  25
HETATM   25  C10 UNL     1      12.666  24.383 -13.162  1.00  0.00    -0.063 C 
HETATM   26  C11 UNL     1      12.862  25.540 -13.498  1.00  0.00    -0.105 C 
HETATM   27  C12 UNL     1      13.080  26.922 -13.919  1.00  0.00     0.112 C 
ENDBRANCH  13  25
ENDBRANCH   4   9
TORSDOF 7
ENDMDL
MODEL 3
REMARK VINA RESULT: -6.148586335      3.378      7.281
REMARK  7 active torsions:
REMARK  status: ('A' for Active; 'I' for Inactive)
REMARK    1  A    between atoms: C3_3  and  C14_25 
REMARK    2  A    between atoms: N1_4  and  C4_6 
REMARK    3  A    between atoms: C7_9  and  N2_10 
REMARK    4  A    between atoms: N2_10  and  C8_12 
REMARK    5  A    between atoms: C8_12  and  N3_14 
REMARK    6  A    between atoms: N3_14  and  N4_16 
REMARK    7  A    between atoms: C9_19  and  C10_20 
ROOT
HETATM    1  C1  UNL     1      10.500  25.336 -11.580  1.00  0.00     0.019 C 
HETATM    2  C2  UNL     1      11.304  24.834 -10.827  1.00  0.00    -0.064 C 
HETATM    3  C3  UNL     1      12.240  24.233  -9.917  1.00  0.00     0.067 C 
HETATM    4  N1  UNL     1      12.162  23.011  -9.508  1.00  0.00    -0.351 N 
ATOM      5  H1  UNL     1      12.863  22.650  -8.861  1.00  0.00     0.166 HD
ENDROOT
BRANCH   3   6
HETATM    6  C14 UNL     1      13.371  25.050  -9.407  1.00  0.00     0.044 A 
HETATM    7  C15 UNL     1      14.574  25.107 -10.353  1.00  0.00     0.012 A 
HETATM    8  C16 UNL     1      14.659  24.366  -9.069  1.00  0.00     0.012 A 
ENDBRANCH   3   6
BRANCH   4   9
HETATM    9  C4  UNL     1      11.106  22.160  -9.951  1.00  0.00     0.056 A 
HETATM   10  C5  UNL     1       9.922  22.204  -9.263  1.00  0.00     0.033 A 
HETATM   11  C6  UNL     1       8.901  21.370  -9.702  1.00  0.00     0.033 A 
HETATM   12  C7  UNL     1       9.046  20.518 -10.788  1.00  0.00     0.055 A 
HETATM   13  C9  UNL     1      10.274  20.495 -11.476  1.00  0.00     0.068 A 
HETATM   14  C13 UNL     1      11.273  21.323 -11.031  1.00  0.00     0.081 A 
HETATM   15 CL1  UNL     1      12.802  21.285 -11.899  1.00  0.00    -0.080 Cl
BRANCH  12  16
HETATM   16  N2  UNL     1       8.012  19.699 -11.236  1.00  0.00    -0.331 N 
ATOM     17  H2  UNL     1       8.371  18.945 -11.823  1.00  0.00     0.168 HD
BRANCH  16  18
HETATM   18  C8  UNL     1       6.654  19.618 -11.111  1.00  0.00     0.190 C 
HETATM   19  S1  UNL     1       5.770  20.132 -12.460  1.00  0.00    -0.039 SA
BRANCH  18  20
HETATM   20  N3  UNL     1       5.839  19.184 -10.062  1.00  0.00    -0.283 N 
ATOM     21  H3  UNL     1       5.262  18.351 -10.175  1.00  0.00     0.188 HD
BRANCH  20  22
HETATM   22  N4  UNL     1       5.818  19.919  -8.818  1.00  0.00    -0.343 N 
ATOM     23  H42 UNL     1       6.007  20.922  -8.831  1.00  0.00     0.176 HD
ATOM     24  H41 UNL     1       5.614  19.433  -7.945  1.00  0.00     0.176 HD
ENDBRANCH  20  22
ENDBRANCH  18  20
ENDBRANCH  16  18
ENDBRANCH  12  16
BRANCH  13  25
HETATM   25  C10 UNL     1      10.425  19.616 -12.594  1.00  0.00    -0.063 C 
HETATM   26  C11 UNL     1      10.574  18.873 -13.551  1.00  0.00    -0.105 C 
HETATM   27  C12 UNL     1      10.777  17.986 -14.695  1.00  0.00     0.112 C 
ENDBRANCH  13  25
ENDBRANCH   4   9
TORSDOF 7
ENDMDL
MODEL 4
REMARK VINA RESULT: -6.077145939      2.786      3.447
REMARK  7 active torsions:
REMARK  status: ('A' for Active; 'I' for Inactive)
REMARK    1  A    between atoms: C3_3  and  C14_25 
REMARK    2  A    between atoms: N1_4  and  C4_6 
REMARK    3  A    between atoms: C7_9  and  N2_10 
REMARK    4  A    between atoms: N2_10  and  C8_12 
REMARK    5  A    between atoms: C8_12  and  N3_14 
REMARK    6  A    between atoms: N3_14  and  N4_16 
REMARK    7  A    between atoms: C9_19  and  C10_20 
ROOT
HETATM    1  C1  UNL     1      11.143  22.019 -15.148  1.00  0.00     0.019 C 
HETATM    2  C2  UNL     1      10.877  21.189 -14.307  1.00  0.00    -0.064 C 
HETATM    3  C3  UNL     1      10.582  20.211 -13.297  1.00  0.00     0.067 C 
HETATM    4  N1  UNL     1      10.470  20.485 -12.041  1.00  0.00    -0.351 N 
ATOM      5  H1  UNL     1      10.259  19.739 -11.378  1.00  0.00     0.166 HD
ENDROOT
BRANCH   3   6
HETATM    6  C14 UNL     1      10.390  18.795 -13.704  1.00  0.00     0.044 A 
HETATM    7  C15 UNL     1      11.696  18.038 -13.962  1.00  0.00     0.012 A 
HETATM    8  C16 UNL     1      10.789  18.381 -15.085  1.00  0.00     0.012 A 
ENDBRANCH   3   6
BRANCH   4   9
HETATM    9  C4  UNL     1      10.640  21.820 -11.568  1.00  0.00     0.056 A 
HETATM   10  C5  UNL     1       9.536  22.632 -11.544  1.00  0.00     0.033 A 
HETATM   11  C6  UNL     1       9.714  23.930 -11.082  1.00  0.00     0.033 A 
HETATM   12  C7  UNL     1      10.944  24.413 -10.658  1.00  0.00     0.055 A 
HETATM   13  C9  UNL     1      12.059  23.555 -10.694  1.00  0.00     0.068 A 
HETATM   14  C13 UNL     1      11.871  22.276 -11.152  1.00  0.00     0.081 A 
HETATM   15 CL1  UNL     1      13.272  21.216 -11.193  1.00  0.00    -0.080 Cl
BRANCH  12  16
HETATM   16  N2  UNL     1      11.111  25.709 -10.178  1.00  0.00    -0.331 N 
ATOM     17  H2  UNL     1      10.793  25.785  -9.212  1.00  0.00     0.168 HD
BRANCH  16  18
HETATM   18  C8  UNL     1      11.578  26.909 -10.635  1.00  0.00     0.190 C 
HETATM   19  S1  UNL     1      11.372  27.185 -12.292  1.00  0.00    -0.039 SA
BRANCH  18  20
HETATM   20  N3  UNL     1      12.207  27.973  -9.983  1.00  0.00    -0.283 N 
ATOM     21  H3  UNL     1      12.010  28.933 -10.263  1.00  0.00     0.188 HD
BRANCH  20  22
HETATM   22  N4  UNL     1      13.138  27.707  -8.909  1.00  0.00    -0.343 N 
ATOM     23  H42 UNL     1      12.776  27.524  -7.973  1.00  0.00     0.176 HD
ATOM     24  H41 UNL     1      14.140  27.704  -9.096  1.00  0.00     0.176 HD
ENDBRANCH  20  22
ENDBRANCH  18  20
ENDBRANCH  16  18
ENDBRANCH  12  16
BRANCH  13  25
HETATM   25  C10 UNL     1      13.329  24.052 -10.260  1.00  0.00    -0.063 C 
HETATM   26  C11 UNL     1      14.408  24.468  -9.869  1.00  0.00    -0.105 C 
HETATM   27  C12 UNL     1      15.699  24.949  -9.383  1.00  0.00     0.112 C 
ENDBRANCH  13  25
ENDBRANCH   4   9
TORSDOF 7
ENDMDL
MODEL 5
REMARK VINA RESULT: -5.957963088      2.520      3.595
REMARK  7 active torsions:
REMARK  status: ('A' for Active; 'I' for Inactive)
REMARK    1  A    between atoms: C3_3  and  C14_25 
REMARK    2  A    between atoms: N1_4  and  C4_6 
REMARK    3  A    between atoms: C7_9  and  N2_10 
REMARK    4  A    between atoms: N2_10  and  C8_12 
REMARK    5  A    between atoms: C8_12  and  N3_14 
REMARK    6  A    between atoms: N3_14  and  N4_16 
REMARK    7  A    between atoms: C9_19  and  C10_20 
ROOT
HETATM    1  C1  UNL     1       9.077  20.781 -11.196  1.00  0.00     0.019 C 
HETATM    2  C2  UNL     1       9.685  20.507 -12.206  1.00  0.00    -0.064 C 
HETATM    3  C3  UNL     1      10.398  20.201 -13.416  1.00  0.00     0.067 C 
HETATM    4  N1  UNL     1      11.209  21.018 -13.999  1.00  0.00    -0.351 N 
ATOM      5  H1  UNL     1      11.682  20.733 -14.857  1.00  0.00     0.166 HD
ENDROOT
BRANCH   3   6
HETATM    6  C14 UNL     1      10.202  18.870 -14.048  1.00  0.00     0.044 A 
HETATM    7  C15 UNL     1      11.460  17.999 -14.067  1.00  0.00     0.012 A 
HETATM    8  C16 UNL     1      10.918  18.567 -15.326  1.00  0.00     0.012 A 
ENDBRANCH   3   6
BRANCH   4   9
HETATM    9  C4  UNL     1      11.453  22.315 -13.457  1.00  0.00     0.056 A 
HETATM   10  C5  UNL     1      10.765  23.370 -13.996  1.00  0.00     0.033 A 
HETATM   11  C6  UNL     1      11.011  24.628 -13.460  1.00  0.00     0.033 A 
HETATM   12  C7  UNL     1      11.910  24.838 -12.424  1.00  0.00     0.055 A 
HETATM   13  C9  UNL     1      12.602  23.735 -11.891  1.00  0.00     0.068 A 
HETATM   14  C13 UNL     1      12.350  22.498 -12.429  1.00  0.00     0.081 A 
HETATM   15 CL1  UNL     1      13.222  21.129 -11.754  1.00  0.00    -0.080 Cl
BRANCH  12  16
HETATM   16  N2  UNL     1      12.138  26.099 -11.879  1.00  0.00    -0.331 N 
ATOM     17  H2  UNL     1      13.007  26.499 -12.233  1.00  0.00     0.168 HD
BRANCH  16  18
HETATM   18  C8  UNL     1      11.527  26.952 -11.004  1.00  0.00     0.190 C 
HETATM   19  S1  UNL     1       9.836  26.948 -11.047  1.00  0.00    -0.039 SA
BRANCH  18  20
HETATM   20  N3  UNL     1      12.044  27.845 -10.061  1.00  0.00    -0.283 N 
ATOM     21  H3  UNL     1      11.775  28.829 -10.088  1.00  0.00     0.188 HD
BRANCH  20  22
HETATM   22  N4  UNL     1      12.959  27.370  -9.048  1.00  0.00    -0.343 N 
ATOM     23  H42 UNL     1      12.648  26.647  -8.399  1.00  0.00     0.176 HD
ATOM     24  H41 UNL     1      13.900  27.759  -8.993  1.00  0.00     0.176 HD
ENDBRANCH  20  22
ENDBRANCH  18  20
ENDBRANCH  16  18
ENDBRANCH  12  16
BRANCH  13  25
HETATM   25  C10 UNL     1      13.532  23.950 -10.825  1.00  0.00    -0.063 C 
HETATM   26  C11 UNL     1      14.338  24.143  -9.929  1.00  0.00    -0.105 C 
HETATM   27  C12 UNL     1      15.314  24.391  -8.870  1.00  0.00     0.112 C 
ENDBRANCH  13  25
ENDBRANCH   4   9
TORSDOF 7
ENDMDL
