MODEL 1
REMARK VINA RESULT: -7.211759720      0.000      0.000
REMARK  3 active torsions:
REMARK  status: ('A' for Active; 'I' for Inactive)
REMARK    1  A    between atoms: C3_4  and  N1_5 
REMARK       I    between atoms: N1_5  and  C4_7 
REMARK       I    between atoms: C4_7  and  N2_9 
REMARK    2  A    between atoms: N2_9  and  C5_11 
REMARK    3  A    between atoms: C8_14  and  C9_15 
ROOT
HETATM    1  N1  UNL     1      13.410  27.547 -14.001  1.00  0.00    -0.301 N 
ATOM      2  H1  UNL     1      12.856  28.171 -13.415  1.00  0.00     0.171 HD
HETATM    3  C4  UNL     1      13.667  26.234 -13.589  1.00  0.00     0.321 C 
HETATM    4  O1  UNL     1      14.359  25.463 -14.328  1.00  0.00    -0.247 OA
HETATM    5  N2  UNL     1      13.165  25.755 -12.357  1.00  0.00    -0.338 N 
ATOM      6  H2  UNL     1      12.611  26.377 -11.769  1.00  0.00     0.164 HD
ENDROOT
BRANCH   1   7
HETATM    7  C3  UNL     1      13.936  28.008 -15.264  1.00  0.00     0.101 A 
HETATM    8  S1  UNL     1      15.518  28.521 -15.616  1.00  0.00    -0.075 SA
HETATM    9  C2  UNL     1      15.332  28.890 -17.263  1.00  0.00    -0.011 A 
HETATM   10  C1  UNL     1      16.356  29.411 -18.233  1.00  0.00     0.057 C 
HETATM   11  C13 UNL     1      14.012  28.598 -17.505  1.00  0.00    -0.025 A 
HETATM   12  C12 UNL     1      13.289  28.140 -16.460  1.00  0.00     0.074 A 
HETATM   13  C14 UNL     1      13.409  28.793 -18.902  1.00  0.00     0.051 C 
HETATM   14 CL1  UNL     1      11.554  27.709 -16.596  1.00  0.00    -0.081 Cl
ENDBRANCH   1   7
BRANCH   5  15
HETATM   15  C5  UNL     1      13.424  24.377 -11.906  1.00  0.00     0.086 C 
HETATM   16  C6  UNL     1      13.783  24.488 -10.430  1.00  0.00     0.026 C 
HETATM   17  C7  UNL     1      12.456  24.627  -9.690  1.00  0.00     0.015 C 
HETATM   18  C8  UNL     1      11.877  23.219  -9.610  1.00  0.00     0.075 C 
HETATM   19  C10 UNL     1      12.021  22.533 -10.947  1.00  0.00     0.015 C 
HETATM   20  C11 UNL     1      12.205  23.509 -12.084  1.00  0.00     0.026 C 
BRANCH  18  21
HETATM   21  C9  UNL     1      10.476  23.325  -9.176  1.00  0.00     0.235 C 
HETATM   22  N3  UNL     1       9.892  22.294  -8.402  1.00  0.00    -0.062 NA
HETATM   23  O2  UNL     1       9.785  24.313  -9.481  1.00  0.00    -0.277 OA
ENDBRANCH  18  21
ENDBRANCH   5  15
TORSDOF 3
ENDMDL
MODEL 2
REMARK VINA RESULT: -6.874745178      1.384      1.742
REMARK  3 active torsions:
REMARK  status: ('A' for Active; 'I' for Inactive)
REMARK    1  A    between atoms: C3_4  and  N1_5 
REMARK       I    between atoms: N1_5  and  C4_7 
REMARK       I    between atoms: C4_7  and  N2_9 
REMARK    2  A    between atoms: N2_9  and  C5_11 
REMARK    3  A    between atoms: C8_14  and  C9_15 
ROOT
HETATM    1  N1  UNL     1      13.085  27.582 -13.957  1.00  0.00    -0.301 N 
ATOM      2  H1  UNL     1      12.757  28.272 -13.280  1.00  0.00     0.171 HD
HETATM    3  C4  UNL     1      13.375  26.275 -13.549  1.00  0.00     0.321 C 
HETATM    4  O1  UNL     1      13.782  25.423 -14.401  1.00  0.00    -0.247 OA
HETATM    5  N2  UNL     1      13.218  25.891 -12.197  1.00  0.00    -0.338 N 
ATOM      6  H2  UNL     1      12.891  26.578 -11.519  1.00  0.00     0.164 HD
ENDROOT
BRANCH   1   7
HETATM    7  C3  UNL     1      13.254  27.946 -15.344  1.00  0.00     0.101 A 
HETATM    8  S1  UNL     1      12.051  28.144 -16.530  1.00  0.00    -0.075 SA
HETATM    9  C2  UNL     1      13.031  28.558 -17.854  1.00  0.00    -0.011 A 
HETATM   10  C1  UNL     1      12.621  28.879 -19.264  1.00  0.00     0.057 C 
HETATM   11  C13 UNL     1      14.300  28.532 -17.328  1.00  0.00    -0.025 A 
HETATM   12  C12 UNL     1      14.410  28.211 -16.021  1.00  0.00     0.074 A 
HETATM   13  C14 UNL     1      15.517  28.852 -18.204  1.00  0.00     0.051 C 
HETATM   14 CL1  UNL     1      15.987  28.130 -15.172  1.00  0.00    -0.081 Cl
ENDBRANCH   1   7
BRANCH   5  15
HETATM   15  C5  UNL     1      13.517  24.521 -11.748  1.00  0.00     0.086 C 
HETATM   16  C6  UNL     1      13.818  24.632 -10.260  1.00  0.00     0.026 C 
HETATM   17  C7  UNL     1      12.461  24.709  -9.567  1.00  0.00     0.015 C 
HETATM   18  C8  UNL     1      11.938  23.279  -9.520  1.00  0.00     0.075 C 
HETATM   19  C10 UNL     1      12.157  22.612 -10.857  1.00  0.00     0.015 C 
HETATM   20  C11 UNL     1      12.342  23.606 -11.978  1.00  0.00     0.026 C 
BRANCH  18  21
HETATM   21  C9  UNL     1      10.519  23.323  -9.136  1.00  0.00     0.235 C 
HETATM   22  N3  UNL     1       9.952  22.264  -8.388  1.00  0.00    -0.062 NA
HETATM   23  O2  UNL     1       9.798  24.283  -9.462  1.00  0.00    -0.277 OA
ENDBRANCH  18  21
ENDBRANCH   5  15
TORSDOF 3
ENDMDL
MODEL 3
REMARK VINA RESULT: -6.510424283      2.916      8.563
REMARK  3 active torsions:
REMARK  status: ('A' for Active; 'I' for Inactive)
REMARK    1  A    between atoms: C3_4  and  N1_5 
REMARK       I    between atoms: N1_5  and  C4_7 
REMARK       I    between atoms: C4_7  and  N2_9 
REMARK    2  A    between atoms: N2_9  and  C5_11 
REMARK    3  A    between atoms: C8_14  and  C9_15 
ROOT
HETATM    1  N1  UNL     1      13.856  25.075 -13.417  1.00  0.00    -0.301 N 
ATOM      2  H1  UNL     1      14.385  24.453 -14.028  1.00  0.00     0.171 HD
HETATM    3  C4  UNL     1      13.576  26.387 -13.817  1.00  0.00     0.321 C 
HETATM    4  O1  UNL     1      12.914  27.155 -13.047  1.00  0.00    -0.247 OA
HETATM    5  N2  UNL     1      14.018  26.868 -15.069  1.00  0.00    -0.338 N 
ATOM      6  H2  UNL     1      14.547  26.249 -15.683  1.00  0.00     0.164 HD
ENDROOT
BRANCH   1   7
HETATM    7  C3  UNL     1      13.391  24.611 -12.132  1.00  0.00     0.101 A 
HETATM    8  S1  UNL     1      13.818  25.189 -10.591  1.00  0.00    -0.075 SA
HETATM    9  C2  UNL     1      12.873  24.154  -9.632  1.00  0.00    -0.011 A 
HETATM   10  C1  UNL     1      12.756  24.102  -8.135  1.00  0.00     0.057 C 
HETATM   11  C13 UNL     1      12.232  23.365 -10.557  1.00  0.00    -0.025 A 
HETATM   12  C12 UNL     1      12.506  23.607 -11.857  1.00  0.00     0.074 A 
HETATM   13  C14 UNL     1      11.258  22.268 -10.110  1.00  0.00     0.051 C 
HETATM   14 CL1  UNL     1      11.760  22.675 -13.195  1.00  0.00    -0.081 Cl
ENDBRANCH   1   7
BRANCH   5  15
HETATM   15  C5  UNL     1      13.733  28.244 -15.509  1.00  0.00     0.086 C 
HETATM   16  C6  UNL     1      14.939  29.072 -15.085  1.00  0.00     0.026 C 
HETATM   17  C7  UNL     1      16.010  28.812 -16.140  1.00  0.00     0.015 C 
HETATM   18  C8  UNL     1      15.632  29.678 -17.336  1.00  0.00     0.075 C 
HETATM   19  C10 UNL     1      14.151  29.561 -17.602  1.00  0.00     0.015 C 
HETATM   20  C11 UNL     1      13.551  28.311 -17.003  1.00  0.00     0.026 C 
BRANCH  18  21
HETATM   21  C9  UNL     1      16.448  29.255 -18.483  1.00  0.00     0.235 C 
HETATM   22  N3  UNL     1      16.887  30.207 -19.434  1.00  0.00    -0.062 NA
HETATM   23  O2  UNL     1      16.763  28.061 -18.639  1.00  0.00    -0.277 OA
ENDBRANCH  18  21
ENDBRANCH   5  15
TORSDOF 3
ENDMDL
MODEL 4
REMARK VINA RESULT: -6.378780468      3.262      8.182
REMARK  3 active torsions:
REMARK  status: ('A' for Active; 'I' for Inactive)
REMARK    1  A    between atoms: C3_4  and  N1_5 
REMARK       I    between atoms: N1_5  and  C4_7 
REMARK       I    between atoms: C4_7  and  N2_9 
REMARK    2  A    between atoms: N2_9  and  C5_11 
REMARK    3  A    between atoms: C8_14  and  C9_15 
ROOT
HETATM    1  N1  UNL     1      12.040  25.628 -11.369  1.00  0.00    -0.301 N 
ATOM      2  H1  UNL     1      12.564  26.172 -10.683  1.00  0.00     0.171 HD
HETATM    3  C4  UNL     1      11.778  26.156 -12.638  1.00  0.00     0.321 C 
HETATM    4  O1  UNL     1      11.124  25.469 -13.486  1.00  0.00    -0.247 OA
HETATM    5  N2  UNL     1      12.234  27.447 -12.989  1.00  0.00    -0.338 N 
ATOM      6  H2  UNL     1      12.757  27.994 -12.306  1.00  0.00     0.164 HD
ENDROOT
BRANCH   1   7
HETATM    7  C3  UNL     1      11.562  24.306 -11.039  1.00  0.00     0.101 A 
HETATM    8  S1  UNL     1      10.170  23.884 -10.158  1.00  0.00    -0.075 SA
HETATM    9  C2  UNL     1      10.311  22.193 -10.207  1.00  0.00    -0.011 A 
HETATM   10  C1  UNL     1       9.401  21.155  -9.613  1.00  0.00     0.057 C 
HETATM   11  C13 UNL     1      11.465  21.992 -10.925  1.00  0.00    -0.025 A 
HETATM   12  C12 UNL     1      12.113  23.097 -11.355  1.00  0.00     0.074 A 
HETATM   13  C14 UNL     1      11.975  20.574 -11.209  1.00  0.00     0.051 C 
HETATM   14 CL1  UNL     1      13.632  23.022 -12.305  1.00  0.00    -0.081 Cl
ENDBRANCH   1   7
BRANCH   5  15
HETATM   15  C5  UNL     1      11.969  28.021 -14.319  1.00  0.00     0.086 C 
HETATM   16  C6  UNL     1      12.530  29.436 -14.277  1.00  0.00     0.026 C 
HETATM   17  C7  UNL     1      14.034  29.292 -14.488  1.00  0.00     0.015 C 
HETATM   18  C8  UNL     1      14.224  29.087 -15.986  1.00  0.00     0.075 C 
HETATM   19  C10 UNL     1      13.210  28.093 -16.498  1.00  0.00     0.015 C 
HETATM   20  C11 UNL     1      12.648  27.221 -15.401  1.00  0.00     0.026 C 
BRANCH  18  21
HETATM   21  C9  UNL     1      15.609  28.650 -16.216  1.00  0.00     0.235 C 
HETATM   22  N3  UNL     1      16.411  28.228 -15.128  1.00  0.00    -0.062 NA
HETATM   23  O2  UNL     1      16.098  28.645 -17.359  1.00  0.00    -0.277 OA
ENDBRANCH  18  21
ENDBRANCH   5  15
TORSDOF 3
ENDMDL
MODEL 5
REMARK VINA RESULT: -6.377741618      5.222      9.453
REMARK  3 active torsions:
REMARK  status: ('A' for Active; 'I' for Inactive)
REMARK    1  A    between atoms: C3_4  and  N1_5 
REMARK       I    between atoms: N1_5  and  C4_7 
REMARK       I    between atoms: C4_7  and  N2_9 
REMARK    2  A    between atoms: N2_9  and  C5_11 
REMARK    3  A    between atoms: C8_14  and  C9_15 
ROOT
HETATM    1  N1  UNL     1       7.704  21.794 -10.970  1.00  0.00    -0.301 N 
ATOM      2  H1  UNL     1       7.650  21.658 -11.980  1.00  0.00     0.171 HD
HETATM    3  C4  UNL     1       8.947  21.855 -10.330  1.00  0.00     0.321 C 
HETATM    4  O1  UNL     1       9.002  22.025  -9.070  1.00  0.00    -0.247 OA
HETATM    5  N2  UNL     1      10.145  21.730 -11.070  1.00  0.00    -0.338 N 
ATOM      6  H2  UNL     1      10.095  21.593 -12.080  1.00  0.00     0.164 HD
ENDROOT
BRANCH   1   7
HETATM    7  C3  UNL     1       6.497  21.925 -10.188  1.00  0.00     0.101 A 
HETATM    8  S1  UNL     1       5.818  20.797  -9.112  1.00  0.00    -0.075 SA
HETATM    9  C2  UNL     1       4.452  21.675  -8.613  1.00  0.00    -0.011 A 
HETATM   10  C1  UNL     1       3.378  21.273  -7.642  1.00  0.00     0.057 C 
HETATM   11  C13 UNL     1       4.561  22.852  -9.312  1.00  0.00    -0.025 A 
HETATM   12  C12 UNL     1       5.628  22.976 -10.131  1.00  0.00     0.074 A 
HETATM   13  C14 UNL     1       3.509  23.957  -9.155  1.00  0.00     0.051 C 
HETATM   14 CL1  UNL     1       5.928  24.444 -11.117  1.00  0.00    -0.081 Cl
ENDBRANCH   1   7
BRANCH   5  15
HETATM   15  C5  UNL     1      11.463  21.792 -10.417  1.00  0.00     0.086 C 
HETATM   16  C6  UNL     1      12.468  21.352 -11.472  1.00  0.00     0.026 C 
HETATM   17  C7  UNL     1      12.698  22.572 -12.359  1.00  0.00     0.015 C 
HETATM   18  C8  UNL     1      13.658  23.470 -11.587  1.00  0.00     0.075 C 
HETATM   19  C10 UNL     1      13.225  23.556 -10.143  1.00  0.00     0.015 C 
HETATM   20  C11 UNL     1      11.772  23.191  -9.950  1.00  0.00     0.026 C 
BRANCH  18  21
HETATM   21  C9  UNL     1      13.686  24.783 -12.247  1.00  0.00     0.235 C 
HETATM   22  N3  UNL     1      13.633  24.870 -13.659  1.00  0.00    -0.062 NA
HETATM   23  O2  UNL     1      13.760  25.832 -11.583  1.00  0.00    -0.277 OA
ENDBRANCH  18  21
ENDBRANCH   5  15
TORSDOF 3
ENDMDL
