MODEL 1
REMARK VINA RESULT: -6.938446603      0.000      0.000
REMARK  4 active torsions:
REMARK  status: ('A' for Active; 'I' for Inactive)
REMARK    1  A    between atoms: C2_2  and  N1_3 
REMARK       I    between atoms: N1_3  and  C3_5 
REMARK       I    between atoms: C3_5  and  N2_7 
REMARK    2  A    between atoms: N2_7  and  C4_9 
REMARK    3  A    between atoms: C5_10  and  C6_11 
REMARK       I    between atoms: C6_11  and  N3_13 
REMARK    4  A    between atoms: N3_13  and  C7_15 
ROOT
HETATM    1  C4  UNL     1      12.150  25.194 -10.574  1.00  0.00     0.069 A 
HETATM    2  C5  UNL     1      11.465  24.281 -11.325  1.00  0.00     0.100 A 
HETATM    3  S1  UNL     1      10.545  25.251 -12.381  1.00  0.00    -0.086 SA
HETATM    4  C11 UNL     1      11.042  26.788 -11.856  1.00  0.00    -0.005 A 
HETATM    5  C12 UNL     1      11.924  26.503 -10.857  1.00  0.00     0.017 A 
HETATM    6  C13 UNL     1      12.414  27.850 -10.338  1.00  0.00     0.206 C 
HETATM    7  F1  UNL     1      12.606  27.824  -8.994  1.00  0.00    -0.244 F 
HETATM    8  C14 UNL     1      11.297  28.775 -10.688  1.00  0.00     0.047 C 
HETATM    9  C15 UNL     1      10.894  28.279 -12.055  1.00  0.00     0.050 C 
ENDROOT
BRANCH   1  10
HETATM   10  N2  UNL     1      13.076  24.761  -9.521  1.00  0.00    -0.307 N 
HETATM   11  C3  UNL     1      14.477  24.878  -9.698  1.00  0.00     0.320 C 
HETATM   12  N1  UNL     1      15.423  24.488  -8.740  1.00  0.00    -0.343 N 
HETATM   13  O1  UNL     1      14.885  25.363 -10.784  1.00  0.00    -0.247 OA
ATOM     14  H1  UNL     1      15.098  24.094  -7.857  1.00  0.00     0.164 HD
ATOM     15  H2  UNL     1      12.707  24.372  -8.652  1.00  0.00     0.170 HD
BRANCH  12  16
HETATM   16  C2  UNL     1      16.845  24.627  -8.966  1.00  0.00     0.120 C 
HETATM   17  C1  UNL     1      17.303  26.064  -8.794  1.00  0.00     0.026 C 
ENDBRANCH  12  16
ENDBRANCH   1  10
BRANCH   2  18
HETATM   18  C6  UNL     1      11.509  22.810 -11.241  1.00  0.00     0.261 C 
HETATM   19  O2  UNL     1      11.631  22.304 -10.104  1.00  0.00    -0.267 OA
HETATM   20  N3  UNL     1      11.419  22.010 -12.400  1.00  0.00    -0.348 N 
ATOM     21  H3  UNL     1      11.320  22.468 -13.306  1.00  0.00     0.163 HD
BRANCH  20  22
HETATM   22  C7  UNL     1      11.460  20.582 -12.350  1.00  0.00     0.022 C 
HETATM   23  C8  UNL     1      11.349  20.009 -13.764  1.00  0.00     0.037 C 
HETATM   24  C9  UNL     1      12.708  20.039 -11.720  1.00  0.00     0.037 C 
HETATM   25  C10 UNL     1      10.284  20.016 -11.581  1.00  0.00     0.037 C 
ENDBRANCH  20  22
ENDBRANCH   2  18
TORSDOF 4
ENDMDL
MODEL 2
REMARK VINA RESULT: -6.710948476      2.824      5.144
REMARK  4 active torsions:
REMARK  status: ('A' for Active; 'I' for Inactive)
REMARK    1  A    between atoms: C2_2  and  N1_3 
REMARK       I    between atoms: N1_3  and  C3_5 
REMARK       I    between atoms: C3_5  and  N2_7 
REMARK    2  A    between atoms: N2_7  and  C4_9 
REMARK    3  A    between atoms: C5_10  and  C6_11 
REMARK       I    between atoms: C6_11  and  N3_13 
REMARK    4  A    between atoms: N3_13  and  C7_15 
ROOT
HETATM    1  C4  UNL     1      11.791  25.143 -11.367  1.00  0.00     0.069 A 
HETATM    2  C5  UNL     1      11.708  25.702 -12.612  1.00  0.00     0.100 A 
HETATM    3  S1  UNL     1      10.484  24.791 -13.371  1.00  0.00    -0.086 SA
HETATM    4  C11 UNL     1      10.101  23.725 -12.104  1.00  0.00    -0.005 A 
HETATM    5  C12 UNL     1      10.948  24.110 -11.109  1.00  0.00     0.017 A 
HETATM    6  C13 UNL     1      10.653  23.188  -9.932  1.00  0.00     0.206 C 
HETATM    7  F1  UNL     1      11.786  22.878  -9.249  1.00  0.00    -0.244 F 
HETATM    8  C14 UNL     1      10.090  21.972 -10.587  1.00  0.00     0.047 C 
HETATM    9  C15 UNL     1       9.229  22.570 -11.672  1.00  0.00     0.050 C 
ENDROOT
BRANCH   1  10
HETATM   10  N2  UNL     1      12.750  25.649 -10.377  1.00  0.00    -0.307 N 
HETATM   11  C3  UNL     1      13.987  24.990 -10.169  1.00  0.00     0.320 C 
HETATM   12  N1  UNL     1      14.953  25.411  -9.245  1.00  0.00    -0.343 N 
HETATM   13  O1  UNL     1      14.222  23.966 -10.861  1.00  0.00    -0.247 OA
ATOM     14  H1  UNL     1      14.768  26.241  -8.681  1.00  0.00     0.164 HD
ATOM     15  H2  UNL     1      12.523  26.482  -9.834  1.00  0.00     0.170 HD
BRANCH  12  16
HETATM   16  C2  UNL     1      16.204  24.706  -9.067  1.00  0.00     0.120 C 
HETATM   17  C1  UNL     1      17.372  25.664  -8.922  1.00  0.00     0.026 C 
ENDBRANCH  12  16
ENDBRANCH   1  10
BRANCH   2  18
HETATM   18  C6  UNL     1      12.490  26.822 -13.166  1.00  0.00     0.261 C 
HETATM   19  O2  UNL     1      12.950  27.655 -12.356  1.00  0.00    -0.267 OA
HETATM   20  N3  UNL     1      12.707  26.943 -14.555  1.00  0.00    -0.348 N 
ATOM     21  H3  UNL     1      12.312  26.237 -15.178  1.00  0.00     0.163 HD
BRANCH  20  22
HETATM   22  C7  UNL     1      13.460  28.018 -15.121  1.00  0.00     0.022 C 
HETATM   23  C8  UNL     1      13.183  28.113 -16.623  1.00  0.00     0.037 C 
HETATM   24  C9  UNL     1      13.161  29.351 -14.504  1.00  0.00     0.037 C 
HETATM   25  C10 UNL     1      14.952  27.785 -14.991  1.00  0.00     0.037 C 
ENDBRANCH  20  22
ENDBRANCH   2  18
TORSDOF 4
ENDMDL
MODEL 3
REMARK VINA RESULT: -6.679632830      3.567      5.745
REMARK  4 active torsions:
REMARK  status: ('A' for Active; 'I' for Inactive)
REMARK    1  A    between atoms: C2_2  and  N1_3 
REMARK       I    between atoms: N1_3  and  C3_5 
REMARK       I    between atoms: C3_5  and  N2_7 
REMARK    2  A    between atoms: N2_7  and  C4_9 
REMARK    3  A    between atoms: C5_10  and  C6_11 
REMARK       I    between atoms: C6_11  and  N3_13 
REMARK    4  A    between atoms: N3_13  and  C7_15 
ROOT
HETATM    1  C4  UNL     1      11.130  22.512 -10.653  1.00  0.00     0.069 A 
HETATM    2  C5  UNL     1      10.239  22.336  -9.631  1.00  0.00     0.100 A 
HETATM    3  S1  UNL     1      10.898  23.272  -8.369  1.00  0.00    -0.086 SA
HETATM    4  C11 UNL     1      12.283  23.867  -9.154  1.00  0.00    -0.005 A 
HETATM    5  C12 UNL     1      12.196  23.314 -10.396  1.00  0.00     0.017 A 
HETATM    6  C13 UNL     1      13.418  23.812 -11.159  1.00  0.00     0.206 C 
HETATM    7  F1  UNL     1      13.907  22.856 -11.991  1.00  0.00    -0.244 F 
HETATM    8  C14 UNL     1      14.397  24.110 -10.073  1.00  0.00     0.047 C 
HETATM    9  C15 UNL     1      13.516  24.729  -9.016  1.00  0.00     0.050 C 
ENDROOT
BRANCH   1  10
HETATM   10  N2  UNL     1      10.926  21.859 -11.951  1.00  0.00    -0.307 N 
HETATM   11  C3  UNL     1      11.398  20.543 -12.179  1.00  0.00     0.320 C 
HETATM   12  N1  UNL     1      11.241  19.852 -13.388  1.00  0.00    -0.343 N 
HETATM   13  O1  UNL     1      11.992  19.968 -11.230  1.00  0.00    -0.247 OA
ATOM     14  H1  UNL     1      10.761  20.313 -14.161  1.00  0.00     0.164 HD
ATOM     15  H2  UNL     1      10.441  22.358 -12.697  1.00  0.00     0.170 HD
BRANCH  12  16
HETATM   16  C2  UNL     1      11.740  18.507 -13.574  1.00  0.00     0.120 C 
HETATM   17  C1  UNL     1      10.816  17.682 -14.452  1.00  0.00     0.026 C 
ENDBRANCH  12  16
ENDBRANCH   1  10
BRANCH   2  18
HETATM   18  C6  UNL     1       9.005  21.530  -9.623  1.00  0.00     0.261 C 
HETATM   19  O2  UNL     1       8.982  20.526  -8.880  1.00  0.00    -0.267 OA
HETATM   20  N3  UNL     1       7.899  21.883 -10.424  1.00  0.00    -0.348 N 
ATOM     21  H3  UNL     1       7.964  22.712 -11.015  1.00  0.00     0.163 HD
BRANCH  20  22
HETATM   22  C7  UNL     1       6.689  21.120 -10.438  1.00  0.00     0.022 C 
HETATM   23  C8  UNL     1       5.630  21.839 -11.277  1.00  0.00     0.037 C 
HETATM   24  C9  UNL     1       6.859  19.735 -10.985  1.00  0.00     0.037 C 
HETATM   25  C10 UNL     1       6.096  20.988  -9.050  1.00  0.00     0.037 C 
ENDBRANCH  20  22
ENDBRANCH   2  18
TORSDOF 4
ENDMDL
MODEL 4
REMARK VINA RESULT: -6.659105847      3.767      6.164
REMARK  4 active torsions:
REMARK  status: ('A' for Active; 'I' for Inactive)
REMARK    1  A    between atoms: C2_2  and  N1_3 
REMARK       I    between atoms: N1_3  and  C3_5 
REMARK       I    between atoms: C3_5  and  N2_7 
REMARK    2  A    between atoms: N2_7  and  C4_9 
REMARK    3  A    between atoms: C5_10  and  C6_11 
REMARK       I    between atoms: C6_11  and  N3_13 
REMARK    4  A    between atoms: N3_13  and  C7_15 
ROOT
HETATM    1  C4  UNL     1      11.027  21.534 -10.679  1.00  0.00     0.069 A 
HETATM    2  C5  UNL     1       9.884  21.902 -10.026  1.00  0.00     0.100 A 
HETATM    3  S1  UNL     1      10.209  23.501  -9.534  1.00  0.00    -0.086 SA
HETATM    4  C11 UNL     1      11.778  23.674 -10.162  1.00  0.00    -0.005 A 
HETATM    5  C12 UNL     1      12.013  22.466 -10.746  1.00  0.00     0.017 A 
HETATM    6  C13 UNL     1      13.416  22.555 -11.335  1.00  0.00     0.206 C 
HETATM    7  F1  UNL     1      14.075  21.373 -11.226  1.00  0.00    -0.244 F 
HETATM    8  C14 UNL     1      14.071  23.598 -10.494  1.00  0.00     0.047 C 
HETATM    9  C15 UNL     1      12.960  24.603 -10.316  1.00  0.00     0.050 C 
ENDROOT
BRANCH   1  10
HETATM   10  N2  UNL     1      11.161  20.197 -11.268  1.00  0.00    -0.307 N 
HETATM   11  C3  UNL     1      10.619  19.913 -12.546  1.00  0.00     0.320 C 
HETATM   12  N1  UNL     1      10.706  18.664 -13.175  1.00  0.00    -0.343 N 
HETATM   13  O1  UNL     1      10.025  20.848 -13.144  1.00  0.00    -0.247 OA
ATOM     14  H1  UNL     1      11.186  17.902 -12.696  1.00  0.00     0.164 HD
ATOM     15  H2  UNL     1      11.649  19.464 -10.753  1.00  0.00     0.170 HD
BRANCH  12  16
HETATM   16  C2  UNL     1      10.137  18.422 -14.483  1.00  0.00     0.120 C 
HETATM   17  C1  UNL     1      11.131  18.716 -15.591  1.00  0.00     0.026 C 
ENDBRANCH  12  16
ENDBRANCH   1  10
BRANCH   2  18
HETATM   18  C6  UNL     1       8.664  21.106  -9.799  1.00  0.00     0.261 C 
HETATM   19  O2  UNL     1       8.622  20.402  -8.768  1.00  0.00    -0.267 OA
HETATM   20  N3  UNL     1       7.590  21.142 -10.714  1.00  0.00    -0.348 N 
ATOM     21  H3  UNL     1       7.670  21.733 -11.543  1.00  0.00     0.163 HD
BRANCH  20  22
HETATM   22  C7  UNL     1       6.395  20.381 -10.522  1.00  0.00     0.022 C 
HETATM   23  C8  UNL     1       5.272  20.949 -11.393  1.00  0.00     0.037 C 
HETATM   24  C9  UNL     1       6.551  18.926 -10.847  1.00  0.00     0.037 C 
HETATM   25  C10 UNL     1       5.897  20.474  -9.094  1.00  0.00     0.037 C 
ENDBRANCH  20  22
ENDBRANCH   2  18
TORSDOF 4
ENDMDL
MODEL 5
REMARK VINA RESULT: -6.513162908      2.239      5.464
REMARK  4 active torsions:
REMARK  status: ('A' for Active; 'I' for Inactive)
REMARK    1  A    between atoms: C2_2  and  N1_3 
REMARK       I    between atoms: N1_3  and  C3_5 
REMARK       I    between atoms: C3_5  and  N2_7 
REMARK    2  A    between atoms: N2_7  and  C4_9 
REMARK    3  A    between atoms: C5_10  and  C6_11 
REMARK       I    between atoms: C6_11  and  N3_13 
REMARK    4  A    between atoms: N3_13  and  C7_15 
ROOT
HETATM    1  C4  UNL     1      11.603  23.026 -11.145  1.00  0.00     0.069 A 
HETATM    2  C5  UNL     1      10.798  24.014 -11.642  1.00  0.00     0.100 A 
HETATM    3  S1  UNL     1       9.940  23.232 -12.889  1.00  0.00    -0.086 SA
HETATM    4  C11 UNL     1      10.611  21.677 -12.760  1.00  0.00    -0.005 A 
HETATM    5  C12 UNL     1      11.499  21.807 -11.735  1.00  0.00     0.017 A 
HETATM    6  C13 UNL     1      12.141  20.435 -11.564  1.00  0.00     0.206 C 
HETATM    7  F1  UNL     1      13.454  20.540 -11.233  1.00  0.00    -0.244 F 
HETATM    8  C14 UNL     1      11.990  19.820 -12.915  1.00  0.00     0.047 C 
HETATM    9  C15 UNL     1      10.607  20.271 -13.314  1.00  0.00     0.050 C 
ENDROOT
BRANCH   1  10
HETATM   10  N2  UNL     1      12.523  23.292 -10.034  1.00  0.00    -0.307 N 
HETATM   11  C3  UNL     1      13.689  24.072 -10.233  1.00  0.00     0.320 C 
HETATM   12  N1  UNL     1      14.614  24.370  -9.224  1.00  0.00    -0.343 N 
HETATM   13  O1  UNL     1      13.896  24.519 -11.391  1.00  0.00    -0.247 OA
ATOM     14  H1  UNL     1      14.452  24.010  -8.283  1.00  0.00     0.164 HD
ATOM     15  H2  UNL     1      12.322  22.912  -9.109  1.00  0.00     0.170 HD
BRANCH  12  16
HETATM   16  C2  UNL     1      15.792  25.172  -9.474  1.00  0.00     0.120 C 
HETATM   17  C1  UNL     1      16.997  24.654  -8.711  1.00  0.00     0.026 C 
ENDBRANCH  12  16
ENDBRANCH   1  10
BRANCH   2  18
HETATM   18  C6  UNL     1      10.698  25.418 -11.205  1.00  0.00     0.261 C 
HETATM   19  O2  UNL     1      10.007  25.654 -10.191  1.00  0.00    -0.267 OA
HETATM   20  N3  UNL     1      11.358  26.449 -11.906  1.00  0.00    -0.348 N 
ATOM     21  H3  UNL     1      11.912  26.208 -12.729  1.00  0.00     0.163 HD
BRANCH  20  22
HETATM   22  C7  UNL     1      11.279  27.820 -11.507  1.00  0.00     0.022 C 
HETATM   23  C8  UNL     1      11.926  28.709 -12.570  1.00  0.00     0.037 C 
HETATM   24  C9  UNL     1       9.877  28.300 -11.283  1.00  0.00     0.037 C 
HETATM   25  C10 UNL     1      12.053  28.074 -10.229  1.00  0.00     0.037 C 
ENDBRANCH  20  22
ENDBRANCH   2  18
TORSDOF 4
ENDMDL
