MODEL 1
REMARK VINA RESULT: -6.238324505      0.000      0.000
REMARK  3 active torsions:
REMARK  status: ('A' for Active; 'I' for Inactive)
REMARK    1  A    between atoms: C1_4  and  C2_6 
REMARK    2  A    between atoms: N3_8  and  C4_9 
REMARK    3  A    between atoms: C4_9  and  C5_10 
ROOT
HETATM    1  C2  UNL     1      12.451  23.764  -9.853  1.00  0.00     0.033 A 
HETATM    2  C3  UNL     1      11.568  22.703  -9.954  1.00  0.00     0.107 A 
HETATM    3  N3  UNL     1      11.181  22.544 -11.227  1.00  0.00    -0.348 N 
HETATM    4  C9  UNL     1      11.824  23.515 -11.949  1.00  0.00     0.088 A 
HETATM    5  S1  UNL     1      12.053  24.182 -13.498  1.00  0.00    -0.064 SA
HETATM    6  C10 UNL     1      13.146  25.429 -13.105  1.00  0.00     0.054 A 
HETATM    7 BR1  UNL     1      13.974  26.735 -14.262  1.00  0.00    -0.043 Br
HETATM    8  C11 UNL     1      13.303  25.287 -11.757  1.00  0.00     0.042 A 
HETATM    9  C12 UNL     1      12.615  24.290 -11.151  1.00  0.00     0.015 A 
ENDROOT
BRANCH   3  10
HETATM   10  C4  UNL     1      10.288  21.543 -11.734  1.00  0.00     0.162 C 
BRANCH  10  11
HETATM   11  C5  UNL     1      10.800  20.157 -11.644  1.00  0.00     0.204 C 
HETATM   12  C6  UNL     1      12.139  19.988 -12.309  1.00  0.00     0.036 C 
HETATM   13  C7  UNL     1      11.683  19.734 -13.754  1.00  0.00     0.029 C 
HETATM   14  C8  UNL     1      10.533  18.782 -13.514  1.00  0.00     0.233 C 
HETATM   15  N4  UNL     1       9.905  19.229 -12.313  1.00  0.00    -0.069 N 
ATOM     16  H42 UNL     1       9.618  18.458 -11.710  1.00  0.00     0.277 HD
ATOM     17  H41 UNL     1       8.980  19.628 -12.479  1.00  0.00     0.277 HD
ENDBRANCH  10  11
ENDBRANCH   3  10
BRANCH   1  18
HETATM   18  C1  UNL     1      13.066  24.213  -8.612  1.00  0.00     0.122 C 
HETATM   19  N1  UNL     1      14.348  24.325  -8.587  1.00  0.00    -0.387 N 
ATOM     20  H12 UNL     1      14.779  24.639  -7.718  1.00  0.00     0.157 HD
ATOM     21  H11 UNL     1      14.893  24.102  -9.419  1.00  0.00     0.157 HD
HETATM   22  N2  UNL     1      12.316  24.520  -7.466  1.00  0.00    -0.082 NA
ENDBRANCH   1  18
TORSDOF 3
ENDMDL
MODEL 2
REMARK VINA RESULT: -6.234545621      2.144      2.447
REMARK  3 active torsions:
REMARK  status: ('A' for Active; 'I' for Inactive)
REMARK    1  A    between atoms: C1_4  and  C2_6 
REMARK    2  A    between atoms: N3_8  and  C4_9 
REMARK    3  A    between atoms: C4_9  and  C5_10 
ROOT
HETATM    1  C2  UNL     1      14.137  24.605 -10.278  1.00  0.00     0.033 A 
HETATM    2  C3  UNL     1      13.942  23.368 -10.868  1.00  0.00     0.107 A 
HETATM    3  N3  UNL     1      12.782  23.354 -11.539  1.00  0.00    -0.348 N 
HETATM    4  C9  UNL     1      12.229  24.597 -11.376  1.00  0.00     0.088 A 
HETATM    5  S1  UNL     1      10.902  25.595 -11.752  1.00  0.00    -0.064 SA
HETATM    6  C10 UNL     1      11.377  27.011 -10.932  1.00  0.00     0.054 A 
HETATM    7 BR1  UNL     1      10.466  28.707 -10.799  1.00  0.00    -0.043 Br
HETATM    8  C11 UNL     1      12.575  26.659 -10.380  1.00  0.00     0.042 A 
HETATM    9  C12 UNL     1      13.022  25.401 -10.610  1.00  0.00     0.015 A 
ENDROOT
BRANCH   3  10
HETATM   10  C4  UNL     1      12.240  22.262 -12.294  1.00  0.00     0.162 C 
BRANCH  10  11
HETATM   11  C5  UNL     1      11.830  21.094 -11.483  1.00  0.00     0.204 C 
HETATM   12  C6  UNL     1      12.624  19.856 -11.805  1.00  0.00     0.036 C 
HETATM   13  C7  UNL     1      11.808  19.326 -12.994  1.00  0.00     0.029 C 
HETATM   14  C8  UNL     1      10.403  19.534 -12.476  1.00  0.00     0.233 C 
HETATM   15  N4  UNL     1      10.441  20.751 -11.732  1.00  0.00    -0.069 N 
ATOM     16  H42 UNL     1       9.890  20.705 -10.875  1.00  0.00     0.277 HD
ATOM     17  H41 UNL     1       9.928  21.506 -12.188  1.00  0.00     0.277 HD
ENDBRANCH  10  11
ENDBRANCH   3  10
BRANCH   1  18
HETATM   18  C1  UNL     1      15.297  24.964  -9.473  1.00  0.00     0.122 C 
HETATM   19  N1  UNL     1      15.729  24.096  -8.628  1.00  0.00    -0.387 N 
ATOM     20  H12 UNL     1      16.541  24.348  -8.065  1.00  0.00     0.157 HD
ATOM     21  H11 UNL     1      15.260  23.195  -8.540  1.00  0.00     0.157 HD
HETATM   22  N2  UNL     1      15.942  26.205  -9.594  1.00  0.00    -0.082 NA
ENDBRANCH   1  18
TORSDOF 3
ENDMDL
MODEL 3
REMARK VINA RESULT: -6.218855804      5.610      8.104
REMARK  3 active torsions:
REMARK  status: ('A' for Active; 'I' for Inactive)
REMARK    1  A    between atoms: C1_4  and  C2_6 
REMARK    2  A    between atoms: N3_8  and  C4_9 
REMARK    3  A    between atoms: C4_9  and  C5_10 
ROOT
HETATM    1  C2  UNL     1       6.550  19.365 -11.727  1.00  0.00     0.033 A 
HETATM    2  C3  UNL     1       5.602  19.853 -10.844  1.00  0.00     0.107 A 
HETATM    3  N3  UNL     1       6.174  20.689  -9.967  1.00  0.00    -0.348 N 
HETATM    4  C9  UNL     1       7.504  20.736 -10.293  1.00  0.00     0.088 A 
HETATM    5  S1  UNL     1       9.017  21.407  -9.893  1.00  0.00    -0.064 SA
HETATM    6  C10 UNL     1       9.976  20.667 -11.092  1.00  0.00     0.054 A 
HETATM    7 BR1  UNL     1      11.870  20.843 -11.420  1.00  0.00    -0.043 Br
HETATM    8  C11 UNL     1       9.074  19.906 -11.780  1.00  0.00     0.042 A 
HETATM    9  C12 UNL     1       7.785  19.940 -11.366  1.00  0.00     0.015 A 
ENDROOT
BRANCH   3  10
HETATM   10  C4  UNL     1       5.519  21.407  -8.913  1.00  0.00     0.162 C 
BRANCH  10  11
HETATM   11  C5  UNL     1       4.052  21.225  -8.861  1.00  0.00     0.204 C 
HETATM   12  C6  UNL     1       3.301  22.522  -8.991  1.00  0.00     0.036 C 
HETATM   13  C7  UNL     1       3.304  22.975  -7.522  1.00  0.00     0.029 C 
HETATM   14  C8  UNL     1       2.978  21.668  -6.834  1.00  0.00     0.233 C 
HETATM   15  N4  UNL     1       3.644  20.657  -7.588  1.00  0.00    -0.069 N 
ATOM     16  H42 UNL     1       3.080  19.814  -7.698  1.00  0.00     0.277 HD
ATOM     17  H41 UNL     1       4.423  20.237  -7.079  1.00  0.00     0.277 HD
ENDBRANCH  10  11
ENDBRANCH   3  10
BRANCH   1  18
HETATM   18  C1  UNL     1       6.270  18.432 -12.810  1.00  0.00     0.122 C 
HETATM   19  N1  UNL     1       6.016  18.924 -13.971  1.00  0.00    -0.387 N 
ATOM     20  H12 UNL     1       5.819  18.271 -14.729  1.00  0.00     0.157 HD
ATOM     21  H11 UNL     1       6.016  19.935 -14.106  1.00  0.00     0.157 HD
HETATM   22  N2  UNL     1       6.269  17.041 -12.625  1.00  0.00    -0.082 NA
ENDBRANCH   1  18
TORSDOF 3
ENDMDL
MODEL 4
REMARK VINA RESULT: -6.116074231      1.232      1.232
REMARK  3 active torsions:
REMARK  status: ('A' for Active; 'I' for Inactive)
REMARK    1  A    between atoms: C1_4  and  C2_6 
REMARK    2  A    between atoms: N3_8  and  C4_9 
REMARK    3  A    between atoms: C4_9  and  C5_10 
ROOT
HETATM    1  C2  UNL     1      12.721  24.011 -10.007  1.00  0.00     0.033 A 
HETATM    2  C3  UNL     1      12.483  22.769 -10.569  1.00  0.00     0.107 A 
HETATM    3  N3  UNL     1      12.083  22.906 -11.840  1.00  0.00    -0.348 N 
HETATM    4  C9  UNL     1      12.065  24.252 -12.095  1.00  0.00     0.088 A 
HETATM    5  S1  UNL     1      11.749  25.449 -13.264  1.00  0.00    -0.064 SA
HETATM    6  C10 UNL     1      12.108  26.838 -12.345  1.00  0.00     0.054 A 
HETATM    7 BR1  UNL     1      12.031  28.696 -12.863  1.00  0.00    -0.043 Br
HETATM    8  C11 UNL     1      12.470  26.321 -11.134  1.00  0.00     0.042 A 
HETATM    9  C12 UNL     1      12.449  24.973 -11.001  1.00  0.00     0.015 A 
ENDROOT
BRANCH   3  10
HETATM   10  C4  UNL     1      11.759  21.852 -12.757  1.00  0.00     0.162 C 
BRANCH  10  11
HETATM   11  C5  UNL     1      11.200  20.635 -12.126  1.00  0.00     0.204 C 
HETATM   12  C6  UNL     1      12.118  19.448 -12.239  1.00  0.00     0.036 C 
HETATM   13  C7  UNL     1      11.703  18.929 -13.625  1.00  0.00     0.029 C 
HETATM   14  C8  UNL     1      10.199  19.054 -13.524  1.00  0.00     0.233 C 
HETATM   15  N4  UNL     1       9.959  20.241 -12.770  1.00  0.00    -0.069 N 
ATOM     16  H42 UNL     1       9.191  20.136 -12.107  1.00  0.00     0.277 HD
ATOM     17  H41 UNL     1       9.555  20.989 -13.333  1.00  0.00     0.277 HD
ENDBRANCH  10  11
ENDBRANCH   3  10
BRANCH   1  18
HETATM   18  C1  UNL     1      13.169  24.228  -8.638  1.00  0.00     0.122 C 
HETATM   19  N1  UNL     1      14.437  24.229  -8.418  1.00  0.00    -0.387 N 
ATOM     20  H12 UNL     1      14.750  24.381  -7.459  1.00  0.00     0.157 HD
ATOM     21  H11 UNL     1      15.087  24.081  -9.190  1.00  0.00     0.157 HD
HETATM   22  N2  UNL     1      12.275  24.432  -7.576  1.00  0.00    -0.082 NA
ENDBRANCH   1  18
TORSDOF 3
ENDMDL
MODEL 5
REMARK VINA RESULT: -6.113476945      3.197      4.832
REMARK  3 active torsions:
REMARK  status: ('A' for Active; 'I' for Inactive)
REMARK    1  A    between atoms: C1_4  and  C2_6 
REMARK    2  A    between atoms: N3_8  and  C4_9 
REMARK    3  A    between atoms: C4_9  and  C5_10 
ROOT
HETATM    1  C2  UNL     1      11.447  20.514 -11.287  1.00  0.00     0.033 A 
HETATM    2  C3  UNL     1      10.095  20.440 -10.999  1.00  0.00     0.107 A 
HETATM    3  N3  UNL     1       9.688  21.566 -10.397  1.00  0.00    -0.348 N 
HETATM    4  C9  UNL     1      10.794  22.370 -10.298  1.00  0.00     0.088 A 
HETATM    5  S1  UNL     1      11.383  23.874  -9.762  1.00  0.00    -0.064 SA
HETATM    6  C10 UNL     1      13.016  23.713 -10.222  1.00  0.00     0.054 A 
HETATM    7 BR1  UNL     1      14.473  24.962 -10.006  1.00  0.00    -0.043 Br
HETATM    8  C11 UNL     1      13.056  22.472 -10.789  1.00  0.00     0.042 A 
HETATM    9  C12 UNL     1      11.898  21.769 -10.830  1.00  0.00     0.015 A 
ENDROOT
BRANCH   3  10
HETATM   10  C4  UNL     1       8.357  21.875  -9.963  1.00  0.00     0.162 C 
BRANCH  10  11
HETATM   11  C5  UNL     1       7.422  20.728  -9.976  1.00  0.00     0.204 C 
HETATM   12  C6  UNL     1       6.409  20.818 -11.086  1.00  0.00     0.036 C 
HETATM   13  C7  UNL     1       5.345  21.687 -10.398  1.00  0.00     0.029 C 
HETATM   14  C8  UNL     1       5.310  21.044  -9.029  1.00  0.00     0.233 C 
HETATM   15  N4  UNL     1       6.657  20.669  -8.744  1.00  0.00    -0.069 N 
ATOM     16  H42 UNL     1       6.722  19.759  -8.286  1.00  0.00     0.277 HD
ATOM     17  H41 UNL     1       7.070  21.230  -7.999  1.00  0.00     0.277 HD
ENDBRANCH  10  11
ENDBRANCH   3  10
BRANCH   1  18
HETATM   18  C1  UNL     1      12.212  19.462 -11.942  1.00  0.00     0.122 C 
HETATM   19  N1  UNL     1      11.897  19.159 -13.152  1.00  0.00    -0.387 N 
ATOM     20  H12 UNL     1      12.433  18.422 -13.610  1.00  0.00     0.157 HD
ATOM     21  H11 UNL     1      11.135  19.651 -13.617  1.00  0.00     0.157 HD
HETATM   22  N2  UNL     1      13.262  18.785 -11.303  1.00  0.00    -0.082 NA
ENDBRANCH   1  18
TORSDOF 3
ENDMDL
