MODEL 1
REMARK VINA RESULT: -5.953121289      0.000      0.000
REMARK  6 active torsions:
REMARK  status: ('A' for Active; 'I' for Inactive)
REMARK    1  A    between atoms: C2_2  and  C3_3 
REMARK    2  A    between atoms: C3_3  and  N1_4 
REMARK       I    between atoms: N1_4  and  C4_6 
REMARK       I    between atoms: C4_6  and  N2_8 
REMARK    3  A    between atoms: N2_8  and  O2_10 
REMARK    4  A    between atoms: O2_10  and  N3_11 
REMARK    5  A    between atoms: C5_13  and  C7_15 
REMARK    6  A    between atoms: C15_23  and  N4_24 
ROOT
HETATM    1  N3  UNL     1      50.068 -76.486 -37.181  1.00  0.00    -0.250 N 
ATOM      2  H3  UNL     1      49.270 -75.885 -37.385  1.00  0.00     0.196 HD
HETATM    3  C5  UNL     1      49.844 -77.694 -36.761  1.00  0.00     0.014 C 
HETATM    4  C6  UNL     1      51.028 -78.541 -36.473  1.00  0.00     0.066 C 
ENDROOT
BRANCH   3   5
HETATM    5  C7  UNL     1      48.460 -78.136 -36.602  1.00  0.00     0.064 C 
HETATM    6  C8  UNL     1      48.346 -79.083 -35.460  1.00  0.00     0.013 C 
HETATM    7  C9  UNL     1      48.038 -80.501 -35.897  1.00  0.00     0.006 C 
HETATM    8  C10 UNL     1      46.725 -80.578 -36.641  1.00  0.00    -0.004 C 
HETATM    9  C11 UNL     1      45.551 -79.994 -35.909  1.00  0.00     0.006 C 
HETATM   10  C13 UNL     1      46.618 -79.465 -37.638  1.00  0.00    -0.011 C 
HETATM   11  C12 UNL     1      45.606 -78.780 -36.782  1.00  0.00     0.012 C 
HETATM   12  C14 UNL     1      45.980 -79.892 -38.955  1.00  0.00     0.018 C 
HETATM   13  C15 UNL     1      47.914 -78.749 -37.867  1.00  0.00     0.201 C 
BRANCH  13  14
HETATM   14  N4  UNL     1      47.734 -77.808 -38.933  1.00  0.00    -0.074 N 
ATOM     15  H43 UNL     1      46.804 -77.393 -38.893  1.00  0.00     0.274 HD
ATOM     16  H42 UNL     1      48.301 -76.974 -38.776  1.00  0.00     0.274 HD
ATOM     17  H41 UNL     1      47.915 -78.196 -39.859  1.00  0.00     0.274 HD
ENDBRANCH  13  14
ENDBRANCH   3   5
BRANCH   1  18
HETATM   18  O2  UNL     1      51.321 -75.985 -37.362  1.00  0.00    -0.153 OA
BRANCH  18  19
HETATM   19  N2  UNL     1      51.738 -74.777 -36.870  1.00  0.00    -0.191 N 
HETATM   20  C4  UNL     1      52.118 -74.665 -35.518  1.00  0.00     0.341 C 
HETATM   21  N1  UNL     1      52.552 -73.424 -34.993  1.00  0.00    -0.341 N 
HETATM   22  O1  UNL     1      52.075 -75.663 -34.775  1.00  0.00    -0.245 OA
ATOM     23  H1  UNL     1      52.591 -72.602 -35.596  1.00  0.00     0.164 HD
ATOM     24  H2  UNL     1      51.774 -73.961 -37.481  1.00  0.00     0.201 HD
BRANCH  21  25
HETATM   25  C3  UNL     1      52.942 -73.316 -33.597  1.00  0.00     0.124 C 
BRANCH  25  26
HETATM   26  C2  UNL     1      51.897 -72.495 -32.886  1.00  0.00     0.015 C 
HETATM   27  C1  UNL     1      52.468 -71.149 -32.537  1.00  0.00     0.006 C 
ENDBRANCH  25  26
ENDBRANCH  21  25
ENDBRANCH  18  19
ENDBRANCH   1  18
TORSDOF 6
ENDMDL
MODEL 2
REMARK VINA RESULT: -5.562861079      6.200      8.696
REMARK  6 active torsions:
REMARK  status: ('A' for Active; 'I' for Inactive)
REMARK    1  A    between atoms: C2_2  and  C3_3 
REMARK    2  A    between atoms: C3_3  and  N1_4 
REMARK       I    between atoms: N1_4  and  C4_6 
REMARK       I    between atoms: C4_6  and  N2_8 
REMARK    3  A    between atoms: N2_8  and  O2_10 
REMARK    4  A    between atoms: O2_10  and  N3_11 
REMARK    5  A    between atoms: C5_13  and  C7_15 
REMARK    6  A    between atoms: C15_23  and  N4_24 
ROOT
HETATM    1  N3  UNL     1      47.110 -81.574 -41.305  1.00  0.00    -0.250 N 
ATOM      2  H3  UNL     1      46.134 -81.300 -41.419  1.00  0.00     0.196 HD
HETATM    3  C5  UNL     1      47.694 -81.328 -40.172  1.00  0.00     0.014 C 
HETATM    4  C6  UNL     1      49.114 -81.738 -40.041  1.00  0.00     0.066 C 
ENDROOT
BRANCH   3   5
HETATM    5  C7  UNL     1      46.927 -80.673 -39.114  1.00  0.00     0.064 C 
HETATM    6  C8  UNL     1      47.271 -79.227 -39.044  1.00  0.00     0.013 C 
HETATM    7  C9  UNL     1      48.035 -78.862 -37.786  1.00  0.00     0.006 C 
HETATM    8  C10 UNL     1      47.231 -79.166 -36.543  1.00  0.00    -0.004 C 
HETATM    9  C11 UNL     1      45.860 -78.553 -36.514  1.00  0.00     0.006 C 
HETATM   10  C13 UNL     1      46.591 -80.517 -36.646  1.00  0.00    -0.011 C 
HETATM   11  C12 UNL     1      45.255 -79.882 -36.840  1.00  0.00     0.012 C 
HETATM   12  C14 UNL     1      46.610 -81.295 -35.335  1.00  0.00     0.018 C 
HETATM   13  C15 UNL     1      47.127 -81.341 -37.777  1.00  0.00     0.201 C 
BRANCH  13  14
HETATM   14  N4  UNL     1      46.556 -82.653 -37.696  1.00  0.00    -0.074 N 
ATOM     15  H43 UNL     1      45.706 -82.641 -37.134  1.00  0.00     0.274 HD
ATOM     16  H42 UNL     1      46.163 -82.929 -38.596  1.00  0.00     0.274 HD
ATOM     17  H41 UNL     1      47.204 -83.363 -37.354  1.00  0.00     0.274 HD
ENDBRANCH  13  14
ENDBRANCH   3   5
BRANCH   1  18
HETATM   18  O2  UNL     1      47.741 -82.180 -42.348  1.00  0.00    -0.153 OA
BRANCH  18  19
HETATM   19  N2  UNL     1      48.161 -81.521 -43.473  1.00  0.00    -0.191 N 
HETATM   20  C4  UNL     1      47.224 -80.839 -44.275  1.00  0.00     0.341 C 
HETATM   21  N1  UNL     1      47.639 -80.153 -45.441  1.00  0.00    -0.341 N 
HETATM   22  O1  UNL     1      46.019 -80.835 -43.958  1.00  0.00    -0.245 OA
ATOM     23  H1  UNL     1      48.625 -80.151 -45.707  1.00  0.00     0.164 HD
ATOM     24  H2  UNL     1      49.148 -81.525 -43.730  1.00  0.00     0.201 HD
BRANCH  21  25
HETATM   25  C3  UNL     1      46.668 -79.451 -46.262  1.00  0.00     0.124 C 
BRANCH  25  26
HETATM   26  C2  UNL     1      46.702 -77.994 -45.877  1.00  0.00     0.015 C 
HETATM   27  C1  UNL     1      45.564 -77.272 -46.541  1.00  0.00     0.006 C 
ENDBRANCH  25  26
ENDBRANCH  21  25
ENDBRANCH  18  19
ENDBRANCH   1  18
TORSDOF 6
ENDMDL
MODEL 3
REMARK VINA RESULT: -5.532431602      5.943      8.718
REMARK  6 active torsions:
REMARK  status: ('A' for Active; 'I' for Inactive)
REMARK    1  A    between atoms: C2_2  and  C3_3 
REMARK    2  A    between atoms: C3_3  and  N1_4 
REMARK       I    between atoms: N1_4  and  C4_6 
REMARK       I    between atoms: C4_6  and  N2_8 
REMARK    3  A    between atoms: N2_8  and  O2_10 
REMARK    4  A    between atoms: O2_10  and  N3_11 
REMARK    5  A    between atoms: C5_13  and  C7_15 
REMARK    6  A    between atoms: C15_23  and  N4_24 
ROOT
HETATM    1  N3  UNL     1      48.151 -81.386 -40.916  1.00  0.00    -0.250 N 
ATOM      2  H3  UNL     1      48.359 -80.402 -40.746  1.00  0.00     0.196 HD
HETATM    3  C5  UNL     1      47.328 -81.993 -40.116  1.00  0.00     0.014 C 
HETATM    4  C6  UNL     1      47.048 -83.424 -40.392  1.00  0.00     0.066 C 
ENDROOT
BRANCH   3   5
HETATM    5  C7  UNL     1      46.738 -81.238 -39.012  1.00  0.00     0.064 C 
HETATM    6  C8  UNL     1      46.302 -79.894 -39.476  1.00  0.00     0.013 C 
HETATM    7  C9  UNL     1      47.142 -78.770 -38.904  1.00  0.00     0.006 C 
HETATM    8  C10 UNL     1      47.070 -78.738 -37.394  1.00  0.00    -0.004 C 
HETATM    9  C11 UNL     1      45.678 -78.686 -36.831  1.00  0.00     0.006 C 
HETATM   10  C13 UNL     1      47.212 -80.120 -36.832  1.00  0.00    -0.011 C 
HETATM   11  C12 UNL     1      45.763 -80.137 -36.477  1.00  0.00     0.012 C 
HETATM   12  C14 UNL     1      48.057 -80.170 -35.564  1.00  0.00     0.018 C 
HETATM   13  C15 UNL     1      47.680 -81.125 -37.839  1.00  0.00     0.201 C 
BRANCH  13  14
HETATM   14  N4  UNL     1      47.918 -82.368 -37.168  1.00  0.00    -0.074 N 
ATOM     15  H43 UNL     1      47.037 -82.823 -36.929  1.00  0.00     0.274 HD
ATOM     16  H42 UNL     1      48.297 -83.060 -37.816  1.00  0.00     0.274 HD
ATOM     17  H41 UNL     1      48.514 -82.283 -36.344  1.00  0.00     0.274 HD
ENDBRANCH  13  14
ENDBRANCH   3   5
BRANCH   1  18
HETATM   18  O2  UNL     1      48.750 -82.003 -41.971  1.00  0.00    -0.153 OA
BRANCH  18  19
HETATM   19  N2  UNL     1      48.876 -81.441 -43.214  1.00  0.00    -0.191 N 
HETATM   20  C4  UNL     1      47.723 -81.144 -43.967  1.00  0.00     0.341 C 
HETATM   21  N1  UNL     1      47.834 -80.562 -45.253  1.00  0.00    -0.341 N 
HETATM   22  O1  UNL     1      46.594 -81.392 -43.502  1.00  0.00    -0.245 OA
ATOM     23  H1  UNL     1      48.755 -80.356 -45.640  1.00  0.00     0.164 HD
ATOM     24  H2  UNL     1      49.801 -81.238 -43.592  1.00  0.00     0.201 HD
BRANCH  21  25
HETATM   25  C3  UNL     1      46.640 -80.259 -46.024  1.00  0.00     0.124 C 
BRANCH  25  26
HETATM   26  C2  UNL     1      46.769 -78.849 -46.542  1.00  0.00     0.015 C 
HETATM   27  C1  UNL     1      46.228 -77.887 -45.522  1.00  0.00     0.006 C 
ENDBRANCH  25  26
ENDBRANCH  21  25
ENDBRANCH  18  19
ENDBRANCH   1  18
TORSDOF 6
ENDMDL
MODEL 4
REMARK VINA RESULT: -5.506677156      6.046      8.799
REMARK  6 active torsions:
REMARK  status: ('A' for Active; 'I' for Inactive)
REMARK    1  A    between atoms: C2_2  and  C3_3 
REMARK    2  A    between atoms: C3_3  and  N1_4 
REMARK       I    between atoms: N1_4  and  C4_6 
REMARK       I    between atoms: C4_6  and  N2_8 
REMARK    3  A    between atoms: N2_8  and  O2_10 
REMARK    4  A    between atoms: O2_10  and  N3_11 
REMARK    5  A    between atoms: C5_13  and  C7_15 
REMARK    6  A    between atoms: C15_23  and  N4_24 
ROOT
HETATM    1  N3  UNL     1      45.858 -79.009 -41.852  1.00  0.00    -0.250 N 
ATOM      2  H3  UNL     1      45.194 -78.360 -41.430  1.00  0.00     0.196 HD
HETATM    3  C5  UNL     1      46.575 -79.758 -41.070  1.00  0.00     0.014 C 
HETATM    4  C6  UNL     1      47.531 -80.691 -41.718  1.00  0.00     0.066 C 
ENDROOT
BRANCH   3   5
HETATM    5  C7  UNL     1      46.396 -79.637 -39.625  1.00  0.00     0.064 C 
HETATM    6  C8  UNL     1      46.734 -78.261 -39.173  1.00  0.00     0.013 C 
HETATM    7  C9  UNL     1      48.000 -78.205 -38.341  1.00  0.00     0.006 C 
HETATM    8  C10 UNL     1      47.875 -79.041 -37.088  1.00  0.00    -0.004 C 
HETATM    9  C11 UNL     1      46.679 -78.725 -36.236  1.00  0.00     0.006 C 
HETATM   10  C13 UNL     1      47.261 -80.372 -37.402  1.00  0.00    -0.011 C 
HETATM   11  C12 UNL     1      45.991 -79.955 -36.740  1.00  0.00     0.012 C 
HETATM   12  C14 UNL     1      47.894 -81.525 -36.631  1.00  0.00     0.018 C 
HETATM   13  C15 UNL     1      47.201 -80.665 -38.870  1.00  0.00     0.201 C 
BRANCH  13  14
HETATM   14  N4  UNL     1      46.734 -82.008 -39.048  1.00  0.00    -0.074 N 
ATOM     15  H43 UNL     1      45.771 -82.100 -38.728  1.00  0.00     0.274 HD
ATOM     16  H42 UNL     1      46.606 -82.216 -40.039  1.00  0.00     0.274 HD
ATOM     17  H41 UNL     1      47.328 -82.712 -38.608  1.00  0.00     0.274 HD
ENDBRANCH  13  14
ENDBRANCH   3   5
BRANCH   1  18
HETATM   18  O2  UNL     1      45.953 -79.051 -43.209  1.00  0.00    -0.153 OA
BRANCH  18  19
HETATM   19  N2  UNL     1      45.906 -77.942 -44.012  1.00  0.00    -0.191 N 
HETATM   20  C4  UNL     1      46.301 -78.038 -45.362  1.00  0.00     0.341 C 
HETATM   21  N1  UNL     1      46.259 -76.903 -46.207  1.00  0.00    -0.341 N 
HETATM   22  O1  UNL     1      46.689 -79.130 -45.820  1.00  0.00    -0.245 OA
ATOM     23  H1  UNL     1      45.941 -76.007 -45.838  1.00  0.00     0.164 HD
ATOM     24  H2  UNL     1      45.586 -77.050 -43.635  1.00  0.00     0.201 HD
BRANCH  21  25
HETATM   25  C3  UNL     1      46.667 -77.011 -47.597  1.00  0.00     0.124 C 
BRANCH  25  26
HETATM   26  C2  UNL     1      46.939 -75.620 -48.108  1.00  0.00     0.015 C 
HETATM   27  C1  UNL     1      47.693 -74.840 -47.068  1.00  0.00     0.006 C 
ENDBRANCH  25  26
ENDBRANCH  21  25
ENDBRANCH  18  19
ENDBRANCH   1  18
TORSDOF 6
ENDMDL
MODEL 5
REMARK VINA RESULT: -5.488095011     11.524     13.826
REMARK  6 active torsions:
REMARK  status: ('A' for Active; 'I' for Inactive)
REMARK    1  A    between atoms: C2_2  and  C3_3 
REMARK    2  A    between atoms: C3_3  and  N1_4 
REMARK       I    between atoms: N1_4  and  C4_6 
REMARK       I    between atoms: C4_6  and  N2_8 
REMARK    3  A    between atoms: N2_8  and  O2_10 
REMARK    4  A    between atoms: O2_10  and  N3_11 
REMARK    5  A    between atoms: C5_13  and  C7_15 
REMARK    6  A    between atoms: C15_23  and  N4_24 
ROOT
HETATM    1  N3  UNL     1      47.910 -75.876 -49.396  1.00  0.00    -0.250 N 
ATOM      2  H3  UNL     1      47.362 -76.377 -50.096  1.00  0.00     0.196 HD
HETATM    3  C5  UNL     1      48.160 -76.466 -48.266  1.00  0.00     0.014 C 
HETATM    4  C6  UNL     1      48.959 -75.709 -47.270  1.00  0.00     0.066 C 
ENDROOT
BRANCH   3   5
HETATM    5  C7  UNL     1      47.646 -77.817 -48.051  1.00  0.00     0.064 C 
HETATM    6  C8  UNL     1      46.465 -77.785 -47.147  1.00  0.00     0.013 C 
HETATM    7  C9  UNL     1      46.743 -78.403 -45.791  1.00  0.00     0.006 C 
HETATM    8  C10 UNL     1      47.140 -79.856 -45.915  1.00  0.00    -0.004 C 
HETATM    9  C11 UNL     1      46.174 -80.709 -46.686  1.00  0.00     0.006 C 
HETATM   10  C13 UNL     1      48.135 -80.037 -47.020  1.00  0.00    -0.011 C 
HETATM   11  C12 UNL     1      47.094 -80.689 -47.866  1.00  0.00     0.012 C 
HETATM   12  C14 UNL     1      49.233 -81.039 -46.684  1.00  0.00     0.018 C 
HETATM   13  C15 UNL     1      48.708 -78.746 -47.519  1.00  0.00     0.201 C 
BRANCH  13  14
HETATM   14  N4  UNL     1      49.744 -79.041 -48.464  1.00  0.00    -0.074 N 
ATOM     15  H43 UNL     1      50.219 -78.187 -48.755  1.00  0.00     0.274 HD
ATOM     16  H42 UNL     1      50.520 -79.522 -48.009  1.00  0.00     0.274 HD
ATOM     17  H41 UNL     1      49.421 -79.568 -49.277  1.00  0.00     0.274 HD
ENDBRANCH  13  14
ENDBRANCH   3   5
BRANCH   1  18
HETATM   18  O2  UNL     1      48.346 -74.620 -49.688  1.00  0.00    -0.153 OA
BRANCH  18  19
HETATM   19  N2  UNL     1      47.545 -73.509 -49.666  1.00  0.00    -0.191 N 
HETATM   20  C4  UNL     1      47.531 -72.635 -50.770  1.00  0.00     0.341 C 
HETATM   21  N1  UNL     1      46.710 -71.482 -50.765  1.00  0.00    -0.341 N 
HETATM   22  O1  UNL     1      48.244 -72.875 -51.763  1.00  0.00    -0.245 OA
ATOM     23  H1  UNL     1      46.122 -71.280 -49.956  1.00  0.00     0.164 HD
ATOM     24  H2  UNL     1      46.961 -73.316 -48.852  1.00  0.00     0.201 HD
BRANCH  21  25
HETATM   25  C3  UNL     1      46.700 -70.585 -51.908  1.00  0.00     0.124 C 
BRANCH  25  26
HETATM   26  C2  UNL     1      45.572 -71.003 -52.815  1.00  0.00     0.015 C 
HETATM   27  C1  UNL     1      46.100 -71.228 -54.204  1.00  0.00     0.006 C 
ENDBRANCH  25  26
ENDBRANCH  21  25
ENDBRANCH  18  19
ENDBRANCH   1  18
TORSDOF 6
ENDMDL
