MODEL 1
REMARK VINA RESULT: -10.353014051      0.000      0.000
REMARK  13 active torsions:
REMARK  status: ('A' for Active; 'I' for Inactive)
REMARK    1  A    between atoms: C2_2  and  N1_3 
REMARK       I    between atoms: N1_3  and  C3_5 
REMARK    2  A    between atoms: C3_5  and  C4_7 
REMARK    3  A    between atoms: C4_7  and  C5_9 
REMARK    4  A    between atoms: C5_9  and  C6_10 
REMARK    5  A    between atoms: C6_10  and  C7_12 
REMARK    6  A    between atoms: N5_19  and  C8_20 
REMARK    7  A    between atoms: C9_22  and  N6_23 
REMARK    8  A    between atoms: N6_23  and  S1_25 
REMARK    9  A    between atoms: S1_25  and  C10_28 
REMARK   10  A    between atoms: C13_31  and  N7_32 
REMARK   11  A    between atoms: C18_43  and  N12_44 
REMARK   12  A    between atoms: N12_44  and  C19_46 
REMARK   13  A    between atoms: C21_50  and  O8_51 
ROOT
HETATM    1  C10 UNL     1      15.090 -60.662 -56.581  1.00  0.00     0.106 A 
HETATM    2  C11 UNL     1      13.882 -61.085 -57.087  1.00  0.00     0.030 A 
HETATM    3  C12 UNL     1      13.040 -60.202 -57.684  1.00  0.00     0.031 A 
HETATM    4  C13 UNL     1      13.353 -58.843 -57.813  1.00  0.00     0.043 A 
HETATM    5  C17 UNL     1      14.570 -58.474 -57.292  1.00  0.00     0.061 A 
HETATM    6  C18 UNL     1      15.470 -59.320 -56.674  1.00  0.00     0.074 A 
ENDROOT
BRANCH   1   7
HETATM    7  S1  UNL     1      16.141 -61.830 -55.865  1.00  0.00     0.263 S 
HETATM    8  O5  UNL     1      15.737 -63.246 -56.150  1.00  0.00    -0.200 OA
HETATM    9  O6  UNL     1      17.549 -61.569 -56.314  1.00  0.00    -0.200 OA
BRANCH   7  10
HETATM   10  N6  UNL     1      16.188 -61.669 -54.116  1.00  0.00    -0.283 N 
ATOM     11  H6  UNL     1      15.406 -61.830 -53.482  1.00  0.00     0.175 HD
BRANCH  10  12
HETATM   12  C9  UNL     1      17.532 -61.267 -53.725  1.00  0.00     0.284 A 
HETATM   13  C8  UNL     1      17.826 -60.775 -52.377  1.00  0.00     0.299 A 
HETATM   14  O4  UNL     1      17.657 -59.882 -53.524  1.00  0.00    -0.331 OA
BRANCH  13  15
HETATM   15  N5  UNL     1      19.231 -60.820 -51.990  1.00  0.00    -0.222 N 
HETATM   16  C7  UNL     1      19.842 -59.826 -51.328  1.00  0.00     0.189 A 
HETATM   17  N2  UNL     1      21.121 -60.245 -51.136  1.00  0.00    -0.265 N 
HETATM   18  N3  UNL     1      21.280 -61.445 -51.663  1.00  0.00    -0.226 N 
ATOM     19  H2  UNL     1      21.848 -59.713 -50.658  1.00  0.00     0.190 HD
HETATM   20  N4  UNL     1      20.125 -61.794 -52.184  1.00  0.00    -0.222 N 
ATOM     21  H3  UNL     1      22.137 -61.998 -51.665  1.00  0.00     0.210 HD
ATOM     22  H4  UNL     1      19.938 -62.675 -52.664  1.00  0.00     0.210 HD
BRANCH  16  23
HETATM   23  C6  UNL     1      19.283 -58.553 -50.881  1.00  0.00     0.203 C 
HETATM   24  O3  UNL     1      18.928 -58.432 -49.691  1.00  0.00    -0.289 OA
BRANCH  23  25
HETATM   25  C5  UNL     1      19.122 -57.405 -51.797  1.00  0.00     0.176 C 
BRANCH  25  26
HETATM   26  C4  UNL     1      18.602 -56.235 -51.044  1.00  0.00     0.223 C 
HETATM   27  O2  UNL     1      17.372 -56.065 -50.977  1.00  0.00    -0.287 OA
BRANCH  26  28
HETATM   28  C3  UNL     1      19.487 -55.279 -50.383  1.00  0.00     0.287 C 
HETATM   29  N1  UNL     1      19.667 -55.343 -48.978  1.00  0.00    -0.355 N 
ATOM     30  H1  UNL     1      19.178 -56.055 -48.434  1.00  0.00     0.162 HD
HETATM   31  O1  UNL     1      20.100 -54.393 -51.027  1.00  0.00    -0.264 OA
BRANCH  29  32
HETATM   32  C2  UNL     1      20.532 -54.414 -48.322  1.00  0.00     0.118 C 
HETATM   33  C1  UNL     1      19.865 -53.797 -47.119  1.00  0.00     0.026 C 
ENDBRANCH  29  32
ENDBRANCH  26  28
ENDBRANCH  25  26
ENDBRANCH  23  25
ENDBRANCH  16  23
ENDBRANCH  13  15
ENDBRANCH  10  12
ENDBRANCH   7  10
ENDBRANCH   1   7
BRANCH   6  34
HETATM   34  N12 UNL     1      16.703 -58.878 -56.157  1.00  0.00    -0.191 N 
ATOM     35  H12 UNL     1      17.370 -59.544 -55.766  1.00  0.00     0.184 HD
BRANCH  34  36
HETATM   36  C19 UNL     1      17.004 -57.483 -56.188  1.00  0.00     0.676 C 
HETATM   37  N13 UNL     1      16.753 -56.699 -55.214  1.00  0.00    -0.224 N 
HETATM   38  C20 UNL     1      17.034 -55.311 -55.199  1.00  0.00     0.171 C 
ATOM     39  H13 UNL     1      16.318 -57.101 -54.384  1.00  0.00     0.177 HD
HETATM   40  C21 UNL     1      17.308 -54.635 -56.487  1.00  0.00     0.155 C 
HETATM   41  C22 UNL     1      17.494 -55.504 -57.680  1.00  0.00     0.174 C 
HETATM   42  N14 UNL     1      17.619 -56.905 -57.360  1.00  0.00    -0.220 N 
HETATM   43  C23 UNL     1      18.382 -57.819 -58.217  1.00  0.00     0.168 C 
BRANCH  40  44
HETATM   44  O8  UNL     1      18.471 -53.821 -56.405  1.00  0.00    -0.392 OA
ATOM     45  H8  UNL     1      18.321 -53.063 -55.854  1.00  0.00     0.210 HD
ENDBRANCH  40  44
ENDBRANCH  34  36
ENDBRANCH   6  34
BRANCH   4  46
HETATM   46  N7  UNL     1      12.502 -57.946 -58.432  1.00  0.00    -0.274 N 
HETATM   47  C14 UNL     1      11.062 -57.732 -58.146  1.00  0.00     0.344 C 
HETATM   48  O7  UNL     1      10.395 -58.383 -57.333  1.00  0.00    -0.245 OA
HETATM   49  N8  UNL     1      10.694 -56.690 -58.974  1.00  0.00    -0.224 N 
HETATM   50  C15 UNL     1      11.884 -55.793 -58.837  1.00  0.00     0.199 C 
HETATM   51  N11 UNL     1       9.825 -56.298 -59.934  1.00  0.00    -0.003 NA
HETATM   52  C16 UNL     1      12.710 -56.953 -59.528  1.00  0.00     0.227 C 
HETATM   53  N9  UNL     1      11.849 -57.311 -60.599  1.00  0.00    -0.297 N 
HETATM   54  N10 UNL     1      10.850 -56.436 -61.039  1.00  0.00    -0.011 NA
ATOM     55  H9  UNL     1      11.960 -58.218 -61.053  1.00  0.00     0.179 HD
ENDBRANCH   4  46
TORSDOF 13
ENDMDL
MODEL 2
REMARK VINA RESULT: -10.125974018      3.490      6.933
REMARK  13 active torsions:
REMARK  status: ('A' for Active; 'I' for Inactive)
REMARK    1  A    between atoms: C2_2  and  N1_3 
REMARK       I    between atoms: N1_3  and  C3_5 
REMARK    2  A    between atoms: C3_5  and  C4_7 
REMARK    3  A    between atoms: C4_7  and  C5_9 
REMARK    4  A    between atoms: C5_9  and  C6_10 
REMARK    5  A    between atoms: C6_10  and  C7_12 
REMARK    6  A    between atoms: N5_19  and  C8_20 
REMARK    7  A    between atoms: C9_22  and  N6_23 
REMARK    8  A    between atoms: N6_23  and  S1_25 
REMARK    9  A    between atoms: S1_25  and  C10_28 
REMARK   10  A    between atoms: C13_31  and  N7_32 
REMARK   11  A    between atoms: C18_43  and  N12_44 
REMARK   12  A    between atoms: N12_44  and  C19_46 
REMARK   13  A    between atoms: C21_50  and  O8_51 
ROOT
HETATM    1  C10 UNL     1      17.657 -55.697 -53.408  1.00  0.00     0.106 A 
HETATM    2  C11 UNL     1      17.654 -54.875 -54.512  1.00  0.00     0.030 A 
HETATM    3  C12 UNL     1      17.412 -55.386 -55.747  1.00  0.00     0.031 A 
HETATM    4  C13 UNL     1      17.158 -56.748 -55.955  1.00  0.00     0.043 A 
HETATM    5  C17 UNL     1      17.172 -57.522 -54.821  1.00  0.00     0.061 A 
HETATM    6  C18 UNL     1      17.410 -57.067 -53.539  1.00  0.00     0.074 A 
ENDROOT
BRANCH   1   7
HETATM    7  S1  UNL     1      17.933 -54.993 -51.855  1.00  0.00     0.263 S 
HETATM    8  O5  UNL     1      17.486 -53.565 -51.763  1.00  0.00    -0.200 OA
HETATM    9  O6  UNL     1      17.268 -55.837 -50.805  1.00  0.00    -0.200 OA
BRANCH   7  10
HETATM   10  N6  UNL     1      19.638 -55.009 -51.434  1.00  0.00    -0.283 N 
ATOM     11  H6  UNL     1      20.412 -55.118 -52.088  1.00  0.00     0.175 HD
BRANCH  10  12
HETATM   12  C9  UNL     1      19.760 -54.842 -49.992  1.00  0.00     0.284 A 
HETATM   13  C8  UNL     1      21.035 -54.488 -49.363  1.00  0.00     0.299 A 
HETATM   14  O4  UNL     1      20.515 -55.856 -49.379  1.00  0.00    -0.331 OA
BRANCH  13  15
HETATM   15  N5  UNL     1      20.934 -53.939 -48.017  1.00  0.00    -0.222 N 
HETATM   16  C7  UNL     1      21.189 -52.653 -47.728  1.00  0.00     0.189 A 
HETATM   17  N2  UNL     1      20.968 -52.527 -46.392  1.00  0.00    -0.265 N 
HETATM   18  N3  UNL     1      20.596 -53.690 -45.891  1.00  0.00    -0.226 N 
ATOM     19  H2  UNL     1      21.075 -51.664 -45.858  1.00  0.00     0.190 HD
HETATM   20  N4  UNL     1      20.576 -54.551 -46.885  1.00  0.00    -0.222 N 
ATOM     21  H3  UNL     1      20.367 -53.885 -44.916  1.00  0.00     0.210 HD
ATOM     22  H4  UNL     1      20.326 -55.536 -46.804  1.00  0.00     0.210 HD
BRANCH  16  23
HETATM   23  C6  UNL     1      21.606 -51.584 -48.631  1.00  0.00     0.203 C 
HETATM   24  O3  UNL     1      22.820 -51.309 -48.723  1.00  0.00    -0.289 OA
BRANCH  23  25
HETATM   25  C5  UNL     1      20.634 -50.816 -49.436  1.00  0.00     0.176 C 
BRANCH  25  26
HETATM   26  C4  UNL     1      20.998 -50.903 -50.874  1.00  0.00     0.223 C 
HETATM   27  O2  UNL     1      20.649 -51.905 -51.520  1.00  0.00    -0.287 OA
BRANCH  26  28
HETATM   28  C3  UNL     1      21.756 -49.852 -51.549  1.00  0.00     0.287 C 
HETATM   29  N1  UNL     1      23.161 -49.774 -51.370  1.00  0.00    -0.355 N 
ATOM     30  H1  UNL     1      23.636 -50.450 -50.771  1.00  0.00     0.162 HD
HETATM   31  O1  UNL     1      21.198 -49.007 -52.290  1.00  0.00    -0.264 OA
BRANCH  29  32
HETATM   32  C2  UNL     1      23.912 -48.751 -52.026  1.00  0.00     0.118 C 
HETATM   33  C1  UNL     1      25.122 -49.319 -52.724  1.00  0.00     0.026 C 
ENDBRANCH  29  32
ENDBRANCH  26  28
ENDBRANCH  25  26
ENDBRANCH  23  25
ENDBRANCH  16  23
ENDBRANCH  13  15
ENDBRANCH  10  12
ENDBRANCH   7  10
ENDBRANCH   1   7
BRANCH   6  34
HETATM   34  N12 UNL     1      17.414 -57.915 -52.414  1.00  0.00    -0.191 N 
ATOM     35  H12 UNL     1      16.597 -57.974 -51.806  1.00  0.00     0.184 HD
BRANCH  34  36
HETATM   36  C19 UNL     1      18.582 -58.689 -52.138  1.00  0.00     0.676 C 
HETATM   37  N13 UNL     1      19.516 -58.286 -51.370  1.00  0.00    -0.224 N 
HETATM   38  C20 UNL     1      20.689 -59.017 -51.067  1.00  0.00     0.171 C 
ATOM     39  H13 UNL     1      19.409 -57.366 -50.941  1.00  0.00     0.177 HD
HETATM   40  C21 UNL     1      21.050 -60.158 -51.939  1.00  0.00     0.155 C 
HETATM   41  C22 UNL     1      20.036 -60.595 -52.935  1.00  0.00     0.174 C 
HETATM   42  N14 UNL     1      18.741 -59.992 -52.743  1.00  0.00    -0.220 N 
HETATM   43  C23 UNL     1      17.511 -60.676 -53.157  1.00  0.00     0.168 C 
BRANCH  40  44
HETATM   44  O8  UNL     1      21.375 -61.310 -51.173  1.00  0.00    -0.392 OA
ATOM     45  H8  UNL     1      20.594 -61.729 -50.833  1.00  0.00     0.210 HD
ENDBRANCH  40  44
ENDBRANCH  34  36
ENDBRANCH   6  34
BRANCH   4  46
HETATM   46  N7  UNL     1      16.899 -57.266 -57.211  1.00  0.00    -0.274 N 
HETATM   47  C14 UNL     1      15.579 -57.653 -57.768  1.00  0.00     0.344 C 
HETATM   48  O7  UNL     1      14.509 -57.618 -57.148  1.00  0.00    -0.245 OA
HETATM   49  N8  UNL     1      15.849 -58.040 -59.065  1.00  0.00    -0.224 N 
HETATM   50  C15 UNL     1      16.835 -56.989 -59.469  1.00  0.00     0.199 C 
HETATM   51  N11 UNL     1      15.720 -59.039 -59.968  1.00  0.00    -0.003 NA
HETATM   52  C16 UNL     1      17.787 -57.602 -58.364  1.00  0.00     0.227 C 
HETATM   53  N9  UNL     1      17.653 -58.992 -58.618  1.00  0.00    -0.297 N 
HETATM   54  N10 UNL     1      17.170 -59.453 -59.847  1.00  0.00    -0.011 NA
ATOM     55  H9  UNL     1      17.911 -59.664 -57.894  1.00  0.00     0.179 HD
ENDBRANCH   4  46
TORSDOF 13
ENDMDL
MODEL 3
REMARK VINA RESULT: -10.067721078      2.487      9.106
REMARK  13 active torsions:
REMARK  status: ('A' for Active; 'I' for Inactive)
REMARK    1  A    between atoms: C2_2  and  N1_3 
REMARK       I    between atoms: N1_3  and  C3_5 
REMARK    2  A    between atoms: C3_5  and  C4_7 
REMARK    3  A    between atoms: C4_7  and  C5_9 
REMARK    4  A    between atoms: C5_9  and  C6_10 
REMARK    5  A    between atoms: C6_10  and  C7_12 
REMARK    6  A    between atoms: N5_19  and  C8_20 
REMARK    7  A    between atoms: C9_22  and  N6_23 
REMARK    8  A    between atoms: N6_23  and  S1_25 
REMARK    9  A    between atoms: S1_25  and  C10_28 
REMARK   10  A    between atoms: C13_31  and  N7_32 
REMARK   11  A    between atoms: C18_43  and  N12_44 
REMARK   12  A    between atoms: N12_44  and  C19_46 
REMARK   13  A    between atoms: C21_50  and  O8_51 
ROOT
HETATM    1  C10 UNL     1      17.326 -57.458 -54.454  1.00  0.00     0.106 A 
HETATM    2  C11 UNL     1      17.197 -56.183 -54.958  1.00  0.00     0.030 A 
HETATM    3  C12 UNL     1      17.514 -55.107 -54.192  1.00  0.00     0.031 A 
HETATM    4  C13 UNL     1      17.979 -55.238 -52.877  1.00  0.00     0.043 A 
HETATM    5  C17 UNL     1      18.089 -56.531 -52.425  1.00  0.00     0.061 A 
HETATM    6  C18 UNL     1      17.784 -57.665 -53.151  1.00  0.00     0.074 A 
ENDROOT
BRANCH   1   7
HETATM    7  S1  UNL     1      16.945 -58.793 -55.481  1.00  0.00     0.263 S 
HETATM    8  O5  UNL     1      17.876 -59.956 -55.313  1.00  0.00    -0.200 OA
HETATM    9  O6  UNL     1      15.520 -59.204 -55.248  1.00  0.00    -0.200 OA
BRANCH   7  10
HETATM   10  N6  UNL     1      17.013 -58.343 -57.177  1.00  0.00    -0.283 N 
ATOM     11  H6  UNL     1      17.862 -58.246 -57.734  1.00  0.00     0.175 HD
BRANCH  10  12
HETATM   12  C9  UNL     1      15.653 -58.130 -57.654  1.00  0.00     0.284 A 
HETATM   13  C8  UNL     1      15.145 -58.803 -58.853  1.00  0.00     0.299 A 
HETATM   14  O4  UNL     1      15.597 -57.411 -58.860  1.00  0.00    -0.331 OA
BRANCH  13  15
HETATM   15  N5  UNL     1      13.692 -58.849 -58.971  1.00  0.00    -0.222 N 
HETATM   16  C7  UNL     1      12.943 -59.826 -58.437  1.00  0.00     0.189 A 
HETATM   17  N2  UNL     1      11.657 -59.509 -58.741  1.00  0.00    -0.265 N 
HETATM   18  N3  UNL     1      11.626 -58.386 -59.433  1.00  0.00    -0.226 N 
ATOM     19  H2  UNL     1      10.838 -60.057 -58.475  1.00  0.00     0.190 HD
HETATM   20  N4  UNL     1      12.871 -57.985 -59.573  1.00  0.00    -0.222 N 
ATOM     21  H3  UNL     1      10.795 -57.917 -59.792  1.00  0.00     0.210 HD
ATOM     22  H4  UNL     1      13.164 -57.141 -60.066  1.00  0.00     0.210 HD
BRANCH  16  23
HETATM   23  C6  UNL     1      13.380 -60.993 -57.675  1.00  0.00     0.203 C 
HETATM   24  O3  UNL     1      13.145 -61.039 -56.450  1.00  0.00    -0.289 OA
BRANCH  23  25
HETATM   25  C5  UNL     1      14.095 -62.120 -58.311  1.00  0.00     0.176 C 
BRANCH  25  26
HETATM   26  C4  UNL     1      15.351 -62.396 -57.567  1.00  0.00     0.223 C 
HETATM   27  O2  UNL     1      16.437 -62.128 -58.108  1.00  0.00    -0.287 OA
BRANCH  26  28
HETATM   28  C3  UNL     1      15.350 -62.974 -56.226  1.00  0.00     0.287 C 
HETATM   29  N1  UNL     1      15.978 -62.280 -55.161  1.00  0.00    -0.355 N 
ATOM     30  H1  UNL     1      16.428 -61.380 -55.335  1.00  0.00     0.162 HD
HETATM   31  O1  UNL     1      14.805 -64.079 -55.984  1.00  0.00    -0.264 OA
BRANCH  29  32
HETATM   32  C2  UNL     1      15.981 -62.836 -53.845  1.00  0.00     0.118 C 
HETATM   33  C1  UNL     1      17.204 -62.412 -53.072  1.00  0.00     0.026 C 
ENDBRANCH  29  32
ENDBRANCH  26  28
ENDBRANCH  25  26
ENDBRANCH  23  25
ENDBRANCH  16  23
ENDBRANCH  13  15
ENDBRANCH  10  12
ENDBRANCH   7  10
ENDBRANCH   1   7
BRANCH   6  34
HETATM   34  N12 UNL     1      17.916 -58.967 -52.628  1.00  0.00    -0.191 N 
ATOM     35  H12 UNL     1      17.096 -59.561 -52.504  1.00  0.00     0.184 HD
BRANCH  34  36
HETATM   36  C19 UNL     1      19.216 -59.439 -52.273  1.00  0.00     0.676 C 
HETATM   37  N13 UNL     1      20.059 -59.857 -53.133  1.00  0.00    -0.224 N 
HETATM   38  C20 UNL     1      21.357 -60.333 -52.829  1.00  0.00     0.171 C 
ATOM     39  H13 UNL     1      19.777 -59.849 -54.114  1.00  0.00     0.177 HD
HETATM   40  C21 UNL     1      21.659 -60.707 -51.429  1.00  0.00     0.155 C 
HETATM   41  C22 UNL     1      20.650 -60.343 -50.400  1.00  0.00     0.174 C 
HETATM   42  N14 UNL     1      19.623 -59.456 -50.887  1.00  0.00    -0.220 N 
HETATM   43  C23 UNL     1      18.934 -58.520 -49.991  1.00  0.00     0.168 C 
BRANCH  40  44
HETATM   44  O8  UNL     1      22.888 -60.138 -50.997  1.00  0.00    -0.392 OA
ATOM     45  H8  UNL     1      23.542 -60.809 -50.842  1.00  0.00     0.210 HD
ENDBRANCH  40  44
ENDBRANCH  34  36
ENDBRANCH   6  34
BRANCH   4  46
HETATM   46  N7  UNL     1      18.314 -54.144 -52.101  1.00  0.00    -0.274 N 
HETATM   47  C14 UNL     1      17.538 -52.890 -51.934  1.00  0.00     0.344 C 
HETATM   48  O7  UNL     1      16.486 -52.623 -52.527  1.00  0.00    -0.245 OA
HETATM   49  N8  UNL     1      18.257 -52.156 -51.012  1.00  0.00    -0.224 N 
HETATM   50  C15 UNL     1      18.642 -53.229 -50.042  1.00  0.00     0.199 C 
HETATM   51  N11 UNL     1      18.859 -50.968 -50.775  1.00  0.00    -0.003 NA
HETATM   52  C16 UNL     1      19.489 -53.852 -51.226  1.00  0.00     0.227 C 
HETATM   53  N9  UNL     1      20.134 -52.699 -51.745  1.00  0.00    -0.297 N 
HETATM   54  N10 UNL     1      20.248 -51.534 -50.979  1.00  0.00    -0.011 NA
ATOM     55  H9  UNL     1      20.521 -52.721 -52.689  1.00  0.00     0.179 HD
ENDBRANCH   4  46
TORSDOF 13
ENDMDL
MODEL 4
REMARK VINA RESULT: -9.992653938      3.589      7.098
REMARK  13 active torsions:
REMARK  status: ('A' for Active; 'I' for Inactive)
REMARK    1  A    between atoms: C2_2  and  N1_3 
REMARK       I    between atoms: N1_3  and  C3_5 
REMARK    2  A    between atoms: C3_5  and  C4_7 
REMARK    3  A    between atoms: C4_7  and  C5_9 
REMARK    4  A    between atoms: C5_9  and  C6_10 
REMARK    5  A    between atoms: C6_10  and  C7_12 
REMARK    6  A    between atoms: N5_19  and  C8_20 
REMARK    7  A    between atoms: C9_22  and  N6_23 
REMARK    8  A    between atoms: N6_23  and  S1_25 
REMARK    9  A    between atoms: S1_25  and  C10_28 
REMARK   10  A    between atoms: C13_31  and  N7_32 
REMARK   11  A    between atoms: C18_43  and  N12_44 
REMARK   12  A    between atoms: N12_44  and  C19_46 
REMARK   13  A    between atoms: C21_50  and  O8_51 
ROOT
HETATM    1  C10 UNL     1      17.626 -55.650 -53.472  1.00  0.00     0.106 A 
HETATM    2  C11 UNL     1      17.623 -54.840 -54.586  1.00  0.00     0.030 A 
HETATM    3  C12 UNL     1      17.384 -55.366 -55.816  1.00  0.00     0.031 A 
HETATM    4  C13 UNL     1      17.132 -56.730 -56.008  1.00  0.00     0.043 A 
HETATM    5  C17 UNL     1      17.147 -57.492 -54.865  1.00  0.00     0.061 A 
HETATM    6  C18 UNL     1      17.383 -57.021 -53.588  1.00  0.00     0.074 A 
ENDROOT
BRANCH   1   7
HETATM    7  S1  UNL     1      17.899 -54.927 -51.928  1.00  0.00     0.263 S 
HETATM    8  O5  UNL     1      17.409 -53.513 -51.839  1.00  0.00    -0.200 OA
HETATM    9  O6  UNL     1      17.273 -55.784 -50.865  1.00  0.00    -0.200 OA
BRANCH   7  10
HETATM   10  N6  UNL     1      19.609 -54.888 -51.527  1.00  0.00    -0.283 N 
ATOM     11  H6  UNL     1      20.378 -54.959 -52.192  1.00  0.00     0.175 HD
BRANCH  10  12
HETATM   12  C9  UNL     1      19.742 -54.736 -50.084  1.00  0.00     0.284 A 
HETATM   13  C8  UNL     1      21.014 -54.354 -49.465  1.00  0.00     0.299 A 
HETATM   14  O4  UNL     1      20.533 -55.737 -49.495  1.00  0.00    -0.331 OA
BRANCH  13  15
HETATM   15  N5  UNL     1      20.913 -53.826 -48.110  1.00  0.00    -0.222 N 
HETATM   16  C7  UNL     1      21.138 -52.539 -47.805  1.00  0.00     0.189 A 
HETATM   17  N2  UNL     1      20.928 -52.437 -46.467  1.00  0.00    -0.265 N 
HETATM   18  N3  UNL     1      20.590 -53.616 -45.978  1.00  0.00    -0.226 N 
ATOM     19  H2  UNL     1      21.018 -51.579 -45.921  1.00  0.00     0.190 HD
HETATM   20  N4  UNL     1      20.581 -54.463 -46.984  1.00  0.00    -0.222 N 
ATOM     21  H3  UNL     1      20.375 -53.830 -45.004  1.00  0.00     0.210 HD
ATOM     22  H4  UNL     1      20.356 -55.455 -46.914  1.00  0.00     0.210 HD
BRANCH  16  23
HETATM   23  C6  UNL     1      21.520 -51.447 -48.697  1.00  0.00     0.203 C 
HETATM   24  O3  UNL     1      20.636 -50.682 -49.131  1.00  0.00    -0.289 OA
BRANCH  23  25
HETATM   25  C5  UNL     1      22.924 -51.224 -49.103  1.00  0.00     0.176 C 
BRANCH  25  26
HETATM   26  C4  UNL     1      23.719 -50.786 -47.927  1.00  0.00     0.223 C 
HETATM   27  O2  UNL     1      23.622 -49.608 -47.544  1.00  0.00    -0.287 OA
BRANCH  26  28
HETATM   28  C3  UNL     1      24.612 -51.694 -47.211  1.00  0.00     0.287 C 
HETATM   29  N1  UNL     1      25.990 -51.731 -47.542  1.00  0.00    -0.355 N 
ATOM     30  H1  UNL     1      26.353 -51.124 -48.278  1.00  0.00     0.162 HD
HETATM   31  O1  UNL     1      24.193 -52.451 -46.301  1.00  0.00    -0.264 OA
BRANCH  29  32
HETATM   32  C2  UNL     1      26.872 -52.614 -46.847  1.00  0.00     0.118 C 
HETATM   33  C1  UNL     1      27.959 -53.133 -47.754  1.00  0.00     0.026 C 
ENDBRANCH  29  32
ENDBRANCH  26  28
ENDBRANCH  25  26
ENDBRANCH  23  25
ENDBRANCH  16  23
ENDBRANCH  13  15
ENDBRANCH  10  12
ENDBRANCH   7  10
ENDBRANCH   1   7
BRANCH   6  34
HETATM   34  N12 UNL     1      17.387 -57.856 -52.453  1.00  0.00    -0.191 N 
ATOM     35  H12 UNL     1      16.570 -57.908 -51.845  1.00  0.00     0.184 HD
BRANCH  34  36
HETATM   36  C19 UNL     1      18.555 -58.627 -52.169  1.00  0.00     0.676 C 
HETATM   37  N13 UNL     1      19.505 -58.200 -51.435  1.00  0.00    -0.224 N 
HETATM   38  C20 UNL     1      20.679 -58.927 -51.125  1.00  0.00     0.171 C 
ATOM     39  H13 UNL     1      19.412 -57.263 -51.040  1.00  0.00     0.177 HD
HETATM   40  C21 UNL     1      21.018 -60.103 -51.958  1.00  0.00     0.155 C 
HETATM   41  C22 UNL     1      19.983 -60.572 -52.918  1.00  0.00     0.174 C 
HETATM   42  N14 UNL     1      18.695 -59.953 -52.725  1.00  0.00    -0.220 N 
HETATM   43  C23 UNL     1      17.453 -60.645 -53.090  1.00  0.00     0.168 C 
BRANCH  40  44
HETATM   44  O8  UNL     1      21.350 -61.227 -51.154  1.00  0.00    -0.392 OA
ATOM     45  H8  UNL     1      20.763 -61.955 -51.319  1.00  0.00     0.210 HD
ENDBRANCH  40  44
ENDBRANCH  34  36
ENDBRANCH   6  34
BRANCH   4  46
HETATM   46  N7  UNL     1      16.876 -57.264 -57.258  1.00  0.00    -0.274 N 
HETATM   47  C14 UNL     1      15.565 -57.703 -57.795  1.00  0.00     0.344 C 
HETATM   48  O7  UNL     1      14.503 -57.705 -57.162  1.00  0.00    -0.245 OA
HETATM   49  N8  UNL     1      15.831 -58.085 -59.095  1.00  0.00    -0.224 N 
HETATM   50  C15 UNL     1      16.771 -56.999 -59.516  1.00  0.00     0.199 C 
HETATM   51  N11 UNL     1      15.727 -59.092 -59.992  1.00  0.00    -0.003 NA
HETATM   52  C16 UNL     1      17.761 -57.571 -58.422  1.00  0.00     0.227 C 
HETATM   53  N9  UNL     1      17.676 -58.966 -58.669  1.00  0.00    -0.297 N 
HETATM   54  N10 UNL     1      17.194 -59.451 -59.889  1.00  0.00    -0.011 NA
ATOM     55  H9  UNL     1      17.969 -59.624 -57.946  1.00  0.00     0.179 HD
ENDBRANCH   4  46
TORSDOF 13
ENDMDL
MODEL 5
REMARK VINA RESULT: -9.982578719      4.042      7.989
REMARK  13 active torsions:
REMARK  status: ('A' for Active; 'I' for Inactive)
REMARK    1  A    between atoms: C2_2  and  N1_3 
REMARK       I    between atoms: N1_3  and  C3_5 
REMARK    2  A    between atoms: C3_5  and  C4_7 
REMARK    3  A    between atoms: C4_7  and  C5_9 
REMARK    4  A    between atoms: C5_9  and  C6_10 
REMARK    5  A    between atoms: C6_10  and  C7_12 
REMARK    6  A    between atoms: N5_19  and  C8_20 
REMARK    7  A    between atoms: C9_22  and  N6_23 
REMARK    8  A    between atoms: N6_23  and  S1_25 
REMARK    9  A    between atoms: S1_25  and  C10_28 
REMARK   10  A    between atoms: C13_31  and  N7_32 
REMARK   11  A    between atoms: C18_43  and  N12_44 
REMARK   12  A    between atoms: N12_44  and  C19_46 
REMARK   13  A    between atoms: C21_50  and  O8_51 
ROOT
HETATM    1  C10 UNL     1      18.055 -55.381 -51.979  1.00  0.00     0.106 A 
HETATM    2  C11 UNL     1      18.037 -54.254 -52.770  1.00  0.00     0.030 A 
HETATM    3  C12 UNL     1      17.648 -54.334 -54.069  1.00  0.00     0.031 A 
HETATM    4  C13 UNL     1      17.254 -55.542 -54.657  1.00  0.00     0.043 A 
HETATM    5  C17 UNL     1      17.290 -56.634 -53.825  1.00  0.00     0.061 A 
HETATM    6  C18 UNL     1      17.674 -56.621 -52.498  1.00  0.00     0.074 A 
ENDROOT
BRANCH   1   7
HETATM    7  S1  UNL     1      18.521 -55.221 -50.324  1.00  0.00     0.263 S 
HETATM    8  O5  UNL     1      17.525 -55.804 -49.367  1.00  0.00    -0.200 OA
HETATM    9  O6  UNL     1      19.878 -55.834 -50.132  1.00  0.00    -0.200 OA
BRANCH   7  10
HETATM   10  N6  UNL     1      18.720 -53.536 -49.870  1.00  0.00    -0.283 N 
ATOM     11  H6  UNL     1      18.192 -52.750 -50.250  1.00  0.00     0.175 HD
BRANCH  10  12
HETATM   12  C9  UNL     1      19.765 -53.449 -48.859  1.00  0.00     0.284 A 
HETATM   13  C8  UNL     1      20.009 -52.215 -48.109  1.00  0.00     0.299 A 
HETATM   14  O4  UNL     1      20.838 -52.626 -49.243  1.00  0.00    -0.331 OA
BRANCH  13  15
HETATM   15  N5  UNL     1      20.757 -52.378 -46.868  1.00  0.00    -0.222 N 
HETATM   16  C7  UNL     1      21.576 -51.436 -46.375  1.00  0.00     0.189 A 
HETATM   17  N2  UNL     1      22.065 -51.946 -45.214  1.00  0.00    -0.265 N 
HETATM   18  N3  UNL     1      21.563 -53.150 -45.010  1.00  0.00    -0.226 N 
ATOM     19  H2  UNL     1      22.720 -51.470 -44.593  1.00  0.00     0.190 HD
HETATM   20  N4  UNL     1      20.765 -53.412 -46.022  1.00  0.00    -0.222 N 
ATOM     21  H3  UNL     1      21.758 -53.761 -44.218  1.00  0.00     0.210 HD
ATOM     22  H4  UNL     1      20.233 -54.274 -46.143  1.00  0.00     0.210 HD
BRANCH  16  23
HETATM   23  C6  UNL     1      21.893 -50.124 -46.934  1.00  0.00     0.203 C 
HETATM   24  O3  UNL     1      21.215 -49.137 -46.585  1.00  0.00    -0.289 OA
BRANCH  23  25
HETATM   25  C5  UNL     1      22.992 -49.933 -47.904  1.00  0.00     0.176 C 
BRANCH  25  26
HETATM   26  C4  UNL     1      24.298 -50.008 -47.199  1.00  0.00     0.223 C 
HETATM   27  O2  UNL     1      24.640 -49.061 -46.471  1.00  0.00    -0.287 OA
BRANCH  26  28
HETATM   28  C3  UNL     1      25.191 -51.156 -47.337  1.00  0.00     0.287 C 
HETATM   29  N1  UNL     1      26.341 -51.056 -48.162  1.00  0.00    -0.355 N 
ATOM     30  H1  UNL     1      26.539 -50.185 -48.656  1.00  0.00     0.162 HD
HETATM   31  O1  UNL     1      24.971 -52.239 -46.743  1.00  0.00    -0.264 OA
BRANCH  29  32
HETATM   32  C2  UNL     1      27.221 -52.172 -48.304  1.00  0.00     0.118 C 
HETATM   33  C1  UNL     1      27.579 -52.411 -49.749  1.00  0.00     0.026 C 
ENDBRANCH  29  32
ENDBRANCH  26  28
ENDBRANCH  25  26
ENDBRANCH  23  25
ENDBRANCH  16  23
ENDBRANCH  13  15
ENDBRANCH  10  12
ENDBRANCH   7  10
ENDBRANCH   1   7
BRANCH   6  34
HETATM   34  N12 UNL     1      17.692 -57.779 -51.695  1.00  0.00    -0.191 N 
ATOM     35  H12 UNL     1      16.939 -57.963 -51.033  1.00  0.00     0.184 HD
BRANCH  34  36
HETATM   36  C19 UNL     1      18.784 -58.691 -51.826  1.00  0.00     0.676 C 
HETATM   37  N13 UNL     1      19.851 -58.597 -51.134  1.00  0.00    -0.224 N 
HETATM   38  C20 UNL     1      20.957 -59.476 -51.228  1.00  0.00     0.171 C 
ATOM     39  H13 UNL     1      19.912 -57.831 -50.463  1.00  0.00     0.177 HD
HETATM   40  C21 UNL     1      21.063 -60.348 -52.420  1.00  0.00     0.155 C 
HETATM   41  C22 UNL     1      19.883 -60.402 -53.324  1.00  0.00     0.174 C 
HETATM   42  N14 UNL     1      18.706 -59.777 -52.775  1.00  0.00    -0.220 N 
HETATM   43  C23 UNL     1      17.359 -60.215 -53.159  1.00  0.00     0.168 C 
BRANCH  40  44
HETATM   44  O8  UNL     1      21.343 -61.692 -52.053  1.00  0.00    -0.392 OA
ATOM     45  H8  UNL     1      20.593 -62.254 -52.206  1.00  0.00     0.210 HD
ENDBRANCH  40  44
ENDBRANCH  34  36
ENDBRANCH   6  34
BRANCH   4  46
HETATM   46  N7  UNL     1      16.846 -55.621 -55.976  1.00  0.00    -0.274 N 
HETATM   47  C14 UNL     1      17.527 -55.046 -57.162  1.00  0.00     0.344 C 
HETATM   48  O7  UNL     1      18.549 -54.351 -57.126  1.00  0.00    -0.245 OA
HETATM   49  N8  UNL     1      16.766 -55.462 -58.237  1.00  0.00    -0.224 N 
HETATM   50  C15 UNL     1      16.474 -56.875 -57.839  1.00  0.00     0.199 C 
HETATM   51  N11 UNL     1      16.078 -55.050 -59.326  1.00  0.00    -0.003 NA
HETATM   52  C16 UNL     1      15.662 -56.259 -56.628  1.00  0.00     0.227 C 
HETATM   53  N9  UNL     1      14.926 -55.233 -57.276  1.00  0.00    -0.297 N 
HETATM   54  N10 UNL     1      14.734 -55.254 -58.662  1.00  0.00    -0.011 NA
ATOM     55  H9  UNL     1      14.532 -54.470 -56.724  1.00  0.00     0.179 HD
ENDBRANCH   4  46
TORSDOF 13
ENDMDL
