MODEL 1
REMARK VINA RESULT: -10.569904393      0.000      0.000
REMARK  16 active torsions:
REMARK  status: ('A' for Active; 'I' for Inactive)
REMARK    1  A    between atoms: N3_7  and  C3_8 
REMARK    2  A    between atoms: C4_14  and  N6_15 
REMARK    3  A    between atoms: C5_18  and  C6_19 
REMARK    4  A    between atoms: N7_21  and  C8_22 
REMARK    5  A    between atoms: C8_22  and  C9_23 
REMARK    6  A    between atoms: C9_23  and  O2_24 
REMARK    7  A    between atoms: C9_23  and  N8_26 
REMARK    8  A    between atoms: N8_26  and  C10_28 
REMARK    9  A    between atoms: C10_28  and  C11_29 
REMARK   10  A    between atoms: C14_32  and  C15_33 
REMARK   11  A    between atoms: C15_33  and  O3_34 
REMARK   12  A    between atoms: C15_33  and  C16_36 
REMARK       I    between atoms: C16_36  and  N9_38 
REMARK   13  A    between atoms: N9_38  and  C17_40 
REMARK   14  A    between atoms: C17_40  and  C18_41 
REMARK   15  A    between atoms: N10_43  and  S1_44 
REMARK   16  A    between atoms: N11_51  and  O8_52 
ROOT
HETATM    1  N8  UNL     1      18.498 -59.599 -51.917  1.00  0.00    -0.390 N 
ATOM      2  H8  UNL     1      17.740 -59.602 -51.234  1.00  0.00     0.156 HD
ENDROOT
BRANCH   1   3
HETATM    3  C9  UNL     1      18.314 -60.036 -53.258  1.00  0.00     0.233 C 
BRANCH   3   4
HETATM    4  C8  UNL     1      17.737 -58.972 -54.163  1.00  0.00     0.202 C 
BRANCH   4   5
HETATM    5  N7  UNL     1      17.544 -59.549 -55.480  1.00  0.00    -0.283 N 
HETATM    6  C7  UNL     1      16.348 -59.739 -56.137  1.00  0.00     0.145 A 
HETATM    7  C6  UNL     1      16.592 -60.309 -57.347  1.00  0.00     0.097 A 
HETATM    8  N15 UNL     1      17.922 -60.458 -57.414  1.00  0.00    -0.282 N 
HETATM    9  N14 UNL     1      18.449 -60.009 -56.316  1.00  0.00    -0.240 N 
ATOM     10  H15 UNL     1      18.436 -60.859 -58.198  1.00  0.00     0.188 HD
ATOM     11  H14 UNL     1      19.451 -60.013 -56.125  1.00  0.00     0.208 HD
BRANCH   7  12
HETATM   12  C5  UNL     1      15.663 -60.704 -58.395  1.00  0.00     0.113 A 
HETATM   13  C2  UNL     1      14.692 -61.714 -58.226  1.00  0.00     0.054 A 
HETATM   14  C1  UNL     1      14.480 -62.499 -56.970  1.00  0.00     0.072 C 
HETATM   15  N1  UNL     1      14.048 -61.797 -59.377  1.00  0.00    -0.288 N 
HETATM   16  N2  UNL     1      14.547 -60.928 -60.218  1.00  0.00    -0.234 N 
ATOM     17  H1  UNL     1      13.281 -62.438 -59.578  1.00  0.00     0.188 HD
HETATM   18  N3  UNL     1      15.552 -60.233 -59.639  1.00  0.00    -0.216 N 
ATOM     19  H2  UNL     1      14.224 -60.794 -61.176  1.00  0.00     0.209 HD
BRANCH  18  20
HETATM   20  C3  UNL     1      16.299 -59.219 -60.298  1.00  0.00     0.196 A 
HETATM   21  N4  UNL     1      17.579 -59.233 -60.721  1.00  0.00    -0.220 N 
HETATM   22  O1  UNL     1      17.903 -58.095 -61.252  1.00  0.00    -0.153 OA
ATOM     23  H4  UNL     1      18.208 -60.031 -60.635  1.00  0.00     0.198 HD
HETATM   24  N5  UNL     1      16.874 -57.314 -61.199  1.00  0.00    -0.222 N 
HETATM   25  C4  UNL     1      15.839 -57.933 -60.623  1.00  0.00     0.169 A 
ATOM     26  H5  UNL     1      16.854 -56.357 -61.550  1.00  0.00     0.198 HD
BRANCH  25  27
HETATM   27  N6  UNL     1      14.646 -57.488 -60.387  1.00  0.00    -0.381 N 
ATOM     28  H62 UNL     1      14.247 -57.139 -59.516  1.00  0.00     0.157 HD
ATOM     29  H61 UNL     1      13.898 -57.422 -61.078  1.00  0.00     0.157 HD
ENDBRANCH  25  27
ENDBRANCH  18  20
ENDBRANCH   7  12
ENDBRANCH   4   5
ENDBRANCH   3   4
BRANCH   3  30
HETATM   30  O2  UNL     1      19.562 -60.391 -53.770  1.00  0.00    -0.375 OA
ATOM     31  H2  UNL     1      20.064 -60.774 -53.060  1.00  0.00     0.212 HD
ENDBRANCH   3  30
ENDBRANCH   1   3
BRANCH   1  32
HETATM   32  C10 UNL     1      19.829 -59.151 -51.587  1.00  0.00     0.175 C 
BRANCH  32  33
HETATM   33  C11 UNL     1      19.688 -57.844 -50.856  1.00  0.00     0.043 A 
HETATM   34  C12 UNL     1      18.596 -57.022 -51.135  1.00  0.00     0.030 A 
HETATM   35  C13 UNL     1      18.478 -55.826 -50.461  1.00  0.00     0.032 A 
HETATM   36  C14 UNL     1      19.413 -55.435 -49.529  1.00  0.00     0.063 A 
HETATM   37  N12 UNL     1      20.441 -56.262 -49.303  1.00  0.00    -0.302 N 
HETATM   38  N13 UNL     1      20.572 -57.420 -49.941  1.00  0.00    -0.303 N 
ATOM     39  H12 UNL     1      21.147 -55.994 -48.618  1.00  0.00     0.186 HD
ATOM     40  H13 UNL     1      21.377 -58.009 -49.727  1.00  0.00     0.186 HD
BRANCH  36  41
HETATM   41  C15 UNL     1      19.272 -54.150 -48.806  1.00  0.00     0.260 C 
BRANCH  41  42
HETATM   42  O3  UNL     1      19.230 -54.369 -47.424  1.00  0.00    -0.380 OA
ATOM     43  H3  UNL     1      18.857 -55.222 -47.235  1.00  0.00     0.211 HD
ENDBRANCH  41  42
BRANCH  41  44
HETATM   44  C16 UNL     1      20.350 -53.195 -49.145  1.00  0.00     0.252 C 
HETATM   45  O4  UNL     1      21.274 -53.536 -49.924  1.00  0.00    -0.270 OA
HETATM   46  N9  UNL     1      20.370 -51.886 -48.604  1.00  0.00    -0.357 N 
ATOM     47  H9  UNL     1      19.618 -51.611 -47.971  1.00  0.00     0.162 HD
BRANCH  46  48
HETATM   48  C17 UNL     1      21.400 -50.921 -48.901  1.00  0.00     0.146 C 
BRANCH  48  49
HETATM   49  C18 UNL     1      22.343 -50.768 -47.749  1.00  0.00     0.120 C 
HETATM   50  C19 UNL     1      23.528 -51.721 -47.859  1.00  0.00     0.136 C 
HETATM   51  N10 UNL     1      23.849 -52.045 -46.505  1.00  0.00    -0.166 NA
HETATM   52  C20 UNL     1      22.927 -51.377 -45.649  1.00  0.00     0.102 C 
HETATM   53  C21 UNL     1      22.599 -52.191 -44.408  1.00  0.00     0.053 C 
HETATM   54  C22 UNL     1      23.304 -49.988 -45.241  1.00  0.00     0.053 C 
HETATM   55  N11 UNL     1      21.735 -51.256 -46.501  1.00  0.00    -0.168 NA
BRANCH  51  56
HETATM   56  S1  UNL     1      25.491 -51.908 -46.089  1.00  0.00     0.187 S 
HETATM   57  O5  UNL     1      25.906 -52.876 -45.031  1.00  0.00    -0.582 OA
HETATM   58  O6  UNL     1      25.857 -50.531 -45.603  1.00  0.00    -0.582 OA
HETATM   59  O7  UNL     1      26.386 -52.143 -47.518  1.00  0.00    -0.582 OA
ENDBRANCH  51  56
BRANCH  55  60
HETATM   60  O8  UNL     1      20.853 -50.378 -46.007  1.00  0.00    -0.311 OA
ATOM     61  H8  UNL     1      20.120 -50.817 -45.591  1.00  0.00     0.237 HD
ENDBRANCH  55  60
ENDBRANCH  48  49
ENDBRANCH  46  48
ENDBRANCH  41  44
ENDBRANCH  36  41
ENDBRANCH  32  33
ENDBRANCH   1  32
TORSDOF 16
ENDMDL
MODEL 2
REMARK VINA RESULT: -10.424994370      3.411     13.738
REMARK  16 active torsions:
REMARK  status: ('A' for Active; 'I' for Inactive)
REMARK    1  A    between atoms: N3_7  and  C3_8 
REMARK    2  A    between atoms: C4_14  and  N6_15 
REMARK    3  A    between atoms: C5_18  and  C6_19 
REMARK    4  A    between atoms: N7_21  and  C8_22 
REMARK    5  A    between atoms: C8_22  and  C9_23 
REMARK    6  A    between atoms: C9_23  and  O2_24 
REMARK    7  A    between atoms: C9_23  and  N8_26 
REMARK    8  A    between atoms: N8_26  and  C10_28 
REMARK    9  A    between atoms: C10_28  and  C11_29 
REMARK   10  A    between atoms: C14_32  and  C15_33 
REMARK   11  A    between atoms: C15_33  and  O3_34 
REMARK   12  A    between atoms: C15_33  and  C16_36 
REMARK       I    between atoms: C16_36  and  N9_38 
REMARK   13  A    between atoms: N9_38  and  C17_40 
REMARK   14  A    between atoms: C17_40  and  C18_41 
REMARK   15  A    between atoms: N10_43  and  S1_44 
REMARK   16  A    between atoms: N11_51  and  O8_52 
ROOT
HETATM    1  N8  UNL     1      18.465 -56.965 -51.308  1.00  0.00    -0.390 N 
ATOM      2  H8  UNL     1      17.603 -56.883 -51.849  1.00  0.00     0.156 HD
ENDROOT
BRANCH   1   3
HETATM    3  C9  UNL     1      18.698 -56.202 -50.130  1.00  0.00     0.233 C 
BRANCH   3   4
HETATM    4  C8  UNL     1      19.834 -55.215 -50.269  1.00  0.00     0.202 C 
BRANCH   4   5
HETATM    5  N7  UNL     1      19.916 -54.439 -49.046  1.00  0.00    -0.283 N 
HETATM    6  C7  UNL     1      20.400 -53.156 -48.906  1.00  0.00     0.145 A 
HETATM    7  C6  UNL     1      20.308 -52.787 -47.601  1.00  0.00     0.097 A 
HETATM    8  N15 UNL     1      19.776 -53.840 -46.965  1.00  0.00    -0.282 N 
HETATM    9  N14 UNL     1      19.559 -54.784 -47.828  1.00  0.00    -0.240 N 
ATOM     10  H15 UNL     1      19.574 -53.890 -45.967  1.00  0.00     0.188 HD
ATOM     11  H14 UNL     1      19.157 -55.690 -47.589  1.00  0.00     0.208 HD
BRANCH   7  12
HETATM   12  C5  UNL     1      20.690 -51.539 -46.956  1.00  0.00     0.113 A 
HETATM   13  C2  UNL     1      19.933 -50.353 -47.063  1.00  0.00     0.054 A 
HETATM   14  C1  UNL     1      18.657 -50.214 -47.832  1.00  0.00     0.072 C 
HETATM   15  N1  UNL     1      20.583 -49.442 -46.360  1.00  0.00    -0.288 N 
HETATM   16  N2  UNL     1      21.659 -49.977 -45.844  1.00  0.00    -0.234 N 
ATOM     17  H1  UNL     1      20.291 -48.472 -46.239  1.00  0.00     0.188 HD
HETATM   18  N3  UNL     1      21.754 -51.279 -46.195  1.00  0.00    -0.216 N 
ATOM     19  H2  UNL     1      22.332 -49.482 -45.259  1.00  0.00     0.209 HD
BRANCH  18  20
HETATM   20  C3  UNL     1      22.817 -52.135 -45.795  1.00  0.00     0.196 A 
HETATM   21  N4  UNL     1      24.056 -52.263 -46.310  1.00  0.00    -0.220 N 
HETATM   22  O1  UNL     1      24.726 -53.180 -45.681  1.00  0.00    -0.153 OA
ATOM     23  H4  UNL     1      24.419 -51.714 -47.089  1.00  0.00     0.198 HD
HETATM   24  N5  UNL     1      23.969 -53.671 -44.755  1.00  0.00    -0.222 N 
HETATM   25  C4  UNL     1      22.771 -53.080 -44.758  1.00  0.00     0.169 A 
ATOM     26  H5  UNL     1      24.249 -54.410 -44.110  1.00  0.00     0.198 HD
BRANCH  25  27
HETATM   27  N6  UNL     1      21.749 -53.294 -43.992  1.00  0.00    -0.381 N 
ATOM     28  H62 UNL     1      20.937 -53.892 -44.150  1.00  0.00     0.157 HD
ATOM     29  H61 UNL     1      21.606 -52.872 -43.074  1.00  0.00     0.157 HD
ENDBRANCH  25  27
ENDBRANCH  18  20
ENDBRANCH   7  12
ENDBRANCH   4   5
ENDBRANCH   3   4
BRANCH   3  30
HETATM   30  O2  UNL     1      17.542 -55.475 -49.852  1.00  0.00    -0.375 OA
ATOM     31  H2  UNL     1      16.926 -56.065 -49.432  1.00  0.00     0.212 HD
ENDBRANCH   3  30
ENDBRANCH   1   3
BRANCH   1  32
HETATM   32  C10 UNL     1      19.529 -57.862 -51.687  1.00  0.00     0.175 C 
BRANCH  32  33
HETATM   33  C11 UNL     1      18.887 -59.075 -52.305  1.00  0.00     0.043 A 
HETATM   34  C12 UNL     1      19.407 -60.338 -52.023  1.00  0.00     0.030 A 
HETATM   35  C13 UNL     1      18.812 -61.441 -52.596  1.00  0.00     0.032 A 
HETATM   36  C14 UNL     1      17.727 -61.314 -53.434  1.00  0.00     0.063 A 
HETATM   37  N12 UNL     1      17.272 -60.078 -53.669  1.00  0.00    -0.302 N 
HETATM   38  N13 UNL     1      17.830 -59.002 -53.126  1.00  0.00    -0.303 N 
ATOM     39  H12 UNL     1      16.469 -59.958 -54.287  1.00  0.00     0.186 HD
ATOM     40  H13 UNL     1      17.439 -58.085 -53.343  1.00  0.00     0.186 HD
BRANCH  36  41
HETATM   41  C15 UNL     1      17.092 -62.509 -54.039  1.00  0.00     0.260 C 
BRANCH  41  42
HETATM   42  O3  UNL     1      16.611 -63.364 -53.040  1.00  0.00    -0.380 OA
ATOM     43  H3  UNL     1      15.944 -62.927 -52.524  1.00  0.00     0.211 HD
ENDBRANCH  41  42
BRANCH  41  44
HETATM   44  C16 UNL     1      16.008 -62.151 -54.979  1.00  0.00     0.252 C 
HETATM   45  O4  UNL     1      14.844 -61.949 -54.555  1.00  0.00    -0.270 OA
HETATM   46  N9  UNL     1      16.252 -62.028 -56.370  1.00  0.00    -0.357 N 
ATOM     47  H9  UNL     1      17.199 -62.191 -56.712  1.00  0.00     0.162 HD
BRANCH  46  48
HETATM   48  C17 UNL     1      15.228 -61.684 -57.326  1.00  0.00     0.146 C 
BRANCH  48  49
HETATM   49  C18 UNL     1      15.341 -60.250 -57.743  1.00  0.00     0.120 C 
HETATM   50  C19 UNL     1      16.163 -60.096 -59.017  1.00  0.00     0.136 C 
HETATM   51  N10 UNL     1      16.823 -58.839 -58.863  1.00  0.00    -0.166 NA
HETATM   52  C20 UNL     1      16.462 -58.290 -57.600  1.00  0.00     0.102 C 
HETATM   53  C21 UNL     1      17.597 -57.501 -56.969  1.00  0.00     0.053 C 
HETATM   54  C22 UNL     1      15.216 -57.462 -57.580  1.00  0.00     0.053 C 
HETATM   55  N11 UNL     1      16.180 -59.492 -56.802  1.00  0.00    -0.168 NA
BRANCH  51  56
HETATM   56  S1  UNL     1      16.715 -57.788 -60.195  1.00  0.00     0.187 S 
HETATM   57  O5  UNL     1      16.822 -56.350 -59.811  1.00  0.00    -0.582 OA
HETATM   58  O6  UNL     1      15.430 -57.950 -60.963  1.00  0.00    -0.582 OA
HETATM   59  O7  UNL     1      17.954 -58.228 -61.276  1.00  0.00    -0.582 OA
ENDBRANCH  51  56
BRANCH  55  60
HETATM   60  O8  UNL     1      15.517 -59.202 -55.675  1.00  0.00    -0.311 OA
ATOM     61  H8  UNL     1      15.854 -59.694 -54.936  1.00  0.00     0.237 HD
ENDBRANCH  55  60
ENDBRANCH  48  49
ENDBRANCH  46  48
ENDBRANCH  41  44
ENDBRANCH  36  41
ENDBRANCH  32  33
ENDBRANCH   1  32
TORSDOF 16
ENDMDL
MODEL 3
REMARK VINA RESULT: -10.376729408      2.986      5.160
REMARK  16 active torsions:
REMARK  status: ('A' for Active; 'I' for Inactive)
REMARK    1  A    between atoms: N3_7  and  C3_8 
REMARK    2  A    between atoms: C4_14  and  N6_15 
REMARK    3  A    between atoms: C5_18  and  C6_19 
REMARK    4  A    between atoms: N7_21  and  C8_22 
REMARK    5  A    between atoms: C8_22  and  C9_23 
REMARK    6  A    between atoms: C9_23  and  O2_24 
REMARK    7  A    between atoms: C9_23  and  N8_26 
REMARK    8  A    between atoms: N8_26  and  C10_28 
REMARK    9  A    between atoms: C10_28  and  C11_29 
REMARK   10  A    between atoms: C14_32  and  C15_33 
REMARK   11  A    between atoms: C15_33  and  O3_34 
REMARK   12  A    between atoms: C15_33  and  C16_36 
REMARK       I    between atoms: C16_36  and  N9_38 
REMARK   13  A    between atoms: N9_38  and  C17_40 
REMARK   14  A    between atoms: C17_40  and  C18_41 
REMARK   15  A    between atoms: N10_43  and  S1_44 
REMARK   16  A    between atoms: N11_51  and  O8_52 
ROOT
HETATM    1  N8  UNL     1      16.831 -55.409 -55.894  1.00  0.00    -0.390 N 
ATOM      2  H8  UNL     1      15.969 -55.758 -55.475  1.00  0.00     0.156 HD
ENDROOT
BRANCH   1   3
HETATM    3  C9  UNL     1      17.355 -55.939 -57.106  1.00  0.00     0.233 C 
BRANCH   3   4
HETATM    4  C8  UNL     1      16.687 -57.225 -57.537  1.00  0.00     0.202 C 
BRANCH   4   5
HETATM    5  N7  UNL     1      17.298 -58.322 -56.811  1.00  0.00    -0.283 N 
HETATM    6  C7  UNL     1      17.005 -58.736 -55.529  1.00  0.00     0.145 A 
HETATM    7  C6  UNL     1      17.796 -59.795 -55.213  1.00  0.00     0.097 A 
HETATM    8  N15 UNL     1      18.557 -60.012 -56.294  1.00  0.00    -0.282 N 
HETATM    9  N14 UNL     1      18.246 -59.143 -57.206  1.00  0.00    -0.240 N 
ATOM     10  H15 UNL     1      19.263 -60.742 -56.386  1.00  0.00     0.188 HD
ATOM     11  H14 UNL     1      18.687 -59.101 -58.125  1.00  0.00     0.208 HD
BRANCH   7  12
HETATM   12  C5  UNL     1      17.865 -60.573 -53.985  1.00  0.00     0.113 A 
HETATM   13  C2  UNL     1      18.724 -60.248 -52.913  1.00  0.00     0.054 A 
HETATM   14  C1  UNL     1      19.659 -59.081 -52.884  1.00  0.00     0.072 C 
HETATM   15  N1  UNL     1      18.516 -61.170 -51.988  1.00  0.00    -0.288 N 
HETATM   16  N2  UNL     1      17.612 -62.015 -52.412  1.00  0.00    -0.234 N 
ATOM     17  H1  UNL     1      18.988 -61.216 -51.085  1.00  0.00     0.188 HD
HETATM   18  N3  UNL     1      17.187 -61.672 -53.648  1.00  0.00    -0.216 N 
ATOM     19  H2  UNL     1      17.276 -62.820 -51.884  1.00  0.00     0.209 HD
BRANCH  18  20
HETATM   20  C3  UNL     1      16.210 -62.398 -54.383  1.00  0.00     0.196 A 
HETATM   21  N4  UNL     1      15.417 -61.990 -55.393  1.00  0.00    -0.220 N 
HETATM   22  O1  UNL     1      14.631 -62.948 -55.780  1.00  0.00    -0.153 OA
ATOM     23  H4  UNL     1      15.431 -61.054 -55.798  1.00  0.00     0.198 HD
HETATM   24  N5  UNL     1      14.877 -63.991 -55.057  1.00  0.00    -0.222 N 
HETATM   25  C4  UNL     1      15.840 -63.735 -54.168  1.00  0.00     0.169 A 
ATOM     26  H5  UNL     1      14.400 -64.888 -55.153  1.00  0.00     0.198 HD
BRANCH  25  27
HETATM   27  N6  UNL     1      16.360 -64.516 -53.274  1.00  0.00    -0.381 N 
ATOM     28  H62 UNL     1      16.452 -65.532 -53.280  1.00  0.00     0.157 HD
ATOM     29  H61 UNL     1      16.771 -64.207 -52.393  1.00  0.00     0.157 HD
ENDBRANCH  25  27
ENDBRANCH  18  20
ENDBRANCH   7  12
ENDBRANCH   4   5
ENDBRANCH   3   4
BRANCH   3  30
HETATM   30  O2  UNL     1      17.146 -54.999 -58.114  1.00  0.00    -0.375 OA
ATOM     31  H2  UNL     1      16.657 -54.278 -57.735  1.00  0.00     0.212 HD
ENDBRANCH   3  30
ENDBRANCH   1   3
BRANCH   1  32
HETATM   32  C10 UNL     1      17.601 -54.343 -55.300  1.00  0.00     0.175 C 
BRANCH  32  33
HETATM   33  C11 UNL     1      17.905 -54.754 -53.885  1.00  0.00     0.043 A 
HETATM   34  C12 UNL     1      17.362 -55.939 -53.387  1.00  0.00     0.030 A 
HETATM   35  C13 UNL     1      17.645 -56.303 -52.090  1.00  0.00     0.032 A 
HETATM   36  C14 UNL     1      18.446 -55.522 -51.286  1.00  0.00     0.063 A 
HETATM   37  N12 UNL     1      18.938 -54.396 -51.815  1.00  0.00    -0.302 N 
HETATM   38  N13 UNL     1      18.678 -54.027 -53.065  1.00  0.00    -0.303 N 
ATOM     39  H12 UNL     1      19.534 -53.801 -51.239  1.00  0.00     0.186 HD
ATOM     40  H13 UNL     1      19.082 -53.158 -53.413  1.00  0.00     0.186 HD
BRANCH  36  41
HETATM   41  C15 UNL     1      18.749 -55.928 -49.893  1.00  0.00     0.260 C 
BRANCH  41  42
HETATM   42  O3  UNL     1      19.001 -57.304 -49.830  1.00  0.00    -0.380 OA
ATOM     43  H3  UNL     1      19.825 -57.469 -49.388  1.00  0.00     0.211 HD
ENDBRANCH  41  42
BRANCH  41  44
HETATM   44  C16 UNL     1      19.882 -55.169 -49.323  1.00  0.00     0.252 C 
HETATM   45  O4  UNL     1      20.961 -55.070 -49.958  1.00  0.00    -0.270 OA
HETATM   46  N9  UNL     1      19.782 -54.539 -48.057  1.00  0.00    -0.357 N 
ATOM     47  H9  UNL     1      18.904 -54.620 -47.543  1.00  0.00     0.162 HD
BRANCH  46  48
HETATM   48  C17 UNL     1      20.859 -53.790 -47.457  1.00  0.00     0.146 C 
BRANCH  48  49
HETATM   49  C18 UNL     1      20.901 -52.391 -47.987  1.00  0.00     0.120 C 
HETATM   50  C19 UNL     1      22.328 -51.860 -48.064  1.00  0.00     0.136 C 
HETATM   51  N10 UNL     1      22.201 -50.461 -47.801  1.00  0.00    -0.166 NA
HETATM   52  C20 UNL     1      20.828 -50.170 -47.557  1.00  0.00     0.102 C 
HETATM   53  C21 UNL     1      20.647 -49.064 -46.531  1.00  0.00     0.053 C 
HETATM   54  C22 UNL     1      20.002 -49.860 -48.766  1.00  0.00     0.053 C 
HETATM   55  N11 UNL     1      20.325 -51.443 -47.021  1.00  0.00    -0.168 NA
BRANCH  51  56
HETATM   56  S1  UNL     1      23.001 -49.436 -48.896  1.00  0.00     0.187 S 
HETATM   57  O5  UNL     1      22.535 -48.020 -48.813  1.00  0.00    -0.582 OA
HETATM   58  O6  UNL     1      22.844 -49.874 -50.328  1.00  0.00    -0.582 OA
HETATM   59  O7  UNL     1      24.666 -49.554 -48.560  1.00  0.00    -0.582 OA
ENDBRANCH  51  56
BRANCH  55  60
HETATM   60  O8  UNL     1      18.988 -51.493 -47.019  1.00  0.00    -0.311 OA
ATOM     61  H8  UNL     1      18.673 -52.385 -46.935  1.00  0.00     0.237 HD
ENDBRANCH  55  60
ENDBRANCH  48  49
ENDBRANCH  46  48
ENDBRANCH  41  44
ENDBRANCH  36  41
ENDBRANCH  32  33
ENDBRANCH   1  32
TORSDOF 16
ENDMDL
MODEL 4
REMARK VINA RESULT: -10.371630283      3.996     14.125
REMARK  16 active torsions:
REMARK  status: ('A' for Active; 'I' for Inactive)
REMARK    1  A    between atoms: N3_7  and  C3_8 
REMARK    2  A    between atoms: C4_14  and  N6_15 
REMARK    3  A    between atoms: C5_18  and  C6_19 
REMARK    4  A    between atoms: N7_21  and  C8_22 
REMARK    5  A    between atoms: C8_22  and  C9_23 
REMARK    6  A    between atoms: C9_23  and  O2_24 
REMARK    7  A    between atoms: C9_23  and  N8_26 
REMARK    8  A    between atoms: N8_26  and  C10_28 
REMARK    9  A    between atoms: C10_28  and  C11_29 
REMARK   10  A    between atoms: C14_32  and  C15_33 
REMARK   11  A    between atoms: C15_33  and  O3_34 
REMARK   12  A    between atoms: C15_33  and  C16_36 
REMARK       I    between atoms: C16_36  and  N9_38 
REMARK   13  A    between atoms: N9_38  and  C17_40 
REMARK   14  A    between atoms: C17_40  and  C18_41 
REMARK   15  A    between atoms: N10_43  and  S1_44 
REMARK   16  A    between atoms: N11_51  and  O8_52 
ROOT
HETATM    1  N8  UNL     1      19.301 -56.112 -51.567  1.00  0.00    -0.390 N 
ATOM      2  H8  UNL     1      19.994 -55.774 -52.236  1.00  0.00     0.156 HD
ENDROOT
BRANCH   1   3
HETATM    3  C9  UNL     1      19.286 -55.690 -50.209  1.00  0.00     0.233 C 
BRANCH   3   4
HETATM    4  C8  UNL     1      20.659 -55.365 -49.666  1.00  0.00     0.202 C 
BRANCH   4   5
HETATM    5  N7  UNL     1      20.504 -54.449 -48.551  1.00  0.00    -0.283 N 
HETATM    6  C7  UNL     1      21.145 -53.243 -48.370  1.00  0.00     0.145 A 
HETATM    7  C6  UNL     1      20.729 -52.690 -47.201  1.00  0.00     0.097 A 
HETATM    8  N15 UNL     1      19.847 -53.557 -46.685  1.00  0.00    -0.282 N 
HETATM    9  N14 UNL     1      19.736 -54.569 -47.490  1.00  0.00    -0.240 N 
ATOM     10  H15 UNL     1      19.345 -53.441 -45.806  1.00  0.00     0.188 HD
ATOM     11  H14 UNL     1      19.123 -55.366 -47.319  1.00  0.00     0.208 HD
BRANCH   7  12
HETATM   12  C5  UNL     1      21.115 -51.434 -46.574  1.00  0.00     0.113 A 
HETATM   13  C2  UNL     1      20.433 -50.219 -46.797  1.00  0.00     0.054 A 
HETATM   14  C1  UNL     1      19.240 -50.053 -47.684  1.00  0.00     0.072 C 
HETATM   15  N1  UNL     1      21.064 -49.309 -46.075  1.00  0.00    -0.288 N 
HETATM   16  N2  UNL     1      22.060 -49.872 -45.441  1.00  0.00    -0.234 N 
ATOM     17  H1  UNL     1      20.813 -48.322 -46.019  1.00  0.00     0.188 HD
HETATM   18  N3  UNL     1      22.119 -51.191 -45.729  1.00  0.00    -0.216 N 
ATOM     19  H2  UNL     1      22.703 -49.385 -44.817  1.00  0.00     0.209 HD
BRANCH  18  20
HETATM   20  C3  UNL     1      23.096 -52.078 -45.200  1.00  0.00     0.196 A 
HETATM   21  N4  UNL     1      24.391 -52.231 -45.540  1.00  0.00    -0.220 N 
HETATM   22  O1  UNL     1      24.946 -53.172 -44.840  1.00  0.00    -0.153 OA
ATOM     23  H4  UNL     1      24.871 -51.681 -46.253  1.00  0.00     0.198 HD
HETATM   24  N5  UNL     1      24.057 -53.656 -44.035  1.00  0.00    -0.222 N 
HETATM   25  C4  UNL     1      22.885 -53.035 -44.195  1.00  0.00     0.169 A 
ATOM     26  H5  UNL     1      24.227 -54.410 -43.369  1.00  0.00     0.198 HD
BRANCH  25  27
HETATM   27  N6  UNL     1      21.761 -53.233 -43.581  1.00  0.00    -0.381 N 
ATOM     28  H62 UNL     1      20.813 -53.013 -43.883  1.00  0.00     0.157 HD
ATOM     29  H61 UNL     1      21.665 -53.661 -42.659  1.00  0.00     0.157 HD
ENDBRANCH  25  27
ENDBRANCH  18  20
ENDBRANCH   7  12
ENDBRANCH   4   5
ENDBRANCH   3   4
BRANCH   3  30
HETATM   30  O2  UNL     1      18.517 -54.529 -50.128  1.00  0.00    -0.375 OA
ATOM     31  H2  UNL     1      18.841 -54.023 -49.392  1.00  0.00     0.212 HD
ENDBRANCH   3  30
ENDBRANCH   1   3
BRANCH   1  32
HETATM   32  C10 UNL     1      18.270 -57.052 -51.936  1.00  0.00     0.175 C 
BRANCH  32  33
HETATM   33  C11 UNL     1      17.712 -56.600 -53.258  1.00  0.00     0.043 A 
HETATM   34  C12 UNL     1      17.690 -55.238 -53.559  1.00  0.00     0.030 A 
HETATM   35  C13 UNL     1      17.174 -54.836 -54.771  1.00  0.00     0.032 A 
HETATM   36  C14 UNL     1      16.686 -55.749 -55.679  1.00  0.00     0.063 A 
HETATM   37  N12 UNL     1      16.731 -57.042 -55.337  1.00  0.00    -0.302 N 
HETATM   38  N13 UNL     1      17.225 -57.451 -54.173  1.00  0.00    -0.303 N 
ATOM     39  H12 UNL     1      16.374 -57.737 -55.992  1.00  0.00     0.186 HD
ATOM     40  H13 UNL     1      17.233 -58.450 -53.968  1.00  0.00     0.186 HD
BRANCH  36  41
HETATM   41  C15 UNL     1      16.140 -55.305 -56.983  1.00  0.00     0.260 C 
BRANCH  41  42
HETATM   42  O3  UNL     1      17.151 -54.736 -57.767  1.00  0.00    -0.380 OA
ATOM     43  H3  UNL     1      17.138 -55.105 -58.642  1.00  0.00     0.211 HD
ENDBRANCH  41  42
BRANCH  41  44
HETATM   44  C16 UNL     1      15.475 -56.404 -57.715  1.00  0.00     0.252 C 
HETATM   45  O4  UNL     1      14.288 -56.716 -57.447  1.00  0.00    -0.270 OA
HETATM   46  N9  UNL     1      16.152 -57.129 -58.728  1.00  0.00    -0.357 N 
ATOM     47  H9  UNL     1      17.115 -56.873 -58.945  1.00  0.00     0.162 HD
BRANCH  46  48
HETATM   48  C17 UNL     1      15.548 -58.209 -59.468  1.00  0.00     0.146 C 
BRANCH  48  49
HETATM   49  C18 UNL     1      15.917 -59.536 -58.880  1.00  0.00     0.120 C 
HETATM   50  C19 UNL     1      14.745 -60.170 -58.140  1.00  0.00     0.136 C 
HETATM   51  N10 UNL     1      15.352 -60.892 -57.067  1.00  0.00    -0.166 NA
HETATM   52  C20 UNL     1      16.761 -60.694 -57.129  1.00  0.00     0.102 C 
HETATM   53  C21 UNL     1      17.399 -60.657 -55.750  1.00  0.00     0.053 C 
HETATM   54  C22 UNL     1      17.518 -61.651 -57.995  1.00  0.00     0.053 C 
HETATM   55  N11 UNL     1      16.867 -59.374 -57.768  1.00  0.00    -0.168 NA
BRANCH  51  56
HETATM   56  S1  UNL     1      14.830 -62.500 -56.880  1.00  0.00     0.187 S 
HETATM   57  O5  UNL     1      15.518 -63.446 -57.806  1.00  0.00    -0.582 OA
HETATM   58  O6  UNL     1      13.348 -62.661 -57.096  1.00  0.00    -0.582 OA
HETATM   59  O7  UNL     1      15.106 -62.924 -55.254  1.00  0.00    -0.582 OA
ENDBRANCH  51  56
BRANCH  55  60
HETATM   60  O8  UNL     1      18.106 -59.130 -58.212  1.00  0.00    -0.311 OA
ATOM     61  H8  UNL     1      18.558 -58.504 -57.657  1.00  0.00     0.237 HD
ENDBRANCH  55  60
ENDBRANCH  48  49
ENDBRANCH  46  48
ENDBRANCH  41  44
ENDBRANCH  36  41
ENDBRANCH  32  33
ENDBRANCH   1  32
TORSDOF 16
ENDMDL
MODEL 5
REMARK VINA RESULT: -10.268458080      3.520     13.683
REMARK  16 active torsions:
REMARK  status: ('A' for Active; 'I' for Inactive)
REMARK    1  A    between atoms: N3_7  and  C3_8 
REMARK    2  A    between atoms: C4_14  and  N6_15 
REMARK    3  A    between atoms: C5_18  and  C6_19 
REMARK    4  A    between atoms: N7_21  and  C8_22 
REMARK    5  A    between atoms: C8_22  and  C9_23 
REMARK    6  A    between atoms: C9_23  and  O2_24 
REMARK    7  A    between atoms: C9_23  and  N8_26 
REMARK    8  A    between atoms: N8_26  and  C10_28 
REMARK    9  A    between atoms: C10_28  and  C11_29 
REMARK   10  A    between atoms: C14_32  and  C15_33 
REMARK   11  A    between atoms: C15_33  and  O3_34 
REMARK   12  A    between atoms: C15_33  and  C16_36 
REMARK       I    between atoms: C16_36  and  N9_38 
REMARK   13  A    between atoms: N9_38  and  C17_40 
REMARK   14  A    between atoms: C17_40  and  C18_41 
REMARK   15  A    between atoms: N10_43  and  S1_44 
REMARK   16  A    between atoms: N11_51  and  O8_52 
ROOT
HETATM    1  N8  UNL     1      18.752 -56.887 -51.180  1.00  0.00    -0.390 N 
ATOM      2  H8  UNL     1      18.072 -56.707 -51.919  1.00  0.00     0.156 HD
ENDROOT
BRANCH   1   3
HETATM    3  C9  UNL     1      18.860 -56.059 -50.028  1.00  0.00     0.233 C 
BRANCH   3   4
HETATM    4  C8  UNL     1      20.210 -55.393 -49.891  1.00  0.00     0.202 C 
BRANCH   4   5
HETATM    5  N7  UNL     1      20.170 -54.515 -48.737  1.00  0.00    -0.283 N 
HETATM    6  C7  UNL     1      20.780 -53.286 -48.606  1.00  0.00     0.145 A 
HETATM    7  C6  UNL     1      20.505 -52.783 -47.374  1.00  0.00     0.097 A 
HETATM    8  N15 UNL     1      19.738 -53.703 -46.772  1.00  0.00    -0.282 N 
HETATM    9  N14 UNL     1      19.561 -54.697 -47.586  1.00  0.00    -0.240 N 
ATOM     10  H15 UNL     1      19.357 -53.632 -45.829  1.00  0.00     0.188 HD
ATOM     11  H14 UNL     1      19.011 -55.525 -47.359  1.00  0.00     0.208 HD
BRANCH   7  12
HETATM   12  C5  UNL     1      20.920 -51.528 -46.766  1.00  0.00     0.113 A 
HETATM   13  C2  UNL     1      20.218 -50.316 -46.942  1.00  0.00     0.054 A 
HETATM   14  C1  UNL     1      18.974 -50.154 -47.755  1.00  0.00     0.072 C 
HETATM   15  N1  UNL     1      20.886 -49.405 -46.254  1.00  0.00    -0.288 N 
HETATM   16  N2  UNL     1      21.922 -49.965 -45.684  1.00  0.00    -0.234 N 
ATOM     17  H1  UNL     1      20.633 -48.420 -46.179  1.00  0.00     0.188 HD
HETATM   18  N3  UNL     1      21.971 -51.282 -45.981  1.00  0.00    -0.216 N 
ATOM     19  H2  UNL     1      22.597 -49.475 -45.097  1.00  0.00     0.209 HD
BRANCH  18  20
HETATM   20  C3  UNL     1      22.984 -52.165 -45.515  1.00  0.00     0.196 A 
HETATM   21  N4  UNL     1      24.200 -52.426 -46.033  1.00  0.00    -0.220 N 
HETATM   22  O1  UNL     1      24.821 -53.321 -45.328  1.00  0.00    -0.153 OA
ATOM     23  H4  UNL     1      24.582 -51.980 -46.867  1.00  0.00     0.198 HD
HETATM   24  N5  UNL     1      24.053 -53.669 -44.347  1.00  0.00    -0.222 N 
HETATM   25  C4  UNL     1      22.897 -53.001 -44.391  1.00  0.00     0.169 A 
ATOM     26  H5  UNL     1      24.297 -54.359 -43.637  1.00  0.00     0.198 HD
BRANCH  25  27
HETATM   27  N6  UNL     1      21.879 -53.071 -43.593  1.00  0.00    -0.381 N 
ATOM     28  H62 UNL     1      21.160 -53.791 -43.525  1.00  0.00     0.157 HD
ATOM     29  H61 UNL     1      21.643 -52.378 -42.882  1.00  0.00     0.157 HD
ENDBRANCH  25  27
ENDBRANCH  18  20
ENDBRANCH   7  12
ENDBRANCH   4   5
ENDBRANCH   3   4
BRANCH   3  30
HETATM   30  O2  UNL     1      17.903 -55.050 -50.132  1.00  0.00    -0.375 OA
ATOM     31  H2  UNL     1      17.155 -55.310 -49.607  1.00  0.00     0.212 HD
ENDBRANCH   3  30
ENDBRANCH   1   3
BRANCH   1  32
HETATM   32  C10 UNL     1      19.670 -57.998 -51.233  1.00  0.00     0.175 C 
BRANCH  32  33
HETATM   33  C11 UNL     1      18.956 -59.130 -51.920  1.00  0.00     0.043 A 
HETATM   34  C12 UNL     1      19.452 -60.428 -51.792  1.00  0.00     0.030 A 
HETATM   35  C13 UNL     1      18.792 -61.455 -52.428  1.00  0.00     0.032 A 
HETATM   36  C14 UNL     1      17.662 -61.222 -53.181  1.00  0.00     0.063 A 
HETATM   37  N12 UNL     1      17.233 -59.958 -53.271  1.00  0.00    -0.302 N 
HETATM   38  N13 UNL     1      17.855 -58.953 -52.664  1.00  0.00    -0.303 N 
ATOM     39  H12 UNL     1      16.399 -59.759 -53.824  1.00  0.00     0.186 HD
ATOM     40  H13 UNL     1      17.480 -58.010 -52.769  1.00  0.00     0.186 HD
BRANCH  36  41
HETATM   41  C15 UNL     1      16.957 -62.337 -53.855  1.00  0.00     0.260 C 
BRANCH  41  42
HETATM   42  O3  UNL     1      16.169 -63.041 -52.937  1.00  0.00    -0.380 OA
ATOM     43  H3  UNL     1      15.372 -62.560 -52.748  1.00  0.00     0.211 HD
ENDBRANCH  41  42
BRANCH  41  44
HETATM   44  C16 UNL     1      16.134 -61.872 -54.993  1.00  0.00     0.252 C 
HETATM   45  O4  UNL     1      14.882 -61.837 -54.895  1.00  0.00    -0.270 OA
HETATM   46  N9  UNL     1      16.729 -61.458 -56.211  1.00  0.00    -0.357 N 
ATOM     47  H9  UNL     1      17.746 -61.487 -56.287  1.00  0.00     0.162 HD
BRANCH  46  48
HETATM   48  C17 UNL     1      15.970 -61.000 -57.348  1.00  0.00     0.146 C 
BRANCH  48  49
HETATM   49  C18 UNL     1      15.846 -59.508 -57.347  1.00  0.00     0.120 C 
HETATM   50  C19 UNL     1      15.467 -58.972 -58.723  1.00  0.00     0.136 C 
HETATM   51  N10 UNL     1      16.118 -57.704 -58.801  1.00  0.00    -0.166 NA
HETATM   52  C20 UNL     1      16.851 -57.496 -57.598  1.00  0.00     0.102 C 
HETATM   53  C21 UNL     1      18.137 -56.722 -57.833  1.00  0.00     0.053 C 
HETATM   54  C22 UNL     1      16.094 -56.864 -56.473  1.00  0.00     0.053 C 
HETATM   55  N11 UNL     1      17.161 -58.870 -57.175  1.00  0.00    -0.168 NA
BRANCH  51  56
HETATM   56  S1  UNL     1      15.141 -56.411 -59.315  1.00  0.00     0.187 S 
HETATM   57  O5  UNL     1      15.842 -55.094 -59.259  1.00  0.00    -0.582 OA
HETATM   58  O6  UNL     1      13.877 -56.277 -58.507  1.00  0.00    -0.582 OA
HETATM   59  O7  UNL     1      14.636 -56.770 -60.901  1.00  0.00    -0.582 OA
ENDBRANCH  51  56
BRANCH  55  60
HETATM   60  O8  UNL     1      17.571 -58.923 -55.903  1.00  0.00    -0.311 OA
ATOM     61  H8  UNL     1      18.189 -59.631 -55.765  1.00  0.00     0.237 HD
ENDBRANCH  55  60
ENDBRANCH  48  49
ENDBRANCH  46  48
ENDBRANCH  41  44
ENDBRANCH  36  41
ENDBRANCH  32  33
ENDBRANCH   1  32
TORSDOF 16
ENDMDL
