MODEL 1
REMARK VINA RESULT: -9.691546594      0.000      0.000
REMARK  15 active torsions:
REMARK  status: ('A' for Active; 'I' for Inactive)
REMARK    1  A    between atoms: C2_2  and  O1_3 
REMARK    2  A    between atoms: O1_3  and  N1_4 
REMARK    3  A    between atoms: N1_4  and  S1_6 
REMARK    4  A    between atoms: S1_6  and  C3_9 
REMARK    5  A    between atoms: C3_9  and  C4_10 
REMARK    6  A    between atoms: C3_9  and  C23_56 
REMARK    7  A    between atoms: C4_10  and  O4_11 
REMARK    8  A    between atoms: O4_11  and  C5_12 
REMARK    9  A    between atoms: C5_12  and  N4_18 
REMARK   10  A    between atoms: N2_13  and  N3_15 
REMARK   11  A    between atoms: N4_18  and  N5_20 
REMARK       I    between atoms: N5_20  and  C6_22 
REMARK   12  A    between atoms: C6_22  and  C7_24 
REMARK   13  A    between atoms: C7_24  and  N6_25 
REMARK   14  A    between atoms: N9_33  and  C12_35 
REMARK   15  A    between atoms: C14_43  and  C15_44 
ROOT
HETATM    1  N6  UNL     1      16.605 -60.760 -54.880  1.00  0.00    -0.292 N 
HETATM    2  C8  UNL     1      16.503 -62.008 -55.332  1.00  0.00     0.135 A 
HETATM    3  C9  UNL     1      16.461 -63.153 -54.445  1.00  0.00     0.119 C 
HETATM    4  N7  UNL     1      16.409 -64.057 -53.726  1.00  0.00    -0.190 NA
HETATM    5  C10 UNL     1      16.436 -62.195 -56.706  1.00  0.00     0.131 A 
HETATM    6  N8  UNL     1      16.468 -61.183 -57.580  1.00  0.00    -0.345 N 
ATOM      7  H8  UNL     1      16.416 -61.368 -58.582  1.00  0.00     0.167 HD
HETATM    8  C11 UNL     1      16.574 -59.896 -57.117  1.00  0.00     0.176 A 
HETATM    9  N9  UNL     1      16.603 -58.954 -57.991  1.00  0.00    -0.322 N 
ATOM     10  H9  UNL     1      16.544 -59.237 -58.969  1.00  0.00     0.169 HD
HETATM   11  C22 UNL     1      16.640 -59.717 -55.760  1.00  0.00     0.293 A 
HETATM   12  O6  UNL     1      16.736 -58.527 -55.306  1.00  0.00    -0.264 OA
ENDROOT
BRANCH   1  13
HETATM   13  C7  UNL     1      16.704 -60.477 -53.466  1.00  0.00     0.237 C 
BRANCH  13  14
HETATM   14  C6  UNL     1      18.122 -60.207 -53.077  1.00  0.00     0.254 C 
HETATM   15  N5  UNL     1      18.538 -58.981 -52.545  1.00  0.00    -0.266 N 
ATOM     16  H5  UNL     1      17.813 -58.271 -52.440  1.00  0.00     0.190 HD
HETATM   17  O5  UNL     1      18.950 -61.131 -53.244  1.00  0.00    -0.270 OA
BRANCH  15  18
HETATM   18  N4  UNL     1      19.803 -58.612 -52.147  1.00  0.00    -0.261 N 
ATOM     19  H4  UNL     1      20.401 -58.206 -52.866  1.00  0.00     0.190 HD
BRANCH  18  20
HETATM   20  C5  UNL     1      20.367 -58.729 -50.867  1.00  0.00     0.253 C 
HETATM   21  N2  UNL     1      20.995 -59.810 -50.463  1.00  0.00    -0.271 N 
ATOM     22  H2  UNL     1      21.375 -59.816 -49.516  1.00  0.00     0.190 HD
BRANCH  20  23
HETATM   23  O4  UNL     1      20.314 -57.731 -49.923  1.00  0.00    -0.318 OA
BRANCH  23  24
HETATM   24  C4  UNL     1      20.472 -56.364 -50.076  1.00  0.00     0.212 C 
BRANCH  24  25
HETATM   25  C3  UNL     1      19.322 -55.500 -49.726  1.00  0.00     0.256 C 
BRANCH  25  26
HETATM   26  S1  UNL     1      19.323 -54.027 -50.773  1.00  0.00     0.265 S 
HETATM   27  O2  UNL     1      19.856 -54.388 -52.121  1.00  0.00    -0.203 OA
HETATM   28  O3  UNL     1      17.929 -53.492 -50.907  1.00  0.00    -0.203 OA
BRANCH  26  29
HETATM   29  N1  UNL     1      20.300 -52.812 -50.085  1.00  0.00    -0.191 N 
ATOM     30  H1  UNL     1      19.935 -51.894 -49.833  1.00  0.00     0.207 HD
BRANCH  29  31
HETATM   31  O1  UNL     1      21.583 -53.153 -49.899  1.00  0.00    -0.271 OA
BRANCH  31  32
HETATM   32  C2  UNL     1      22.005 -52.430 -48.758  1.00  0.00     0.197 C 
HETATM   33  C1  UNL     1      21.296 -52.997 -47.562  1.00  0.00     0.036 C 
ENDBRANCH  31  32
ENDBRANCH  29  31
ENDBRANCH  26  29
ENDBRANCH  25  26
BRANCH  25  34
HETATM   34  C23 UNL     1      17.987 -56.083 -49.870  1.00  0.00     0.196 C 
HETATM   35  O7  UNL     1      17.224 -56.184 -48.860  1.00  0.00    -0.647 OA
HETATM   36  O8  UNL     1      17.522 -56.537 -51.104  1.00  0.00    -0.647 OA
ENDBRANCH  25  34
ENDBRANCH  24  25
ENDBRANCH  23  24
ENDBRANCH  20  23
BRANCH  21  37
HETATM   37  N3  UNL     1      21.174 -60.936 -51.235  1.00  0.00    -0.342 N 
ATOM     38  H32 UNL     1      21.573 -60.799 -52.163  1.00  0.00     0.176 HD
ATOM     39  H31 UNL     1      20.933 -61.881 -50.935  1.00  0.00     0.176 HD
ENDBRANCH  21  37
ENDBRANCH  18  20
ENDBRANCH  15  18
ENDBRANCH  13  14
ENDBRANCH   1  13
BRANCH   9  40
HETATM   40  C12 UNL     1      16.709 -57.562 -57.737  1.00  0.00     0.135 A 
HETATM   41  N10 UNL     1      17.892 -57.020 -57.554  1.00  0.00    -0.357 N 
HETATM   42  C13 UNL     1      18.032 -55.620 -57.296  1.00  0.00     0.262 A 
ATOM     43  H10 UNL     1      18.725 -57.609 -57.597  1.00  0.00     0.162 HD
HETATM   44  N11 UNL     1      16.781 -54.896 -57.277  1.00  0.00    -0.318 N 
HETATM   45  N12 UNL     1      15.550 -55.506 -57.477  1.00  0.00    -0.298 N 
ATOM     46  H11 UNL     1      16.805 -53.890 -57.109  1.00  0.00     0.182 HD
HETATM   47  C14 UNL     1      15.481 -56.787 -57.701  1.00  0.00     0.125 A 
ATOM     48  H12 UNL     1      14.697 -54.948 -57.448  1.00  0.00     0.187 HD
BRANCH  47  49
HETATM   49  C15 UNL     1      14.158 -57.400 -57.922  1.00  0.00     0.107 A 
HETATM   50  N13 UNL     1      13.709 -58.546 -57.477  1.00  0.00    -0.347 N 
HETATM   51  C16 UNL     1      12.505 -58.943 -57.771  1.00  0.00     0.050 A 
ATOM     52  H13 UNL     1      14.307 -59.134 -56.896  1.00  0.00     0.167 HD
HETATM   53  C17 UNL     1      11.894 -60.147 -57.363  1.00  0.00     0.031 A 
HETATM   54  C21 UNL     1      11.741 -58.116 -58.556  1.00  0.00     0.033 A 
HETATM   55  C18 UNL     1      10.628 -60.423 -57.750  1.00  0.00     0.002 A 
HETATM   56  C19 UNL     1       9.831 -59.606 -58.545  1.00  0.00     0.002 A 
HETATM   57  C20 UNL     1      10.431 -58.425 -58.944  1.00  0.00     0.021 A 
HETATM   58  S2  UNL     1      12.829 -56.807 -58.819  1.00  0.00    -0.068 SA
ENDBRANCH  47  49
ENDBRANCH   9  40
TORSDOF 15
ENDMDL
MODEL 2
REMARK VINA RESULT: -9.648875681      1.426      2.598
REMARK  15 active torsions:
REMARK  status: ('A' for Active; 'I' for Inactive)
REMARK    1  A    between atoms: C2_2  and  O1_3 
REMARK    2  A    between atoms: O1_3  and  N1_4 
REMARK    3  A    between atoms: N1_4  and  S1_6 
REMARK    4  A    between atoms: S1_6  and  C3_9 
REMARK    5  A    between atoms: C3_9  and  C4_10 
REMARK    6  A    between atoms: C3_9  and  C23_56 
REMARK    7  A    between atoms: C4_10  and  O4_11 
REMARK    8  A    between atoms: O4_11  and  C5_12 
REMARK    9  A    between atoms: C5_12  and  N4_18 
REMARK   10  A    between atoms: N2_13  and  N3_15 
REMARK   11  A    between atoms: N4_18  and  N5_20 
REMARK       I    between atoms: N5_20  and  C6_22 
REMARK   12  A    between atoms: C6_22  and  C7_24 
REMARK   13  A    between atoms: C7_24  and  N6_25 
REMARK   14  A    between atoms: N9_33  and  C12_35 
REMARK   15  A    between atoms: C14_43  and  C15_44 
ROOT
HETATM    1  N6  UNL     1      16.360 -61.434 -54.609  1.00  0.00    -0.292 N 
HETATM    2  C8  UNL     1      16.003 -62.711 -54.729  1.00  0.00     0.135 A 
HETATM    3  C9  UNL     1      15.780 -63.564 -53.580  1.00  0.00     0.119 C 
HETATM    4  N7  UNL     1      15.587 -64.231 -52.655  1.00  0.00    -0.190 NA
HETATM    5  C10 UNL     1      15.844 -63.220 -56.010  1.00  0.00     0.131 A 
HETATM    6  N8  UNL     1      16.033 -62.488 -57.113  1.00  0.00    -0.345 N 
ATOM      7  H8  UNL     1      15.905 -62.904 -58.035  1.00  0.00     0.167 HD
HETATM    8  C11 UNL     1      16.402 -61.171 -56.992  1.00  0.00     0.176 A 
HETATM    9  N9  UNL     1      16.574 -60.504 -58.076  1.00  0.00    -0.322 N 
ATOM     10  H9  UNL     1      16.421 -61.006 -58.951  1.00  0.00     0.169 HD
HETATM   11  C22 UNL     1      16.557 -60.673 -55.724  1.00  0.00     0.293 A 
HETATM   12  O6  UNL     1      16.897 -59.449 -55.588  1.00  0.00    -0.264 OA
ENDROOT
BRANCH   1  13
HETATM   13  C7  UNL     1      16.569 -60.829 -53.312  1.00  0.00     0.237 C 
BRANCH  13  14
HETATM   14  C6  UNL     1      18.029 -60.641 -53.044  1.00  0.00     0.254 C 
HETATM   15  N5  UNL     1      18.581 -59.396 -52.718  1.00  0.00    -0.266 N 
ATOM     16  H5  UNL     1      17.927 -58.615 -52.676  1.00  0.00     0.190 HD
HETATM   17  O5  UNL     1      18.763 -61.651 -53.122  1.00  0.00    -0.270 OA
BRANCH  15  18
HETATM   18  N4  UNL     1      19.896 -59.095 -52.446  1.00  0.00    -0.261 N 
ATOM     19  H4  UNL     1      20.459 -58.784 -53.238  1.00  0.00     0.190 HD
BRANCH  18  20
HETATM   20  C5  UNL     1      20.555 -59.166 -51.209  1.00  0.00     0.253 C 
HETATM   21  N2  UNL     1      21.189 -60.242 -50.801  1.00  0.00    -0.271 N 
ATOM     22  H2  UNL     1      21.640 -60.213 -49.887  1.00  0.00     0.190 HD
BRANCH  20  23
HETATM   23  O4  UNL     1      20.594 -58.124 -50.313  1.00  0.00    -0.318 OA
BRANCH  23  24
HETATM   24  C4  UNL     1      19.635 -57.166 -50.034  1.00  0.00     0.212 C 
BRANCH  24  25
HETATM   25  C3  UNL     1      19.856 -55.802 -50.568  1.00  0.00     0.256 C 
BRANCH  25  26
HETATM   26  S1  UNL     1      18.291 -55.114 -51.152  1.00  0.00     0.265 S 
HETATM   27  O2  UNL     1      17.163 -55.841 -50.497  1.00  0.00    -0.203 OA
HETATM   28  O3  UNL     1      18.215 -53.654 -50.816  1.00  0.00    -0.203 OA
BRANCH  26  29
HETATM   29  N1  UNL     1      18.166 -55.281 -52.844  1.00  0.00    -0.191 N 
ATOM     30  H1  UNL     1      18.284 -54.495 -53.482  1.00  0.00     0.207 HD
BRANCH  29  31
HETATM   31  O1  UNL     1      17.900 -56.523 -53.273  1.00  0.00    -0.271 OA
BRANCH  31  32
HETATM   32  C2  UNL     1      17.168 -56.360 -54.473  1.00  0.00     0.197 C 
HETATM   33  C1  UNL     1      17.074 -54.889 -54.761  1.00  0.00     0.036 C 
ENDBRANCH  31  32
ENDBRANCH  29  31
ENDBRANCH  26  29
ENDBRANCH  25  26
BRANCH  25  34
HETATM   34  C23 UNL     1      20.401 -54.808 -49.642  1.00  0.00     0.196 C 
HETATM   35  O7  UNL     1      21.315 -54.015 -50.024  1.00  0.00    -0.647 OA
HETATM   36  O8  UNL     1      19.936 -54.705 -48.330  1.00  0.00    -0.647 OA
ENDBRANCH  25  34
ENDBRANCH  24  25
ENDBRANCH  23  24
ENDBRANCH  20  23
BRANCH  21  37
HETATM   37  N3  UNL     1      21.284 -61.406 -51.529  1.00  0.00    -0.342 N 
ATOM     38  H32 UNL     1      21.129 -61.335 -52.534  1.00  0.00     0.176 HD
ATOM     39  H31 UNL     1      21.498 -62.319 -51.126  1.00  0.00     0.176 HD
ENDBRANCH  21  37
ENDBRANCH  18  20
ENDBRANCH  15  18
ENDBRANCH  13  14
ENDBRANCH   1  13
BRANCH   9  40
HETATM   40  C12 UNL     1      16.954 -59.141 -58.185  1.00  0.00     0.135 A 
HETATM   41  N10 UNL     1      18.226 -58.814 -58.157  1.00  0.00    -0.357 N 
HETATM   42  C13 UNL     1      18.641 -57.449 -58.263  1.00  0.00     0.262 A 
ATOM     43  H10 UNL     1      18.930 -59.546 -58.058  1.00  0.00     0.162 HD
HETATM   44  N11 UNL     1      17.552 -56.512 -58.416  1.00  0.00    -0.318 N 
HETATM   45  N12 UNL     1      16.219 -56.897 -58.442  1.00  0.00    -0.298 N 
ATOM     46  H11 UNL     1      17.773 -55.520 -58.508  1.00  0.00     0.182 HD
HETATM   47  C14 UNL     1      15.897 -58.155 -58.334  1.00  0.00     0.125 A 
ATOM     48  H12 UNL     1      15.488 -56.193 -58.547  1.00  0.00     0.187 HD
BRANCH  47  49
HETATM   49  C15 UNL     1      14.472 -58.531 -58.379  1.00  0.00     0.107 A 
HETATM   50  N13 UNL     1      13.937 -59.712 -58.196  1.00  0.00    -0.347 N 
HETATM   51  C16 UNL     1      12.648 -59.872 -58.274  1.00  0.00     0.050 A 
ATOM     52  H13 UNL     1      14.534 -60.512 -57.990  1.00  0.00     0.167 HD
HETATM   53  C17 UNL     1      11.939 -61.079 -58.100  1.00  0.00     0.031 A 
HETATM   54  C21 UNL     1      11.889 -58.763 -58.553  1.00  0.00     0.033 A 
HETATM   55  C18 UNL     1      10.592 -61.090 -58.212  1.00  0.00     0.002 A 
HETATM   56  C19 UNL     1       9.798 -59.983 -58.494  1.00  0.00     0.002 A 
HETATM   57  C20 UNL     1      10.493 -58.800 -58.664  1.00  0.00     0.021 A 
HETATM   58  S2  UNL     1      13.106 -57.551 -58.685  1.00  0.00    -0.068 SA
ENDBRANCH  47  49
ENDBRANCH   9  40
TORSDOF 15
ENDMDL
MODEL 3
REMARK VINA RESULT: -9.643034612      1.271      1.706
REMARK  15 active torsions:
REMARK  status: ('A' for Active; 'I' for Inactive)
REMARK    1  A    between atoms: C2_2  and  O1_3 
REMARK    2  A    between atoms: O1_3  and  N1_4 
REMARK    3  A    between atoms: N1_4  and  S1_6 
REMARK    4  A    between atoms: S1_6  and  C3_9 
REMARK    5  A    between atoms: C3_9  and  C4_10 
REMARK    6  A    between atoms: C3_9  and  C23_56 
REMARK    7  A    between atoms: C4_10  and  O4_11 
REMARK    8  A    between atoms: O4_11  and  C5_12 
REMARK    9  A    between atoms: C5_12  and  N4_18 
REMARK   10  A    between atoms: N2_13  and  N3_15 
REMARK   11  A    between atoms: N4_18  and  N5_20 
REMARK       I    between atoms: N5_20  and  C6_22 
REMARK   12  A    between atoms: C6_22  and  C7_24 
REMARK   13  A    between atoms: C7_24  and  N6_25 
REMARK   14  A    between atoms: N9_33  and  C12_35 
REMARK   15  A    between atoms: C14_43  and  C15_44 
ROOT
HETATM    1  N6  UNL     1      16.603 -60.731 -54.857  1.00  0.00    -0.292 N 
HETATM    2  C8  UNL     1      16.513 -61.979 -55.313  1.00  0.00     0.135 A 
HETATM    3  C9  UNL     1      16.473 -63.126 -54.430  1.00  0.00     0.119 C 
HETATM    4  N7  UNL     1      16.423 -64.032 -53.713  1.00  0.00    -0.190 NA
HETATM    5  C10 UNL     1      16.456 -62.162 -56.687  1.00  0.00     0.131 A 
HETATM    6  N8  UNL     1      16.488 -61.148 -57.559  1.00  0.00    -0.345 N 
ATOM      7  H8  UNL     1      16.443 -61.330 -58.562  1.00  0.00     0.167 HD
HETATM    8  C11 UNL     1      16.580 -59.861 -57.091  1.00  0.00     0.176 A 
HETATM    9  N9  UNL     1      16.609 -58.917 -57.962  1.00  0.00    -0.322 N 
ATOM     10  H9  UNL     1      16.558 -59.197 -58.942  1.00  0.00     0.169 HD
HETATM   11  C22 UNL     1      16.636 -59.685 -55.733  1.00  0.00     0.293 A 
HETATM   12  O6  UNL     1      16.720 -58.496 -55.275  1.00  0.00    -0.264 OA
ENDROOT
BRANCH   1  13
HETATM   13  C7  UNL     1      16.689 -60.451 -53.441  1.00  0.00     0.237 C 
BRANCH  13  14
HETATM   14  C6  UNL     1      18.105 -60.181 -53.040  1.00  0.00     0.254 C 
HETATM   15  N5  UNL     1      18.521 -58.944 -52.533  1.00  0.00    -0.266 N 
ATOM     16  H5  UNL     1      17.799 -58.227 -52.455  1.00  0.00     0.190 HD
HETATM   17  O5  UNL     1      18.929 -61.113 -53.173  1.00  0.00    -0.270 OA
BRANCH  15  18
HETATM   18  N4  UNL     1      19.783 -58.573 -52.127  1.00  0.00    -0.261 N 
ATOM     19  H4  UNL     1      20.388 -58.176 -52.845  1.00  0.00     0.190 HD
BRANCH  18  20
HETATM   20  C5  UNL     1      20.335 -58.677 -50.841  1.00  0.00     0.253 C 
HETATM   21  N2  UNL     1      20.981 -59.744 -50.428  1.00  0.00    -0.271 N 
ATOM     22  H2  UNL     1      21.350 -59.740 -49.477  1.00  0.00     0.190 HD
BRANCH  20  23
HETATM   23  O4  UNL     1      20.249 -57.679 -49.899  1.00  0.00    -0.318 OA
BRANCH  23  24
HETATM   24  C4  UNL     1      20.488 -56.321 -50.030  1.00  0.00     0.212 C 
BRANCH  24  25
HETATM   25  C3  UNL     1      19.326 -55.410 -49.919  1.00  0.00     0.256 C 
BRANCH  25  26
HETATM   26  S1  UNL     1      19.365 -54.205 -51.265  1.00  0.00     0.265 S 
HETATM   27  O2  UNL     1      20.285 -53.089 -50.894  1.00  0.00    -0.203 OA
HETATM   28  O3  UNL     1      19.845 -54.859 -52.525  1.00  0.00    -0.203 OA
BRANCH  26  29
HETATM   29  N1  UNL     1      17.803 -53.582 -51.546  1.00  0.00    -0.191 N 
ATOM     30  H1  UNL     1      17.110 -54.075 -52.108  1.00  0.00     0.207 HD
BRANCH  29  31
HETATM   31  O1  UNL     1      17.554 -52.396 -50.974  1.00  0.00    -0.271 OA
BRANCH  31  32
HETATM   32  C2  UNL     1      16.786 -51.673 -51.919  1.00  0.00     0.197 C 
HETATM   33  C1  UNL     1      16.003 -50.630 -51.176  1.00  0.00     0.036 C 
ENDBRANCH  31  32
ENDBRANCH  29  31
ENDBRANCH  26  29
ENDBRANCH  25  26
BRANCH  25  34
HETATM   34  C23 UNL     1      17.998 -56.020 -49.976  1.00  0.00     0.196 C 
HETATM   35  O7  UNL     1      17.528 -56.421 -51.086  1.00  0.00    -0.647 OA
HETATM   36  O8  UNL     1      17.219 -56.177 -48.829  1.00  0.00    -0.647 OA
ENDBRANCH  25  34
ENDBRANCH  24  25
ENDBRANCH  23  24
ENDBRANCH  20  23
BRANCH  21  37
HETATM   37  N3  UNL     1      21.192 -60.866 -51.196  1.00  0.00    -0.342 N 
ATOM     38  H32 UNL     1      20.670 -60.930 -52.070  1.00  0.00     0.176 HD
ATOM     39  H31 UNL     1      21.829 -61.622 -50.945  1.00  0.00     0.176 HD
ENDBRANCH  21  37
ENDBRANCH  18  20
ENDBRANCH  15  18
ENDBRANCH  13  14
ENDBRANCH   1  13
BRANCH   9  40
HETATM   40  C12 UNL     1      16.703 -57.524 -57.704  1.00  0.00     0.135 A 
HETATM   41  N10 UNL     1      17.881 -56.973 -57.519  1.00  0.00    -0.357 N 
HETATM   42  C13 UNL     1      18.009 -55.573 -57.257  1.00  0.00     0.262 A 
ATOM     43  H10 UNL     1      18.719 -57.554 -57.564  1.00  0.00     0.162 HD
HETATM   44  N11 UNL     1      16.752 -54.860 -57.235  1.00  0.00    -0.318 N 
HETATM   45  N12 UNL     1      15.527 -55.479 -57.437  1.00  0.00    -0.298 N 
ATOM     46  H11 UNL     1      16.767 -53.854 -57.064  1.00  0.00     0.182 HD
HETATM   47  C14 UNL     1      15.468 -56.760 -57.665  1.00  0.00     0.125 A 
ATOM     48  H12 UNL     1      14.668 -54.928 -57.406  1.00  0.00     0.187 HD
BRANCH  47  49
HETATM   49  C15 UNL     1      14.151 -57.383 -57.888  1.00  0.00     0.107 A 
HETATM   50  N13 UNL     1      13.721 -58.547 -57.470  1.00  0.00    -0.347 N 
HETATM   51  C16 UNL     1      12.519 -58.951 -57.762  1.00  0.00     0.050 A 
ATOM     52  H13 UNL     1      14.332 -59.143 -56.912  1.00  0.00     0.167 HD
HETATM   53  C17 UNL     1      11.927 -60.173 -57.380  1.00  0.00     0.031 A 
HETATM   54  C21 UNL     1      11.736 -58.112 -58.515  1.00  0.00     0.033 A 
HETATM   55  C18 UNL     1      10.660 -60.455 -57.761  1.00  0.00     0.002 A 
HETATM   56  C19 UNL     1       9.845 -59.626 -58.523  1.00  0.00     0.002 A 
HETATM   57  C20 UNL     1      10.425 -58.428 -58.897  1.00  0.00     0.021 A 
HETATM   58  S2  UNL     1      12.804 -56.783 -58.754  1.00  0.00    -0.068 SA
ENDBRANCH  47  49
ENDBRANCH   9  40
TORSDOF 15
ENDMDL
MODEL 4
REMARK VINA RESULT: -9.582378582      1.349      1.601
REMARK  15 active torsions:
REMARK  status: ('A' for Active; 'I' for Inactive)
REMARK    1  A    between atoms: C2_2  and  O1_3 
REMARK    2  A    between atoms: O1_3  and  N1_4 
REMARK    3  A    between atoms: N1_4  and  S1_6 
REMARK    4  A    between atoms: S1_6  and  C3_9 
REMARK    5  A    between atoms: C3_9  and  C4_10 
REMARK    6  A    between atoms: C3_9  and  C23_56 
REMARK    7  A    between atoms: C4_10  and  O4_11 
REMARK    8  A    between atoms: O4_11  and  C5_12 
REMARK    9  A    between atoms: C5_12  and  N4_18 
REMARK   10  A    between atoms: N2_13  and  N3_15 
REMARK   11  A    between atoms: N4_18  and  N5_20 
REMARK       I    between atoms: N5_20  and  C6_22 
REMARK   12  A    between atoms: C6_22  and  C7_24 
REMARK   13  A    between atoms: C7_24  and  N6_25 
REMARK   14  A    between atoms: N9_33  and  C12_35 
REMARK   15  A    between atoms: C14_43  and  C15_44 
ROOT
HETATM    1  N6  UNL     1      16.418 -61.396 -54.629  1.00  0.00    -0.292 N 
HETATM    2  C8  UNL     1      16.054 -62.669 -54.764  1.00  0.00     0.135 A 
HETATM    3  C9  UNL     1      15.823 -63.534 -53.625  1.00  0.00     0.119 C 
HETATM    4  N7  UNL     1      15.624 -64.210 -52.708  1.00  0.00    -0.190 NA
HETATM    5  C10 UNL     1      15.894 -63.163 -56.051  1.00  0.00     0.131 A 
HETATM    6  N8  UNL     1      16.090 -62.419 -57.145  1.00  0.00    -0.345 N 
ATOM      7  H8  UNL     1      15.961 -62.825 -58.073  1.00  0.00     0.167 HD
HETATM    8  C11 UNL     1      16.466 -61.107 -57.009  1.00  0.00     0.176 A 
HETATM    9  N9  UNL     1      16.644 -60.428 -58.085  1.00  0.00    -0.322 N 
ATOM     10  H9  UNL     1      16.490 -60.920 -58.966  1.00  0.00     0.169 HD
HETATM   11  C22 UNL     1      16.622 -60.624 -55.736  1.00  0.00     0.293 A 
HETATM   12  O6  UNL     1      16.969 -59.404 -55.584  1.00  0.00    -0.264 OA
ENDROOT
BRANCH   1  13
HETATM   13  C7  UNL     1      16.629 -60.807 -53.325  1.00  0.00     0.237 C 
BRANCH  13  14
HETATM   14  C6  UNL     1      18.089 -60.666 -53.037  1.00  0.00     0.254 C 
HETATM   15  N5  UNL     1      18.686 -59.432 -52.753  1.00  0.00    -0.266 N 
ATOM     16  H5  UNL     1      18.064 -58.623 -52.757  1.00  0.00     0.190 HD
HETATM   17  O5  UNL     1      18.783 -61.708 -53.057  1.00  0.00    -0.270 OA
BRANCH  15  18
HETATM   18  N4  UNL     1      20.007 -59.172 -52.468  1.00  0.00    -0.261 N 
ATOM     19  H4  UNL     1      20.590 -58.887 -53.256  1.00  0.00     0.190 HD
BRANCH  18  20
HETATM   20  C5  UNL     1      20.649 -59.253 -51.223  1.00  0.00     0.253 C 
HETATM   21  N2  UNL     1      21.550 -60.168 -50.945  1.00  0.00    -0.271 N 
ATOM     22  H2  UNL     1      21.967 -60.160 -50.014  1.00  0.00     0.190 HD
BRANCH  20  23
HETATM   23  O4  UNL     1      20.393 -58.390 -50.184  1.00  0.00    -0.318 OA
BRANCH  23  24
HETATM   24  C4  UNL     1      20.625 -57.028 -50.093  1.00  0.00     0.212 C 
BRANCH  24  25
HETATM   25  C3  UNL     1      19.449 -56.146 -49.911  1.00  0.00     0.256 C 
BRANCH  25  26
HETATM   26  S1  UNL     1      19.993 -54.432 -49.729  1.00  0.00     0.265 S 
HETATM   27  O2  UNL     1      19.552 -53.919 -48.398  1.00  0.00    -0.203 OA
HETATM   28  O3  UNL     1      21.487 -54.355 -49.832  1.00  0.00    -0.203 OA
BRANCH  26  29
HETATM   29  N1  UNL     1      19.321 -53.464 -50.961  1.00  0.00    -0.191 N 
ATOM     30  H1  UNL     1      18.333 -53.504 -51.211  1.00  0.00     0.207 HD
BRANCH  29  31
HETATM   31  O1  UNL     1      20.187 -52.647 -51.577  1.00  0.00    -0.271 OA
BRANCH  31  32
HETATM   32  C2  UNL     1      20.061 -51.399 -50.923  1.00  0.00     0.197 C 
HETATM   33  C1  UNL     1      21.408 -50.735 -50.930  1.00  0.00     0.036 C 
ENDBRANCH  31  32
ENDBRANCH  29  31
ENDBRANCH  26  29
ENDBRANCH  25  26
BRANCH  25  34
HETATM   34  C23 UNL     1      18.459 -56.131 -50.989  1.00  0.00     0.196 C 
HETATM   35  O7  UNL     1      17.241 -55.883 -50.731  1.00  0.00    -0.647 OA
HETATM   36  O8  UNL     1      18.822 -56.386 -52.312  1.00  0.00    -0.647 OA
ENDBRANCH  25  34
ENDBRANCH  24  25
ENDBRANCH  23  24
ENDBRANCH  20  23
BRANCH  21  37
HETATM   37  N3  UNL     1      21.967 -61.137 -51.829  1.00  0.00    -0.342 N 
ATOM     38  H32 UNL     1      21.846 -60.937 -52.821  1.00  0.00     0.176 HD
ATOM     39  H31 UNL     1      22.382 -62.026 -51.551  1.00  0.00     0.176 HD
ENDBRANCH  21  37
ENDBRANCH  18  20
ENDBRANCH  15  18
ENDBRANCH  13  14
ENDBRANCH   1  13
BRANCH   9  40
HETATM   40  C12 UNL     1      17.032 -59.066 -58.178  1.00  0.00     0.135 A 
HETATM   41  N10 UNL     1      18.307 -58.748 -58.153  1.00  0.00    -0.357 N 
HETATM   42  C13 UNL     1      18.730 -57.385 -58.244  1.00  0.00     0.262 A 
ATOM     43  H10 UNL     1      19.006 -59.487 -58.068  1.00  0.00     0.162 HD
HETATM   44  N11 UNL     1      17.646 -56.438 -58.377  1.00  0.00    -0.318 N 
HETATM   45  N12 UNL     1      16.311 -56.815 -58.401  1.00  0.00    -0.298 N 
ATOM     46  H11 UNL     1      17.874 -55.447 -58.458  1.00  0.00     0.182 HD
HETATM   47  C14 UNL     1      15.981 -58.071 -58.307  1.00  0.00     0.125 A 
ATOM     48  H12 UNL     1      15.584 -56.104 -58.491  1.00  0.00     0.187 HD
BRANCH  47  49
HETATM   49  C15 UNL     1      14.554 -58.438 -58.348  1.00  0.00     0.107 A 
HETATM   50  N13 UNL     1      14.015 -59.624 -58.224  1.00  0.00    -0.347 N 
HETATM   51  C16 UNL     1      12.724 -59.774 -58.289  1.00  0.00     0.050 A 
ATOM     52  H13 UNL     1      14.611 -60.438 -58.076  1.00  0.00     0.167 HD
HETATM   53  C17 UNL     1      12.011 -60.986 -58.172  1.00  0.00     0.031 A 
HETATM   54  C21 UNL     1      11.966 -58.647 -58.490  1.00  0.00     0.033 A 
HETATM   55  C18 UNL     1      10.662 -60.983 -58.261  1.00  0.00     0.002 A 
HETATM   56  C19 UNL     1       9.869 -59.859 -58.464  1.00  0.00     0.002 A 
HETATM   57  C20 UNL     1      10.568 -58.671 -58.578  1.00  0.00     0.021 A 
HETATM   58  S2  UNL     1      13.188 -57.435 -58.573  1.00  0.00    -0.068 SA
ENDBRANCH  47  49
ENDBRANCH   9  40
TORSDOF 15
ENDMDL
MODEL 5
REMARK VINA RESULT: -9.345273916      2.494      5.027
REMARK  15 active torsions:
REMARK  status: ('A' for Active; 'I' for Inactive)
REMARK    1  A    between atoms: C2_2  and  O1_3 
REMARK    2  A    between atoms: O1_3  and  N1_4 
REMARK    3  A    between atoms: N1_4  and  S1_6 
REMARK    4  A    between atoms: S1_6  and  C3_9 
REMARK    5  A    between atoms: C3_9  and  C4_10 
REMARK    6  A    between atoms: C3_9  and  C23_56 
REMARK    7  A    between atoms: C4_10  and  O4_11 
REMARK    8  A    between atoms: O4_11  and  C5_12 
REMARK    9  A    between atoms: C5_12  and  N4_18 
REMARK   10  A    between atoms: N2_13  and  N3_15 
REMARK   11  A    between atoms: N4_18  and  N5_20 
REMARK       I    between atoms: N5_20  and  C6_22 
REMARK   12  A    between atoms: C6_22  and  C7_24 
REMARK   13  A    between atoms: C7_24  and  N6_25 
REMARK   14  A    between atoms: N9_33  and  C12_35 
REMARK   15  A    between atoms: C14_43  and  C15_44 
ROOT
HETATM    1  N6  UNL     1      15.554 -57.150 -57.381  1.00  0.00    -0.292 N 
HETATM    2  C8  UNL     1      16.235 -56.342 -58.191  1.00  0.00     0.135 A 
HETATM    3  C9  UNL     1      17.314 -55.500 -57.717  1.00  0.00     0.119 C 
HETATM    4  N7  UNL     1      18.186 -54.847 -57.331  1.00  0.00    -0.190 NA
HETATM    5  C10 UNL     1      15.881 -56.324 -59.533  1.00  0.00     0.131 A 
HETATM    6  N8  UNL     1      14.896 -57.076 -60.036  1.00  0.00    -0.345 N 
ATOM      7  H8  UNL     1      14.671 -57.030 -61.030  1.00  0.00     0.167 HD
HETATM    8  C11 UNL     1      14.193 -57.909 -59.204  1.00  0.00     0.176 A 
HETATM    9  N9  UNL     1      13.254 -58.614 -59.727  1.00  0.00    -0.322 N 
ATOM     10  H9  UNL     1      13.104 -58.500 -60.730  1.00  0.00     0.169 HD
HETATM   11  C22 UNL     1      14.546 -57.924 -57.879  1.00  0.00     0.293 A 
HETATM   12  O6  UNL     1      13.907 -58.694 -57.086  1.00  0.00    -0.264 OA
ENDROOT
BRANCH   1  13
HETATM   13  C7  UNL     1      15.842 -57.215 -55.965  1.00  0.00     0.237 C 
BRANCH  13  14
HETATM   14  C6  UNL     1      16.592 -58.466 -55.634  1.00  0.00     0.254 C 
HETATM   15  N5  UNL     1      16.008 -59.536 -54.947  1.00  0.00    -0.266 N 
ATOM     16  H5  UNL     1      15.031 -59.414 -54.678  1.00  0.00     0.190 HD
HETATM   17  O5  UNL     1      17.789 -58.531 -55.996  1.00  0.00    -0.270 OA
BRANCH  15  18
HETATM   18  N4  UNL     1      16.585 -60.733 -54.589  1.00  0.00    -0.261 N 
ATOM     19  H4  UNL     1      16.391 -61.527 -55.199  1.00  0.00     0.190 HD
BRANCH  18  20
HETATM   20  C5  UNL     1      17.410 -60.991 -53.483  1.00  0.00     0.253 C 
HETATM   21  N2  UNL     1      17.473 -62.167 -52.902  1.00  0.00    -0.271 N 
ATOM     22  H2  UNL     1      18.096 -62.271 -52.101  1.00  0.00     0.190 HD
BRANCH  20  23
HETATM   23  O4  UNL     1      18.222 -60.042 -52.909  1.00  0.00    -0.318 OA
BRANCH  23  24
HETATM   24  C4  UNL     1      17.881 -58.861 -52.270  1.00  0.00     0.212 C 
BRANCH  24  25
HETATM   25  C3  UNL     1      18.986 -57.966 -51.857  1.00  0.00     0.256 C 
BRANCH  25  26
HETATM   26  S1  UNL     1      18.411 -56.253 -51.842  1.00  0.00     0.265 S 
HETATM   27  O2  UNL     1      17.757 -55.946 -53.149  1.00  0.00    -0.203 OA
HETATM   28  O3  UNL     1      17.430 -56.051 -50.726  1.00  0.00    -0.203 OA
BRANCH  26  29
HETATM   29  N1  UNL     1      19.722 -55.191 -51.601  1.00  0.00    -0.191 N 
ATOM     30  H1  UNL     1      20.467 -55.383 -50.932  1.00  0.00     0.207 HD
BRANCH  29  31
HETATM   31  O1  UNL     1      19.701 -54.083 -52.356  1.00  0.00    -0.271 OA
BRANCH  31  32
HETATM   32  C2  UNL     1      19.300 -53.040 -51.488  1.00  0.00     0.197 C 
HETATM   33  C1  UNL     1      20.045 -53.204 -50.194  1.00  0.00     0.036 C 
ENDBRANCH  31  32
ENDBRANCH  29  31
ENDBRANCH  26  29
ENDBRANCH  25  26
BRANCH  25  34
HETATM   34  C23 UNL     1      19.566 -58.197 -50.533  1.00  0.00     0.196 C 
HETATM   35  O7  UNL     1      20.481 -57.432 -50.097  1.00  0.00    -0.647 OA
HETATM   36  O8  UNL     1      19.135 -59.249 -49.724  1.00  0.00    -0.647 OA
ENDBRANCH  25  34
ENDBRANCH  24  25
ENDBRANCH  23  24
ENDBRANCH  20  23
BRANCH  21  37
HETATM   37  N3  UNL     1      16.752 -63.268 -53.304  1.00  0.00    -0.342 N 
ATOM     38  H32 UNL     1      16.432 -63.901 -52.571  1.00  0.00     0.176 HD
ATOM     39  H31 UNL     1      16.524 -63.482 -54.275  1.00  0.00     0.176 HD
ENDBRANCH  21  37
ENDBRANCH  18  20
ENDBRANCH  15  18
ENDBRANCH  13  14
ENDBRANCH   1  13
BRANCH   9  40
HETATM   40  C12 UNL     1      12.406 -59.533 -59.058  1.00  0.00     0.135 A 
HETATM   41  N10 UNL     1      12.843 -60.740 -58.779  1.00  0.00    -0.357 N 
HETATM   42  C13 UNL     1      12.012 -61.690 -58.105  1.00  0.00     0.262 A 
ATOM     43  H10 UNL     1      13.791 -61.005 -59.048  1.00  0.00     0.162 HD
HETATM   44  N11 UNL     1      10.700 -61.188 -57.764  1.00  0.00    -0.318 N 
HETATM   45  N12 UNL     1      10.276 -59.903 -58.075  1.00  0.00    -0.298 N 
ATOM     46  H11 UNL     1      10.055 -61.807 -57.272  1.00  0.00     0.182 HD
HETATM   47  C14 UNL     1      11.072 -59.082 -58.697  1.00  0.00     0.125 A 
ATOM     48  H12 UNL     1       9.336 -59.602 -57.816  1.00  0.00     0.187 HD
BRANCH  47  49
HETATM   49  C15 UNL     1      10.595 -57.720 -59.000  1.00  0.00     0.107 A 
HETATM   50  N13 UNL     1      10.261 -56.770 -58.164  1.00  0.00    -0.347 N 
HETATM   51  C16 UNL     1       9.853 -55.616 -58.604  1.00  0.00     0.050 A 
ATOM     52  H13 UNL     1      10.320 -56.936 -57.160  1.00  0.00     0.167 HD
HETATM   53  C17 UNL     1       9.464 -54.508 -57.823  1.00  0.00     0.031 A 
HETATM   54  C21 UNL     1       9.791 -55.444 -59.965  1.00  0.00     0.033 A 
HETATM   55  C18 UNL     1       9.061 -53.367 -58.427  1.00  0.00     0.002 A 
HETATM   56  C19 UNL     1       8.988 -53.165 -59.801  1.00  0.00     0.002 A 
HETATM   57  C20 UNL     1       9.370 -54.251 -60.567  1.00  0.00     0.021 A 
HETATM   58  S2  UNL     1      10.333 -56.982 -60.520  1.00  0.00    -0.068 SA
ENDBRANCH  47  49
ENDBRANCH   9  40
TORSDOF 15
ENDMDL
