MODEL 1
REMARK VINA RESULT: -9.737831490      0.000      0.000
REMARK  16 active torsions:
REMARK  status: ('A' for Active; 'I' for Inactive)
REMARK    1  A    between atoms: C2_2  and  C3_4 
REMARK    2  A    between atoms: C3_4  and  C4_5 
REMARK    3  A    between atoms: C3_4  and  C21_45 
REMARK    4  A    between atoms: C4_5  and  O3_7 
REMARK    5  A    between atoms: O3_7  and  C5_8 
REMARK    6  A    between atoms: C5_8  and  C6_9 
REMARK    7  A    between atoms: C6_9  and  O4_10 
REMARK    8  A    between atoms: C9_16  and  O7_17 
REMARK    9  A    between atoms: O7_17  and  C10_18 
REMARK   10  A    between atoms: C11_20  and  C12_21 
REMARK       I    between atoms: C12_21  and  N1_23 
REMARK   11  A    between atoms: N1_23  and  O10_24 
REMARK   12  A    between atoms: N1_23  and  N2_26 
REMARK   13  A    between atoms: N2_26  and  N3_28 
REMARK       I    between atoms: N3_28  and  C13_30 
REMARK   14  A    between atoms: C13_30  and  C14_32 
REMARK   15  A    between atoms: C18_36  and  O12_37 
REMARK   16  A    between atoms: C18_36  and  C19_39 
ROOT
HETATM    1  C6  UNL     1      19.205 -59.914 -51.987  1.00  0.00     0.220 C 
HETATM    2  O5  UNL     1      18.468 -61.060 -51.804  1.00  0.00    -0.278 OA
HETATM    3  C7  UNL     1      17.501 -61.303 -52.752  1.00  0.00     0.273 C 
HETATM    4  O6  UNL     1      16.816 -62.355 -52.786  1.00  0.00    -0.264 OA
HETATM    5  C8  UNL     1      17.441 -60.153 -53.650  1.00  0.00     0.175 C 
HETATM    6  C9  UNL     1      18.173 -60.378 -54.990  1.00  0.00     0.282 C 
HETATM    7  O16 UNL     1      19.381 -60.053 -54.370  1.00  0.00    -0.348 OA
HETATM    8  C20 UNL     1      18.716 -59.394 -53.341  1.00  0.00     0.208 C 
ENDROOT
BRANCH   6   9
HETATM    9  O7  UNL     1      17.830 -59.414 -55.932  1.00  0.00    -0.307 OA
BRANCH   9  10
HETATM   10  C10 UNL     1      16.523 -59.607 -56.405  1.00  0.00     0.419 C 
HETATM   11  O8  UNL     1      16.309 -60.931 -56.609  1.00  0.00    -0.324 OA
HETATM   12  C11 UNL     1      16.442 -61.383 -57.856  1.00  0.00     0.228 C 
HETATM   13  C17 UNL     1      17.366 -60.644 -58.793  1.00  0.00     0.122 C 
HETATM   14  C18 UNL     1      17.318 -59.154 -58.539  1.00  0.00     0.260 C 
HETATM   15  O15 UNL     1      16.377 -58.872 -57.549  1.00  0.00    -0.291 OA
BRANCH  12  16
HETATM   16  C12 UNL     1      15.118 -61.638 -58.477  1.00  0.00     0.294 C 
HETATM   17  O9  UNL     1      14.910 -61.215 -59.679  1.00  0.00    -0.266 OA
HETATM   18  N1  UNL     1      14.040 -62.313 -57.872  1.00  0.00    -0.109 N 
BRANCH  18  19
HETATM   19  O10 UNL     1      14.245 -62.795 -56.596  1.00  0.00    -0.264 OA
ATOM     20  H10 UNL     1      14.335 -62.151 -55.904  1.00  0.00     0.247 HD
ENDBRANCH  18  19
BRANCH  18  21
HETATM   21  N2  UNL     1      12.812 -62.513 -58.458  1.00  0.00    -0.210 N 
ATOM     22  H2  UNL     1      12.504 -63.445 -58.734  1.00  0.00     0.211 HD
BRANCH  21  23
HETATM   23  N3  UNL     1      12.020 -61.415 -58.657  1.00  0.00    -0.253 N 
HETATM   24  C13 UNL     1      11.478 -60.739 -57.533  1.00  0.00     0.240 C 
HETATM   25  O11 UNL     1      11.727 -61.147 -56.357  1.00  0.00    -0.271 OA
ATOM     26  H3  UNL     1      11.821 -61.086 -59.602  1.00  0.00     0.191 HD
BRANCH  24  27
HETATM   27  C14 UNL     1      10.602 -59.532 -57.680  1.00  0.00     0.071 C 
HETATM   28  C15 UNL     1       9.616 -59.792 -58.799  1.00  0.00     0.019 C 
HETATM   29  C16 UNL     1      11.495 -58.352 -58.043  1.00  0.00     0.019 C 
ENDBRANCH  24  27
ENDBRANCH  21  23
ENDBRANCH  18  21
ENDBRANCH  12  16
BRANCH  14  30
HETATM   30  O12 UNL     1      18.548 -58.688 -58.104  1.00  0.00    -0.357 OA
ATOM     31  H12 UNL     1      18.612 -58.738 -57.157  1.00  0.00     0.213 HD
ENDBRANCH  14  30
BRANCH  14  32
HETATM   32  C19 UNL     1      16.948 -58.395 -59.752  1.00  0.00     0.239 C 
HETATM   33  O13 UNL     1      17.469 -58.567 -60.862  1.00  0.00    -0.644 OA
HETATM   34  O14 UNL     1      15.939 -57.420 -59.635  1.00  0.00    -0.644 OA
ENDBRANCH  14  32
ENDBRANCH   9  10
ENDBRANCH   6   9
BRANCH   1  35
HETATM   35  C5  UNL     1      19.027 -58.796 -51.018  1.00  0.00     0.250 C 
BRANCH  35  36
HETATM   36  O3  UNL     1      19.174 -57.545 -51.585  1.00  0.00    -0.315 OA
BRANCH  36  37
HETATM   37  C4  UNL     1      18.494 -56.382 -51.328  1.00  0.00     0.276 C 
HETATM   38  O2  UNL     1      17.545 -56.419 -50.524  1.00  0.00    -0.264 OA
BRANCH  37  39
HETATM   39  C3  UNL     1      18.865 -55.074 -51.996  1.00  0.00     0.205 C 
BRANCH  39  40
HETATM   40  C2  UNL     1      18.439 -53.928 -51.182  1.00  0.00     0.142 C 
HETATM   41  C1  UNL     1      19.248 -53.536 -50.002  1.00  0.00     0.092 C 
HETATM   42  O1  UNL     1      17.430 -53.279 -51.448  1.00  0.00    -0.297 OA
ENDBRANCH  39  40
BRANCH  39  43
HETATM   43  C21 UNL     1      18.211 -55.007 -53.318  1.00  0.00     0.050 A 
HETATM   44  C22 UNL     1      17.244 -55.793 -53.895  1.00  0.00     0.121 A 
HETATM   45  N4  UNL     1      16.943 -55.348 -55.125  1.00  0.00    -0.312 N 
HETATM   46  C23 UNL     1      15.945 -55.948 -56.012  1.00  0.00     0.160 C 
HETATM   47  C24 UNL     1      17.718 -54.267 -55.347  1.00  0.00     0.326 A 
HETATM   48  O17 UNL     1      17.686 -53.606 -56.413  1.00  0.00    -0.246 OA
HETATM   49  N5  UNL     1      18.486 -54.064 -54.251  1.00  0.00    -0.310 N 
ATOM     50  H5  UNL     1      19.168 -53.313 -54.144  1.00  0.00     0.170 HD
ENDBRANCH  39  43
ENDBRANCH  37  39
ENDBRANCH  36  37
ENDBRANCH  35  36
ENDBRANCH   1  35
BRANCH   1  51
HETATM   51  O4  UNL     1      20.554 -60.299 -52.092  1.00  0.00    -0.361 OA
ATOM     52  H4  UNL     1      20.676 -61.213 -51.867  1.00  0.00     0.213 HD
ENDBRANCH   1  51
TORSDOF 16
ENDMDL
MODEL 2
REMARK VINA RESULT: -9.638323302      1.885      3.133
REMARK  16 active torsions:
REMARK  status: ('A' for Active; 'I' for Inactive)
REMARK    1  A    between atoms: C2_2  and  C3_4 
REMARK    2  A    between atoms: C3_4  and  C4_5 
REMARK    3  A    between atoms: C3_4  and  C21_45 
REMARK    4  A    between atoms: C4_5  and  O3_7 
REMARK    5  A    between atoms: O3_7  and  C5_8 
REMARK    6  A    between atoms: C5_8  and  C6_9 
REMARK    7  A    between atoms: C6_9  and  O4_10 
REMARK    8  A    between atoms: C9_16  and  O7_17 
REMARK    9  A    between atoms: O7_17  and  C10_18 
REMARK   10  A    between atoms: C11_20  and  C12_21 
REMARK       I    between atoms: C12_21  and  N1_23 
REMARK   11  A    between atoms: N1_23  and  O10_24 
REMARK   12  A    between atoms: N1_23  and  N2_26 
REMARK   13  A    between atoms: N2_26  and  N3_28 
REMARK       I    between atoms: N3_28  and  C13_30 
REMARK   14  A    between atoms: C13_30  and  C14_32 
REMARK   15  A    between atoms: C18_36  and  O12_37 
REMARK   16  A    between atoms: C18_36  and  C19_39 
ROOT
HETATM    1  C6  UNL     1      19.110 -60.694 -52.525  1.00  0.00     0.220 C 
HETATM    2  O5  UNL     1      18.179 -61.706 -52.533  1.00  0.00    -0.278 OA
HETATM    3  C7  UNL     1      17.138 -61.550 -53.419  1.00  0.00     0.273 C 
HETATM    4  O6  UNL     1      16.267 -62.431 -53.622  1.00  0.00    -0.264 OA
HETATM    5  C8  UNL     1      17.253 -60.229 -54.032  1.00  0.00     0.175 C 
HETATM    6  C9  UNL     1      17.863 -60.259 -55.450  1.00  0.00     0.282 C 
HETATM    7  O16 UNL     1      19.140 -60.301 -54.886  1.00  0.00    -0.348 OA
HETATM    8  C20 UNL     1      18.662 -59.796 -53.681  1.00  0.00     0.208 C 
ENDROOT
BRANCH   6   9
HETATM    9  O7  UNL     1      17.662 -59.057 -56.121  1.00  0.00    -0.307 OA
BRANCH   9  10
HETATM   10  C10 UNL     1      16.356 -58.968 -56.626  1.00  0.00     0.419 C 
HETATM   11  O8  UNL     1      15.869 -60.217 -56.838  1.00  0.00    -0.324 OA
HETATM   12  C11 UNL     1      15.933 -60.691 -58.082  1.00  0.00     0.228 C 
HETATM   13  C17 UNL     1      17.016 -60.170 -58.995  1.00  0.00     0.122 C 
HETATM   14  C18 UNL     1      17.281 -58.703 -58.739  1.00  0.00     0.260 C 
HETATM   15  O15 UNL     1      16.398 -58.224 -57.771  1.00  0.00    -0.291 OA
BRANCH  12  16
HETATM   16  C12 UNL     1      14.601 -60.660 -58.736  1.00  0.00     0.294 C 
HETATM   17  O9  UNL     1      14.530 -60.298 -59.972  1.00  0.00    -0.266 OA
HETATM   18  N1  UNL     1      13.376 -60.995 -58.127  1.00  0.00    -0.109 N 
BRANCH  18  19
HETATM   19  O10 UNL     1      13.427 -61.406 -56.812  1.00  0.00    -0.264 OA
ATOM     20  H10 UNL     1      13.688 -60.758 -56.169  1.00  0.00     0.247 HD
ENDBRANCH  18  19
BRANCH  18  21
HETATM   21  N2  UNL     1      12.149 -60.931 -58.745  1.00  0.00    -0.210 N 
ATOM     22  H2  UNL     1      11.611 -61.775 -58.940  1.00  0.00     0.211 HD
BRANCH  21  23
HETATM   23  N3  UNL     1      11.679 -59.693 -59.091  1.00  0.00    -0.253 N 
HETATM   24  C13 UNL     1      11.168 -58.840 -58.080  1.00  0.00     0.240 C 
HETATM   25  O11 UNL     1      11.150 -59.218 -56.868  1.00  0.00    -0.271 OA
ATOM     26  H3  UNL     1      11.695 -59.388 -60.065  1.00  0.00     0.191 HD
BRANCH  24  27
HETATM   27  C14 UNL     1      10.636 -57.473 -58.390  1.00  0.00     0.071 C 
HETATM   28  C15 UNL     1      10.453 -57.362 -59.889  1.00  0.00     0.019 C 
HETATM   29  C16 UNL     1      11.668 -56.455 -57.919  1.00  0.00     0.019 C 
ENDBRANCH  24  27
ENDBRANCH  21  23
ENDBRANCH  18  21
ENDBRANCH  12  16
BRANCH  14  30
HETATM   30  O12 UNL     1      18.571 -58.509 -58.273  1.00  0.00    -0.357 OA
ATOM     31  H12 UNL     1      18.796 -57.587 -58.277  1.00  0.00     0.213 HD
ENDBRANCH  14  30
BRANCH  14  32
HETATM   32  C19 UNL     1      17.111 -57.887 -59.960  1.00  0.00     0.239 C 
HETATM   33  O13 UNL     1      17.409 -58.272 -61.097  1.00  0.00    -0.644 OA
HETATM   34  O14 UNL     1      16.574 -56.594 -59.815  1.00  0.00    -0.644 OA
ENDBRANCH  14  32
ENDBRANCH   9  10
ENDBRANCH   6   9
BRANCH   1  35
HETATM   35  C5  UNL     1      19.194 -59.820 -51.321  1.00  0.00     0.250 C 
BRANCH  35  36
HETATM   36  O3  UNL     1      19.489 -58.502 -51.615  1.00  0.00    -0.315 OA
BRANCH  36  37
HETATM   37  C4  UNL     1      19.718 -57.447 -50.769  1.00  0.00     0.276 C 
HETATM   38  O2  UNL     1      20.651 -57.537 -49.951  1.00  0.00    -0.264 OA
BRANCH  37  39
HETATM   39  C3  UNL     1      18.868 -56.194 -50.808  1.00  0.00     0.205 C 
BRANCH  39  40
HETATM   40  C2  UNL     1      18.792 -55.651 -52.171  1.00  0.00     0.142 C 
HETATM   41  C1  UNL     1      17.717 -56.122 -53.079  1.00  0.00     0.092 C 
HETATM   42  O1  UNL     1      19.591 -54.815 -52.586  1.00  0.00    -0.297 OA
ENDBRANCH  39  40
BRANCH  39  43
HETATM   43  C21 UNL     1      19.463 -55.182 -49.911  1.00  0.00     0.050 A 
HETATM   44  C22 UNL     1      18.994 -54.602 -48.758  1.00  0.00     0.121 A 
HETATM   45  N4  UNL     1      19.888 -53.729 -48.269  1.00  0.00    -0.312 N 
HETATM   46  C23 UNL     1      19.712 -52.946 -47.045  1.00  0.00     0.160 C 
HETATM   47  C24 UNL     1      20.944 -53.743 -49.108  1.00  0.00     0.326 A 
HETATM   48  O17 UNL     1      21.965 -53.035 -48.940  1.00  0.00    -0.246 OA
HETATM   49  N5  UNL     1      20.683 -54.624 -50.102  1.00  0.00    -0.310 N 
ATOM     50  H5  UNL     1      21.309 -54.835 -50.879  1.00  0.00     0.170 HD
ENDBRANCH  39  43
ENDBRANCH  37  39
ENDBRANCH  36  37
ENDBRANCH  35  36
ENDBRANCH   1  35
BRANCH   1  51
HETATM   51  O4  UNL     1      20.355 -61.271 -52.835  1.00  0.00    -0.361 OA
ATOM     52  H4  UNL     1      20.267 -62.184 -53.078  1.00  0.00     0.213 HD
ENDBRANCH   1  51
TORSDOF 16
ENDMDL
MODEL 3
REMARK VINA RESULT: -9.513834370      2.084      4.720
REMARK  16 active torsions:
REMARK  status: ('A' for Active; 'I' for Inactive)
REMARK    1  A    between atoms: C2_2  and  C3_4 
REMARK    2  A    between atoms: C3_4  and  C4_5 
REMARK    3  A    between atoms: C3_4  and  C21_45 
REMARK    4  A    between atoms: C4_5  and  O3_7 
REMARK    5  A    between atoms: O3_7  and  C5_8 
REMARK    6  A    between atoms: C5_8  and  C6_9 
REMARK    7  A    between atoms: C6_9  and  O4_10 
REMARK    8  A    between atoms: C9_16  and  O7_17 
REMARK    9  A    between atoms: O7_17  and  C10_18 
REMARK   10  A    between atoms: C11_20  and  C12_21 
REMARK       I    between atoms: C12_21  and  N1_23 
REMARK   11  A    between atoms: N1_23  and  O10_24 
REMARK   12  A    between atoms: N1_23  and  N2_26 
REMARK   13  A    between atoms: N2_26  and  N3_28 
REMARK       I    between atoms: N3_28  and  C13_30 
REMARK   14  A    between atoms: C13_30  and  C14_32 
REMARK   15  A    between atoms: C18_36  and  O12_37 
REMARK   16  A    between atoms: C18_36  and  C19_39 
ROOT
HETATM    1  C6  UNL     1      18.414 -56.305 -51.320  1.00  0.00     0.220 C 
HETATM    2  O5  UNL     1      18.003 -55.024 -51.036  1.00  0.00    -0.278 OA
HETATM    3  C7  UNL     1      17.809 -54.205 -52.125  1.00  0.00     0.273 C 
HETATM    4  O6  UNL     1      17.336 -53.045 -52.041  1.00  0.00    -0.264 OA
HETATM    5  C8  UNL     1      18.243 -54.924 -53.320  1.00  0.00     0.175 C 
HETATM    6  C9  UNL     1      17.078 -55.527 -54.133  1.00  0.00     0.282 C 
HETATM    7  O16 UNL     1      17.059 -56.624 -53.268  1.00  0.00    -0.348 OA
HETATM    8  C20 UNL     1      18.359 -56.360 -52.849  1.00  0.00     0.208 C 
ENDROOT
BRANCH   6   9
HETATM    9  O7  UNL     1      17.485 -55.914 -55.406  1.00  0.00    -0.307 OA
BRANCH   9  10
HETATM   10  C10 UNL     1      16.665 -56.933 -55.914  1.00  0.00     0.419 C 
HETATM   11  O8  UNL     1      17.378 -58.084 -56.002  1.00  0.00    -0.324 OA
HETATM   12  C11 UNL     1      17.889 -58.394 -57.194  1.00  0.00     0.228 C 
HETATM   13  C17 UNL     1      18.200 -57.273 -58.155  1.00  0.00     0.122 C 
HETATM   14  C18 UNL     1      17.176 -56.165 -58.045  1.00  0.00     0.260 C 
HETATM   15  O15 UNL     1      16.188 -56.522 -57.128  1.00  0.00    -0.291 OA
BRANCH  12  16
HETATM   16  C12 UNL     1      17.111 -59.477 -57.845  1.00  0.00     0.294 C 
HETATM   17  O9  UNL     1      17.647 -60.114 -58.831  1.00  0.00    -0.266 OA
HETATM   18  N1  UNL     1      15.814 -59.891 -57.485  1.00  0.00    -0.109 N 
BRANCH  18  19
HETATM   19  O10 UNL     1      15.227 -59.242 -56.419  1.00  0.00    -0.264 OA
ATOM     20  H10 UNL     1      15.680 -58.480 -56.079  1.00  0.00     0.247 HD
ENDBRANCH  18  19
BRANCH  18  21
HETATM   21  N2  UNL     1      15.101 -60.879 -58.121  1.00  0.00    -0.210 N 
ATOM     22  H2  UNL     1      15.540 -61.761 -58.387  1.00  0.00     0.211 HD
BRANCH  21  23
HETATM   23  N3  UNL     1      13.780 -60.636 -58.386  1.00  0.00    -0.253 N 
HETATM   24  C13 UNL     1      12.794 -61.495 -57.838  1.00  0.00     0.240 C 
HETATM   25  O11 UNL     1      13.132 -62.478 -57.108  1.00  0.00    -0.271 OA
ATOM     26  H3  UNL     1      13.508 -59.845 -58.971  1.00  0.00     0.191 HD
BRANCH  24  27
HETATM   27  C14 UNL     1      11.331 -61.287 -58.089  1.00  0.00     0.071 C 
HETATM   28  C15 UNL     1      10.988 -59.853 -57.743  1.00  0.00     0.019 C 
HETATM   29  C16 UNL     1      10.564 -62.237 -57.178  1.00  0.00     0.019 C 
ENDBRANCH  24  27
ENDBRANCH  21  23
ENDBRANCH  18  21
ENDBRANCH  12  16
BRANCH  14  30
HETATM   30  O12 UNL     1      17.765 -54.992 -57.603  1.00  0.00    -0.357 OA
ATOM     31  H12 UNL     1      18.053 -55.078 -56.702  1.00  0.00     0.213 HD
ENDBRANCH  14  30
BRANCH  14  32
HETATM   32  C19 UNL     1      16.520 -55.885 -59.340  1.00  0.00     0.239 C 
HETATM   33  O13 UNL     1      16.091 -54.773 -59.672  1.00  0.00    -0.644 OA
HETATM   34  O14 UNL     1      16.381 -56.950 -60.249  1.00  0.00    -0.644 OA
ENDBRANCH  14  32
ENDBRANCH   9  10
ENDBRANCH   6   9
BRANCH   1  35
HETATM   35  C5  UNL     1      19.795 -56.708 -50.933  1.00  0.00     0.250 C 
BRANCH  35  36
HETATM   36  O3  UNL     1      20.145 -57.971 -51.371  1.00  0.00    -0.315 OA
BRANCH  36  37
HETATM   37  C4  UNL     1      20.161 -59.160 -50.688  1.00  0.00     0.276 C 
HETATM   38  O2  UNL     1      20.094 -59.129 -49.446  1.00  0.00    -0.264 OA
BRANCH  37  39
HETATM   39  C3  UNL     1      20.261 -60.491 -51.403  1.00  0.00     0.205 C 
BRANCH  39  40
HETATM   40  C2  UNL     1      21.408 -60.512 -52.321  1.00  0.00     0.142 C 
HETATM   41  C1  UNL     1      22.779 -60.625 -51.765  1.00  0.00     0.092 C 
HETATM   42  O1  UNL     1      21.269 -60.439 -53.540  1.00  0.00    -0.297 OA
ENDBRANCH  39  40
BRANCH  39  43
HETATM   43  C21 UNL     1      19.018 -60.720 -52.168  1.00  0.00     0.050 A 
HETATM   44  C22 UNL     1      18.395 -61.878 -52.564  1.00  0.00     0.121 A 
HETATM   45  N4  UNL     1      17.269 -61.603 -53.241  1.00  0.00    -0.312 N 
HETATM   46  C23 UNL     1      16.358 -62.606 -53.794  1.00  0.00     0.160 C 
HETATM   47  C24 UNL     1      17.160 -60.259 -53.284  1.00  0.00     0.326 A 
HETATM   48  O17 UNL     1      16.211 -59.664 -53.848  1.00  0.00    -0.246 OA
HETATM   49  N5  UNL     1      18.222 -59.727 -52.634  1.00  0.00    -0.310 N 
ATOM     50  H5  UNL     1      18.396 -58.730 -52.513  1.00  0.00     0.170 HD
ENDBRANCH  39  43
ENDBRANCH  37  39
ENDBRANCH  36  37
ENDBRANCH  35  36
ENDBRANCH   1  35
BRANCH   1  51
HETATM   51  O4  UNL     1      17.449 -57.179 -50.785  1.00  0.00    -0.361 OA
ATOM     52  H4  UNL     1      16.746 -56.706 -50.358  1.00  0.00     0.213 HD
ENDBRANCH   1  51
TORSDOF 16
ENDMDL
MODEL 4
REMARK VINA RESULT: -9.477392387      3.626     10.668
REMARK  16 active torsions:
REMARK  status: ('A' for Active; 'I' for Inactive)
REMARK    1  A    between atoms: C2_2  and  C3_4 
REMARK    2  A    between atoms: C3_4  and  C4_5 
REMARK    3  A    between atoms: C3_4  and  C21_45 
REMARK    4  A    between atoms: C4_5  and  O3_7 
REMARK    5  A    between atoms: O3_7  and  C5_8 
REMARK    6  A    between atoms: C5_8  and  C6_9 
REMARK    7  A    between atoms: C6_9  and  O4_10 
REMARK    8  A    between atoms: C9_16  and  O7_17 
REMARK    9  A    between atoms: O7_17  and  C10_18 
REMARK   10  A    between atoms: C11_20  and  C12_21 
REMARK       I    between atoms: C12_21  and  N1_23 
REMARK   11  A    between atoms: N1_23  and  O10_24 
REMARK   12  A    between atoms: N1_23  and  N2_26 
REMARK   13  A    between atoms: N2_26  and  N3_28 
REMARK       I    between atoms: N3_28  and  C13_30 
REMARK   14  A    between atoms: C13_30  and  C14_32 
REMARK   15  A    between atoms: C18_36  and  O12_37 
REMARK   16  A    between atoms: C18_36  and  C19_39 
ROOT
HETATM    1  C6  UNL     1      18.300 -60.893 -53.000  1.00  0.00     0.220 C 
HETATM    2  O5  UNL     1      19.618 -61.075 -53.348  1.00  0.00    -0.278 OA
HETATM    3  C7  UNL     1      20.476 -60.062 -52.986  1.00  0.00     0.273 C 
HETATM    4  O6  UNL     1      21.721 -60.124 -53.138  1.00  0.00    -0.264 OA
HETATM    5  C8  UNL     1      19.683 -58.970 -52.427  1.00  0.00     0.175 C 
HETATM    6  C9  UNL     1      19.699 -58.925 -50.884  1.00  0.00     0.282 C 
HETATM    7  O16 UNL     1      18.697 -59.898 -50.858  1.00  0.00    -0.348 OA
HETATM    8  C20 UNL     1      18.332 -59.607 -52.169  1.00  0.00     0.208 C 
ENDROOT
BRANCH   6   9
HETATM    9  O7  UNL     1      19.217 -57.713 -50.400  1.00  0.00    -0.307 OA
BRANCH   9  10
HETATM   10  C10 UNL     1      20.195 -56.710 -50.476  1.00  0.00     0.419 C 
HETATM   11  O8  UNL     1      20.439 -56.223 -49.234  1.00  0.00    -0.324 OA
HETATM   12  C11 UNL     1      19.821 -55.092 -48.891  1.00  0.00     0.228 C 
HETATM   13  C17 UNL     1      18.505 -54.765 -49.554  1.00  0.00     0.122 C 
HETATM   14  C18 UNL     1      18.499 -55.213 -50.998  1.00  0.00     0.260 C 
HETATM   15  O15 UNL     1      19.743 -55.746 -51.334  1.00  0.00    -0.291 OA
BRANCH  12  16
HETATM   16  C12 UNL     1      20.756 -53.940 -48.924  1.00  0.00     0.294 C 
HETATM   17  O9  UNL     1      21.544 -53.816 -49.938  1.00  0.00    -0.266 OA
HETATM   18  N1  UNL     1      20.871 -52.943 -47.936  1.00  0.00    -0.109 N 
BRANCH  18  19
HETATM   19  O10 UNL     1      20.023 -53.041 -46.852  1.00  0.00    -0.264 OA
ATOM     20  H10 UNL     1      19.884 -52.250 -46.345  1.00  0.00     0.247 HD
ENDBRANCH  18  19
BRANCH  18  21
HETATM   21  N2  UNL     1      21.765 -51.899 -47.975  1.00  0.00    -0.210 N 
ATOM     22  H2  UNL     1      21.508 -50.998 -48.377  1.00  0.00     0.211 HD
BRANCH  21  23
HETATM   23  N3  UNL     1      23.013 -52.115 -47.456  1.00  0.00    -0.253 N 
HETATM   24  C13 UNL     1      23.225 -51.932 -46.066  1.00  0.00     0.240 C 
HETATM   25  O11 UNL     1      22.269 -51.575 -45.311  1.00  0.00    -0.271 OA
ATOM     26  H3  UNL     1      23.781 -52.404 -48.062  1.00  0.00     0.191 HD
BRANCH  24  27
HETATM   27  C14 UNL     1      24.567 -52.150 -45.433  1.00  0.00     0.071 C 
HETATM   28  C15 UNL     1      25.620 -52.099 -46.520  1.00  0.00     0.019 C 
HETATM   29  C16 UNL     1      24.556 -53.530 -44.787  1.00  0.00     0.019 C 
ENDBRANCH  24  27
ENDBRANCH  21  23
ENDBRANCH  18  21
ENDBRANCH  12  16
BRANCH  14  30
HETATM   30  O12 UNL     1      17.544 -56.194 -51.206  1.00  0.00    -0.357 OA
ATOM     31  H12 UNL     1      17.932 -56.964 -51.604  1.00  0.00     0.213 HD
ENDBRANCH  14  30
BRANCH  14  32
HETATM   32  C19 UNL     1      18.213 -54.097 -51.925  1.00  0.00     0.239 C 
HETATM   33  O13 UNL     1      18.557 -54.078 -53.113  1.00  0.00    -0.644 OA
HETATM   34  O14 UNL     1      17.503 -52.991 -51.420  1.00  0.00    -0.644 OA
ENDBRANCH  14  32
ENDBRANCH   9  10
ENDBRANCH   6   9
BRANCH   1  35
HETATM   35  C5  UNL     1      17.306 -60.668 -54.086  1.00  0.00     0.250 C 
BRANCH  35  36
HETATM   36  O3  UNL     1      17.861 -60.663 -55.351  1.00  0.00    -0.315 OA
BRANCH  36  37
HETATM   37  C4  UNL     1      17.521 -59.921 -56.453  1.00  0.00     0.276 C 
HETATM   38  O2  UNL     1      18.090 -58.828 -56.628  1.00  0.00    -0.264 OA
BRANCH  37  39
HETATM   39  C3  UNL     1      16.481 -60.396 -57.446  1.00  0.00     0.205 C 
BRANCH  39  40
HETATM   40  C2  UNL     1      16.713 -61.796 -57.823  1.00  0.00     0.142 C 
HETATM   41  C1  UNL     1      15.636 -62.793 -57.609  1.00  0.00     0.092 C 
HETATM   42  O1  UNL     1      17.776 -62.172 -58.314  1.00  0.00    -0.297 OA
ENDBRANCH  39  40
BRANCH  39  43
HETATM   43  C21 UNL     1      16.545 -59.547 -58.652  1.00  0.00     0.050 A 
HETATM   44  C22 UNL     1      15.578 -58.827 -59.310  1.00  0.00     0.121 A 
HETATM   45  N4  UNL     1      16.099 -58.189 -60.370  1.00  0.00    -0.312 N 
HETATM   46  C23 UNL     1      15.348 -57.324 -61.281  1.00  0.00     0.160 C 
HETATM   47  C24 UNL     1      17.413 -58.496 -60.400  1.00  0.00     0.326 A 
HETATM   48  O17 UNL     1      18.200 -58.060 -61.273  1.00  0.00    -0.246 OA
HETATM   49  N5  UNL     1      17.679 -59.319 -59.359  1.00  0.00    -0.310 N 
ATOM     50  H5  UNL     1      18.596 -59.709 -59.140  1.00  0.00     0.170 HD
ENDBRANCH  39  43
ENDBRANCH  37  39
ENDBRANCH  36  37
ENDBRANCH  35  36
ENDBRANCH   1  35
BRANCH   1  51
HETATM   51  O4  UNL     1      17.934 -61.973 -52.176  1.00  0.00    -0.361 OA
ATOM     52  H4  UNL     1      17.016 -62.194 -52.275  1.00  0.00     0.213 HD
ENDBRANCH   1  51
TORSDOF 16
ENDMDL
MODEL 5
REMARK VINA RESULT: -9.375182276      3.339     10.328
REMARK  16 active torsions:
REMARK  status: ('A' for Active; 'I' for Inactive)
REMARK    1  A    between atoms: C2_2  and  C3_4 
REMARK    2  A    between atoms: C3_4  and  C4_5 
REMARK    3  A    between atoms: C3_4  and  C21_45 
REMARK    4  A    between atoms: C4_5  and  O3_7 
REMARK    5  A    between atoms: O3_7  and  C5_8 
REMARK    6  A    between atoms: C5_8  and  C6_9 
REMARK    7  A    between atoms: C6_9  and  O4_10 
REMARK    8  A    between atoms: C9_16  and  O7_17 
REMARK    9  A    between atoms: O7_17  and  C10_18 
REMARK   10  A    between atoms: C11_20  and  C12_21 
REMARK       I    between atoms: C12_21  and  N1_23 
REMARK   11  A    between atoms: N1_23  and  O10_24 
REMARK   12  A    between atoms: N1_23  and  N2_26 
REMARK   13  A    between atoms: N2_26  and  N3_28 
REMARK       I    between atoms: N3_28  and  C13_30 
REMARK   14  A    between atoms: C13_30  and  C14_32 
REMARK   15  A    between atoms: C18_36  and  O12_37 
REMARK   16  A    between atoms: C18_36  and  C19_39 
ROOT
HETATM    1  C6  UNL     1      18.411 -60.918 -52.993  1.00  0.00     0.220 C 
HETATM    2  O5  UNL     1      19.733 -61.081 -53.335  1.00  0.00    -0.278 OA
HETATM    3  C7  UNL     1      20.572 -60.050 -52.980  1.00  0.00     0.273 C 
HETATM    4  O6  UNL     1      21.818 -60.091 -53.126  1.00  0.00    -0.264 OA
HETATM    5  C8  UNL     1      19.758 -58.965 -52.435  1.00  0.00     0.175 C 
HETATM    6  C9  UNL     1      19.766 -58.904 -50.893  1.00  0.00     0.282 C 
HETATM    7  O16 UNL     1      18.782 -59.895 -50.861  1.00  0.00    -0.348 OA
HETATM    8  C20 UNL     1      18.417 -59.623 -52.176  1.00  0.00     0.208 C 
ENDROOT
BRANCH   6   9
HETATM    9  O7  UNL     1      19.262 -57.696 -50.423  1.00  0.00    -0.307 OA
BRANCH   9  10
HETATM   10  C10 UNL     1      20.184 -56.655 -50.606  1.00  0.00     0.419 C 
HETATM   11  O8  UNL     1      20.507 -56.122 -49.400  1.00  0.00    -0.324 OA
HETATM   12  C11 UNL     1      19.868 -55.009 -49.036  1.00  0.00     0.228 C 
HETATM   13  C17 UNL     1      18.489 -54.758 -49.595  1.00  0.00     0.122 C 
HETATM   14  C18 UNL     1      18.384 -55.248 -51.022  1.00  0.00     0.260 C 
HETATM   15  O15 UNL     1      19.619 -55.736 -51.447  1.00  0.00    -0.291 OA
BRANCH  12  16
HETATM   16  C12 UNL     1      20.744 -53.819 -49.176  1.00  0.00     0.294 C 
HETATM   17  O9  UNL     1      20.872 -53.283 -50.343  1.00  0.00    -0.266 OA
HETATM   18  N1  UNL     1      21.466 -53.201 -48.137  1.00  0.00    -0.109 N 
BRANCH  18  19
HETATM   19  O10 UNL     1      21.328 -53.741 -46.876  1.00  0.00    -0.264 OA
ATOM     20  H10 UNL     1      20.843 -53.229 -46.241  1.00  0.00     0.247 HD
ENDBRANCH  18  19
BRANCH  18  21
HETATM   21  N2  UNL     1      22.294 -52.114 -48.296  1.00  0.00    -0.210 N 
ATOM     22  H2  UNL     1      23.299 -52.229 -48.423  1.00  0.00     0.211 HD
BRANCH  21  23
HETATM   23  N3  UNL     1      21.718 -50.873 -48.278  1.00  0.00    -0.253 N 
HETATM   24  C13 UNL     1      21.367 -50.291 -47.033  1.00  0.00     0.240 C 
HETATM   25  O11 UNL     1      21.586 -50.914 -45.948  1.00  0.00    -0.271 OA
ATOM     26  H3  UNL     1      21.544 -50.371 -49.149  1.00  0.00     0.191 HD
BRANCH  24  27
HETATM   27  C14 UNL     1      20.732 -48.936 -46.941  1.00  0.00     0.071 C 
HETATM   28  C15 UNL     1      19.652 -48.843 -47.998  1.00  0.00     0.019 C 
HETATM   29  C16 UNL     1      21.814 -47.898 -47.214  1.00  0.00     0.019 C 
ENDBRANCH  24  27
ENDBRANCH  21  23
ENDBRANCH  18  21
ENDBRANCH  12  16
BRANCH  14  30
HETATM   30  O12 UNL     1      17.461 -56.275 -51.124  1.00  0.00    -0.357 OA
ATOM     31  H12 UNL     1      17.507 -56.847 -50.368  1.00  0.00     0.213 HD
ENDBRANCH  14  30
BRANCH  14  32
HETATM   32  C19 UNL     1      17.973 -54.172 -51.949  1.00  0.00     0.239 C 
HETATM   33  O13 UNL     1      17.529 -53.076 -51.584  1.00  0.00    -0.644 OA
HETATM   34  O14 UNL     1      18.098 -54.413 -53.330  1.00  0.00    -0.644 OA
ENDBRANCH  14  32
ENDBRANCH   9  10
ENDBRANCH   6   9
BRANCH   1  35
HETATM   35  C5  UNL     1      17.417 -60.722 -54.085  1.00  0.00     0.250 C 
BRANCH  35  36
HETATM   36  O3  UNL     1      17.988 -60.616 -55.339  1.00  0.00    -0.315 OA
BRANCH  36  37
HETATM   37  C4  UNL     1      17.592 -59.872 -56.421  1.00  0.00     0.276 C 
HETATM   38  O2  UNL     1      18.132 -58.767 -56.608  1.00  0.00    -0.264 OA
BRANCH  37  39
HETATM   39  C3  UNL     1      16.523 -60.359 -57.378  1.00  0.00     0.205 C 
BRANCH  39  40
HETATM   40  C2  UNL     1      16.738 -61.768 -57.734  1.00  0.00     0.142 C 
HETATM   41  C1  UNL     1      15.758 -62.787 -57.284  1.00  0.00     0.092 C 
HETATM   42  O1  UNL     1      17.707 -62.133 -58.397  1.00  0.00    -0.297 OA
ENDBRANCH  39  40
BRANCH  39  43
HETATM   43  C21 UNL     1      16.561 -59.533 -58.601  1.00  0.00     0.050 A 
HETATM   44  C22 UNL     1      15.577 -58.834 -59.256  1.00  0.00     0.121 A 
HETATM   45  N4  UNL     1      16.076 -58.213 -60.337  1.00  0.00    -0.312 N 
HETATM   46  C23 UNL     1      15.304 -57.372 -61.252  1.00  0.00     0.160 C 
HETATM   47  C24 UNL     1      17.391 -58.512 -60.383  1.00  0.00     0.326 A 
HETATM   48  O17 UNL     1      18.161 -58.087 -61.278  1.00  0.00    -0.246 OA
HETATM   49  N5  UNL     1      17.681 -59.312 -59.331  1.00  0.00    -0.310 N 
ATOM     50  H5  UNL     1      18.604 -59.691 -59.120  1.00  0.00     0.170 HD
ENDBRANCH  39  43
ENDBRANCH  37  39
ENDBRANCH  36  37
ENDBRANCH  35  36
ENDBRANCH   1  35
BRANCH   1  51
HETATM   51  O4  UNL     1      18.061 -61.996 -52.160  1.00  0.00    -0.361 OA
ATOM     52  H4  UNL     1      17.930 -62.795 -52.657  1.00  0.00     0.213 HD
ENDBRANCH   1  51
TORSDOF 16
ENDMDL
