MODEL 1
REMARK VINA RESULT: -9.425347348      0.000      0.000
REMARK  19 active torsions:
REMARK  status: ('A' for Active; 'I' for Inactive)
REMARK    1  A    between atoms: N1_2  and  O1_4 
REMARK    2  A    between atoms: O1_4  and  C3_5 
REMARK       I    between atoms: C3_5  and  N2_7 
REMARK    3  A    between atoms: N2_7  and  C4_9 
REMARK    4  A    between atoms: C4_9  and  C5_10 
REMARK    5  A    between atoms: C5_10  and  C6_11 
REMARK    6  A    between atoms: C6_11  and  C7_12 
REMARK    7  A    between atoms: C7_12  and  O3_13 
REMARK    8  A    between atoms: O3_13  and  C8_14 
REMARK       I    between atoms: C8_14  and  N3_16 
REMARK    9  A    between atoms: C10_18  and  N4_19 
REMARK   10  A    between atoms: C12_25  and  N7_26 
REMARK   11  A    between atoms: C15_35  and  N10_36 
REMARK   12  A    between atoms: N10_36  and  C16_38 
REMARK   13  A    between atoms: C16_38  and  N11_39 
REMARK   14  A    between atoms: N11_39  and  C17_41 
REMARK   15  A    between atoms: C17_41  and  O5_42 
REMARK   16  A    between atoms: N12_44  and  O6_46 
REMARK   17  A    between atoms: C22_55  and  C23_56 
REMARK   18  A    between atoms: C23_56  and  O10_57 
REMARK   19  A    between atoms: C23_56  and  N13_59 
ROOT
HETATM    1  C8  UNL     1      17.756 -57.421 -57.806  1.00  0.00     0.363 C 
HETATM    2  O4  UNL     1      18.923 -57.883 -57.965  1.00  0.00    -0.238 OA
HETATM    3  N3  UNL     1      16.703 -58.307 -57.375  1.00  0.00    -0.311 N 
HETATM    4  C9  UNL     1      15.318 -57.955 -57.129  1.00  0.00     0.158 C 
HETATM    5  C10 UNL     1      14.747 -58.957 -56.175  1.00  0.00     0.154 C 
HETATM    6  C15 UNL     1      15.864 -59.956 -55.977  1.00  0.00     0.140 C 
HETATM    7  C22 UNL     1      16.871 -59.678 -57.094  1.00  0.00     0.188 C 
ENDROOT
BRANCH   6   8
HETATM    8  N10 UNL     1      16.490 -59.694 -54.714  1.00  0.00    -0.366 N 
ATOM      9  H10 UNL     1      16.290 -58.788 -54.292  1.00  0.00     0.161 HD
BRANCH   8  10
HETATM   10  C16 UNL     1      17.345 -60.541 -53.993  1.00  0.00     0.123 C 
HETATM   11  C18 UNL     1      18.113 -60.054 -53.044  1.00  0.00     0.116 A 
HETATM   12  C19 UNL     1      19.110 -60.608 -52.099  1.00  0.00     0.243 A 
HETATM   13  C21 UNL     1      18.352 -58.739 -52.481  1.00  0.00     0.243 A 
HETATM   14  O7  UNL     1      19.544 -61.788 -51.901  1.00  0.00    -0.283 OA
HETATM   15  C20 UNL     1      19.331 -59.283 -51.553  1.00  0.00     0.273 A 
HETATM   16  O8  UNL     1      20.084 -58.808 -50.633  1.00  0.00    -0.280 OA
HETATM   17  O9  UNL     1      17.950 -57.557 -52.637  1.00  0.00    -0.283 OA
BRANCH  10  18
HETATM   18  N11 UNL     1      17.398 -61.933 -54.284  1.00  0.00    -0.306 N 
ATOM     19  H11 UNL     1      18.193 -62.302 -54.805  1.00  0.00     0.171 HD
BRANCH  18  20
HETATM   20  C17 UNL     1      16.369 -62.820 -53.867  1.00  0.00     0.242 C 
HETATM   21  N12 UNL     1      16.576 -63.784 -53.041  1.00  0.00    -0.233 N 
ATOM     22  H12 UNL     1      17.526 -63.894 -52.688  1.00  0.00     0.198 HD
BRANCH  20  23
HETATM   23  O5  UNL     1      15.092 -62.637 -54.364  1.00  0.00    -0.331 OA
ATOM     24  H5  UNL     1      14.383 -63.155 -54.002  1.00  0.00     0.221 HD
ENDBRANCH  20  23
BRANCH  21  25
HETATM   25  O6  UNL     1      15.651 -64.665 -52.596  1.00  0.00    -0.287 OA
ATOM     26  H6  UNL     1      15.828 -65.514 -52.207  1.00  0.00     0.244 HD
ENDBRANCH  21  25
ENDBRANCH  18  20
ENDBRANCH  10  18
ENDBRANCH   8  10
ENDBRANCH   6   8
BRANCH   5  27
HETATM   27  N4  UNL     1      13.537 -59.562 -56.646  1.00  0.00    -0.251 N 
HETATM   28  N5  UNL     1      13.059 -60.728 -56.278  1.00  0.00    -0.238 N 
HETATM   29  N6  UNL     1      11.926 -60.998 -56.898  1.00  0.00    -0.279 N 
ATOM     30  H5  UNL     1      13.507 -61.345 -55.601  1.00  0.00     0.208 HD
HETATM   31  C11 UNL     1      11.636 -59.974 -57.709  1.00  0.00     0.139 A 
ATOM     32  H6  UNL     1      11.366 -61.842 -56.778  1.00  0.00     0.189 HD
HETATM   33  C12 UNL     1      10.597 -59.701 -58.593  1.00  0.00     0.132 A 
HETATM   34  C14 UNL     1      12.674 -59.058 -57.542  1.00  0.00     0.157 A 
HETATM   35  N8  UNL     1      10.560 -58.561 -59.306  1.00  0.00    -0.337 N 
HETATM   36  C13 UNL     1      11.588 -57.691 -59.117  1.00  0.00     0.183 A 
ATOM     37  H8  UNL     1       9.799 -58.360 -59.955  1.00  0.00     0.168 HD
HETATM   38  N9  UNL     1      12.605 -57.926 -58.271  1.00  0.00    -0.335 N 
ATOM     39  H9  UNL     1      13.345 -57.230 -58.178  1.00  0.00     0.168 HD
BRANCH  33  40
HETATM   40  N7  UNL     1       9.628 -60.537 -58.757  1.00  0.00    -0.383 N 
ATOM     41  H72 UNL     1       8.795 -60.410 -58.180  1.00  0.00     0.157 HD
ATOM     42  H71 UNL     1       9.697 -61.294 -59.437  1.00  0.00     0.157 HD
ENDBRANCH  33  40
ENDBRANCH   5  27
BRANCH   7  43
HETATM   43  C23 UNL     1      16.820 -60.666 -58.145  1.00  0.00     0.138 C 
BRANCH  43  44
HETATM   44  O10 UNL     1      17.914 -60.689 -58.869  1.00  0.00    -0.348 OA
ATOM     45  H10 UNL     1      17.747 -60.913 -59.776  1.00  0.00     0.219 HD
ENDBRANCH  43  44
BRANCH  43  46
HETATM   46  N13 UNL     1      15.866 -61.596 -58.559  1.00  0.00    -0.372 N 
HETATM   47  C24 UNL     1      14.915 -61.217 -59.649  1.00  0.00     0.150 C 
HETATM   48  C25 UNL     1      15.630 -62.932 -58.073  1.00  0.00     0.150 C 
ENDBRANCH  43  46
ENDBRANCH   7  43
BRANCH   1  49
HETATM   49  O3  UNL     1      17.565 -56.079 -58.058  1.00  0.00    -0.304 OA
BRANCH  49  50
HETATM   50  C7  UNL     1      17.862 -55.044 -57.178  1.00  0.00     0.180 C 
BRANCH  50  51
HETATM   51  C6  UNL     1      16.624 -54.491 -56.449  1.00  0.00     0.028 C 
BRANCH  51  52
HETATM   52  C5  UNL     1      16.606 -54.859 -55.031  1.00  0.00     0.022 C 
BRANCH  52  53
HETATM   53  C4  UNL     1      17.554 -54.150 -54.149  1.00  0.00     0.125 C 
BRANCH  53  54
HETATM   54  N2  UNL     1      18.266 -54.826 -53.129  1.00  0.00    -0.335 N 
HETATM   55  C3  UNL     1      19.306 -54.391 -52.300  1.00  0.00     0.382 C 
HETATM   56  O2  UNL     1      19.814 -53.262 -52.294  1.00  0.00    -0.236 OA
ATOM     57  H2  UNL     1      17.971 -55.789 -52.971  1.00  0.00     0.164 HD
BRANCH  55  58
HETATM   58  O1  UNL     1      19.892 -55.249 -51.352  1.00  0.00    -0.184 OA
BRANCH  58  59
HETATM   59  N1  UNL     1      19.567 -55.329 -50.080  1.00  0.00    -0.292 N 
HETATM   60  C1  UNL     1      18.322 -55.774 -49.632  1.00  0.00     0.178 C 
HETATM   61  C2  UNL     1      20.524 -55.075 -49.073  1.00  0.00     0.178 C 
ENDBRANCH  58  59
ENDBRANCH  55  58
ENDBRANCH  53  54
ENDBRANCH  52  53
ENDBRANCH  51  52
ENDBRANCH  50  51
ENDBRANCH  49  50
ENDBRANCH   1  49
TORSDOF 19
ENDMDL
MODEL 2
REMARK VINA RESULT: -8.980640804      2.663      5.547
REMARK  19 active torsions:
REMARK  status: ('A' for Active; 'I' for Inactive)
REMARK    1  A    between atoms: N1_2  and  O1_4 
REMARK    2  A    between atoms: O1_4  and  C3_5 
REMARK       I    between atoms: C3_5  and  N2_7 
REMARK    3  A    between atoms: N2_7  and  C4_9 
REMARK    4  A    between atoms: C4_9  and  C5_10 
REMARK    5  A    between atoms: C5_10  and  C6_11 
REMARK    6  A    between atoms: C6_11  and  C7_12 
REMARK    7  A    between atoms: C7_12  and  O3_13 
REMARK    8  A    between atoms: O3_13  and  C8_14 
REMARK       I    between atoms: C8_14  and  N3_16 
REMARK    9  A    between atoms: C10_18  and  N4_19 
REMARK   10  A    between atoms: C12_25  and  N7_26 
REMARK   11  A    between atoms: C15_35  and  N10_36 
REMARK   12  A    between atoms: N10_36  and  C16_38 
REMARK   13  A    between atoms: C16_38  and  N11_39 
REMARK   14  A    between atoms: N11_39  and  C17_41 
REMARK   15  A    between atoms: C17_41  and  O5_42 
REMARK   16  A    between atoms: N12_44  and  O6_46 
REMARK   17  A    between atoms: C22_55  and  C23_56 
REMARK   18  A    between atoms: C23_56  and  O10_57 
REMARK   19  A    between atoms: C23_56  and  N13_59 
ROOT
HETATM    1  C8  UNL     1      17.873 -59.676 -54.651  1.00  0.00     0.363 C 
HETATM    2  O4  UNL     1      18.261 -60.870 -54.800  1.00  0.00    -0.238 OA
HETATM    3  N3  UNL     1      17.024 -59.084 -55.656  1.00  0.00    -0.311 N 
HETATM    4  C9  UNL     1      16.475 -57.742 -55.648  1.00  0.00     0.158 C 
HETATM    5  C10 UNL     1      15.242 -57.740 -56.498  1.00  0.00     0.154 C 
HETATM    6  C15 UNL     1      15.185 -59.138 -57.068  1.00  0.00     0.140 C 
HETATM    7  C22 UNL     1      16.565 -59.746 -56.813  1.00  0.00     0.188 C 
ENDROOT
BRANCH   6   8
HETATM    8  N10 UNL     1      14.207 -59.888 -56.337  1.00  0.00    -0.366 N 
ATOM      9  H10 UNL     1      14.058 -59.611 -55.368  1.00  0.00     0.161 HD
BRANCH   8  10
HETATM   10  C16 UNL     1      13.430 -60.960 -56.803  1.00  0.00     0.123 C 
HETATM   11  C18 UNL     1      12.274 -60.735 -57.387  1.00  0.00     0.116 A 
HETATM   12  C19 UNL     1      11.210 -61.573 -57.987  1.00  0.00     0.243 A 
HETATM   13  C21 UNL     1      11.491 -59.559 -57.710  1.00  0.00     0.243 A 
HETATM   14  O7  UNL     1      11.086 -62.831 -58.135  1.00  0.00    -0.283 OA
HETATM   15  C20 UNL     1      10.445 -60.380 -58.299  1.00  0.00     0.273 A 
HETATM   16  O8  UNL     1       9.317 -60.163 -58.862  1.00  0.00    -0.280 OA
HETATM   17  O9  UNL     1      11.570 -58.309 -57.590  1.00  0.00    -0.283 OA
BRANCH  10  18
HETATM   18  N11 UNL     1      13.878 -62.301 -56.642  1.00  0.00    -0.306 N 
ATOM     19  H11 UNL     1      13.298 -63.065 -56.989  1.00  0.00     0.171 HD
BRANCH  18  20
HETATM   20  C17 UNL     1      15.116 -62.601 -56.009  1.00  0.00     0.242 C 
HETATM   21  N12 UNL     1      15.279 -62.530 -54.735  1.00  0.00    -0.233 N 
ATOM     22  H12 UNL     1      14.473 -62.243 -54.181  1.00  0.00     0.198 HD
BRANCH  20  23
HETATM   23  O5  UNL     1      16.185 -62.990 -56.794  1.00  0.00    -0.331 OA
ATOM     24  H5  UNL     1      16.704 -63.737 -56.520  1.00  0.00     0.221 HD
ENDBRANCH  20  23
BRANCH  21  25
HETATM   25  O6  UNL     1      16.421 -62.800 -54.062  1.00  0.00    -0.287 OA
ATOM     26  H6  UNL     1      16.909 -63.614 -54.092  1.00  0.00     0.244 HD
ENDBRANCH  21  25
ENDBRANCH  18  20
ENDBRANCH  10  18
ENDBRANCH   8  10
ENDBRANCH   6   8
BRANCH   5  27
HETATM   27  N4  UNL     1      15.253 -56.726 -57.509  1.00  0.00    -0.251 N 
HETATM   28  N5  UNL     1      15.855 -55.561 -57.432  1.00  0.00    -0.238 N 
HETATM   29  N6  UNL     1      15.673 -54.855 -58.532  1.00  0.00    -0.279 N 
ATOM     30  H5  UNL     1      16.392 -55.244 -56.626  1.00  0.00     0.208 HD
HETATM   31  C11 UNL     1      14.923 -55.576 -59.375  1.00  0.00     0.139 A 
ATOM     32  H6  UNL     1      16.042 -53.921 -58.710  1.00  0.00     0.189 HD
HETATM   33  C12 UNL     1      14.418 -55.357 -60.652  1.00  0.00     0.132 A 
HETATM   34  C14 UNL     1      14.658 -56.773 -58.711  1.00  0.00     0.157 A 
HETATM   35  N8  UNL     1      13.666 -56.279 -61.280  1.00  0.00    -0.337 N 
HETATM   36  C13 UNL     1      13.429 -57.435 -60.603  1.00  0.00     0.183 A 
ATOM     37  H8  UNL     1      13.293 -56.120 -62.216  1.00  0.00     0.168 HD
HETATM   38  N9  UNL     1      13.904 -57.675 -59.370  1.00  0.00    -0.335 N 
ATOM     39  H9  UNL     1      13.686 -58.564 -58.919  1.00  0.00     0.168 HD
BRANCH  33  40
HETATM   40  N7  UNL     1      14.656 -54.256 -61.281  1.00  0.00    -0.383 N 
ATOM     41  H72 UNL     1      13.866 -53.787 -61.725  1.00  0.00     0.157 HD
ATOM     42  H71 UNL     1      15.600 -53.873 -61.330  1.00  0.00     0.157 HD
ENDBRANCH  33  40
ENDBRANCH   5  27
BRANCH   7  43
HETATM   43  C23 UNL     1      17.374 -59.808 -58.006  1.00  0.00     0.138 C 
BRANCH  43  44
HETATM   44  O10 UNL     1      17.953 -60.974 -58.163  1.00  0.00    -0.348 OA
ATOM     45  H10 UNL     1      18.538 -60.994 -58.911  1.00  0.00     0.219 HD
ENDBRANCH  43  44
BRANCH  43  46
HETATM   46  N13 UNL     1      17.675 -58.902 -59.024  1.00  0.00    -0.372 N 
HETATM   47  C24 UNL     1      17.217 -59.203 -60.416  1.00  0.00     0.150 C 
HETATM   48  C25 UNL     1      18.402 -57.661 -58.949  1.00  0.00     0.150 C 
ENDBRANCH  43  46
ENDBRANCH   7  43
BRANCH   1  49
HETATM   49  O3  UNL     1      18.293 -59.008 -53.521  1.00  0.00    -0.304 OA
BRANCH  49  50
HETATM   50  C7  UNL     1      18.643 -59.606 -52.316  1.00  0.00     0.180 C 
BRANCH  50  51
HETATM   51  C6  UNL     1      20.157 -59.571 -52.036  1.00  0.00     0.028 C 
BRANCH  51  52
HETATM   52  C5  UNL     1      20.458 -59.121 -50.675  1.00  0.00     0.022 C 
BRANCH  52  53
HETATM   53  C4  UNL     1      19.446 -58.270 -50.018  1.00  0.00     0.125 C 
BRANCH  53  54
HETATM   54  N2  UNL     1      19.564 -56.859 -49.999  1.00  0.00    -0.335 N 
HETATM   55  C3  UNL     1      18.582 -55.862 -49.980  1.00  0.00     0.382 C 
HETATM   56  O2  UNL     1      17.357 -56.040 -49.957  1.00  0.00    -0.236 OA
ATOM     57  H2  UNL     1      20.522 -56.512 -49.999  1.00  0.00     0.164 HD
BRANCH  55  58
HETATM   58  O1  UNL     1      18.927 -54.499 -49.984  1.00  0.00    -0.184 OA
BRANCH  58  59
HETATM   59  N1  UNL     1      18.788 -53.671 -50.997  1.00  0.00    -0.292 N 
HETATM   60  C1  UNL     1      18.622 -52.293 -50.845  1.00  0.00     0.178 C 
HETATM   61  C2  UNL     1      18.921 -54.128 -52.327  1.00  0.00     0.178 C 
ENDBRANCH  58  59
ENDBRANCH  55  58
ENDBRANCH  53  54
ENDBRANCH  52  53
ENDBRANCH  51  52
ENDBRANCH  50  51
ENDBRANCH  49  50
ENDBRANCH   1  49
TORSDOF 19
ENDMDL
MODEL 3
REMARK VINA RESULT: -8.778845007      1.411      2.022
REMARK  19 active torsions:
REMARK  status: ('A' for Active; 'I' for Inactive)
REMARK    1  A    between atoms: N1_2  and  O1_4 
REMARK    2  A    between atoms: O1_4  and  C3_5 
REMARK       I    between atoms: C3_5  and  N2_7 
REMARK    3  A    between atoms: N2_7  and  C4_9 
REMARK    4  A    between atoms: C4_9  and  C5_10 
REMARK    5  A    between atoms: C5_10  and  C6_11 
REMARK    6  A    between atoms: C6_11  and  C7_12 
REMARK    7  A    between atoms: C7_12  and  O3_13 
REMARK    8  A    between atoms: O3_13  and  C8_14 
REMARK       I    between atoms: C8_14  and  N3_16 
REMARK    9  A    between atoms: C10_18  and  N4_19 
REMARK   10  A    between atoms: C12_25  and  N7_26 
REMARK   11  A    between atoms: C15_35  and  N10_36 
REMARK   12  A    between atoms: N10_36  and  C16_38 
REMARK   13  A    between atoms: C16_38  and  N11_39 
REMARK   14  A    between atoms: N11_39  and  C17_41 
REMARK   15  A    between atoms: C17_41  and  O5_42 
REMARK   16  A    between atoms: N12_44  and  O6_46 
REMARK   17  A    between atoms: C22_55  and  C23_56 
REMARK   18  A    between atoms: C23_56  and  O10_57 
REMARK   19  A    between atoms: C23_56  and  N13_59 
ROOT
HETATM    1  C8  UNL     1      17.545 -56.077 -57.550  1.00  0.00     0.363 C 
HETATM    2  O4  UNL     1      18.704 -56.563 -57.691  1.00  0.00    -0.238 OA
HETATM    3  N3  UNL     1      16.410 -56.968 -57.525  1.00  0.00    -0.311 N 
HETATM    4  C9  UNL     1      15.018 -56.596 -57.360  1.00  0.00     0.158 C 
HETATM    5  C10 UNL     1      14.284 -57.780 -56.814  1.00  0.00     0.154 C 
HETATM    6  C15 UNL     1      15.325 -58.875 -56.776  1.00  0.00     0.140 C 
HETATM    7  C22 UNL     1      16.487 -58.371 -57.634  1.00  0.00     0.188 C 
ENDROOT
BRANCH   6   8
HETATM    8  N10 UNL     1      15.778 -59.026 -55.425  1.00  0.00    -0.366 N 
ATOM      9  H10 UNL     1      15.465 -58.317 -54.763  1.00  0.00     0.161 HD
BRANCH   8  10
HETATM   10  C16 UNL     1      16.603 -60.037 -54.909  1.00  0.00     0.123 C 
HETATM   11  C18 UNL     1      17.322 -59.819 -53.830  1.00  0.00     0.116 A 
HETATM   12  C19 UNL     1      18.275 -60.607 -53.015  1.00  0.00     0.243 A 
HETATM   13  C21 UNL     1      17.525 -58.698 -52.934  1.00  0.00     0.243 A 
HETATM   14  O7  UNL     1      18.707 -61.800 -53.111  1.00  0.00    -0.283 OA
HETATM   15  C20 UNL     1      18.461 -59.470 -52.133  1.00  0.00     0.273 A 
HETATM   16  O8  UNL     1      19.166 -59.257 -51.086  1.00  0.00    -0.280 OA
HETATM   17  O9  UNL     1      17.124 -57.513 -52.795  1.00  0.00    -0.283 OA
BRANCH  10  18
HETATM   18  N11 UNL     1      16.679 -61.305 -55.550  1.00  0.00    -0.306 N 
ATOM     19  H11 UNL     1      17.399 -61.465 -56.255  1.00  0.00     0.171 HD
BRANCH  18  20
HETATM   20  C17 UNL     1      15.775 -62.355 -55.231  1.00  0.00     0.242 C 
HETATM   21  N12 UNL     1      15.862 -63.040 -54.146  1.00  0.00    -0.233 N 
ATOM     22  H12 UNL     1      16.619 -62.800 -53.507  1.00  0.00     0.198 HD
BRANCH  20  23
HETATM   23  O5  UNL     1      14.759 -62.649 -56.121  1.00  0.00    -0.331 OA
ATOM     24  H5  UNL     1      14.461 -61.969 -56.714  1.00  0.00     0.221 HD
ENDBRANCH  20  23
BRANCH  21  25
HETATM   25  O6  UNL     1      15.042 -64.049 -53.772  1.00  0.00    -0.287 OA
ATOM     26  H6  UNL     1      14.332 -63.990 -53.144  1.00  0.00     0.244 HD
ENDBRANCH  21  25
ENDBRANCH  18  20
ENDBRANCH  10  18
ENDBRANCH   8  10
ENDBRANCH   6   8
BRANCH   5  27
HETATM   27  N4  UNL     1      13.129 -58.136 -57.584  1.00  0.00    -0.251 N 
HETATM   28  N5  UNL     1      12.563 -57.402 -58.514  1.00  0.00    -0.238 N 
HETATM   29  N6  UNL     1      11.517 -58.014 -59.035  1.00  0.00    -0.279 N 
ATOM     30  H5  UNL     1      12.890 -56.478 -58.797  1.00  0.00     0.208 HD
HETATM   31  C11 UNL     1      11.380 -59.200 -58.431  1.00  0.00     0.139 A 
ATOM     32  H6  UNL     1      10.915 -57.647 -59.773  1.00  0.00     0.189 HD
HETATM   33  C12 UNL     1      10.480 -60.254 -58.554  1.00  0.00     0.132 A 
HETATM   34  C14 UNL     1      12.418 -59.270 -57.502  1.00  0.00     0.157 A 
HETATM   35  N8  UNL     1      10.578 -61.358 -57.793  1.00  0.00    -0.337 N 
HETATM   36  C13 UNL     1      11.602 -61.391 -56.899  1.00  0.00     0.183 A 
ATOM     37  H8  UNL     1       9.918 -62.131 -57.881  1.00  0.00     0.168 HD
HETATM   38  N9  UNL     1      12.487 -60.391 -56.756  1.00  0.00    -0.335 N 
ATOM     39  H9  UNL     1      13.232 -60.481 -56.065  1.00  0.00     0.168 HD
BRANCH  33  40
HETATM   40  N7  UNL     1       9.516 -60.206 -59.411  1.00  0.00    -0.383 N 
ATOM     41  H72 UNL     1       9.433 -60.981 -60.070  1.00  0.00     0.157 HD
ATOM     42  H71 UNL     1       8.865 -59.421 -59.425  1.00  0.00     0.157 HD
ENDBRANCH  33  40
ENDBRANCH   5  27
BRANCH   7  43
HETATM   43  C23 UNL     1      16.546 -59.017 -58.923  1.00  0.00     0.138 C 
BRANCH  43  44
HETATM   44  O10 UNL     1      17.769 -59.093 -59.393  1.00  0.00    -0.348 OA
ATOM     45  H10 UNL     1      17.791 -59.218 -60.334  1.00  0.00     0.219 HD
ENDBRANCH  43  44
BRANCH  43  46
HETATM   46  N13 UNL     1      15.592 -59.575 -59.775  1.00  0.00    -0.372 N 
HETATM   47  C24 UNL     1      14.893 -58.687 -60.754  1.00  0.00     0.150 C 
HETATM   48  C25 UNL     1      15.142 -60.940 -59.863  1.00  0.00     0.150 C 
ENDBRANCH  43  46
ENDBRANCH   7  43
BRANCH   1  49
HETATM   49  O3  UNL     1      17.440 -54.708 -57.426  1.00  0.00    -0.304 OA
BRANCH  49  50
HETATM   50  C7  UNL     1      17.925 -53.957 -56.360  1.00  0.00     0.180 C 
BRANCH  50  51
HETATM   51  C6  UNL     1      17.100 -54.128 -55.071  1.00  0.00     0.028 C 
BRANCH  51  52
HETATM   52  C5  UNL     1      17.894 -54.694 -53.978  1.00  0.00     0.022 C 
BRANCH  52  53
HETATM   53  C4  UNL     1      17.839 -53.986 -52.682  1.00  0.00     0.125 C 
BRANCH  53  54
HETATM   54  N2  UNL     1      18.721 -54.309 -51.623  1.00  0.00    -0.335 N 
HETATM   55  C3  UNL     1      18.522 -55.081 -50.473  1.00  0.00     0.382 C 
HETATM   56  O2  UNL     1      17.481 -55.673 -50.160  1.00  0.00    -0.236 OA
ATOM     57  H2  UNL     1      19.657 -53.914 -51.713  1.00  0.00     0.164 HD
BRANCH  55  58
HETATM   58  O1  UNL     1      19.546 -55.256 -49.526  1.00  0.00    -0.184 OA
BRANCH  58  59
HETATM   59  N1  UNL     1      20.123 -54.303 -48.827  1.00  0.00    -0.292 N 
HETATM   60  C1  UNL     1      21.156 -53.506 -49.322  1.00  0.00     0.178 C 
HETATM   61  C2  UNL     1      19.636 -53.948 -47.549  1.00  0.00     0.178 C 
ENDBRANCH  58  59
ENDBRANCH  55  58
ENDBRANCH  53  54
ENDBRANCH  52  53
ENDBRANCH  51  52
ENDBRANCH  50  51
ENDBRANCH  49  50
ENDBRANCH   1  49
TORSDOF 19
ENDMDL
MODEL 4
REMARK VINA RESULT: -8.535789723      6.772     13.609
REMARK  19 active torsions:
REMARK  status: ('A' for Active; 'I' for Inactive)
REMARK    1  A    between atoms: N1_2  and  O1_4 
REMARK    2  A    between atoms: O1_4  and  C3_5 
REMARK       I    between atoms: C3_5  and  N2_7 
REMARK    3  A    between atoms: N2_7  and  C4_9 
REMARK    4  A    between atoms: C4_9  and  C5_10 
REMARK    5  A    between atoms: C5_10  and  C6_11 
REMARK    6  A    between atoms: C6_11  and  C7_12 
REMARK    7  A    between atoms: C7_12  and  O3_13 
REMARK    8  A    between atoms: O3_13  and  C8_14 
REMARK       I    between atoms: C8_14  and  N3_16 
REMARK    9  A    between atoms: C10_18  and  N4_19 
REMARK   10  A    between atoms: C12_25  and  N7_26 
REMARK   11  A    between atoms: C15_35  and  N10_36 
REMARK   12  A    between atoms: N10_36  and  C16_38 
REMARK   13  A    between atoms: C16_38  and  N11_39 
REMARK   14  A    between atoms: N11_39  and  C17_41 
REMARK   15  A    between atoms: C17_41  and  O5_42 
REMARK   16  A    between atoms: N12_44  and  O6_46 
REMARK   17  A    between atoms: C22_55  and  C23_56 
REMARK   18  A    between atoms: C23_56  and  O10_57 
REMARK   19  A    between atoms: C23_56  and  N13_59 
ROOT
HETATM    1  C8  UNL     1      20.558 -49.701 -48.816  1.00  0.00     0.363 C 
HETATM    2  O4  UNL     1      20.072 -49.267 -47.732  1.00  0.00    -0.238 OA
HETATM    3  N3  UNL     1      21.941 -50.108 -48.852  1.00  0.00    -0.311 N 
HETATM    4  C9  UNL     1      22.661 -50.639 -49.993  1.00  0.00     0.158 C 
HETATM    5  C10 UNL     1      23.811 -51.449 -49.480  1.00  0.00     0.154 C 
HETATM    6  C15 UNL     1      23.756 -51.260 -47.981  1.00  0.00     0.140 C 
HETATM    7  C22 UNL     1      22.818 -50.075 -47.748  1.00  0.00     0.188 C 
ENDROOT
BRANCH   6   8
HETATM    8  N10 UNL     1      23.176 -52.432 -47.396  1.00  0.00    -0.366 N 
ATOM      9  H10 UNL     1      23.172 -53.271 -47.975  1.00  0.00     0.161 HD
BRANCH   8  10
HETATM   10  C16 UNL     1      22.612 -52.558 -46.118  1.00  0.00     0.123 C 
HETATM   11  C18 UNL     1      23.311 -53.078 -45.133  1.00  0.00     0.116 A 
HETATM   12  C19 UNL     1      23.071 -53.365 -43.700  1.00  0.00     0.243 A 
HETATM   13  C21 UNL     1      24.646 -53.624 -44.991  1.00  0.00     0.243 A 
HETATM   14  O7  UNL     1      22.066 -53.180 -42.941  1.00  0.00    -0.283 OA
HETATM   15  C20 UNL     1      24.412 -53.907 -43.583  1.00  0.00     0.273 A 
HETATM   16  O8  UNL     1      25.089 -54.419 -42.626  1.00  0.00    -0.280 OA
HETATM   17  O9  UNL     1      25.666 -53.824 -45.700  1.00  0.00    -0.283 OA
BRANCH  10  18
HETATM   18  N11 UNL     1      21.276 -52.132 -45.872  1.00  0.00    -0.306 N 
ATOM     19  H11 UNL     1      21.111 -51.343 -45.247  1.00  0.00     0.171 HD
BRANCH  18  20
HETATM   20  C17 UNL     1      20.165 -52.782 -46.477  1.00  0.00     0.242 C 
HETATM   21  N12 UNL     1      20.205 -54.007 -46.867  1.00  0.00    -0.233 N 
ATOM     22  H12 UNL     1      21.081 -54.508 -46.725  1.00  0.00     0.198 HD
BRANCH  20  23
HETATM   23  O5  UNL     1      18.993 -52.070 -46.649  1.00  0.00    -0.331 OA
ATOM     24  H5  UNL     1      18.935 -51.454 -47.370  1.00  0.00     0.221 HD
ENDBRANCH  20  23
BRANCH  21  25
HETATM   25  O6  UNL     1      19.194 -54.693 -47.446  1.00  0.00    -0.287 OA
ATOM     26  H6  UNL     1      19.181 -55.027 -48.335  1.00  0.00     0.244 HD
ENDBRANCH  21  25
ENDBRANCH  18  20
ENDBRANCH  10  18
ENDBRANCH   8  10
ENDBRANCH   6   8
BRANCH   5  27
HETATM   27  N4  UNL     1      25.071 -51.066 -50.044  1.00  0.00    -0.251 N 
HETATM   28  N5  UNL     1      26.256 -51.354 -49.558  1.00  0.00    -0.238 N 
HETATM   29  N6  UNL     1      27.216 -50.854 -50.313  1.00  0.00    -0.279 N 
ATOM     30  H5  UNL     1      26.414 -51.893 -48.707  1.00  0.00     0.208 HD
HETATM   31  C11 UNL     1      26.650 -50.209 -51.341  1.00  0.00     0.139 A 
ATOM     32  H6  UNL     1      28.218 -50.944 -50.143  1.00  0.00     0.189 HD
HETATM   33  C12 UNL     1      27.144 -49.501 -52.431  1.00  0.00     0.132 A 
HETATM   34  C14 UNL     1      25.275 -50.351 -51.161  1.00  0.00     0.157 A 
HETATM   35  N8  UNL     1      26.324 -48.936 -53.335  1.00  0.00    -0.337 N 
HETATM   36  C13 UNL     1      24.989 -49.094 -53.127  1.00  0.00     0.183 A 
ATOM     37  H8  UNL     1      26.684 -48.415 -54.134  1.00  0.00     0.168 HD
HETATM   38  N9  UNL     1      24.482 -49.773 -52.085  1.00  0.00    -0.335 N 
ATOM     39  H9  UNL     1      23.469 -49.853 -51.989  1.00  0.00     0.168 HD
BRANCH  33  40
HETATM   40  N7  UNL     1      28.414 -49.364 -52.614  1.00  0.00    -0.383 N 
ATOM     41  H72 UNL     1      28.733 -48.514 -53.080  1.00  0.00     0.157 HD
ATOM     42  H71 UNL     1      29.070 -50.081 -52.303  1.00  0.00     0.157 HD
ENDBRANCH  33  40
ENDBRANCH   5  27
BRANCH   7  43
HETATM   43  C23 UNL     1      23.526 -48.869 -47.393  1.00  0.00     0.138 C 
BRANCH  43  44
HETATM   44  O10 UNL     1      24.060 -48.931 -46.197  1.00  0.00    -0.348 OA
ATOM     45  H10 UNL     1      23.497 -49.364 -45.567  1.00  0.00     0.219 HD
ENDBRANCH  43  44
BRANCH  43  46
HETATM   46  N13 UNL     1      23.763 -47.655 -48.041  1.00  0.00    -0.372 N 
HETATM   47  C24 UNL     1      22.910 -46.475 -47.697  1.00  0.00     0.150 C 
HETATM   48  C25 UNL     1      24.744 -47.340 -49.047  1.00  0.00     0.150 C 
ENDBRANCH  43  46
ENDBRANCH   7  43
BRANCH   1  49
HETATM   49  O3  UNL     1      19.720 -49.759 -49.909  1.00  0.00    -0.304 OA
BRANCH  49  50
HETATM   50  C7  UNL     1      18.715 -50.700 -50.104  1.00  0.00     0.180 C 
BRANCH  50  51
HETATM   51  C6  UNL     1      19.229 -52.152 -50.083  1.00  0.00     0.028 C 
BRANCH  51  52
HETATM   52  C5  UNL     1      19.667 -52.603 -51.406  1.00  0.00     0.022 C 
BRANCH  52  53
HETATM   53  C4  UNL     1      19.080 -53.862 -51.906  1.00  0.00     0.125 C 
BRANCH  53  54
HETATM   54  N2  UNL     1      19.412 -55.114 -51.333  1.00  0.00    -0.335 N 
HETATM   55  C3  UNL     1      18.688 -55.941 -50.466  1.00  0.00     0.382 C 
HETATM   56  O2  UNL     1      17.550 -55.726 -50.028  1.00  0.00    -0.236 OA
ATOM     57  H2  UNL     1      20.329 -55.472 -51.595  1.00  0.00     0.164 HD
BRANCH  55  58
HETATM   58  O1  UNL     1      19.226 -57.152 -49.995  1.00  0.00    -0.184 OA
BRANCH  58  59
HETATM   59  N1  UNL     1      19.226 -58.298 -50.641  1.00  0.00    -0.292 N 
HETATM   60  C1  UNL     1      19.556 -59.516 -50.043  1.00  0.00     0.178 C 
HETATM   61  C2  UNL     1      18.770 -58.376 -51.975  1.00  0.00     0.178 C 
ENDBRANCH  58  59
ENDBRANCH  55  58
ENDBRANCH  53  54
ENDBRANCH  52  53
ENDBRANCH  51  52
ENDBRANCH  50  51
ENDBRANCH  49  50
ENDBRANCH   1  49
TORSDOF 19
ENDMDL
MODEL 5
REMARK VINA RESULT: -8.529957718      1.337      1.472
REMARK  19 active torsions:
REMARK  status: ('A' for Active; 'I' for Inactive)
REMARK    1  A    between atoms: N1_2  and  O1_4 
REMARK    2  A    between atoms: O1_4  and  C3_5 
REMARK       I    between atoms: C3_5  and  N2_7 
REMARK    3  A    between atoms: N2_7  and  C4_9 
REMARK    4  A    between atoms: C4_9  and  C5_10 
REMARK    5  A    between atoms: C5_10  and  C6_11 
REMARK    6  A    between atoms: C6_11  and  C7_12 
REMARK    7  A    between atoms: C7_12  and  O3_13 
REMARK    8  A    between atoms: O3_13  and  C8_14 
REMARK       I    between atoms: C8_14  and  N3_16 
REMARK    9  A    between atoms: C10_18  and  N4_19 
REMARK   10  A    between atoms: C12_25  and  N7_26 
REMARK   11  A    between atoms: C15_35  and  N10_36 
REMARK   12  A    between atoms: N10_36  and  C16_38 
REMARK   13  A    between atoms: C16_38  and  N11_39 
REMARK   14  A    between atoms: N11_39  and  C17_41 
REMARK   15  A    between atoms: C17_41  and  O5_42 
REMARK   16  A    between atoms: N12_44  and  O6_46 
REMARK   17  A    between atoms: C22_55  and  C23_56 
REMARK   18  A    between atoms: C23_56  and  O10_57 
REMARK   19  A    between atoms: C23_56  and  N13_59 
ROOT
HETATM    1  C8  UNL     1      17.618 -57.040 -57.763  1.00  0.00     0.363 C 
HETATM    2  O4  UNL     1      18.814 -57.395 -57.968  1.00  0.00    -0.238 OA
HETATM    3  N3  UNL     1      16.649 -58.033 -57.370  1.00  0.00    -0.311 N 
HETATM    4  C9  UNL     1      15.245 -57.810 -57.082  1.00  0.00     0.158 C 
HETATM    5  C10 UNL     1      14.776 -58.911 -56.182  1.00  0.00     0.154 C 
HETATM    6  C15 UNL     1      15.974 -59.825 -56.062  1.00  0.00     0.140 C 
HETATM    7  C22 UNL     1      16.932 -59.400 -57.177  1.00  0.00     0.188 C 
ENDROOT
BRANCH   6   8
HETATM    8  N10 UNL     1      16.602 -59.588 -54.796  1.00  0.00    -0.366 N 
ATOM      9  H10 UNL     1      16.456 -58.666 -54.386  1.00  0.00     0.161 HD
BRANCH   8  10
HETATM   10  C16 UNL     1      17.395 -60.478 -54.057  1.00  0.00     0.123 C 
HETATM   11  C18 UNL     1      18.145 -60.036 -53.072  1.00  0.00     0.116 A 
HETATM   12  C19 UNL     1      19.082 -60.643 -52.099  1.00  0.00     0.243 A 
HETATM   13  C21 UNL     1      18.415 -58.740 -52.481  1.00  0.00     0.243 A 
HETATM   14  O7  UNL     1      19.462 -61.843 -51.903  1.00  0.00    -0.283 OA
HETATM   15  C20 UNL     1      19.335 -59.335 -51.525  1.00  0.00     0.273 A 
HETATM   16  O8  UNL     1      20.071 -58.904 -50.570  1.00  0.00    -0.280 OA
HETATM   17  O9  UNL     1      18.067 -57.541 -52.633  1.00  0.00    -0.283 OA
BRANCH  10  18
HETATM   18  N11 UNL     1      17.404 -61.867 -54.367  1.00  0.00    -0.306 N 
ATOM     19  H11 UNL     1      18.163 -62.246 -54.933  1.00  0.00     0.171 HD
BRANCH  18  20
HETATM   20  C17 UNL     1      16.380 -62.739 -53.906  1.00  0.00     0.242 C 
HETATM   21  N12 UNL     1      16.615 -63.734 -53.125  1.00  0.00    -0.233 N 
ATOM     22  H12 UNL     1      17.583 -63.880 -52.842  1.00  0.00     0.198 HD
BRANCH  20  23
HETATM   23  O5  UNL     1      15.078 -62.506 -54.308  1.00  0.00    -0.331 OA
ATOM     24  H5  UNL     1      14.388 -62.528 -53.656  1.00  0.00     0.221 HD
ENDBRANCH  20  23
BRANCH  21  25
HETATM   25  O6  UNL     1      15.698 -64.603 -52.643  1.00  0.00    -0.287 OA
ATOM     26  H6  UNL     1      15.626 -65.523 -52.868  1.00  0.00     0.244 HD
ENDBRANCH  21  25
ENDBRANCH  18  20
ENDBRANCH  10  18
ENDBRANCH   8  10
ENDBRANCH   6   8
BRANCH   5  27
HETATM   27  N4  UNL     1      13.609 -59.583 -56.670  1.00  0.00    -0.251 N 
HETATM   28  N5  UNL     1      13.246 -60.812 -56.383  1.00  0.00    -0.238 N 
HETATM   29  N6  UNL     1      12.122 -61.134 -56.994  1.00  0.00    -0.279 N 
ATOM     30  H5  UNL     1      13.766 -61.436 -55.766  1.00  0.00     0.208 HD
HETATM   31  C11 UNL     1      11.720 -60.081 -57.716  1.00  0.00     0.139 A 
ATOM     32  H6  UNL     1      11.641 -62.031 -56.927  1.00  0.00     0.189 HD
HETATM   33  C12 UNL     1      10.634 -59.835 -58.551  1.00  0.00     0.132 A 
HETATM   34  C14 UNL     1      12.679 -59.091 -57.503  1.00  0.00     0.157 A 
HETATM   35  N8  UNL     1      10.476 -58.652 -59.172  1.00  0.00    -0.337 N 
HETATM   36  C13 UNL     1      11.430 -57.711 -58.940  1.00  0.00     0.183 A 
ATOM     37  H8  UNL     1       9.682 -58.471 -59.785  1.00  0.00     0.168 HD
HETATM   38  N9  UNL     1      12.489 -57.919 -58.140  1.00  0.00    -0.335 N 
ATOM     39  H9  UNL     1      13.169 -57.168 -58.010  1.00  0.00     0.168 HD
BRANCH  33  40
HETATM   40  N7  UNL     1       9.737 -60.739 -58.756  1.00  0.00    -0.383 N 
ATOM     41  H72 UNL     1       8.876 -60.678 -58.213  1.00  0.00     0.157 HD
ATOM     42  H71 UNL     1       9.888 -61.484 -59.437  1.00  0.00     0.157 HD
ENDBRANCH  33  40
ENDBRANCH   5  27
BRANCH   7  43
HETATM   43  C23 UNL     1      16.939 -60.325 -58.284  1.00  0.00     0.138 C 
BRANCH  43  44
HETATM   44  O10 UNL     1      17.927 -60.105 -59.119  1.00  0.00    -0.348 OA
ATOM     45  H10 UNL     1      17.677 -59.539 -59.839  1.00  0.00     0.219 HD
ENDBRANCH  43  44
BRANCH  43  46
HETATM   46  N13 UNL     1      16.128 -61.396 -58.662  1.00  0.00    -0.372 N 
HETATM   47  C24 UNL     1      15.005 -61.147 -59.618  1.00  0.00     0.150 C 
HETATM   48  C25 UNL     1      16.195 -62.774 -58.250  1.00  0.00     0.150 C 
ENDBRANCH  43  46
ENDBRANCH   7  43
BRANCH   1  49
HETATM   49  O3  UNL     1      17.314 -55.705 -57.930  1.00  0.00    -0.304 OA
BRANCH  49  50
HETATM   50  C7  UNL     1      17.314 -54.747 -56.923  1.00  0.00     0.180 C 
BRANCH  50  51
HETATM   51  C6  UNL     1      17.333 -55.353 -55.507  1.00  0.00     0.028 C 
BRANCH  51  52
HETATM   52  C5  UNL     1      17.224 -54.329 -54.465  1.00  0.00     0.022 C 
BRANCH  52  53
HETATM   53  C4  UNL     1      18.180 -54.420 -53.343  1.00  0.00     0.125 C 
BRANCH  53  54
HETATM   54  N2  UNL     1      18.023 -53.642 -52.171  1.00  0.00    -0.335 N 
HETATM   55  C3  UNL     1      18.972 -52.995 -51.371  1.00  0.00     0.382 C 
HETATM   56  O2  UNL     1      20.195 -52.968 -51.563  1.00  0.00    -0.236 OA
ATOM     57  H2  UNL     1      17.059 -53.534 -51.857  1.00  0.00     0.164 HD
BRANCH  55  58
HETATM   58  O1  UNL     1      18.593 -52.282 -50.220  1.00  0.00    -0.184 OA
BRANCH  58  59
HETATM   59  N1  UNL     1      18.393 -50.984 -50.147  1.00  0.00    -0.292 N 
HETATM   60  C1  UNL     1      17.600 -50.278 -51.054  1.00  0.00     0.178 C 
HETATM   61  C2  UNL     1      18.886 -50.237 -49.055  1.00  0.00     0.178 C 
ENDBRANCH  58  59
ENDBRANCH  55  58
ENDBRANCH  53  54
ENDBRANCH  52  53
ENDBRANCH  51  52
ENDBRANCH  50  51
ENDBRANCH  49  50
ENDBRANCH   1  49
TORSDOF 19
ENDMDL
