MODEL 1
REMARK VINA RESULT: -7.425974957      0.000      0.000
REMARK  7 active torsions:
REMARK  status: ('A' for Active; 'I' for Inactive)
REMARK    1  A    between atoms: O1_2  and  C2_3 
REMARK    2  A    between atoms: C2_3  and  C3_4 
REMARK    3  A    between atoms: C3_4  and  C4_5 
REMARK    4  A    between atoms: C4_5  and  N1_6 
REMARK    5  A    between atoms: N1_6  and  C5_8 
REMARK    6  A    between atoms: C6_9  and  N2_10 
REMARK    7  A    between atoms: N2_10  and  C7_12 
ROOT
HETATM    1  C5  UNL     1      20.988  27.435 -10.027  1.00  0.00     0.086 A 
HETATM    2  C6  UNL     1      21.047  28.325 -11.066  1.00  0.00     0.148 A 
HETATM    3  N3  UNL     1      21.975  28.205 -12.064  1.00  0.00    -0.283 N 
ATOM      4  H3  UNL     1      21.986  28.890 -12.820  1.00  0.00     0.188 HD
HETATM    5  N4  UNL     1      22.855  27.226 -12.069  1.00  0.00    -0.298 N 
ATOM      6  H4  UNL     1      23.542  27.147 -12.819  1.00  0.00     0.187 HD
HETATM    7  C14 UNL     1      22.830  26.331 -11.066  1.00  0.00     0.060 A 
HETATM    8  C15 UNL     1      23.768  25.299 -11.083  1.00  0.00     0.032 A 
HETATM    9  C16 UNL     1      23.763  24.371 -10.068  1.00  0.00     0.002 A 
HETATM   10  C17 UNL     1      22.858  24.427  -9.029  1.00  0.00     0.001 A 
HETATM   11  C18 UNL     1      21.936  25.451  -9.021  1.00  0.00     0.016 A 
HETATM   12  C19 UNL     1      21.918  26.399 -10.032  1.00  0.00     0.022 A 
ENDROOT
BRANCH   2  13
HETATM   13  N2  UNL     1      20.206  29.292 -11.096  1.00  0.00    -0.339 N 
ATOM     14  H2  UNL     1      19.256  29.133 -11.431  1.00  0.00     0.167 HD
BRANCH  13  15
HETATM   15  C7  UNL     1      20.599  30.595 -10.659  1.00  0.00     0.039 A 
HETATM   16  C8  UNL     1      21.821  31.132 -11.020  1.00  0.00     0.030 A 
HETATM   17  C9  UNL     1      22.187  32.386 -10.593  1.00  0.00     0.002 A 
HETATM   18  C10 UNL     1      21.333  33.118  -9.800  1.00  0.00     0.001 A 
HETATM   19  C11 UNL     1      20.105  32.619  -9.417  1.00  0.00     0.009 A 
HETATM   20  C12 UNL     1      19.758  31.358  -9.857  1.00  0.00    -0.035 A 
HETATM   21  C13 UNL     1      18.446  30.768  -9.476  1.00  0.00     0.050 C 
ENDBRANCH  13  15
ENDBRANCH   2  13
BRANCH   1  22
HETATM   22  N1  UNL     1      20.166  27.486  -9.083  1.00  0.00    -0.386 N 
ATOM     23  H1  UNL     1      19.258  27.076  -9.298  1.00  0.00     0.159 HD
BRANCH  22  24
HETATM   24  C4  UNL     1      20.269  28.009  -7.771  1.00  0.00     0.122 C 
BRANCH  24  25
HETATM   25  C3  UNL     1      21.480  28.912  -7.612  1.00  0.00     0.046 C 
BRANCH  25  26
HETATM   26  C2  UNL     1      22.529  28.303  -6.745  1.00  0.00     0.168 C 
BRANCH  26  27
HETATM   27  O1  UNL     1      23.717  27.996  -7.372  1.00  0.00    -0.396 OA
HETATM   28  C1  UNL     1      24.045  28.785  -8.445  1.00  0.00     0.201 C 
ENDBRANCH  26  27
ENDBRANCH  25  26
ENDBRANCH  24  25
ENDBRANCH  22  24
ENDBRANCH   1  22
TORSDOF 7
ENDMDL
MODEL 2
REMARK VINA RESULT: -7.156832541      2.668      6.316
REMARK  7 active torsions:
REMARK  status: ('A' for Active; 'I' for Inactive)
REMARK    1  A    between atoms: O1_2  and  C2_3 
REMARK    2  A    between atoms: C2_3  and  C3_4 
REMARK    3  A    between atoms: C3_4  and  C4_5 
REMARK    4  A    between atoms: C4_5  and  N1_6 
REMARK    5  A    between atoms: N1_6  and  C5_8 
REMARK    6  A    between atoms: C6_9  and  N2_10 
REMARK    7  A    between atoms: N2_10  and  C7_12 
ROOT
HETATM    1  C5  UNL     1      20.496  32.084  -9.475  1.00  0.00     0.086 A 
HETATM    2  C6  UNL     1      21.666  31.811 -10.134  1.00  0.00     0.148 A 
HETATM    3  N3  UNL     1      22.803  32.536  -9.910  1.00  0.00    -0.283 N 
ATOM      4  H3  UNL     1      23.654  32.301 -10.423  1.00  0.00     0.188 HD
HETATM    5  N4  UNL     1      22.825  33.531  -9.048  1.00  0.00    -0.298 N 
ATOM      6  H4  UNL     1      23.680  34.064  -8.889  1.00  0.00     0.187 HD
HETATM    7  C14 UNL     1      21.697  33.831  -8.381  1.00  0.00     0.060 A 
HETATM    8  C15 UNL     1      21.732  34.887  -7.471  1.00  0.00     0.032 A 
HETATM    9  C16 UNL     1      20.592  35.213  -6.775  1.00  0.00     0.002 A 
HETATM   10  C17 UNL     1      19.408  34.528  -6.949  1.00  0.00     0.001 A 
HETATM   11  C18 UNL     1      19.383  33.486  -7.851  1.00  0.00     0.016 A 
HETATM   12  C19 UNL     1      20.519  33.136  -8.564  1.00  0.00     0.022 A 
ENDROOT
BRANCH   2  13
HETATM   13  N2  UNL     1      21.684  30.849 -10.982  1.00  0.00    -0.339 N 
ATOM     14  H2  UNL     1      21.312  30.989 -11.921  1.00  0.00     0.167 HD
BRANCH  13  15
HETATM   15  C7  UNL     1      22.224  29.579 -10.610  1.00  0.00     0.039 A 
HETATM   16  C8  UNL     1      23.036  29.445  -9.499  1.00  0.00     0.030 A 
HETATM   17  C9  UNL     1      23.549  28.218  -9.153  1.00  0.00     0.002 A 
HETATM   18  C10 UNL     1      23.254  27.110  -9.915  1.00  0.00     0.001 A 
HETATM   19  C11 UNL     1      22.448  27.200 -11.031  1.00  0.00     0.009 A 
HETATM   20  C12 UNL     1      21.944  28.442 -11.360  1.00  0.00    -0.035 A 
HETATM   21  C13 UNL     1      21.069  28.601 -12.553  1.00  0.00     0.050 C 
ENDBRANCH  13  15
ENDBRANCH   2  13
BRANCH   1  22
HETATM   22  N1  UNL     1      19.420  31.461  -9.633  1.00  0.00    -0.386 N 
ATOM     23  H1  UNL     1      18.845  31.810 -10.399  1.00  0.00     0.159 HD
BRANCH  22  24
HETATM   24  C4  UNL     1      18.858  30.361  -8.940  1.00  0.00     0.122 C 
BRANCH  24  25
HETATM   25  C3  UNL     1      18.595  29.183  -9.862  1.00  0.00     0.046 C 
BRANCH  25  26
HETATM   26  C2  UNL     1      19.076  27.896  -9.284  1.00  0.00     0.168 C 
BRANCH  26  27
HETATM   27  O1  UNL     1      18.462  26.760  -9.765  1.00  0.00    -0.396 OA
HETATM   28  C1  UNL     1      17.164  26.916 -10.183  1.00  0.00     0.201 C 
ENDBRANCH  26  27
ENDBRANCH  25  26
ENDBRANCH  24  25
ENDBRANCH  22  24
ENDBRANCH   1  22
TORSDOF 7
ENDMDL
MODEL 3
REMARK VINA RESULT: -7.143501431      2.395      5.784
REMARK  7 active torsions:
REMARK  status: ('A' for Active; 'I' for Inactive)
REMARK    1  A    between atoms: O1_2  and  C2_3 
REMARK    2  A    between atoms: C2_3  and  C3_4 
REMARK    3  A    between atoms: C3_4  and  C4_5 
REMARK    4  A    between atoms: C4_5  and  N1_6 
REMARK    5  A    between atoms: N1_6  and  C5_8 
REMARK    6  A    between atoms: C6_9  and  N2_10 
REMARK    7  A    between atoms: N2_10  and  C7_12 
ROOT
HETATM    1  C5  UNL     1      22.188  31.232  -8.048  1.00  0.00     0.086 A 
HETATM    2  C6  UNL     1      21.703  30.820  -9.262  1.00  0.00     0.148 A 
HETATM    3  N3  UNL     1      21.269  31.713 -10.203  1.00  0.00    -0.283 N 
ATOM      4  H3  UNL     1      20.915  31.365 -11.094  1.00  0.00     0.188 HD
HETATM    5  N4  UNL     1      21.298  33.011  -9.983  1.00  0.00    -0.298 N 
ATOM      6  H4  UNL     1      20.972  33.667 -10.693  1.00  0.00     0.187 HD
HETATM    7  C14 UNL     1      21.767  33.455  -8.804  1.00  0.00     0.060 A 
HETATM    8  C15 UNL     1      21.792  34.832  -8.583  1.00  0.00     0.032 A 
HETATM    9  C16 UNL     1      22.267  35.311  -7.385  1.00  0.00     0.002 A 
HETATM   10  C17 UNL     1      22.721  34.472  -6.389  1.00  0.00     0.001 A 
HETATM   11  C18 UNL     1      22.691  33.113  -6.617  1.00  0.00     0.016 A 
HETATM   12  C19 UNL     1      22.219  32.604  -7.816  1.00  0.00     0.022 A 
ENDROOT
BRANCH   2  13
HETATM   13  N2  UNL     1      21.660  29.563  -9.512  1.00  0.00    -0.339 N 
ATOM     14  H2  UNL     1      22.513  29.062  -9.758  1.00  0.00     0.167 HD
BRANCH  13  15
HETATM   15  C7  UNL     1      20.414  28.864  -9.447  1.00  0.00     0.039 A 
HETATM   16  C8  UNL     1      19.662  28.852  -8.288  1.00  0.00     0.030 A 
HETATM   17  C9  UNL     1      18.466  28.176  -8.239  1.00  0.00     0.002 A 
HETATM   18  C10 UNL     1      18.010  27.504  -9.351  1.00  0.00     0.001 A 
HETATM   19  C11 UNL     1      18.731  27.492 -10.527  1.00  0.00     0.009 A 
HETATM   20  C12 UNL     1      19.928  28.177 -10.554  1.00  0.00    -0.035 A 
HETATM   21  C13 UNL     1      20.749  28.199 -11.795  1.00  0.00     0.050 C 
ENDBRANCH  13  15
ENDBRANCH   2  13
BRANCH   1  22
HETATM   22  N1  UNL     1      22.600  30.470  -7.143  1.00  0.00    -0.386 N 
ATOM     23  H1  UNL     1      22.228  30.681  -6.218  1.00  0.00     0.159 HD
BRANCH  22  24
HETATM   24  C4  UNL     1      23.489  29.367  -7.172  1.00  0.00     0.122 C 
BRANCH  24  25
HETATM   25  C3  UNL     1      22.946  28.179  -6.398  1.00  0.00     0.046 C 
BRANCH  25  26
HETATM   26  C2  UNL     1      22.711  26.995  -7.272  1.00  0.00     0.168 C 
BRANCH  26  27
HETATM   27  O1  UNL     1      23.283  27.056  -8.524  1.00  0.00    -0.396 OA
HETATM   28  C1  UNL     1      22.884  26.087  -9.410  1.00  0.00     0.201 C 
ENDBRANCH  26  27
ENDBRANCH  25  26
ENDBRANCH  24  25
ENDBRANCH  22  24
ENDBRANCH   1  22
TORSDOF 7
ENDMDL
MODEL 4
REMARK VINA RESULT: -7.114954934      2.296      5.535
REMARK  7 active torsions:
REMARK  status: ('A' for Active; 'I' for Inactive)
REMARK    1  A    between atoms: O1_2  and  C2_3 
REMARK    2  A    between atoms: C2_3  and  C3_4 
REMARK    3  A    between atoms: C3_4  and  C4_5 
REMARK    4  A    between atoms: C4_5  and  N1_6 
REMARK    5  A    between atoms: N1_6  and  C5_8 
REMARK    6  A    between atoms: C6_9  and  N2_10 
REMARK    7  A    between atoms: N2_10  and  C7_12 
ROOT
HETATM    1  C5  UNL     1      22.126  30.890  -8.941  1.00  0.00     0.086 A 
HETATM    2  C6  UNL     1      21.801  30.955 -10.271  1.00  0.00     0.148 A 
HETATM    3  N3  UNL     1      21.595  32.150 -10.902  1.00  0.00    -0.283 N 
ATOM      4  H3  UNL     1      21.354  32.155 -11.894  1.00  0.00     0.188 HD
HETATM    5  N4  UNL     1      21.701  33.294 -10.259  1.00  0.00    -0.298 N 
ATOM      6  H4  UNL     1      21.545  34.179 -10.742  1.00  0.00     0.187 HD
HETATM    7  C14 UNL     1      22.018  33.273  -8.953  1.00  0.00     0.060 A 
HETATM    8  C15 UNL     1      22.126  34.491  -8.283  1.00  0.00     0.032 A 
HETATM    9  C16 UNL     1      22.450  34.496  -6.946  1.00  0.00     0.002 A 
HETATM   10  C17 UNL     1      22.670  33.331  -6.243  1.00  0.00     0.001 A 
HETATM   11  C18 UNL     1      22.561  32.132  -6.914  1.00  0.00     0.016 A 
HETATM   12  C19 UNL     1      22.237  32.099  -8.261  1.00  0.00     0.022 A 
ENDROOT
BRANCH   2  13
HETATM   13  N2  UNL     1      21.690  29.861 -10.931  1.00  0.00    -0.339 N 
ATOM     14  H2  UNL     1      22.386  29.617 -11.634  1.00  0.00     0.167 HD
BRANCH  13  15
HETATM   15  C7  UNL     1      20.589  28.984 -10.681  1.00  0.00     0.039 A 
HETATM   16  C8  UNL     1      19.347  29.478 -10.330  1.00  0.00     0.030 A 
HETATM   17  C9  UNL     1      18.296  28.624 -10.093  1.00  0.00     0.002 A 
HETATM   18  C10 UNL     1      18.479  27.264 -10.204  1.00  0.00     0.001 A 
HETATM   19  C11 UNL     1      19.702  26.730 -10.551  1.00  0.00     0.009 A 
HETATM   20  C12 UNL     1      20.742  27.606 -10.785  1.00  0.00    -0.035 A 
HETATM   21  C13 UNL     1      22.085  27.088 -11.163  1.00  0.00     0.050 C 
ENDBRANCH  13  15
ENDBRANCH   2  13
BRANCH   1  22
HETATM   22  N1  UNL     1      22.327  29.831  -8.302  1.00  0.00    -0.386 N 
ATOM     23  H1  UNL     1      21.530  29.521  -7.747  1.00  0.00     0.159 HD
BRANCH  22  24
HETATM   24  C4  UNL     1      23.461  28.987  -8.210  1.00  0.00     0.122 C 
BRANCH  24  25
HETATM   25  C3  UNL     1      23.197  27.775  -7.334  1.00  0.00     0.046 C 
BRANCH  25  26
HETATM   26  C2  UNL     1      21.742  27.481  -7.199  1.00  0.00     0.168 C 
BRANCH  26  27
HETATM   27  O1  UNL     1      21.375  26.173  -7.431  1.00  0.00    -0.396 OA
HETATM   28  C1  UNL     1      22.321  25.386  -8.036  1.00  0.00     0.201 C 
ENDBRANCH  26  27
ENDBRANCH  25  26
ENDBRANCH  24  25
ENDBRANCH  22  24
ENDBRANCH   1  22
TORSDOF 7
ENDMDL
MODEL 5
REMARK VINA RESULT: -7.113224932      3.928      6.135
REMARK  7 active torsions:
REMARK  status: ('A' for Active; 'I' for Inactive)
REMARK    1  A    between atoms: O1_2  and  C2_3 
REMARK    2  A    between atoms: C2_3  and  C3_4 
REMARK    3  A    between atoms: C3_4  and  C4_5 
REMARK    4  A    between atoms: C4_5  and  N1_6 
REMARK    5  A    between atoms: N1_6  and  C5_8 
REMARK    6  A    between atoms: C6_9  and  N2_10 
REMARK    7  A    between atoms: N2_10  and  C7_12 
ROOT
HETATM    1  C5  UNL     1      20.210  32.739  -9.266  1.00  0.00     0.086 A 
HETATM    2  C6  UNL     1      21.348  33.460  -9.515  1.00  0.00     0.148 A 
HETATM    3  N3  UNL     1      22.345  32.976 -10.317  1.00  0.00    -0.283 N 
ATOM      4  H3  UNL     1      23.177  33.545 -10.476  1.00  0.00     0.188 HD
HETATM    5  N4  UNL     1      22.254  31.793 -10.886  1.00  0.00    -0.298 N 
ATOM      6  H4  UNL     1      23.004  31.443 -11.482  1.00  0.00     0.187 HD
HETATM    7  C14 UNL     1      21.153  31.054 -10.666  1.00  0.00     0.060 A 
HETATM    8  C15 UNL     1      21.069  29.802 -11.275  1.00  0.00     0.032 A 
HETATM    9  C16 UNL     1      19.952  29.027 -11.066  1.00  0.00     0.002 A 
HETATM   10  C17 UNL     1      18.908  29.448 -10.270  1.00  0.00     0.001 A 
HETATM   11  C18 UNL     1      19.001  30.686  -9.673  1.00  0.00     0.016 A 
HETATM   12  C19 UNL     1      20.114  31.488  -9.868  1.00  0.00     0.022 A 
ENDROOT
BRANCH   2  13
HETATM   13  N2  UNL     1      21.472  34.618  -8.978  1.00  0.00    -0.339 N 
ATOM     14  H2  UNL     1      20.976  35.418  -9.369  1.00  0.00     0.167 HD
BRANCH  13  15
HETATM   15  C7  UNL     1      22.307  34.787  -7.829  1.00  0.00     0.039 A 
HETATM   16  C8  UNL     1      22.680  33.708  -7.052  1.00  0.00     0.030 A 
HETATM   17  C9  UNL     1      23.483  33.884  -5.950  1.00  0.00     0.002 A 
HETATM   18  C10 UNL     1      23.921  35.146  -5.615  1.00  0.00     0.001 A 
HETATM   19  C11 UNL     1      23.571  36.250  -6.364  1.00  0.00     0.009 A 
HETATM   20  C12 UNL     1      22.765  36.049  -7.466  1.00  0.00    -0.035 A 
HETATM   21  C13 UNL     1      22.354  37.202  -8.312  1.00  0.00     0.050 C 
ENDBRANCH  13  15
ENDBRANCH   2  13
BRANCH   1  22
HETATM   22  N1  UNL     1      19.261  33.122  -8.543  1.00  0.00    -0.386 N 
ATOM     23  H1  UNL     1      18.529  33.622  -9.046  1.00  0.00     0.159 HD
BRANCH  22  24
HETATM   24  C4  UNL     1      19.020  32.986  -7.154  1.00  0.00     0.122 C 
BRANCH  24  25
HETATM   25  C3  UNL     1      18.486  34.269  -6.541  1.00  0.00     0.046 C 
BRANCH  25  26
HETATM   26  C2  UNL     1      17.226  34.048  -5.777  1.00  0.00     0.168 C 
BRANCH  26  27
HETATM   27  O1  UNL     1      16.838  32.733  -5.634  1.00  0.00    -0.396 OA
HETATM   28  C1  UNL     1      15.499  32.525  -5.423  1.00  0.00     0.201 C 
ENDBRANCH  26  27
ENDBRANCH  25  26
ENDBRANCH  24  25
ENDBRANCH  22  24
ENDBRANCH   1  22
TORSDOF 7
ENDMDL
