MODEL 1
REMARK VINA RESULT: -8.100809558      0.000      0.000
REMARK  7 active torsions:
REMARK  status: ('A' for Active; 'I' for Inactive)
REMARK    1  A    between atoms: C2_2  and  N1_4 
REMARK    2  A    between atoms: N1_4  and  C4_6 
REMARK    3  A    between atoms: C10_18  and  N5_19 
REMARK    4  A    between atoms: N5_19  and  C11_21 
REMARK    5  A    between atoms: C11_21  and  C12_22 
REMARK    6  A    between atoms: C12_22  and  C13_23 
REMARK    7  A    between atoms: C13_23  and  C14_24 
ROOT
HETATM    1  C4  UNL     1      20.457  28.744 -10.836  1.00  0.00     0.147 A 
HETATM    2  N2  UNL     1      20.488  29.850 -10.078  1.00  0.00    -0.324 N 
ATOM      3  H2  UNL     1      19.757  29.996  -9.381  1.00  0.00     0.169 HD
HETATM    4  C5  UNL     1      21.456  30.768 -10.212  1.00  0.00     0.134 A 
HETATM    5  N3  UNL     1      21.505  31.886  -9.460  1.00  0.00    -0.350 N 
ATOM      6  H3  UNL     1      20.795  32.072  -8.753  1.00  0.00     0.166 HD
HETATM    7  C6  UNL     1      22.514  32.749  -9.667  1.00  0.00     0.090 A 
HETATM    8  C7  UNL     1      23.493  32.540 -10.609  1.00  0.00     0.019 A 
HETATM    9  C8  UNL     1      23.465  31.420 -11.381  1.00  0.00     0.035 A 
HETATM   10  C9  UNL     1      22.432  30.517 -11.182  1.00  0.00     0.078 A 
HETATM   11  N4  UNL     1      22.398  29.399 -11.947  1.00  0.00    -0.337 N 
ATOM     12  H4  UNL     1      23.124  29.245 -12.647  1.00  0.00     0.168 HD
HETATM   13  C10 UNL     1      21.427  28.499 -11.796  1.00  0.00     0.146 A 
ENDROOT
BRANCH  13  14
HETATM   14  N5  UNL     1      21.390  27.457 -12.505  1.00  0.00    -0.373 N 
ATOM     15  H5  UNL     1      20.818  27.523 -13.347  1.00  0.00     0.161 HD
BRANCH  14  16
HETATM   16  C11 UNL     1      22.024  26.214 -12.303  1.00  0.00     0.121 C 
BRANCH  16  17
HETATM   17  C12 UNL     1      23.160  26.289 -11.272  1.00  0.00     0.024 C 
BRANCH  17  18
HETATM   18  C13 UNL     1      22.680  25.757  -9.933  1.00  0.00     0.040 C 
BRANCH  18  19
HETATM   19  C14 UNL     1      22.893  26.747  -8.851  1.00  0.00    -0.058 A 
HETATM   20  C15 UNL     1      23.653  27.884  -9.045  1.00  0.00     0.007 A 
HETATM   21  C16 UNL     1      23.883  28.830  -8.086  1.00  0.00     0.001 A 
HETATM   22  C17 UNL     1      23.317  28.641  -6.835  1.00  0.00     0.000 A 
HETATM   23  C18 UNL     1      22.547  27.515  -6.597  1.00  0.00     0.001 A 
HETATM   24  C19 UNL     1      22.335  26.580  -7.585  1.00  0.00     0.007 A 
ENDBRANCH  18  19
ENDBRANCH  17  18
ENDBRANCH  16  17
ENDBRANCH  14  16
ENDBRANCH  13  14
BRANCH   1  25
HETATM   25  N1  UNL     1      19.530  27.888 -10.689  1.00  0.00    -0.369 N 
ATOM     26  H1  UNL     1      19.588  27.031 -11.239  1.00  0.00     0.161 HD
BRANCH  25  27
HETATM   27  C2  UNL     1      18.403  28.038  -9.805  1.00  0.00     0.075 C 
HETATM   28  C1  UNL     1      18.764  27.901  -8.359  1.00  0.00     0.031 C 
HETATM   29  C3  UNL     1      17.331  27.011 -10.129  1.00  0.00     0.031 C 
ENDBRANCH  25  27
ENDBRANCH   1  25
TORSDOF 7
ENDMDL
MODEL 2
REMARK VINA RESULT: -8.009117708      0.538      1.099
REMARK  7 active torsions:
REMARK  status: ('A' for Active; 'I' for Inactive)
REMARK    1  A    between atoms: C2_2  and  N1_4 
REMARK    2  A    between atoms: N1_4  and  C4_6 
REMARK    3  A    between atoms: C10_18  and  N5_19 
REMARK    4  A    between atoms: N5_19  and  C11_21 
REMARK    5  A    between atoms: C11_21  and  C12_22 
REMARK    6  A    between atoms: C12_22  and  C13_23 
REMARK    7  A    between atoms: C13_23  and  C14_24 
ROOT
HETATM    1  C4  UNL     1      20.233  29.196 -11.019  1.00  0.00     0.147 A 
HETATM    2  N2  UNL     1      20.255  30.353 -10.341  1.00  0.00    -0.324 N 
ATOM      3  H2  UNL     1      19.422  30.645  -9.830  1.00  0.00     0.169 HD
HETATM    4  C5  UNL     1      21.343  31.136 -10.319  1.00  0.00     0.134 A 
HETATM    5  N3  UNL     1      21.385  32.302  -9.645  1.00  0.00    -0.350 N 
ATOM      6  H3  UNL     1      20.575  32.633  -9.121  1.00  0.00     0.166 HD
HETATM    7  C6  UNL     1      22.521  33.019  -9.681  1.00  0.00     0.090 A 
HETATM    8  C7  UNL     1      23.637  32.614 -10.375  1.00  0.00     0.019 A 
HETATM    9  C8  UNL     1      23.620  31.441 -11.064  1.00  0.00     0.035 A 
HETATM   10  C9  UNL     1      22.456  30.687 -11.038  1.00  0.00     0.078 A 
HETATM   11  N4  UNL     1      22.432  29.517 -11.722  1.00  0.00    -0.337 N 
ATOM     12  H4  UNL     1      23.259  29.218 -12.237  1.00  0.00     0.168 HD
HETATM   13  C10 UNL     1      21.339  28.755 -11.730  1.00  0.00     0.146 A 
ENDROOT
BRANCH  13  14
HETATM   14  N5  UNL     1      21.311  27.665 -12.364  1.00  0.00    -0.373 N 
ATOM     15  H5  UNL     1      20.716  27.660 -13.193  1.00  0.00     0.161 HD
BRANCH  14  16
HETATM   16  C11 UNL     1      21.980  26.455 -12.095  1.00  0.00     0.121 C 
BRANCH  16  17
HETATM   17  C12 UNL     1      21.985  26.100 -10.601  1.00  0.00     0.024 C 
BRANCH  17  18
HETATM   18  C13 UNL     1      23.335  26.438  -9.992  1.00  0.00     0.040 C 
BRANCH  18  19
HETATM   19  C14 UNL     1      23.183  27.221  -8.743  1.00  0.00    -0.058 A 
HETATM   20  C15 UNL     1      22.470  26.737  -7.664  1.00  0.00     0.007 A 
HETATM   21  C16 UNL     1      22.297  27.413  -6.489  1.00  0.00     0.001 A 
HETATM   22  C17 UNL     1      22.874  28.668  -6.368  1.00  0.00     0.000 A 
HETATM   23  C18 UNL     1      23.598  29.192  -7.426  1.00  0.00     0.001 A 
HETATM   24  C19 UNL     1      23.754  28.484  -8.597  1.00  0.00     0.007 A 
ENDBRANCH  18  19
ENDBRANCH  17  18
ENDBRANCH  16  17
ENDBRANCH  14  16
ENDBRANCH  13  14
BRANCH   1  25
HETATM   25  N1  UNL     1      19.190  28.472 -11.024  1.00  0.00    -0.369 N 
ATOM     26  H1  UNL     1      18.930  28.025 -11.903  1.00  0.00     0.161 HD
BRANCH  25  27
HETATM   27  C2  UNL     1      18.347  28.233  -9.880  1.00  0.00     0.075 C 
HETATM   28  C1  UNL     1      19.116  27.996  -8.619  1.00  0.00     0.031 C 
HETATM   29  C3  UNL     1      17.446  27.035 -10.124  1.00  0.00     0.031 C 
ENDBRANCH  25  27
ENDBRANCH   1  25
TORSDOF 7
ENDMDL
MODEL 3
REMARK VINA RESULT: -7.819528236      2.188      5.389
REMARK  7 active torsions:
REMARK  status: ('A' for Active; 'I' for Inactive)
REMARK    1  A    between atoms: C2_2  and  N1_4 
REMARK    2  A    between atoms: N1_4  and  C4_6 
REMARK    3  A    between atoms: C10_18  and  N5_19 
REMARK    4  A    between atoms: N5_19  and  C11_21 
REMARK    5  A    between atoms: C11_21  and  C12_22 
REMARK    6  A    between atoms: C12_22  and  C13_23 
REMARK    7  A    between atoms: C13_23  and  C14_24 
ROOT
HETATM    1  C4  UNL     1      21.351  28.927  -9.791  1.00  0.00     0.147 A 
HETATM    2  N2  UNL     1      21.496  27.765  -9.138  1.00  0.00    -0.324 N 
ATOM      3  H2  UNL     1      21.020  27.635  -8.245  1.00  0.00     0.169 HD
HETATM    4  C5  UNL     1      22.250  26.770  -9.628  1.00  0.00     0.134 A 
HETATM    5  N3  UNL     1      22.409  25.595  -8.986  1.00  0.00    -0.350 N 
ATOM      6  H3  UNL     1      21.952  25.423  -8.091  1.00  0.00     0.166 HD
HETATM    7  C6  UNL     1      23.184  24.657  -9.555  1.00  0.00     0.090 A 
HETATM    8  C7  UNL     1      23.820  24.846 -10.760  1.00  0.00     0.019 A 
HETATM    9  C8  UNL     1      23.677  26.023 -11.427  1.00  0.00     0.035 A 
HETATM   10  C9  UNL     1      22.880  27.003 -10.855  1.00  0.00     0.078 A 
HETATM   11  N4  UNL     1      22.732  28.178 -11.514  1.00  0.00    -0.337 N 
ATOM     12  H4  UNL     1      23.205  28.318 -12.407  1.00  0.00     0.168 HD
HETATM   13  C10 UNL     1      21.977  29.153 -11.008  1.00  0.00     0.146 A 
ENDROOT
BRANCH  13  14
HETATM   14  N5  UNL     1      21.836  30.248 -11.617  1.00  0.00    -0.373 N 
ATOM     15  H5  UNL     1      20.947  30.364 -12.104  1.00  0.00     0.161 HD
BRANCH  14  16
HETATM   16  C11 UNL     1      22.726  31.335 -11.722  1.00  0.00     0.121 C 
BRANCH  16  17
HETATM   17  C12 UNL     1      22.133  32.643 -11.177  1.00  0.00     0.024 C 
BRANCH  17  18
HETATM   18  C13 UNL     1      22.554  32.839  -9.730  1.00  0.00     0.040 C 
BRANCH  18  19
HETATM   19  C14 UNL     1      21.477  33.475  -8.936  1.00  0.00    -0.058 A 
HETATM   20  C15 UNL     1      20.621  34.409  -9.487  1.00  0.00     0.007 A 
HETATM   21  C16 UNL     1      19.612  35.027  -8.805  1.00  0.00     0.001 A 
HETATM   22  C17 UNL     1      19.430  34.698  -7.470  1.00  0.00     0.000 A 
HETATM   23  C18 UNL     1      20.265  33.766  -6.877  1.00  0.00     0.001 A 
HETATM   24  C19 UNL     1      21.274  33.161  -7.593  1.00  0.00     0.007 A 
ENDBRANCH  18  19
ENDBRANCH  17  18
ENDBRANCH  16  17
ENDBRANCH  14  16
ENDBRANCH  13  14
BRANCH   1  25
HETATM   25  N1  UNL     1      20.631  29.853  -9.307  1.00  0.00    -0.369 N 
ATOM     26  H1  UNL     1      21.107  30.627  -8.843  1.00  0.00     0.161 HD
BRANCH  25  27
HETATM   27  C2  UNL     1      19.192  29.893  -9.364  1.00  0.00     0.075 C 
HETATM   28  C1  UNL     1      18.651  31.253  -9.678  1.00  0.00     0.031 C 
HETATM   29  C3  UNL     1      18.594  29.433  -8.045  1.00  0.00     0.031 C 
ENDBRANCH  25  27
ENDBRANCH   1  25
TORSDOF 7
ENDMDL
MODEL 4
REMARK VINA RESULT: -7.811565414      1.625      4.103
REMARK  7 active torsions:
REMARK  status: ('A' for Active; 'I' for Inactive)
REMARK    1  A    between atoms: C2_2  and  N1_4 
REMARK    2  A    between atoms: N1_4  and  C4_6 
REMARK    3  A    between atoms: C10_18  and  N5_19 
REMARK    4  A    between atoms: N5_19  and  C11_21 
REMARK    5  A    between atoms: C11_21  and  C12_22 
REMARK    6  A    between atoms: C12_22  and  C13_23 
REMARK    7  A    between atoms: C13_23  and  C14_24 
ROOT
HETATM    1  C4  UNL     1      20.496  28.017 -10.605  1.00  0.00     0.147 A 
HETATM    2  N2  UNL     1      20.759  26.972  -9.807  1.00  0.00    -0.324 N 
ATOM      3  H2  UNL     1      20.141  26.782  -9.018  1.00  0.00     0.169 HD
HETATM    4  C5  UNL     1      21.815  26.173 -10.018  1.00  0.00     0.134 A 
HETATM    5  N3  UNL     1      22.097  25.119  -9.227  1.00  0.00    -0.350 N 
ATOM      6  H3  UNL     1      21.506  24.892  -8.427  1.00  0.00     0.166 HD
HETATM    7  C6  UNL     1      23.177  24.374  -9.517  1.00  0.00     0.090 A 
HETATM    8  C7  UNL     1      24.002  24.642 -10.584  1.00  0.00     0.019 A 
HETATM    9  C8  UNL     1      23.739  25.701 -11.398  1.00  0.00     0.035 A 
HETATM   10  C9  UNL     1      22.629  26.481 -11.113  1.00  0.00     0.078 A 
HETATM   11  N4  UNL     1      22.360  27.537 -11.919  1.00  0.00    -0.337 N 
ATOM     12  H4  UNL     1      22.973  27.736 -12.710  1.00  0.00     0.168 HD
HETATM   13  C10 UNL     1      21.305  28.318 -11.690  1.00  0.00     0.146 A 
ENDROOT
BRANCH  13  14
HETATM   14  N5  UNL     1      21.050  29.302 -12.437  1.00  0.00    -0.373 N 
ATOM     15  H5  UNL     1      20.485  29.089 -13.260  1.00  0.00     0.161 HD
BRANCH  14  16
HETATM   16  C11 UNL     1      21.432  30.652 -12.302  1.00  0.00     0.121 C 
BRANCH  16  17
HETATM   17  C12 UNL     1      22.743  30.821 -11.519  1.00  0.00     0.024 C 
BRANCH  17  18
HETATM   18  C13 UNL     1      22.462  31.461 -10.171  1.00  0.00     0.040 C 
BRANCH  18  19
HETATM   19  C14 UNL     1      22.849  30.564  -9.056  1.00  0.00    -0.058 A 
HETATM   20  C15 UNL     1      23.639  29.450  -9.260  1.00  0.00     0.007 A 
HETATM   21  C16 UNL     1      24.025  28.588  -8.273  1.00  0.00     0.001 A 
HETATM   22  C17 UNL     1      23.600  28.847  -6.978  1.00  0.00     0.000 A 
HETATM   23  C18 UNL     1      22.807  29.954  -6.729  1.00  0.00     0.001 A 
HETATM   24  C19 UNL     1      22.434  30.803  -7.747  1.00  0.00     0.007 A 
ENDBRANCH  18  19
ENDBRANCH  17  18
ENDBRANCH  16  17
ENDBRANCH  14  16
ENDBRANCH  13  14
BRANCH   1  25
HETATM   25  N1  UNL     1      19.490  28.759 -10.385  1.00  0.00    -0.369 N 
ATOM     26  H1  UNL     1      18.710  28.703 -11.040  1.00  0.00     0.161 HD
BRANCH  25  27
HETATM   27  C2  UNL     1      19.367  29.673  -9.278  1.00  0.00     0.075 C 
HETATM   28  C1  UNL     1      18.665  29.081  -8.097  1.00  0.00     0.031 C 
HETATM   29  C3  UNL     1      18.616  30.925  -9.703  1.00  0.00     0.031 C 
ENDBRANCH  25  27
ENDBRANCH   1  25
TORSDOF 7
ENDMDL
MODEL 5
REMARK VINA RESULT: -7.770386022      2.086      4.405
REMARK  7 active torsions:
REMARK  status: ('A' for Active; 'I' for Inactive)
REMARK    1  A    between atoms: C2_2  and  N1_4 
REMARK    2  A    between atoms: N1_4  and  C4_6 
REMARK    3  A    between atoms: C10_18  and  N5_19 
REMARK    4  A    between atoms: N5_19  and  C11_21 
REMARK    5  A    between atoms: C11_21  and  C12_22 
REMARK    6  A    between atoms: C12_22  and  C13_23 
REMARK    7  A    between atoms: C13_23  and  C14_24 
ROOT
HETATM    1  C4  UNL     1      22.379  31.307  -8.786  1.00  0.00     0.147 A 
HETATM    2  N2  UNL     1      21.860  31.955  -7.733  1.00  0.00    -0.324 N 
ATOM      3  H2  UNL     1      22.079  31.628  -6.791  1.00  0.00     0.169 HD
HETATM    4  C5  UNL     1      21.060  33.020  -7.886  1.00  0.00     0.134 A 
HETATM    5  N3  UNL     1      20.528  33.685  -6.841  1.00  0.00    -0.350 N 
ATOM      6  H3  UNL     1      20.720  33.392  -5.883  1.00  0.00     0.166 HD
HETATM    7  C6  UNL     1      19.738  34.742  -7.092  1.00  0.00     0.090 A 
HETATM    8  C7  UNL     1      19.451  35.172  -8.367  1.00  0.00     0.019 A 
HETATM    9  C8  UNL     1      19.976  34.518  -9.438  1.00  0.00     0.035 A 
HETATM   10  C9  UNL     1      20.794  33.424  -9.198  1.00  0.00     0.078 A 
HETATM   11  N4  UNL     1      21.320  32.768 -10.261  1.00  0.00    -0.337 N 
ATOM     12  H4  UNL     1      21.106  33.087 -11.206  1.00  0.00     0.168 HD
HETATM   13  C10 UNL     1      22.113  31.712 -10.085  1.00  0.00     0.146 A 
ENDROOT
BRANCH  13  14
HETATM   14  N5  UNL     1      22.605  31.098 -11.071  1.00  0.00    -0.373 N 
ATOM     15  H5  UNL     1      23.624  31.116 -11.130  1.00  0.00     0.161 HD
BRANCH  14  16
HETATM   16  C11 UNL     1      21.954  30.390 -12.101  1.00  0.00     0.121 C 
BRANCH  16  17
HETATM   17  C12 UNL     1      21.588  28.955 -11.695  1.00  0.00     0.024 C 
BRANCH  17  18
HETATM   18  C13 UNL     1      20.078  28.797 -11.655  1.00  0.00     0.040 C 
BRANCH  18  19
HETATM   19  C14 UNL     1      19.552  28.983 -10.282  1.00  0.00    -0.058 A 
HETATM   20  C15 UNL     1      18.969  30.170  -9.881  1.00  0.00     0.007 A 
HETATM   21  C16 UNL     1      18.468  30.399  -8.631  1.00  0.00     0.001 A 
HETATM   22  C17 UNL     1      18.547  29.374  -7.700  1.00  0.00     0.000 A 
HETATM   23  C18 UNL     1      19.124  28.168  -8.058  1.00  0.00     0.001 A 
HETATM   24  C19 UNL     1      19.620  27.969  -9.328  1.00  0.00     0.007 A 
ENDBRANCH  18  19
ENDBRANCH  17  18
ENDBRANCH  16  17
ENDBRANCH  14  16
ENDBRANCH  13  14
BRANCH   1  25
HETATM   25  N1  UNL     1      23.134  30.301  -8.615  1.00  0.00    -0.369 N 
ATOM     26  H1  UNL     1      24.086  30.359  -8.977  1.00  0.00     0.161 HD
BRANCH  25  27
HETATM   27  C2  UNL     1      22.747  29.084  -7.948  1.00  0.00     0.075 C 
HETATM   28  C1  UNL     1      23.173  29.035  -6.514  1.00  0.00     0.031 C 
HETATM   29  C3  UNL     1      23.332  27.877  -8.663  1.00  0.00     0.031 C 
ENDBRANCH  25  27
ENDBRANCH   1  25
TORSDOF 7
ENDMDL
