MODEL 1
REMARK VINA RESULT: -8.418362890      0.000      0.000
REMARK  5 active torsions:
REMARK  status: ('A' for Active; 'I' for Inactive)
REMARK    1  A    between atoms: C4_6  and  C5_7 
REMARK    2  A    between atoms: C5_7  and  C6_8 
REMARK    3  A    between atoms: C6_8  and  N2_9 
REMARK    4  A    between atoms: C9_13  and  C10_14 
REMARK    5  A    between atoms: C10_14  and  C11_15 
ROOT
HETATM    1  N2  UNL     1      19.825  29.909 -10.072  1.00  0.00    -0.376 N 
ATOM      2  H2  UNL     1      19.010  29.814  -9.466  1.00  0.00     0.161 HD
HETATM    3  C7  UNL     1      20.451  31.042 -10.176  1.00  0.00     0.103 A 
HETATM    4  C8  UNL     1      19.980  32.122  -9.440  1.00  0.00     0.073 A 
HETATM    5  C9  UNL     1      20.639  33.322  -9.545  1.00  0.00     0.018 A 
HETATM    6  N4  UNL     1      21.723  33.363 -10.376  1.00  0.00    -0.355 N 
ATOM      7  H4  UNL     1      22.225  34.247 -10.465  1.00  0.00     0.166 HD
HETATM    8  C19 UNL     1      22.161  32.329 -11.072  1.00  0.00     0.182 A 
HETATM    9  N5  UNL     1      21.527  31.150 -10.979  1.00  0.00    -0.339 N 
ATOM     10  H5  UNL     1      21.855  30.343 -11.511  1.00  0.00     0.168 HD
ENDROOT
BRANCH   1  11
HETATM   11  C6  UNL     1      20.315  28.789 -10.838  1.00  0.00     0.126 C 
BRANCH  11  12
HETATM   12  C5  UNL     1      20.561  27.561  -9.990  1.00  0.00     0.059 C 
BRANCH  12  13
HETATM   13  C4  UNL     1      21.629  27.920  -9.010  1.00  0.00    -0.041 A 
HETATM   14  C3  UNL     1      22.892  28.157  -9.503  1.00  0.00     0.094 A 
HETATM   15  N1  UNL     1      23.888  28.485  -8.657  1.00  0.00    -0.375 N 
HETATM   16  C2  UNL     1      23.670  28.587  -7.336  1.00  0.00     0.087 A 
ATOM     17  H1  UNL     1      24.823  28.660  -9.027  1.00  0.00     0.164 HD
HETATM   18  C1  UNL     1      22.424  28.356  -6.833  1.00  0.00     0.018 A 
HETATM   19  C20 UNL     1      21.389  28.020  -7.665  1.00  0.00     0.010 A 
ENDBRANCH  12  13
ENDBRANCH  11  12
ENDBRANCH   1  11
BRANCH   5  20
HETATM   20  C10 UNL     1      20.246  34.533  -8.817  1.00  0.00     0.098 C 
BRANCH  20  21
HETATM   21  C11 UNL     1      21.399  35.090  -8.067  1.00  0.00    -0.025 A 
HETATM   22  C12 UNL     1      21.914  36.378  -8.233  1.00  0.00     0.096 A 
HETATM   23  N3  UNL     1      22.958  36.515  -7.415  1.00  0.00    -0.365 N 
HETATM   24  C13 UNL     1      23.136  35.354  -6.720  1.00  0.00     0.042 A 
ATOM     25  H3  UNL     1      23.531  37.354  -7.323  1.00  0.00     0.165 HD
HETATM   26  C14 UNL     1      24.047  34.972  -5.763  1.00  0.00     0.030 A 
HETATM   27  C18 UNL     1      22.156  34.433  -7.118  1.00  0.00    -0.002 A 
HETATM   28  C15 UNL     1      24.019  33.720  -5.192  1.00  0.00     0.002 A 
HETATM   29  C16 UNL     1      23.055  32.852  -5.599  1.00  0.00     0.001 A 
HETATM   30  C17 UNL     1      22.110  33.174  -6.556  1.00  0.00     0.014 A 
ENDBRANCH  20  21
ENDBRANCH   5  20
TORSDOF 5
ENDMDL
MODEL 2
REMARK VINA RESULT: -8.385608785      1.477      1.940
REMARK  5 active torsions:
REMARK  status: ('A' for Active; 'I' for Inactive)
REMARK    1  A    between atoms: C4_6  and  C5_7 
REMARK    2  A    between atoms: C5_7  and  C6_8 
REMARK    3  A    between atoms: C6_8  and  N2_9 
REMARK    4  A    between atoms: C9_13  and  C10_14 
REMARK    5  A    between atoms: C10_14  and  C11_15 
ROOT
HETATM    1  N2  UNL     1      20.033  29.876 -10.285  1.00  0.00    -0.376 N 
ATOM      2  H2  UNL     1      19.227  29.726  -9.679  1.00  0.00     0.161 HD
HETATM    3  C7  UNL     1      20.614  31.037 -10.348  1.00  0.00     0.103 A 
HETATM    4  C8  UNL     1      20.106  32.068  -9.568  1.00  0.00     0.073 A 
HETATM    5  C9  UNL     1      20.717  33.296  -9.629  1.00  0.00     0.018 A 
HETATM    6  N4  UNL     1      21.793  33.411 -10.464  1.00  0.00    -0.355 N 
ATOM      7  H4  UNL     1      22.259  34.317 -10.521  1.00  0.00     0.166 HD
HETATM    8  C19 UNL     1      22.267  32.423 -11.202  1.00  0.00     0.182 A 
HETATM    9  N5  UNL     1      21.679  31.217 -11.152  1.00  0.00    -0.339 N 
ATOM     10  H5  UNL     1      22.036  30.445 -11.716  1.00  0.00     0.168 HD
ENDROOT
BRANCH   1  11
HETATM   11  C6  UNL     1      20.561  28.806 -11.096  1.00  0.00     0.126 C 
BRANCH  11  12
HETATM   12  C5  UNL     1      20.294  27.438 -10.510  1.00  0.00     0.059 C 
BRANCH  12  13
HETATM   13  C4  UNL     1      21.574  26.675 -10.594  1.00  0.00    -0.041 A 
HETATM   14  C3  UNL     1      22.014  26.041  -9.455  1.00  0.00     0.094 A 
HETATM   15  N1  UNL     1      23.165  25.339  -9.483  1.00  0.00    -0.375 N 
HETATM   16  C2  UNL     1      23.893  25.247 -10.608  1.00  0.00     0.087 A 
ATOM     17  H1  UNL     1      23.487  24.871  -8.636  1.00  0.00     0.164 HD
HETATM   18  C1  UNL     1      23.469  25.869 -11.745  1.00  0.00     0.018 A 
HETATM   19  C20 UNL     1      22.304  26.591 -11.750  1.00  0.00     0.010 A 
ENDBRANCH  12  13
ENDBRANCH  11  12
ENDBRANCH   1  11
BRANCH   5  20
HETATM   20  C10 UNL     1      20.282  34.461  -8.854  1.00  0.00     0.098 C 
BRANCH  20  21
HETATM   21  C11 UNL     1      21.415  35.029  -8.082  1.00  0.00    -0.025 A 
HETATM   22  C12 UNL     1      21.913  36.326  -8.231  1.00  0.00     0.096 A 
HETATM   23  N3  UNL     1      22.943  36.472  -7.396  1.00  0.00    -0.365 N 
HETATM   24  C13 UNL     1      23.128  35.309  -6.708  1.00  0.00     0.042 A 
ATOM     25  H3  UNL     1      23.502  37.318  -7.289  1.00  0.00     0.165 HD
HETATM   26  C14 UNL     1      24.031  34.932  -5.741  1.00  0.00     0.030 A 
HETATM   27  C18 UNL     1      22.168  34.376  -7.127  1.00  0.00    -0.002 A 
HETATM   28  C15 UNL     1      24.013  33.675  -5.181  1.00  0.00     0.002 A 
HETATM   29  C16 UNL     1      23.069  32.796  -5.608  1.00  0.00     0.001 A 
HETATM   30  C17 UNL     1      22.134  33.111  -6.576  1.00  0.00     0.014 A 
ENDBRANCH  20  21
ENDBRANCH   5  20
TORSDOF 5
ENDMDL
MODEL 3
REMARK VINA RESULT: -8.233093040      2.336      7.166
REMARK  5 active torsions:
REMARK  status: ('A' for Active; 'I' for Inactive)
REMARK    1  A    between atoms: C4_6  and  C5_7 
REMARK    2  A    between atoms: C5_7  and  C6_8 
REMARK    3  A    between atoms: C6_8  and  N2_9 
REMARK    4  A    between atoms: C9_13  and  C10_14 
REMARK    5  A    between atoms: C10_14  and  C11_15 
ROOT
HETATM    1  N2  UNL     1      23.161  34.159  -6.940  1.00  0.00    -0.376 N 
ATOM      2  H2  UNL     1      24.011  33.708  -7.279  1.00  0.00     0.161 HD
HETATM    3  C7  UNL     1      21.990  33.756  -7.331  1.00  0.00     0.103 A 
HETATM    4  C8  UNL     1      21.925  32.694  -8.224  1.00  0.00     0.073 A 
HETATM    5  C9  UNL     1      20.690  32.264  -8.639  1.00  0.00     0.018 A 
HETATM    6  N4  UNL     1      19.603  32.921  -8.134  1.00  0.00    -0.355 N 
ATOM      7  H4  UNL     1      18.677  32.613  -8.432  1.00  0.00     0.166 HD
HETATM    8  C19 UNL     1      19.677  33.930  -7.285  1.00  0.00     0.182 A 
HETATM    9  N5  UNL     1      20.879  34.362  -6.871  1.00  0.00    -0.339 N 
ATOM     10  H5  UNL     1      20.950  35.140  -6.215  1.00  0.00     0.168 HD
ENDROOT
BRANCH   1  11
HETATM   11  C6  UNL     1      23.227  35.262  -6.013  1.00  0.00     0.126 C 
BRANCH  11  12
HETATM   12  C5  UNL     1      24.634  35.782  -5.818  1.00  0.00     0.059 C 
BRANCH  12  13
HETATM   13  C4  UNL     1      24.919  35.716  -4.354  1.00  0.00    -0.041 A 
HETATM   14  C3  UNL     1      24.659  36.838  -3.602  1.00  0.00     0.094 A 
HETATM   15  N1  UNL     1      24.899  36.826  -2.276  1.00  0.00    -0.375 N 
HETATM   16  C2  UNL     1      25.390  35.731  -1.671  1.00  0.00     0.087 A 
ATOM     17  H1  UNL     1      24.704  37.660  -1.723  1.00  0.00     0.164 HD
HETATM   18  C1  UNL     1      25.653  34.611  -2.403  1.00  0.00     0.018 A 
HETATM   19  C20 UNL     1      25.420  34.591  -3.753  1.00  0.00     0.010 A 
ENDBRANCH  12  13
ENDBRANCH  11  12
ENDBRANCH   1  11
BRANCH   5  20
HETATM   20  C10 UNL     1      20.486  31.152  -9.574  1.00  0.00     0.098 C 
BRANCH  20  21
HETATM   21  C11 UNL     1      20.326  29.873  -8.838  1.00  0.00    -0.025 A 
HETATM   22  C12 UNL     1      19.103  29.251  -8.575  1.00  0.00     0.096 A 
HETATM   23  N3  UNL     1      19.345  28.142  -7.875  1.00  0.00    -0.365 N 
HETATM   24  C13 UNL     1      20.690  28.025  -7.676  1.00  0.00     0.042 A 
ATOM     25  H3  UNL     1      18.638  27.486  -7.542  1.00  0.00     0.165 HD
HETATM   26  C14 UNL     1      21.457  27.082  -7.033  1.00  0.00     0.030 A 
HETATM   27  C18 UNL     1      21.334  29.114  -8.280  1.00  0.00    -0.002 A 
HETATM   28  C15 UNL     1      22.829  27.181  -6.971  1.00  0.00     0.002 A 
HETATM   29  C16 UNL     1      23.422  28.248  -7.568  1.00  0.00     0.001 A 
HETATM   30  C17 UNL     1      22.708  29.231  -8.229  1.00  0.00     0.014 A 
ENDBRANCH  20  21
ENDBRANCH   5  20
TORSDOF 5
ENDMDL
MODEL 4
REMARK VINA RESULT: -8.187712577      2.153      7.213
REMARK  5 active torsions:
REMARK  status: ('A' for Active; 'I' for Inactive)
REMARK    1  A    between atoms: C4_6  and  C5_7 
REMARK    2  A    between atoms: C5_7  and  C6_8 
REMARK    3  A    between atoms: C6_8  and  N2_9 
REMARK    4  A    between atoms: C9_13  and  C10_14 
REMARK    5  A    between atoms: C10_14  and  C11_15 
ROOT
HETATM    1  N2  UNL     1      20.900  32.880  -9.736  1.00  0.00    -0.376 N 
ATOM      2  H2  UNL     1      19.932  32.684  -9.482  1.00  0.00     0.161 HD
HETATM    3  C7  UNL     1      21.557  32.085 -10.525  1.00  0.00     0.103 A 
HETATM    4  C8  UNL     1      20.906  30.960 -11.015  1.00  0.00     0.073 A 
HETATM    5  C9  UNL     1      21.595  30.118 -11.852  1.00  0.00     0.018 A 
HETATM    6  N4  UNL     1      22.887  30.455 -12.143  1.00  0.00    -0.355 N 
ATOM      7  H4  UNL     1      23.413  29.840 -12.764  1.00  0.00     0.166 HD
HETATM    8  C19 UNL     1      23.496  31.527 -11.671  1.00  0.00     0.182 A 
HETATM    9  N5  UNL     1      22.835  32.360 -10.852  1.00  0.00    -0.339 N 
ATOM     10  H5  UNL     1      23.294  33.192 -10.480  1.00  0.00     0.168 HD
ENDROOT
BRANCH   1  11
HETATM   11  C6  UNL     1      21.578  34.047  -9.228  1.00  0.00     0.126 C 
BRANCH  11  12
HETATM   12  C5  UNL     1      20.963  34.575  -7.951  1.00  0.00     0.059 C 
BRANCH  12  13
HETATM   13  C4  UNL     1      22.092  34.904  -7.032  1.00  0.00    -0.041 A 
HETATM   14  C3  UNL     1      22.804  33.855  -6.496  1.00  0.00     0.094 A 
HETATM   15  N1  UNL     1      23.833  34.103  -5.661  1.00  0.00    -0.375 N 
HETATM   16  C2  UNL     1      24.178  35.361  -5.342  1.00  0.00     0.087 A 
ATOM     17  H1  UNL     1      24.358  33.323  -5.267  1.00  0.00     0.164 HD
HETATM   18  C1  UNL     1      23.483  36.411  -5.865  1.00  0.00     0.018 A 
HETATM   19  C20 UNL     1      22.431  36.193  -6.717  1.00  0.00     0.010 A 
ENDBRANCH  12  13
ENDBRANCH  11  12
ENDBRANCH   1  11
BRANCH   5  20
HETATM   20  C10 UNL     1      21.020  28.903 -12.438  1.00  0.00     0.098 C 
BRANCH  20  21
HETATM   21  C11 UNL     1      20.904  27.833 -11.416  1.00  0.00    -0.025 A 
HETATM   22  C12 UNL     1      19.767  27.587 -10.642  1.00  0.00     0.096 A 
HETATM   23  N3  UNL     1      20.038  26.573  -9.820  1.00  0.00    -0.365 N 
HETATM   24  C13 UNL     1      21.317  26.151 -10.038  1.00  0.00     0.042 A 
ATOM     25  H3  UNL     1      19.392  26.175  -9.138  1.00  0.00     0.165 HD
HETATM   26  C14 UNL     1      22.077  25.153  -9.474  1.00  0.00     0.030 A 
HETATM   27  C18 UNL     1      21.888  26.937 -11.050  1.00  0.00    -0.002 A 
HETATM   28  C15 UNL     1      23.372  24.911  -9.876  1.00  0.00     0.002 A 
HETATM   29  C16 UNL     1      23.894  25.690 -10.860  1.00  0.00     0.001 A 
HETATM   30  C17 UNL     1      23.183  26.709 -11.467  1.00  0.00     0.014 A 
ENDBRANCH  20  21
ENDBRANCH   5  20
TORSDOF 5
ENDMDL
MODEL 5
REMARK VINA RESULT: -8.183973475      2.725      7.713
REMARK  5 active torsions:
REMARK  status: ('A' for Active; 'I' for Inactive)
REMARK    1  A    between atoms: C4_6  and  C5_7 
REMARK    2  A    between atoms: C5_7  and  C6_8 
REMARK    3  A    between atoms: C6_8  and  N2_9 
REMARK    4  A    between atoms: C9_13  and  C10_14 
REMARK    5  A    between atoms: C10_14  and  C11_15 
ROOT
HETATM    1  N2  UNL     1      24.009  35.665  -6.760  1.00  0.00    -0.376 N 
ATOM      2  H2  UNL     1      24.128  36.427  -7.428  1.00  0.00     0.161 HD
HETATM    3  C7  UNL     1      23.280  34.631  -7.051  1.00  0.00     0.103 A 
HETATM    4  C8  UNL     1      22.666  34.590  -8.297  1.00  0.00     0.073 A 
HETATM    5  C9  UNL     1      21.895  33.498  -8.610  1.00  0.00     0.018 A 
HETATM    6  N4  UNL     1      21.791  32.520  -7.660  1.00  0.00    -0.355 N 
ATOM      7  H4  UNL     1      21.224  31.701  -7.878  1.00  0.00     0.166 HD
HETATM    8  C19 UNL     1      22.381  32.570  -6.479  1.00  0.00     0.182 A 
HETATM    9  N5  UNL     1      23.137  33.632  -6.159  1.00  0.00    -0.339 N 
ATOM     10  H5  UNL     1      23.597  33.683  -5.250  1.00  0.00     0.168 HD
ENDROOT
BRANCH   1  11
HETATM   11  C6  UNL     1      24.647  35.706  -5.467  1.00  0.00     0.126 C 
BRANCH  11  12
HETATM   12  C5  UNL     1      24.050  36.752  -4.551  1.00  0.00     0.059 C 
BRANCH  12  13
HETATM   13  C4  UNL     1      24.756  36.630  -3.241  1.00  0.00    -0.041 A 
HETATM   14  C3  UNL     1      26.025  36.100  -3.247  1.00  0.00     0.094 A 
HETATM   15  N1  UNL     1      26.702  35.971  -2.089  1.00  0.00    -0.375 N 
HETATM   16  C2  UNL     1      26.157  36.352  -0.922  1.00  0.00     0.087 A 
ATOM     17  H1  UNL     1      27.643  35.578  -2.099  1.00  0.00     0.164 HD
HETATM   18  C1  UNL     1      24.900  36.880  -0.900  1.00  0.00     0.018 A 
HETATM   19  C20 UNL     1      24.185  37.024  -2.060  1.00  0.00     0.010 A 
ENDBRANCH  12  13
ENDBRANCH  11  12
ENDBRANCH   1  11
BRANCH   5  20
HETATM   20  C10 UNL     1      21.199  33.332  -9.890  1.00  0.00     0.098 C 
BRANCH  20  21
HETATM   21  C11 UNL     1      21.723  32.152 -10.622  1.00  0.00    -0.025 A 
HETATM   22  C12 UNL     1      22.928  32.117 -11.326  1.00  0.00     0.096 A 
HETATM   23  N3  UNL     1      23.054  30.908 -11.873  1.00  0.00    -0.365 N 
HETATM   24  C13 UNL     1      21.965  30.154 -11.544  1.00  0.00     0.042 A 
ATOM     25  H3  UNL     1      23.839  30.596 -12.445  1.00  0.00     0.165 HD
HETATM   26  C14 UNL     1      21.605  28.860 -11.839  1.00  0.00     0.030 A 
HETATM   27  C18 UNL     1      21.104  30.924 -10.748  1.00  0.00    -0.002 A 
HETATM   28  C15 UNL     1      20.432  28.309 -11.376  1.00  0.00     0.002 A 
HETATM   29  C16 UNL     1      19.621  29.082 -10.606  1.00  0.00     0.001 A 
HETATM   30  C17 UNL     1      19.925  30.389 -10.273  1.00  0.00     0.014 A 
ENDBRANCH  20  21
ENDBRANCH   5  20
TORSDOF 5
ENDMDL
