MODEL 1
REMARK VINA RESULT: -6.693705078      0.000      0.000
REMARK  9 active torsions:
REMARK  status: ('A' for Active; 'I' for Inactive)
REMARK    1  A    between atoms: O1_2  and  C2_3 
REMARK    2  A    between atoms: C3_5  and  O3_6 
REMARK    3  A    between atoms: O3_6  and  C4_7 
REMARK    4  A    between atoms: C5_9  and  O5_10 
REMARK    5  A    between atoms: C6_12  and  O6_13 
REMARK    6  A    between atoms: C7_15  and  N1_16 
REMARK    7  A    between atoms: C8_20  and  O7_21 
REMARK    8  A    between atoms: C9_23  and  O8_24 
REMARK    9  A    between atoms: C10_26  and  O9_27 
ROOT
HETATM    1  C2  UNL     1      36.086  69.845  16.781  1.00  0.00     0.293 C 
HETATM    2  O2  UNL     1      36.475  68.919  17.742  1.00  0.00    -0.326 OA
HETATM    3  C3  UNL     1      35.392  68.063  17.948  1.00  0.00     0.297 C 
HETATM    4  C8  UNL     1      35.269  67.156  16.758  1.00  0.00     0.204 C 
HETATM    5  C9  UNL     1      35.485  67.803  15.450  1.00  0.00     0.185 C 
HETATM    6  C10 UNL     1      36.135  69.131  15.450  1.00  0.00     0.204 C 
ENDROOT
BRANCH   3   7
HETATM    7  O3  UNL     1      35.663  67.393  19.121  1.00  0.00    -0.326 OA
BRANCH   7   8
HETATM    8  C4  UNL     1      34.717  67.556  20.117  1.00  0.00     0.299 C 
HETATM    9  O4  UNL     1      33.767  66.559  19.881  1.00  0.00    -0.327 OA
HETATM   10  C5  UNL     1      33.362  66.043  21.066  1.00  0.00     0.290 C 
HETATM   11  C6  UNL     1      34.049  66.713  22.194  1.00  0.00     0.208 C 
HETATM   12  C7  UNL     1      35.250  67.363  21.493  1.00  0.00     0.271 C 
BRANCH  10  13
HETATM   13  O5  UNL     1      31.957  66.177  21.153  1.00  0.00    -0.368 OA
ATOM     14  H5  UNL     1      31.557  65.423  20.734  1.00  0.00     0.212 HD
ENDBRANCH  10  13
BRANCH  11  15
HETATM   15  O6  UNL     1      33.236  67.771  22.630  1.00  0.00    -0.388 OA
ATOM     16  H6  UNL     1      33.591  68.095  23.449  1.00  0.00     0.210 HD
ENDBRANCH  11  15
BRANCH  12  17
HETATM   17  N1  UNL     1      35.536  68.551  22.214  1.00  0.00    -0.068 N 
ATOM     18  H13 UNL     1      34.771  69.217  22.106  1.00  0.00     0.275 HD
ATOM     19  H12 UNL     1      35.479  68.371  23.216  1.00  0.00     0.275 HD
ATOM     20  H11 UNL     1      36.424  69.000  21.991  1.00  0.00     0.275 HD
ENDBRANCH  12  17
ENDBRANCH   7   8
ENDBRANCH   3   7
BRANCH   4  21
HETATM   21  O7  UNL     1      33.947  66.652  16.773  1.00  0.00    -0.388 OA
ATOM     22  H7  UNL     1      33.938  65.905  16.187  1.00  0.00     0.210 HD
ENDBRANCH   4  21
BRANCH   1  23
HETATM   23  O1  UNL     1      37.051  70.854  16.778  1.00  0.00    -0.363 OA
HETATM   24  C1  UNL     1      37.014  71.572  17.991  1.00  0.00     0.204 C 
ENDBRANCH   1  23
BRANCH   5  25
HETATM   25  O8  UNL     1      34.283  67.916  14.708  1.00  0.00    -0.390 OA
ATOM     26  H8  UNL     1      33.667  68.513  15.115  1.00  0.00     0.210 HD
ENDBRANCH   5  25
BRANCH   6  27
HETATM   27  O9  UNL     1      37.505  69.028  15.113  1.00  0.00    -0.388 OA
ATOM     28  H9  UNL     1      37.576  69.321  14.212  1.00  0.00     0.210 HD
ENDBRANCH   6  27
TORSDOF 9
ENDMDL
MODEL 2
REMARK VINA RESULT: -6.497155497      1.902      2.311
REMARK  9 active torsions:
REMARK  status: ('A' for Active; 'I' for Inactive)
REMARK    1  A    between atoms: O1_2  and  C2_3 
REMARK    2  A    between atoms: C3_5  and  O3_6 
REMARK    3  A    between atoms: O3_6  and  C4_7 
REMARK    4  A    between atoms: C5_9  and  O5_10 
REMARK    5  A    between atoms: C6_12  and  O6_13 
REMARK    6  A    between atoms: C7_15  and  N1_16 
REMARK    7  A    between atoms: C8_20  and  O7_21 
REMARK    8  A    between atoms: C9_23  and  O8_24 
REMARK    9  A    between atoms: C10_26  and  O9_27 
ROOT
HETATM    1  C2  UNL     1      35.567  70.208  15.651  1.00  0.00     0.293 C 
HETATM    2  O2  UNL     1      35.543  69.942  17.015  1.00  0.00    -0.326 OA
HETATM    3  C3  UNL     1      34.637  68.898  17.213  1.00  0.00     0.297 C 
HETATM    4  C8  UNL     1      35.261  67.626  16.717  1.00  0.00     0.204 C 
HETATM    5  C9  UNL     1      36.015  67.746  15.454  1.00  0.00     0.185 C 
HETATM    6  C10 UNL     1      36.381  69.108  15.011  1.00  0.00     0.204 C 
ENDROOT
BRANCH   3   7
HETATM    7  O3  UNL     1      34.370  68.887  18.565  1.00  0.00    -0.326 OA
BRANCH   7   8
HETATM    8  C4  UNL     1      34.715  67.717  19.216  1.00  0.00     0.299 C 
HETATM    9  O4  UNL     1      35.623  68.106  20.204  1.00  0.00    -0.327 OA
HETATM   10  C5  UNL     1      35.378  67.399  21.334  1.00  0.00     0.290 C 
HETATM   11  C6  UNL     1      34.252  66.458  21.133  1.00  0.00     0.208 C 
HETATM   12  C7  UNL     1      33.571  67.042  19.887  1.00  0.00     0.271 C 
BRANCH  10  13
HETATM   13  O5  UNL     1      36.565  66.726  21.703  1.00  0.00    -0.368 OA
ATOM     14  H5  UNL     1      36.327  65.927  22.160  1.00  0.00     0.212 HD
ENDBRANCH  10  13
BRANCH  11  15
HETATM   15  O6  UNL     1      34.785  65.221  20.739  1.00  0.00    -0.388 OA
ATOM     16  H6  UNL     1      34.611  64.594  21.430  1.00  0.00     0.210 HD
ENDBRANCH  11  15
BRANCH  12  17
HETATM   17  N1  UNL     1      33.011  65.940  19.188  1.00  0.00    -0.068 N 
ATOM     18  H13 UNL     1      32.374  66.274  18.465  1.00  0.00     0.275 HD
ATOM     19  H12 UNL     1      33.724  65.495  18.611  1.00  0.00     0.275 HD
ATOM     20  H11 UNL     1      32.545  65.241  19.766  1.00  0.00     0.275 HD
ENDBRANCH  12  17
ENDBRANCH   7   8
ENDBRANCH   3   7
BRANCH   4  21
HETATM   21  O7  UNL     1      34.199  66.718  16.497  1.00  0.00    -0.388 OA
ATOM     22  H7  UNL     1      33.716  67.046  15.748  1.00  0.00     0.210 HD
ENDBRANCH   4  21
BRANCH   1  23
HETATM   23  O1  UNL     1      36.248  71.416  15.487  1.00  0.00    -0.363 OA
HETATM   24  C1  UNL     1      35.691  72.153  14.421  1.00  0.00     0.204 C 
ENDBRANCH   1  23
BRANCH   5  25
HETATM   25  O8  UNL     1      35.350  67.110  14.377  1.00  0.00    -0.390 OA
ATOM     26  H8  UNL     1      35.797  66.320  14.099  1.00  0.00     0.210 HD
ENDBRANCH   5  25
BRANCH   6  27
HETATM   27  O9  UNL     1      37.733  69.396  15.314  1.00  0.00    -0.388 OA
ATOM     28  H9  UNL     1      38.101  69.782  14.528  1.00  0.00     0.210 HD
ENDBRANCH   6  27
TORSDOF 9
ENDMDL
MODEL 3
REMARK VINA RESULT: -6.464994419      3.821      5.149
REMARK  9 active torsions:
REMARK  status: ('A' for Active; 'I' for Inactive)
REMARK    1  A    between atoms: O1_2  and  C2_3 
REMARK    2  A    between atoms: C3_5  and  O3_6 
REMARK    3  A    between atoms: O3_6  and  C4_7 
REMARK    4  A    between atoms: C5_9  and  O5_10 
REMARK    5  A    between atoms: C6_12  and  O6_13 
REMARK    6  A    between atoms: C7_15  and  N1_16 
REMARK    7  A    between atoms: C8_20  and  O7_21 
REMARK    8  A    between atoms: C9_23  and  O8_24 
REMARK    9  A    between atoms: C10_26  and  O9_27 
ROOT
HETATM    1  C2  UNL     1      34.766  68.217  21.201  1.00  0.00     0.293 C 
HETATM    2  O2  UNL     1      33.792  67.744  22.072  1.00  0.00    -0.326 OA
HETATM    3  C3  UNL     1      32.867  67.033  21.305  1.00  0.00     0.297 C 
HETATM    4  C8  UNL     1      33.492  65.732  20.892  1.00  0.00     0.204 C 
HETATM    5  C9  UNL     1      34.908  65.816  20.485  1.00  0.00     0.185 C 
HETATM    6  C10 UNL     1      35.648  67.040  20.858  1.00  0.00     0.204 C 
ENDROOT
BRANCH   3   7
HETATM    7  O3  UNL     1      31.758  66.877  22.107  1.00  0.00    -0.326 OA
BRANCH   7   8
HETATM    8  C4  UNL     1      30.655  67.618  21.726  1.00  0.00     0.299 C 
HETATM    9  O4  UNL     1      30.964  68.935  22.074  1.00  0.00    -0.327 OA
HETATM   10  C5  UNL     1      30.519  69.767  21.102  1.00  0.00     0.290 C 
HETATM   11  C6  UNL     1      29.854  69.004  20.020  1.00  0.00     0.208 C 
HETATM   12  C7  UNL     1      30.382  67.583  20.263  1.00  0.00     0.271 C 
BRANCH  10  13
HETATM   13  O5  UNL     1      29.648  70.713  21.690  1.00  0.00    -0.368 OA
ATOM     14  H5  UNL     1      28.880  70.798  21.137  1.00  0.00     0.212 HD
ENDBRANCH  10  13
BRANCH  11  15
HETATM   15  O6  UNL     1      28.480  68.960  20.303  1.00  0.00    -0.388 OA
ATOM     16  H6  UNL     1      28.009  69.116  19.494  1.00  0.00     0.210 HD
ENDBRANCH  11  15
BRANCH  12  17
HETATM   17  N1  UNL     1      29.351  66.700  19.849  1.00  0.00    -0.068 N 
ATOM     18  H13 UNL     1      29.414  66.539  18.844  1.00  0.00     0.275 HD
ATOM     19  H12 UNL     1      29.538  65.760  20.196  1.00  0.00     0.275 HD
ATOM     20  H11 UNL     1      28.403  66.981  20.099  1.00  0.00     0.275 HD
ENDBRANCH  12  17
ENDBRANCH   7   8
ENDBRANCH   3   7
BRANCH   4  21
HETATM   21  O7  UNL     1      32.754  65.270  19.777  1.00  0.00    -0.388 OA
ATOM     22  H7  UNL     1      33.390  65.050  19.106  1.00  0.00     0.210 HD
ENDBRANCH   4  21
BRANCH   1  23
HETATM   23  O1  UNL     1      35.525  69.148  21.912  1.00  0.00    -0.363 OA
HETATM   24  C1  UNL     1      35.874  70.235  21.083  1.00  0.00     0.204 C 
ENDBRANCH   1  23
BRANCH   5  25
HETATM   25  O8  UNL     1      35.073  65.625  19.091  1.00  0.00    -0.390 OA
ATOM     26  H8  UNL     1      35.988  65.570  18.845  1.00  0.00     0.210 HD
ENDBRANCH   5  25
BRANCH   6  27
HETATM   27  O9  UNL     1      36.460  66.818  21.995  1.00  0.00    -0.388 OA
ATOM     28  H9  UNL     1      37.176  67.440  21.932  1.00  0.00     0.210 HD
ENDBRANCH   6  27
TORSDOF 9
ENDMDL
MODEL 4
REMARK VINA RESULT: -6.383101433      2.294      6.387
REMARK  9 active torsions:
REMARK  status: ('A' for Active; 'I' for Inactive)
REMARK    1  A    between atoms: O1_2  and  C2_3 
REMARK    2  A    between atoms: C3_5  and  O3_6 
REMARK    3  A    between atoms: O3_6  and  C4_7 
REMARK    4  A    between atoms: C5_9  and  O5_10 
REMARK    5  A    between atoms: C6_12  and  O6_13 
REMARK    6  A    between atoms: C7_15  and  N1_16 
REMARK    7  A    between atoms: C8_20  and  O7_21 
REMARK    8  A    between atoms: C9_23  and  O8_24 
REMARK    9  A    between atoms: C10_26  and  O9_27 
ROOT
HETATM    1  C2  UNL     1      31.615  67.569  21.445  1.00  0.00     0.293 C 
HETATM    2  O2  UNL     1      31.894  66.988  20.213  1.00  0.00    -0.326 OA
HETATM    3  C3  UNL     1      33.284  66.936  20.091  1.00  0.00     0.297 C 
HETATM    4  C8  UNL     1      33.802  65.861  21.002  1.00  0.00     0.204 C 
HETATM    5  C9  UNL     1      33.154  65.794  22.326  1.00  0.00     0.185 C 
HETATM    6  C10 UNL     1      31.871  66.509  22.490  1.00  0.00     0.204 C 
ENDROOT
BRANCH   3   7
HETATM    7  O3  UNL     1      33.533  66.692  18.758  1.00  0.00    -0.326 OA
BRANCH   7   8
HETATM    8  C4  UNL     1      34.264  67.672  18.113  1.00  0.00     0.299 C 
HETATM    9  O4  UNL     1      35.021  68.281  19.118  1.00  0.00    -0.327 OA
HETATM   10  C5  UNL     1      36.259  68.550  18.639  1.00  0.00     0.290 C 
HETATM   11  C6  UNL     1      36.381  68.123  17.226  1.00  0.00     0.208 C 
HETATM   12  C7  UNL     1      35.205  67.146  17.088  1.00  0.00     0.271 C 
BRANCH  10  13
HETATM   13  O5  UNL     1      36.504  69.934  18.792  1.00  0.00    -0.368 OA
ATOM     14  H5  UNL     1      35.669  70.388  18.797  1.00  0.00     0.212 HD
ENDBRANCH  10  13
BRANCH  11  15
HETATM   15  O6  UNL     1      36.069  69.223  16.412  1.00  0.00    -0.388 OA
ATOM     16  H6  UNL     1      36.705  69.256  15.708  1.00  0.00     0.210 HD
ENDBRANCH  11  15
BRANCH  12  17
HETATM   17  N1  UNL     1      34.766  67.242  15.742  1.00  0.00    -0.068 N 
ATOM     18  H13 UNL     1      34.921  66.356  15.261  1.00  0.00     0.275 HD
ATOM     19  H12 UNL     1      33.748  67.289  15.711  1.00  0.00     0.275 HD
ATOM     20  H11 UNL     1      35.166  68.008  15.200  1.00  0.00     0.275 HD
ENDBRANCH  12  17
ENDBRANCH   7   8
ENDBRANCH   3   7
BRANCH   4  21
HETATM   21  O7  UNL     1      35.173  66.138  21.210  1.00  0.00    -0.388 OA
ATOM     22  H7  UNL     1      35.603  66.008  20.373  1.00  0.00     0.210 HD
ENDBRANCH   4  21
BRANCH   1  23
HETATM   23  O1  UNL     1      30.252  67.874  21.448  1.00  0.00    -0.363 OA
HETATM   24  C1  UNL     1      29.811  68.166  20.140  1.00  0.00     0.204 C 
ENDBRANCH   1  23
BRANCH   5  25
HETATM   25  O8  UNL     1      34.019  66.224  23.363  1.00  0.00    -0.390 OA
ATOM     26  H8  UNL     1      33.583  66.243  24.206  1.00  0.00     0.210 HD
ENDBRANCH   5  25
BRANCH   6  27
HETATM   27  O9  UNL     1      30.777  65.615  22.415  1.00  0.00    -0.388 OA
ATOM     28  H9  UNL     1      30.039  66.130  22.110  1.00  0.00     0.210 HD
ENDBRANCH   6  27
TORSDOF 9
ENDMDL
MODEL 5
REMARK VINA RESULT: -6.377121838      1.996      3.393
REMARK  9 active torsions:
REMARK  status: ('A' for Active; 'I' for Inactive)
REMARK    1  A    between atoms: O1_2  and  C2_3 
REMARK    2  A    between atoms: C3_5  and  O3_6 
REMARK    3  A    between atoms: O3_6  and  C4_7 
REMARK    4  A    between atoms: C5_9  and  O5_10 
REMARK    5  A    between atoms: C6_12  and  O6_13 
REMARK    6  A    between atoms: C7_15  and  N1_16 
REMARK    7  A    between atoms: C8_20  and  O7_21 
REMARK    8  A    between atoms: C9_23  and  O8_24 
REMARK    9  A    between atoms: C10_26  and  O9_27 
ROOT
HETATM    1  C2  UNL     1      36.744  69.280  15.992  1.00  0.00     0.293 C 
HETATM    2  O2  UNL     1      35.506  69.037  16.575  1.00  0.00    -0.326 OA
HETATM    3  C3  UNL     1      35.643  69.277  17.943  1.00  0.00     0.297 C 
HETATM    4  C8  UNL     1      35.738  70.759  18.159  1.00  0.00     0.204 C 
HETATM    5  C9  UNL     1      36.565  71.486  17.176  1.00  0.00     0.185 C 
HETATM    6  C10 UNL     1      36.901  70.781  15.921  1.00  0.00     0.204 C 
ENDROOT
BRANCH   3   7
HETATM    7  O3  UNL     1      34.537  68.707  18.535  1.00  0.00    -0.326 OA
BRANCH   7   8
HETATM    8  C4  UNL     1      34.799  67.587  19.301  1.00  0.00     0.299 C 
HETATM    9  O4  UNL     1      35.674  68.025  20.298  1.00  0.00    -0.327 OA
HETATM   10  C5  UNL     1      35.346  67.430  21.470  1.00  0.00     0.290 C 
HETATM   11  C6  UNL     1      34.191  66.520  21.292  1.00  0.00     0.208 C 
HETATM   12  C7  UNL     1      33.596  67.017  19.967  1.00  0.00     0.271 C 
BRANCH  10  13
HETATM   13  O5  UNL     1      36.484  66.747  21.957  1.00  0.00    -0.368 OA
ATOM     14  H5  UNL     1      36.252  66.325  22.776  1.00  0.00     0.212 HD
ENDBRANCH  10  13
BRANCH  11  15
HETATM   15  O6  UNL     1      34.689  65.233  21.034  1.00  0.00    -0.388 OA
ATOM     16  H6  UNL     1      34.068  64.604  21.381  1.00  0.00     0.210 HD
ENDBRANCH  11  15
BRANCH  12  17
HETATM   17  N1  UNL     1      33.024  65.881  19.338  1.00  0.00    -0.068 N 
ATOM     18  H13 UNL     1      33.760  65.286  18.957  1.00  0.00     0.275 HD
ATOM     19  H12 UNL     1      32.631  65.255  20.040  1.00  0.00     0.275 HD
ATOM     20  H11 UNL     1      32.328  66.078  18.619  1.00  0.00     0.275 HD
ENDBRANCH  12  17
ENDBRANCH   7   8
ENDBRANCH   3   7
BRANCH   4  21
HETATM   21  O7  UNL     1      36.328  70.942  19.432  1.00  0.00    -0.388 OA
ATOM     22  H7  UNL     1      35.612  71.039  20.048  1.00  0.00     0.210 HD
ENDBRANCH   4  21
BRANCH   1  23
HETATM   23  O1  UNL     1      36.684  68.779  14.691  1.00  0.00    -0.363 OA
HETATM   24  C1  UNL     1      35.712  67.760  14.601  1.00  0.00     0.204 C 
ENDBRANCH   1  23
BRANCH   5  25
HETATM   25  O8  UNL     1      37.777  71.952  17.742  1.00  0.00    -0.390 OA
ATOM     26  H8  UNL     1      38.069  72.762  17.342  1.00  0.00     0.210 HD
ENDBRANCH   5  25
BRANCH   6  27
HETATM   27  O9  UNL     1      36.071  71.209  14.858  1.00  0.00    -0.388 OA
ATOM     28  H9  UNL     1      35.195  71.275  15.221  1.00  0.00     0.210 HD
ENDBRANCH   6  27
TORSDOF 9
ENDMDL
