MODEL 1
REMARK VINA RESULT: -6.501835268      0.000      0.000
REMARK  9 active torsions:
REMARK  status: ('A' for Active; 'I' for Inactive)
REMARK    1  A    between atoms: C3_4  and  O2_5 
REMARK    2  A    between atoms: O2_5  and  C4_6 
REMARK    3  A    between atoms: C5_8  and  C6_9 
REMARK    4  A    between atoms: C6_9  and  O4_10 
REMARK    5  A    between atoms: C7_12  and  O5_13 
REMARK    6  A    between atoms: C8_15  and  O6_16 
REMARK    7  A    between atoms: C9_18  and  O7_19 
REMARK    8  A    between atoms: C10_21  and  O8_22 
REMARK    9  A    between atoms: C11_24  and  O9_25 
ROOT
HETATM    1  C4  UNL     1      34.384  67.222  18.691  1.00  0.00     0.294 C 
HETATM    2  O3  UNL     1      35.257  67.600  19.714  1.00  0.00    -0.348 OA
HETATM    3  C5  UNL     1      35.353  66.635  20.696  1.00  0.00     0.179 C 
HETATM    4  C7  UNL     1      34.019  66.297  21.319  1.00  0.00     0.180 C 
HETATM    5  C8  UNL     1      33.004  67.284  20.734  1.00  0.00     0.183 C 
HETATM    6  C9  UNL     1      32.972  66.991  19.243  1.00  0.00     0.204 C 
ENDROOT
BRANCH   1   7
HETATM    7  O2  UNL     1      34.289  68.209  17.747  1.00  0.00    -0.326 OA
BRANCH   7   8
HETATM    8  C3  UNL     1      34.809  67.869  16.508  1.00  0.00     0.294 C 
HETATM    9  O1  UNL     1      36.174  67.997  16.559  1.00  0.00    -0.351 OA
HETATM   10  C2  UNL     1      36.628  68.574  15.412  1.00  0.00     0.152 C 
HETATM   11  C1  UNL     1      37.094  70.017  15.626  1.00  0.00     0.042 C 
HETATM   12  C11 UNL     1      35.490  68.630  14.421  1.00  0.00     0.180 C 
HETATM   13  C10 UNL     1      34.303  68.721  15.392  1.00  0.00     0.204 C 
BRANCH  12  14
HETATM   14  O9  UNL     1      35.451  67.411  13.760  1.00  0.00    -0.390 OA
ATOM     15  H9  UNL     1      34.940  67.530  12.968  1.00  0.00     0.210 HD
ENDBRANCH  12  14
BRANCH  13  16
HETATM   16  O8  UNL     1      33.210  68.203  14.735  1.00  0.00    -0.388 OA
ATOM     17  H8  UNL     1      32.826  68.790  14.095  1.00  0.00     0.210 HD
ENDBRANCH  13  16
ENDBRANCH   7   8
ENDBRANCH   1   7
BRANCH   6  18
HETATM   18  O7  UNL     1      32.578  65.664  19.073  1.00  0.00    -0.388 OA
ATOM     19  H7  UNL     1      32.361  65.262  19.906  1.00  0.00     0.210 HD
ENDBRANCH   6  18
BRANCH   3  20
HETATM   20  C6  UNL     1      36.239  67.176  21.800  1.00  0.00     0.198 C 
BRANCH  20  21
HETATM   21  O4  UNL     1      35.874  68.467  22.181  1.00  0.00    -0.398 OA
ATOM     22  H4  UNL     1      35.196  68.465  22.846  1.00  0.00     0.209 HD
ENDBRANCH  20  21
ENDBRANCH   3  20
BRANCH   5  23
HETATM   23  O6  UNL     1      33.451  68.584  20.912  1.00  0.00    -0.390 OA
ATOM     24  H6  UNL     1      32.831  69.070  21.443  1.00  0.00     0.210 HD
ENDBRANCH   5  23
BRANCH   4  25
HETATM   25  O5  UNL     1      34.020  66.336  22.690  1.00  0.00    -0.390 OA
ATOM     26  H5  UNL     1      33.297  65.867  23.089  1.00  0.00     0.210 HD
ENDBRANCH   4  25
TORSDOF 9
ENDMDL
MODEL 2
REMARK VINA RESULT: -6.423568174      1.475      5.934
REMARK  9 active torsions:
REMARK  status: ('A' for Active; 'I' for Inactive)
REMARK    1  A    between atoms: C3_4  and  O2_5 
REMARK    2  A    between atoms: O2_5  and  C4_6 
REMARK    3  A    between atoms: C5_8  and  C6_9 
REMARK    4  A    between atoms: C6_9  and  O4_10 
REMARK    5  A    between atoms: C7_12  and  O5_13 
REMARK    6  A    between atoms: C8_15  and  O6_16 
REMARK    7  A    between atoms: C9_18  and  O7_19 
REMARK    8  A    between atoms: C10_21  and  O8_22 
REMARK    9  A    between atoms: C11_24  and  O9_25 
ROOT
HETATM    1  C4  UNL     1      34.855  68.227  17.503  1.00  0.00     0.294 C 
HETATM    2  O3  UNL     1      36.005  68.737  16.897  1.00  0.00    -0.348 OA
HETATM    3  C5  UNL     1      35.758  69.922  16.233  1.00  0.00     0.179 C 
HETATM    4  C7  UNL     1      34.690  69.790  15.174  1.00  0.00     0.180 C 
HETATM    5  C8  UNL     1      34.339  68.301  15.093  1.00  0.00     0.183 C 
HETATM    6  C9  UNL     1      33.769  67.947  16.456  1.00  0.00     0.204 C 
ENDROOT
BRANCH   1   7
HETATM    7  O2  UNL     1      35.123  67.040  18.131  1.00  0.00    -0.326 OA
BRANCH   7   8
HETATM    8  C3  UNL     1      34.357  66.803  19.261  1.00  0.00     0.294 C 
HETATM    9  O1  UNL     1      34.268  67.969  19.978  1.00  0.00    -0.351 OA
HETATM   10  C2  UNL     1      34.403  67.706  21.308  1.00  0.00     0.152 C 
HETATM   11  C1  UNL     1      35.748  68.180  21.865  1.00  0.00     0.042 C 
HETATM   12  C11 UNL     1      34.356  66.210  21.507  1.00  0.00     0.180 C 
HETATM   13  C10 UNL     1      34.920  65.748  20.155  1.00  0.00     0.204 C 
BRANCH  12  14
HETATM   14  O9  UNL     1      33.022  65.841  21.599  1.00  0.00    -0.390 OA
ATOM     15  H9  UNL     1      32.760  65.935  22.507  1.00  0.00     0.210 HD
ENDBRANCH  12  14
BRANCH  13  16
HETATM   16  O8  UNL     1      34.423  64.486  19.925  1.00  0.00    -0.388 OA
ATOM     17  H8  UNL     1      33.991  64.095  20.674  1.00  0.00     0.210 HD
ENDBRANCH  13  16
ENDBRANCH   7   8
ENDBRANCH   1   7
BRANCH   6  18
HETATM   18  O7  UNL     1      32.646  68.742  16.673  1.00  0.00    -0.388 OA
ATOM     19  H7  UNL     1      32.693  69.178  17.516  1.00  0.00     0.210 HD
ENDBRANCH   6  18
BRANCH   3  20
HETATM   20  C6  UNL     1      37.035  70.340  15.531  1.00  0.00     0.198 C 
BRANCH  20  21
HETATM   21  O4  UNL     1      37.774  69.242  15.087  1.00  0.00    -0.398 OA
ATOM     22  H4  UNL     1      37.272  68.688  14.501  1.00  0.00     0.209 HD
ENDBRANCH  20  21
ENDBRANCH   3  20
BRANCH   5  23
HETATM   23  O6  UNL     1      35.491  67.555  14.896  1.00  0.00    -0.390 OA
ATOM     24  H6  UNL     1      35.309  66.825  14.315  1.00  0.00     0.210 HD
ENDBRANCH   5  23
BRANCH   4  25
HETATM   25  O5  UNL     1      35.056  70.284  13.949  1.00  0.00    -0.390 OA
ATOM     26  H5  UNL     1      34.368  70.245  13.295  1.00  0.00     0.210 HD
ENDBRANCH   4  25
TORSDOF 9
ENDMDL
MODEL 3
REMARK VINA RESULT: -6.411416110      1.479      2.735
REMARK  9 active torsions:
REMARK  status: ('A' for Active; 'I' for Inactive)
REMARK    1  A    between atoms: C3_4  and  O2_5 
REMARK    2  A    between atoms: O2_5  and  C4_6 
REMARK    3  A    between atoms: C5_8  and  C6_9 
REMARK    4  A    between atoms: C6_9  and  O4_10 
REMARK    5  A    between atoms: C7_12  and  O5_13 
REMARK    6  A    between atoms: C8_15  and  O6_16 
REMARK    7  A    between atoms: C9_18  and  O7_19 
REMARK    8  A    between atoms: C10_21  and  O8_22 
REMARK    9  A    between atoms: C11_24  and  O9_25 
ROOT
HETATM    1  C4  UNL     1      34.091  67.468  19.259  1.00  0.00     0.294 C 
HETATM    2  O3  UNL     1      32.763  67.431  19.690  1.00  0.00    -0.348 OA
HETATM    3  C5  UNL     1      32.652  67.668  21.045  1.00  0.00     0.179 C 
HETATM    4  C7  UNL     1      33.443  66.688  21.879  1.00  0.00     0.180 C 
HETATM    5  C8  UNL     1      33.995  65.639  20.909  1.00  0.00     0.183 C 
HETATM    6  C9  UNL     1      34.924  66.400  19.979  1.00  0.00     0.204 C 
ENDROOT
BRANCH   1   7
HETATM    7  O2  UNL     1      34.173  67.204  17.918  1.00  0.00    -0.326 OA
BRANCH   7   8
HETATM    8  C3  UNL     1      35.295  67.730  17.297  1.00  0.00     0.294 C 
HETATM    9  O1  UNL     1      35.716  68.822  18.012  1.00  0.00    -0.351 OA
HETATM   10  C2  UNL     1      36.079  69.821  17.161  1.00  0.00     0.152 C 
HETATM   11  C1  UNL     1      35.076  70.976  17.151  1.00  0.00     0.042 C 
HETATM   12  C11 UNL     1      36.113  69.265  15.757  1.00  0.00     0.180 C 
HETATM   13  C10 UNL     1      35.053  68.161  15.889  1.00  0.00     0.204 C 
BRANCH  12  14
HETATM   14  O9  UNL     1      37.359  68.686  15.566  1.00  0.00    -0.390 OA
ATOM     15  H9  UNL     1      37.222  67.838  15.161  1.00  0.00     0.210 HD
ENDBRANCH  12  14
BRANCH  13  16
HETATM   16  O8  UNL     1      35.354  67.205  14.945  1.00  0.00    -0.388 OA
ATOM     17  H8  UNL     1      35.574  66.355  15.306  1.00  0.00     0.210 HD
ENDBRANCH  13  16
ENDBRANCH   7   8
ENDBRANCH   1   7
BRANCH   6  18
HETATM   18  O7  UNL     1      35.926  66.984  20.753  1.00  0.00    -0.388 OA
ATOM     19  H7  UNL     1      35.796  67.922  20.831  1.00  0.00     0.210 HD
ENDBRANCH   6  18
BRANCH   3  20
HETATM   20  C6  UNL     1      31.194  67.509  21.430  1.00  0.00     0.198 C 
BRANCH  20  21
HETATM   21  O4  UNL     1      30.598  66.422  20.791  1.00  0.00    -0.398 OA
ATOM     22  H4  UNL     1      29.911  66.031  21.318  1.00  0.00     0.209 HD
ENDBRANCH  20  21
ENDBRANCH   3  20
BRANCH   5  23
HETATM   23  O6  UNL     1      32.964  65.105  20.152  1.00  0.00    -0.390 OA
ATOM     24  H6  UNL     1      32.804  64.205  20.412  1.00  0.00     0.210 HD
ENDBRANCH   5  23
BRANCH   4  25
HETATM   25  O5  UNL     1      32.719  66.105  22.887  1.00  0.00    -0.390 OA
ATOM     26  H5  UNL     1      32.266  65.311  22.627  1.00  0.00     0.210 HD
ENDBRANCH   4  25
TORSDOF 9
ENDMDL
MODEL 4
REMARK VINA RESULT: -6.409235867      1.398      2.501
REMARK  9 active torsions:
REMARK  status: ('A' for Active; 'I' for Inactive)
REMARK    1  A    between atoms: C3_4  and  O2_5 
REMARK    2  A    between atoms: O2_5  and  C4_6 
REMARK    3  A    between atoms: C5_8  and  C6_9 
REMARK    4  A    between atoms: C6_9  and  O4_10 
REMARK    5  A    between atoms: C7_12  and  O5_13 
REMARK    6  A    between atoms: C8_15  and  O6_16 
REMARK    7  A    between atoms: C9_18  and  O7_19 
REMARK    8  A    between atoms: C10_21  and  O8_22 
REMARK    9  A    between atoms: C11_24  and  O9_25 
ROOT
HETATM    1  C4  UNL     1      34.936  68.492  19.890  1.00  0.00     0.294 C 
HETATM    2  O3  UNL     1      34.645  67.128  19.812  1.00  0.00    -0.348 OA
HETATM    3  C5  UNL     1      33.695  66.748  20.737  1.00  0.00     0.179 C 
HETATM    4  C7  UNL     1      34.100  67.059  22.158  1.00  0.00     0.180 C 
HETATM    5  C8  UNL     1      35.542  67.571  22.096  1.00  0.00     0.183 C 
HETATM    6  C9  UNL     1      35.480  68.851  21.279  1.00  0.00     0.204 C 
ENDROOT
BRANCH   1   7
HETATM    7  O2  UNL     1      35.900  68.836  18.981  1.00  0.00    -0.326 OA
BRANCH   7   8
HETATM    8  C3  UNL     1      35.809  68.169  17.769  1.00  0.00     0.294 C 
HETATM    9  O1  UNL     1      36.991  68.334  17.093  1.00  0.00    -0.351 OA
HETATM   10  C2  UNL     1      36.741  68.572  15.775  1.00  0.00     0.152 C 
HETATM   11  C1  UNL     1      37.015  70.024  15.379  1.00  0.00     0.042 C 
HETATM   12  C11 UNL     1      35.275  68.321  15.513  1.00  0.00     0.180 C 
HETATM   13  C10 UNL     1      34.702  68.660  16.898  1.00  0.00     0.204 C 
BRANCH  12  14
HETATM   14  O9  UNL     1      35.119  66.965  15.270  1.00  0.00    -0.390 OA
ATOM     15  H9  UNL     1      34.190  66.771  15.311  1.00  0.00     0.210 HD
ENDBRANCH  12  14
BRANCH  13  16
HETATM   16  O8  UNL     1      33.526  67.956  17.025  1.00  0.00    -0.388 OA
ATOM     17  H8  UNL     1      32.758  68.499  17.156  1.00  0.00     0.210 HD
ENDBRANCH  13  16
ENDBRANCH   7   8
ENDBRANCH   1   7
BRANCH   6  18
HETATM   18  O7  UNL     1      34.631  69.741  21.936  1.00  0.00    -0.388 OA
ATOM     19  H7  UNL     1      35.008  70.612  21.968  1.00  0.00     0.210 HD
ENDBRANCH   6  18
BRANCH   3  20
HETATM   20  C6  UNL     1      33.522  65.245  20.640  1.00  0.00     0.198 C 
BRANCH  20  21
HETATM   21  O4  UNL     1      34.652  64.620  20.112  1.00  0.00    -0.398 OA
ATOM     22  H4  UNL     1      34.431  64.013  19.415  1.00  0.00     0.209 HD
ENDBRANCH  20  21
ENDBRANCH   3  20
BRANCH   5  23
HETATM   23  O6  UNL     1      36.338  66.661  21.419  1.00  0.00    -0.390 OA
ATOM     24  H6  UNL     1      37.231  66.984  21.369  1.00  0.00     0.210 HD
ENDBRANCH   5  23
BRANCH   4  25
HETATM   25  O5  UNL     1      33.984  65.996  23.016  1.00  0.00    -0.390 OA
ATOM     26  H5  UNL     1      34.555  65.266  22.805  1.00  0.00     0.210 HD
ENDBRANCH   4  25
TORSDOF 9
ENDMDL
MODEL 5
REMARK VINA RESULT: -6.400070082      1.849      3.512
REMARK  9 active torsions:
REMARK  status: ('A' for Active; 'I' for Inactive)
REMARK    1  A    between atoms: C3_4  and  O2_5 
REMARK    2  A    between atoms: O2_5  and  C4_6 
REMARK    3  A    between atoms: C5_8  and  C6_9 
REMARK    4  A    between atoms: C6_9  and  O4_10 
REMARK    5  A    between atoms: C7_12  and  O5_13 
REMARK    6  A    between atoms: C8_15  and  O6_16 
REMARK    7  A    between atoms: C9_18  and  O7_19 
REMARK    8  A    between atoms: C10_21  and  O8_22 
REMARK    9  A    between atoms: C11_24  and  O9_25 
ROOT
HETATM    1  C4  UNL     1      33.308  68.422  21.099  1.00  0.00     0.294 C 
HETATM    2  O3  UNL     1      32.055  68.169  20.538  1.00  0.00    -0.348 OA
HETATM    3  C5  UNL     1      31.133  67.775  21.486  1.00  0.00     0.179 C 
HETATM    4  C7  UNL     1      31.562  66.543  22.247  1.00  0.00     0.180 C 
HETATM    5  C8  UNL     1      32.849  66.047  21.580  1.00  0.00     0.183 C 
HETATM    6  C9  UNL     1      33.861  67.162  21.779  1.00  0.00     0.204 C 
ENDROOT
BRANCH   1   7
HETATM    7  O2  UNL     1      34.208  68.784  20.133  1.00  0.00    -0.326 OA
BRANCH   7   8
HETATM    8  C3  UNL     1      34.287  67.905  19.064  1.00  0.00     0.294 C 
HETATM    9  O1  UNL     1      35.604  67.779  18.701  1.00  0.00    -0.351 OA
HETATM   10  C2  UNL     1      35.711  67.778  17.342  1.00  0.00     0.152 C 
HETATM   11  C1  UNL     1      36.317  69.075  16.801  1.00  0.00     0.042 C 
HETATM   12  C11 UNL     1      34.325  67.668  16.753  1.00  0.00     0.180 C 
HETATM   13  C10 UNL     1      33.514  68.348  17.867  1.00  0.00     0.204 C 
BRANCH  12  14
HETATM   14  O9  UNL     1      33.997  66.322  16.701  1.00  0.00    -0.390 OA
ATOM     15  H9  UNL     1      34.417  65.954  15.933  1.00  0.00     0.210 HD
ENDBRANCH  12  14
BRANCH  13  16
HETATM   16  O8  UNL     1      32.237  67.839  17.797  1.00  0.00    -0.388 OA
ATOM     17  H8  UNL     1      31.634  68.368  17.288  1.00  0.00     0.210 HD
ENDBRANCH  13  16
ENDBRANCH   7   8
ENDBRANCH   1   7
BRANCH   6  18
HETATM   18  O7  UNL     1      34.020  67.361  23.149  1.00  0.00    -0.388 OA
ATOM     19  H7  UNL     1      34.789  67.887  23.332  1.00  0.00     0.210 HD
ENDBRANCH   6  18
BRANCH   3  20
HETATM   20  C6  UNL     1      29.842  67.431  20.770  1.00  0.00     0.198 C 
BRANCH  20  21
HETATM   21  O4  UNL     1      30.064  66.662  19.627  1.00  0.00    -0.398 OA
ATOM     22  H4  UNL     1      29.761  67.098  18.839  1.00  0.00     0.209 HD
ENDBRANCH  20  21
ENDBRANCH   3  20
BRANCH   5  23
HETATM   23  O6  UNL     1      32.643  65.884  20.218  1.00  0.00    -0.390 OA
ATOM     24  H6  UNL     1      33.102  65.111  19.911  1.00  0.00     0.210 HD
ENDBRANCH   5  23
BRANCH   4  25
HETATM   25  O5  UNL     1      30.611  65.557  22.292  1.00  0.00    -0.390 OA
ATOM     26  H5  UNL     1      30.877  64.745  21.876  1.00  0.00     0.210 HD
ENDBRANCH   4  25
TORSDOF 9
ENDMDL
