MODEL 1
REMARK VINA RESULT: -7.568436356      0.000      0.000
REMARK  10 active torsions:
REMARK  status: ('A' for Active; 'I' for Inactive)
REMARK    1  A    between atoms: C3_3  and  C4_4 
REMARK    2  A    between atoms: C5_5  and  C6_6 
REMARK    3  A    between atoms: C6_6  and  C8_8 
REMARK    4  A    between atoms: C11_11  and  O1_12 
REMARK    5  A    between atoms: O1_12  and  C12_13 
REMARK    6  A    between atoms: C12_13  and  C13_15 
REMARK    7  A    between atoms: C13_15  and  C14_16 
REMARK    8  A    between atoms: C14_16  and  C15_17 
REMARK    9  A    between atoms: C21_25  and  O5_26 
REMARK   10  A    between atoms: C23_30  and  O7_31 
ROOT
HETATM    1  C8  UNL     1     -50.724  23.034  31.030  1.00  0.00     0.035 C 
HETATM    2  C9  UNL     1     -51.909  23.047  30.125  1.00  0.00     0.048 C 
HETATM    3  C10 UNL     1     -53.035  22.223  30.657  1.00  0.00     0.025 C 
HETATM    4  C11 UNL     1     -54.030  22.692  31.380  1.00  0.00     0.150 C 
HETATM    5  C18 UNL     1     -54.035  24.120  31.680  1.00  0.00     0.317 C 
HETATM    6  O3  UNL     1     -54.966  24.607  32.373  1.00  0.00    -0.257 OA
HETATM    7  O4  UNL     1     -52.973  24.869  31.164  1.00  0.00    -0.310 OA
HETATM    8  C19 UNL     1     -52.402  24.445  29.915  1.00  0.00     0.145 C 
HETATM    9  C20 UNL     1     -51.470  25.464  29.456  1.00  0.00     0.104 C 
HETATM   10  C21 UNL     1     -50.056  25.095  29.217  1.00  0.00     0.193 C 
HETATM   11  O6  UNL     1     -49.814  23.785  28.936  1.00  0.00    -0.344 OA
HETATM   12  C22 UNL     1     -49.533  23.594  30.285  1.00  0.00     0.164 C 
HETATM   13  C23 UNL     1     -49.324  25.062  30.544  1.00  0.00     0.209 C 
ENDROOT
BRANCH   4  14
HETATM   14  O1  UNL     1     -55.063  21.898  31.864  1.00  0.00    -0.273 OA
BRANCH  14  15
HETATM   15  C12 UNL     1     -55.885  21.138  31.070  1.00  0.00     0.264 C 
HETATM   16  O2  UNL     1     -56.576  21.720  30.196  1.00  0.00    -0.265 OA
BRANCH  15  17
HETATM   17  C13 UNL     1     -56.012  19.663  31.175  1.00  0.00     0.112 C 
BRANCH  17  18
HETATM   18  C14 UNL     1     -57.313  19.271  31.830  1.00  0.00     0.013 C 
BRANCH  18  19
HETATM   19  C15 UNL     1     -57.750  17.961  31.158  1.00  0.00    -0.022 C 
HETATM   20  C16 UNL     1     -58.598  17.201  32.141  1.00  0.00     0.009 C 
HETATM   21  C17 UNL     1     -56.554  17.187  30.693  1.00  0.00     0.009 C 
ENDBRANCH  18  19
ENDBRANCH  17  18
ENDBRANCH  15  17
ENDBRANCH  14  15
ENDBRANCH   4  14
BRANCH   1  22
HETATM   22  C6  UNL     1     -50.387  21.662  31.599  1.00  0.00     0.011 C 
HETATM   23  C7  UNL     1     -49.745  21.896  32.926  1.00  0.00     0.015 C 
BRANCH  22  24
HETATM   24  C5  UNL     1     -49.721  20.794  30.651  1.00  0.00    -0.022 C 
HETATM   25  C4  UNL     1     -50.098  19.773  29.959  1.00  0.00    -0.004 C 
BRANCH  25  26
HETATM   26  C3  UNL     1     -51.342  19.086  29.856  1.00  0.00    -0.005 C 
HETATM   27  C2  UNL     1     -52.144  19.208  28.784  1.00  0.00    -0.031 C 
HETATM   28  C1  UNL     1     -51.680  20.096  27.699  1.00  0.00     0.036 C 
ENDBRANCH  25  26
ENDBRANCH  22  24
ENDBRANCH   1  22
BRANCH  13  29
HETATM   29  O7  UNL     1     -50.057  25.612  31.570  1.00  0.00    -0.387 OA
ATOM     30  H7  UNL     1     -50.565  24.965  32.046  1.00  0.00     0.210 HD
ENDBRANCH  13  29
BRANCH  10  31
HETATM   31  O5  UNL     1     -49.377  25.933  28.334  1.00  0.00    -0.363 OA
ATOM     32  H5  UNL     1     -48.465  26.083  28.552  1.00  0.00     0.213 HD
ENDBRANCH  10  31
TORSDOF 10
ENDMDL
MODEL 2
REMARK VINA RESULT: -6.784308757      1.274      2.052
REMARK  10 active torsions:
REMARK  status: ('A' for Active; 'I' for Inactive)
REMARK    1  A    between atoms: C3_3  and  C4_4 
REMARK    2  A    between atoms: C5_5  and  C6_6 
REMARK    3  A    between atoms: C6_6  and  C8_8 
REMARK    4  A    between atoms: C11_11  and  O1_12 
REMARK    5  A    between atoms: O1_12  and  C12_13 
REMARK    6  A    between atoms: C12_13  and  C13_15 
REMARK    7  A    between atoms: C13_15  and  C14_16 
REMARK    8  A    between atoms: C14_16  and  C15_17 
REMARK    9  A    between atoms: C21_25  and  O5_26 
REMARK   10  A    between atoms: C23_30  and  O7_31 
ROOT
HETATM    1  C8  UNL     1     -50.549  22.990  31.188  1.00  0.00     0.035 C 
HETATM    2  C9  UNL     1     -51.587  22.766  30.142  1.00  0.00     0.048 C 
HETATM    3  C10 UNL     1     -52.738  21.961  30.652  1.00  0.00     0.025 C 
HETATM    4  C11 UNL     1     -53.850  22.470  31.140  1.00  0.00     0.150 C 
HETATM    5  C18 UNL     1     -53.968  23.924  31.181  1.00  0.00     0.317 C 
HETATM    6  O3  UNL     1     -55.013  24.450  31.645  1.00  0.00    -0.257 OA
HETATM    7  O4  UNL     1     -52.880  24.653  30.691  1.00  0.00    -0.310 OA
HETATM    8  C19 UNL     1     -52.112  24.069  29.625  1.00  0.00     0.145 C 
HETATM    9  C20 UNL     1     -51.173  25.063  29.126  1.00  0.00     0.104 C 
HETATM   10  C21 UNL     1     -49.723  24.764  29.150  1.00  0.00     0.193 C 
HETATM   11  O6  UNL     1     -49.379  23.447  29.139  1.00  0.00    -0.344 OA
HETATM   12  C22 UNL     1     -49.290  23.505  30.526  1.00  0.00     0.164 C 
HETATM   13  C23 UNL     1     -49.192  25.006  30.549  1.00  0.00     0.209 C 
ENDROOT
BRANCH   4  14
HETATM   14  O1  UNL     1     -54.903  21.694  31.610  1.00  0.00    -0.273 OA
BRANCH  14  15
HETATM   15  C12 UNL     1     -55.743  20.970  30.803  1.00  0.00     0.264 C 
HETATM   16  O2  UNL     1     -56.306  21.557  29.846  1.00  0.00    -0.265 OA
BRANCH  15  17
HETATM   17  C13 UNL     1     -56.033  19.525  30.988  1.00  0.00     0.112 C 
BRANCH  17  18
HETATM   18  C14 UNL     1     -57.280  19.319  31.811  1.00  0.00     0.013 C 
BRANCH  18  19
HETATM   19  C15 UNL     1     -57.895  17.997  31.328  1.00  0.00    -0.022 C 
HETATM   20  C16 UNL     1     -58.725  17.438  32.451  1.00  0.00     0.009 C 
HETATM   21  C17 UNL     1     -56.822  17.058  30.867  1.00  0.00     0.009 C 
ENDBRANCH  18  19
ENDBRANCH  17  18
ENDBRANCH  15  17
ENDBRANCH  14  15
ENDBRANCH   4  14
BRANCH   1  22
HETATM   22  C6  UNL     1     -50.232  21.760  32.029  1.00  0.00     0.011 C 
HETATM   23  C7  UNL     1     -49.811  22.259  33.372  1.00  0.00     0.015 C 
BRANCH  22  24
HETATM   24  C5  UNL     1     -49.387  20.801  31.350  1.00  0.00    -0.022 C 
HETATM   25  C4  UNL     1     -48.844  19.685  31.701  1.00  0.00    -0.004 C 
BRANCH  25  26
HETATM   26  C3  UNL     1     -48.864  18.947  32.919  1.00  0.00    -0.005 C 
HETATM   27  C2  UNL     1     -47.766  18.784  33.679  1.00  0.00    -0.031 C 
HETATM   28  C1  UNL     1     -46.519  19.409  33.195  1.00  0.00     0.036 C 
ENDBRANCH  25  26
ENDBRANCH  22  24
ENDBRANCH   1  22
BRANCH  13  29
HETATM   29  O7  UNL     1     -50.095  25.664  31.354  1.00  0.00    -0.387 OA
ATOM     30  H7  UNL     1     -50.296  25.184  32.149  1.00  0.00     0.210 HD
ENDBRANCH  13  29
BRANCH  10  31
HETATM   31  O5  UNL     1     -48.963  25.490  28.235  1.00  0.00    -0.363 OA
ATOM     32  H5  UNL     1     -48.178  25.050  27.934  1.00  0.00     0.213 HD
ENDBRANCH  10  31
TORSDOF 10
ENDMDL
MODEL 3
REMARK VINA RESULT: -6.761657711      2.073      3.724
REMARK  10 active torsions:
REMARK  status: ('A' for Active; 'I' for Inactive)
REMARK    1  A    between atoms: C3_3  and  C4_4 
REMARK    2  A    between atoms: C5_5  and  C6_6 
REMARK    3  A    between atoms: C6_6  and  C8_8 
REMARK    4  A    between atoms: C11_11  and  O1_12 
REMARK    5  A    between atoms: O1_12  and  C12_13 
REMARK    6  A    between atoms: C12_13  and  C13_15 
REMARK    7  A    between atoms: C13_15  and  C14_16 
REMARK    8  A    between atoms: C14_16  and  C15_17 
REMARK    9  A    between atoms: C21_25  and  O5_26 
REMARK   10  A    between atoms: C23_30  and  O7_31 
ROOT
HETATM    1  C8  UNL     1     -52.511  23.822  31.419  1.00  0.00     0.035 C 
HETATM    2  C9  UNL     1     -52.690  22.487  30.780  1.00  0.00     0.048 C 
HETATM    3  C10 UNL     1     -53.839  21.731  31.363  1.00  0.00     0.025 C 
HETATM    4  C11 UNL     1     -55.061  21.732  30.874  1.00  0.00     0.150 C 
HETATM    5  C18 UNL     1     -55.310  22.524  29.674  1.00  0.00     0.317 C 
HETATM    6  O3  UNL     1     -56.467  22.555  29.179  1.00  0.00    -0.257 OA
HETATM    7  O4  UNL     1     -54.216  23.215  29.145  1.00  0.00    -0.310 OA
HETATM    8  C19 UNL     1     -52.914  22.628  29.307  1.00  0.00     0.145 C 
HETATM    9  C20 UNL     1     -51.957  23.385  28.514  1.00  0.00     0.104 C 
HETATM   10  C21 UNL     1     -50.792  24.004  29.185  1.00  0.00     0.193 C 
HETATM   11  O6  UNL     1     -50.393  23.429  30.353  1.00  0.00    -0.344 OA
HETATM   12  C22 UNL     1     -51.159  24.374  31.027  1.00  0.00     0.164 C 
HETATM   13  C23 UNL     1     -51.230  25.298  29.841  1.00  0.00     0.209 C 
ENDROOT
BRANCH   4  14
HETATM   14  O1  UNL     1     -56.111  21.020  31.442  1.00  0.00    -0.273 OA
BRANCH  14  15
HETATM   15  C12 UNL     1     -56.338  19.684  31.227  1.00  0.00     0.264 C 
HETATM   16  O2  UNL     1     -55.472  19.024  30.600  1.00  0.00    -0.265 OA
BRANCH  15  17
HETATM   17  C13 UNL     1     -57.550  18.961  31.689  1.00  0.00     0.112 C 
BRANCH  17  18
HETATM   18  C14 UNL     1     -57.382  17.468  31.553  1.00  0.00     0.013 C 
BRANCH  18  19
HETATM   19  C15 UNL     1     -58.764  16.858  31.831  1.00  0.00    -0.022 C 
HETATM   20  C16 UNL     1     -59.712  17.370  30.782  1.00  0.00     0.009 C 
HETATM   21  C17 UNL     1     -59.205  17.175  33.227  1.00  0.00     0.009 C 
ENDBRANCH  18  19
ENDBRANCH  17  18
ENDBRANCH  15  17
ENDBRANCH  14  15
ENDBRANCH   4  14
BRANCH   1  22
HETATM   22  C6  UNL     1     -52.654  23.814  32.936  1.00  0.00     0.011 C 
HETATM   23  C7  UNL     1     -53.525  24.974  33.289  1.00  0.00     0.015 C 
BRANCH  22  24
HETATM   24  C5  UNL     1     -51.393  23.657  33.630  1.00  0.00    -0.022 C 
HETATM   25  C4  UNL     1     -51.075  23.352  34.842  1.00  0.00    -0.004 C 
BRANCH  25  26
HETATM   26  C3  UNL     1     -51.856  23.044  35.993  1.00  0.00    -0.005 C 
HETATM   27  C2  UNL     1     -51.539  22.037  36.828  1.00  0.00    -0.031 C 
HETATM   28  C1  UNL     1     -50.334  21.250  36.500  1.00  0.00     0.036 C 
ENDBRANCH  25  26
ENDBRANCH  22  24
ENDBRANCH   1  22
BRANCH  13  29
HETATM   29  O7  UNL     1     -52.489  25.694  29.449  1.00  0.00    -0.387 OA
ATOM     30  H7  UNL     1     -52.470  26.406  28.820  1.00  0.00     0.210 HD
ENDBRANCH  13  29
BRANCH  10  31
HETATM   31  O5  UNL     1     -49.704  24.253  28.350  1.00  0.00    -0.363 OA
ATOM     32  H5  UNL     1     -49.017  23.599  28.387  1.00  0.00     0.213 HD
ENDBRANCH  10  31
TORSDOF 10
ENDMDL
MODEL 4
REMARK VINA RESULT: -6.718439918      1.864      5.934
REMARK  10 active torsions:
REMARK  status: ('A' for Active; 'I' for Inactive)
REMARK    1  A    between atoms: C3_3  and  C4_4 
REMARK    2  A    between atoms: C5_5  and  C6_6 
REMARK    3  A    between atoms: C6_6  and  C8_8 
REMARK    4  A    between atoms: C11_11  and  O1_12 
REMARK    5  A    between atoms: O1_12  and  C12_13 
REMARK    6  A    between atoms: C12_13  and  C13_15 
REMARK    7  A    between atoms: C13_15  and  C14_16 
REMARK    8  A    between atoms: C14_16  and  C15_17 
REMARK    9  A    between atoms: C21_25  and  O5_26 
REMARK   10  A    between atoms: C23_30  and  O7_31 
ROOT
HETATM    1  C8  UNL     1     -54.567  23.506  30.743  1.00  0.00     0.035 C 
HETATM    2  C9  UNL     1     -53.328  23.083  31.457  1.00  0.00     0.048 C 
HETATM    3  C10 UNL     1     -52.689  21.892  30.822  1.00  0.00     0.025 C 
HETATM    4  C11 UNL     1     -51.726  21.947  29.925  1.00  0.00     0.150 C 
HETATM    5  C18 UNL     1     -51.245  23.267  29.528  1.00  0.00     0.317 C 
HETATM    6  O3  UNL     1     -50.330  23.363  28.670  1.00  0.00    -0.257 OA
HETATM    7  O4  UNL     1     -51.856  24.364  30.144  1.00  0.00    -0.310 OA
HETATM    8  C19 UNL     1     -52.327  24.196  31.491  1.00  0.00     0.145 C 
HETATM    9  C20 UNL     1     -52.729  25.494  32.011  1.00  0.00     0.104 C 
HETATM   10  C21 UNL     1     -54.119  25.684  32.485  1.00  0.00     0.193 C 
HETATM   11  O6  UNL     1     -54.776  24.564  32.891  1.00  0.00    -0.344 OA
HETATM   12  C22 UNL     1     -55.327  24.479  31.617  1.00  0.00     0.164 C 
HETATM   13  C23 UNL     1     -55.021  25.915  31.290  1.00  0.00     0.209 C 
ENDROOT
BRANCH   4  14
HETATM   14  O1  UNL     1     -51.153  20.820  29.349  1.00  0.00    -0.273 OA
BRANCH  14  15
HETATM   15  C12 UNL     1     -50.344  19.940  30.023  1.00  0.00     0.264 C 
HETATM   16  O2  UNL     1     -50.509  18.709  29.830  1.00  0.00    -0.265 OA
BRANCH  15  17
HETATM   17  C13 UNL     1     -49.280  20.349  30.974  1.00  0.00     0.112 C 
BRANCH  17  18
HETATM   18  C14 UNL     1     -49.010  19.269  31.992  1.00  0.00     0.013 C 
BRANCH  18  19
HETATM   19  C15 UNL     1     -48.683  19.995  33.305  1.00  0.00    -0.022 C 
HETATM   20  C16 UNL     1     -49.062  19.083  34.440  1.00  0.00     0.009 C 
HETATM   21  C17 UNL     1     -49.380  21.320  33.359  1.00  0.00     0.009 C 
ENDBRANCH  18  19
ENDBRANCH  17  18
ENDBRANCH  15  17
ENDBRANCH  14  15
ENDBRANCH   4  14
BRANCH   1  22
HETATM   22  C6  UNL     1     -55.474  22.355  30.330  1.00  0.00     0.011 C 
HETATM   23  C7  UNL     1     -56.523  22.936  29.439  1.00  0.00     0.015 C 
BRANCH  22  24
HETATM   24  C5  UNL     1     -55.891  21.524  31.440  1.00  0.00    -0.022 C 
HETATM   25  C4  UNL     1     -56.105  20.260  31.577  1.00  0.00    -0.004 C 
BRANCH  25  26
HETATM   26  C3  UNL     1     -56.011  19.164  30.670  1.00  0.00    -0.005 C 
HETATM   27  C2  UNL     1     -56.865  18.126  30.707  1.00  0.00    -0.031 C 
HETATM   28  C1  UNL     1     -57.919  18.164  31.740  1.00  0.00     0.036 C 
ENDBRANCH  25  26
ENDBRANCH  22  24
ENDBRANCH   1  22
BRANCH  13  29
HETATM   29  O7  UNL     1     -54.318  26.141  30.128  1.00  0.00    -0.387 OA
ATOM     30  H7  UNL     1     -53.834  26.959  30.145  1.00  0.00     0.210 HD
ENDBRANCH  13  29
BRANCH  10  31
HETATM   31  O5  UNL     1     -54.286  26.724  33.399  1.00  0.00    -0.363 OA
ATOM     32  H5  UNL     1     -54.950  27.359  33.160  1.00  0.00     0.213 HD
ENDBRANCH  10  31
TORSDOF 10
ENDMDL
MODEL 5
REMARK VINA RESULT: -6.703896631      1.938      4.031
REMARK  10 active torsions:
REMARK  status: ('A' for Active; 'I' for Inactive)
REMARK    1  A    between atoms: C3_3  and  C4_4 
REMARK    2  A    between atoms: C5_5  and  C6_6 
REMARK    3  A    between atoms: C6_6  and  C8_8 
REMARK    4  A    between atoms: C11_11  and  O1_12 
REMARK    5  A    between atoms: O1_12  and  C12_13 
REMARK    6  A    between atoms: C12_13  and  C13_15 
REMARK    7  A    between atoms: C13_15  and  C14_16 
REMARK    8  A    between atoms: C14_16  and  C15_17 
REMARK    9  A    between atoms: C21_25  and  O5_26 
REMARK   10  A    between atoms: C23_30  and  O7_31 
ROOT
HETATM    1  C8  UNL     1     -50.930  23.978  30.405  1.00  0.00     0.035 C 
HETATM    2  C9  UNL     1     -50.766  22.575  30.880  1.00  0.00     0.048 C 
HETATM    3  C10 UNL     1     -52.068  21.845  30.946  1.00  0.00     0.025 C 
HETATM    4  C11 UNL     1     -52.549  21.086  29.984  1.00  0.00     0.150 C 
HETATM    5  C18 UNL     1     -51.752  20.943  28.770  1.00  0.00     0.317 C 
HETATM    6  O3  UNL     1     -52.181  20.230  27.825  1.00  0.00    -0.257 OA
HETATM    7  O4  UNL     1     -50.535  21.631  28.738  1.00  0.00    -0.310 OA
HETATM    8  C19 UNL     1     -49.840  21.814  29.983  1.00  0.00     0.145 C 
HETATM    9  C20 UNL     1     -48.518  22.356  29.705  1.00  0.00     0.104 C 
HETATM   10  C21 UNL     1     -48.126  23.649  30.310  1.00  0.00     0.193 C 
HETATM   11  O6  UNL     1     -48.769  23.998  31.457  1.00  0.00    -0.344 OA
HETATM   12  C22 UNL     1     -49.653  24.741  30.683  1.00  0.00     0.164 C 
HETATM   13  C23 UNL     1     -48.728  24.777  29.497  1.00  0.00     0.209 C 
ENDROOT
BRANCH   4  14
HETATM   14  O1  UNL     1     -53.767  20.421  30.073  1.00  0.00    -0.273 OA
BRANCH  14  15
HETATM   15  C12 UNL     1     -54.968  21.045  30.293  1.00  0.00     0.264 C 
HETATM   16  O2  UNL     1     -55.279  22.019  29.562  1.00  0.00    -0.265 OA
BRANCH  15  17
HETATM   17  C13 UNL     1     -55.934  20.644  31.347  1.00  0.00     0.112 C 
BRANCH  17  18
HETATM   18  C14 UNL     1     -57.047  19.801  30.777  1.00  0.00     0.013 C 
BRANCH  18  19
HETATM   19  C15 UNL     1     -56.873  18.400  31.383  1.00  0.00    -0.022 C 
HETATM   20  C16 UNL     1     -56.248  17.521  30.334  1.00  0.00     0.009 C 
HETATM   21  C17 UNL     1     -58.186  17.877  31.881  1.00  0.00     0.009 C 
ENDBRANCH  18  19
ENDBRANCH  17  18
ENDBRANCH  15  17
ENDBRANCH  14  15
ENDBRANCH   4  14
BRANCH   1  22
HETATM   22  C6  UNL     1     -52.119  24.710  31.013  1.00  0.00     0.011 C 
HETATM   23  C7  UNL     1     -52.770  25.465  29.902  1.00  0.00     0.015 C 
BRANCH  22  24
HETATM   24  C5  UNL     1     -51.796  25.417  32.234  1.00  0.00    -0.022 C 
HETATM   25  C4  UNL     1     -51.812  25.094  33.483  1.00  0.00    -0.004 C 
BRANCH  25  26
HETATM   26  C3  UNL     1     -52.162  23.891  34.161  1.00  0.00    -0.005 C 
HETATM   27  C2  UNL     1     -51.255  23.147  34.818  1.00  0.00    -0.031 C 
HETATM   28  C1  UNL     1     -49.860  23.629  34.808  1.00  0.00     0.036 C 
ENDBRANCH  25  26
ENDBRANCH  22  24
ENDBRANCH   1  22
BRANCH  13  29
HETATM   29  O7  UNL     1     -49.253  24.348  28.299  1.00  0.00    -0.387 OA
ATOM     30  H7  UNL     1     -48.631  23.846  27.784  1.00  0.00     0.210 HD
ENDBRANCH  13  29
BRANCH  10  31
HETATM   31  O5  UNL     1     -46.750  23.844  30.425  1.00  0.00    -0.363 OA
ATOM     32  H5  UNL     1     -46.406  23.732  31.302  1.00  0.00     0.213 HD
ENDBRANCH  10  31
TORSDOF 10
ENDMDL
