MODEL 1
REMARK VINA RESULT: -6.389403131      0.000      0.000
REMARK  15 active torsions:
REMARK  status: ('A' for Active; 'I' for Inactive)
REMARK    1  A    between atoms: C2_2  and  O1_3 
REMARK    2  A    between atoms: C7_10  and  C8_11 
REMARK    3  A    between atoms: C8_11  and  O3_12 
REMARK    4  A    between atoms: C8_11  and  C9_14 
REMARK    5  A    between atoms: C9_14  and  O4_15 
REMARK    6  A    between atoms: C10_17  and  O5_18 
REMARK    7  A    between atoms: C11_20  and  O6_21 
REMARK    8  A    between atoms: C16_27  and  O7_28 
REMARK    9  A    between atoms: C16_27  and  C17_30 
REMARK   10  A    between atoms: C17_30  and  O8_31 
REMARK   11  A    between atoms: O8_31  and  C18_32 
REMARK   12  A    between atoms: C19_35  and  O11_36 
REMARK   13  A    between atoms: C20_38  and  C21_39 
REMARK   14  A    between atoms: C21_39  and  C22_41 
REMARK   15  A    between atoms: C22_41  and  O13_42 
ROOT
HETATM    1  C1  UNL     1      24.059 -10.394   1.526  1.00  0.00     0.047 C 
HETATM    2  C2  UNL     1      23.265 -11.324   0.736  1.00  0.00     0.070 C 
HETATM    3  C3  UNL     1      21.920 -10.679   0.453  1.00  0.00     0.076 C 
HETATM    4  C4  UNL     1      20.872 -10.858   1.459  1.00  0.00    -0.035 C 
HETATM    5  C5  UNL     1      20.523 -11.933   2.189  1.00  0.00     0.000 C 
HETATM    6  C6  UNL     1      19.397 -11.834   3.156  1.00  0.00     0.210 C 
HETATM    7  O2  UNL     1      18.341 -11.144   2.624  1.00  0.00    -0.376 OA
HETATM    8  C7  UNL     1      18.638  -9.920   2.100  1.00  0.00     0.185 C 
HETATM    9  C10 UNL     1      20.049  -9.650   1.737  1.00  0.00     0.179 C 
HETATM   10  C11 UNL     1      21.079 -13.279   2.225  1.00  0.00     0.061 C 
HETATM   11  C12 UNL     1      22.616 -13.294   2.206  1.00  0.00     0.020 C 
HETATM   12  C13 UNL     1      22.897 -12.490   3.493  1.00  0.00     0.023 C 
HETATM   13  C14 UNL     1      23.007 -14.681   2.623  1.00  0.00     0.020 C 
HETATM   14  C15 UNL     1      23.480 -15.581   1.535  1.00  0.00     0.046 C 
HETATM   15  C16 UNL     1      24.419 -14.976   0.569  1.00  0.00     0.107 C 
HETATM   16  C20 UNL     1      24.537 -13.490   0.544  1.00  0.00     0.017 C 
HETATM   17  C23 UNL     1      23.231 -12.793   0.966  1.00  0.00     0.030 C 
HETATM   18  C24 UNL     1      22.278 -13.220  -0.186  1.00  0.00     0.025 C 
ENDROOT
BRANCH  15  19
HETATM   19  O7  UNL     1      24.089 -15.488  -0.734  1.00  0.00    -0.383 OA
ATOM     20  H7  UNL     1      24.267 -16.421  -0.728  1.00  0.00     0.211 HD
ENDBRANCH  15  19
BRANCH  15  21
HETATM   21  C17 UNL     1      25.761 -15.710   0.732  1.00  0.00     0.214 C 
BRANCH  21  22
HETATM   22  O8  UNL     1      25.475 -17.069   0.369  1.00  0.00    -0.351 OA
BRANCH  22  23
HETATM   23  C18 UNL     1      26.516 -17.899   0.640  1.00  0.00     0.355 C 
HETATM   24  O9  UNL     1      26.344 -19.247   0.356  1.00  0.00    -0.200 OA
HETATM   25  O10 UNL     1      27.627 -19.267  -0.012  1.00  0.00    -0.200 OA
HETATM   26  C19 UNL     1      27.427 -18.016  -0.571  1.00  0.00     0.352 C 
BRANCH  26  27
HETATM   27  O11 UNL     1      28.506 -17.166  -0.583  1.00  0.00    -0.365 OA
ATOM     28  H11 UNL     1      28.298 -16.240  -0.538  1.00  0.00     0.213 HD
ENDBRANCH  26  27
ENDBRANCH  22  23
ENDBRANCH  21  22
ENDBRANCH  15  21
BRANCH  16  29
HETATM   29  C21 UNL     1      25.792 -12.878   0.942  1.00  0.00     0.178 C 
HETATM   30  O12 UNL     1      26.081 -12.829   2.178  1.00  0.00    -0.291 OA
BRANCH  29  31
HETATM   31  C22 UNL     1      26.889 -12.250   0.184  1.00  0.00     0.247 C 
BRANCH  31  32
HETATM   32  O13 UNL     1      27.320 -13.115  -0.866  1.00  0.00    -0.393 OA
ATOM     33  H13 UNL     1      28.093 -12.759  -1.287  1.00  0.00     0.209 HD
ENDBRANCH  31  32
ENDBRANCH  29  31
ENDBRANCH  16  29
BRANCH   2  34
HETATM   34  O1  UNL     1      23.853 -11.253  -0.582  1.00  0.00    -0.389 OA
ATOM     35  H1  UNL     1      23.174 -11.588  -1.154  1.00  0.00     0.210 HD
ENDBRANCH   2  34
BRANCH  10  36
HETATM   36  O6  UNL     1      20.478 -14.228   1.454  1.00  0.00    -0.363 OA
ATOM     37  H6  UNL     1      20.064 -14.956   1.900  1.00  0.00     0.217 HD
ENDBRANCH  10  36
BRANCH   9  38
HETATM   38  O5  UNL     1      20.096  -8.871   0.558  1.00  0.00    -0.388 OA
ATOM     39  H5  UNL     1      19.257  -8.998   0.131  1.00  0.00     0.210 HD
ENDBRANCH   9  38
BRANCH   8  40
HETATM   40  C8  UNL     1      18.055  -8.877   3.043  1.00  0.00     0.173 C 
BRANCH  40  41
HETATM   41  O3  UNL     1      18.557  -7.622   2.772  1.00  0.00    -0.391 OA
ATOM     42  H3  UNL     1      18.008  -7.158   2.151  1.00  0.00     0.210 HD
ENDBRANCH  40  41
BRANCH  40  43
HETATM   43  C9  UNL     1      16.525  -8.887   2.955  1.00  0.00     0.198 C 
BRANCH  43  44
HETATM   44  O4  UNL     1      15.985  -9.909   3.710  1.00  0.00    -0.398 OA
ATOM     45  H4  UNL     1      15.042  -9.824   3.782  1.00  0.00     0.209 HD
ENDBRANCH  43  44
ENDBRANCH  40  43
ENDBRANCH   8  40
TORSDOF 15
ENDMDL
MODEL 2
REMARK VINA RESULT: -6.378870527      0.776      1.196
REMARK  15 active torsions:
REMARK  status: ('A' for Active; 'I' for Inactive)
REMARK    1  A    between atoms: C2_2  and  O1_3 
REMARK    2  A    between atoms: C7_10  and  C8_11 
REMARK    3  A    between atoms: C8_11  and  O3_12 
REMARK    4  A    between atoms: C8_11  and  C9_14 
REMARK    5  A    between atoms: C9_14  and  O4_15 
REMARK    6  A    between atoms: C10_17  and  O5_18 
REMARK    7  A    between atoms: C11_20  and  O6_21 
REMARK    8  A    between atoms: C16_27  and  O7_28 
REMARK    9  A    between atoms: C16_27  and  C17_30 
REMARK   10  A    between atoms: C17_30  and  O8_31 
REMARK   11  A    between atoms: O8_31  and  C18_32 
REMARK   12  A    between atoms: C19_35  and  O11_36 
REMARK   13  A    between atoms: C20_38  and  C21_39 
REMARK   14  A    between atoms: C21_39  and  C22_41 
REMARK   15  A    between atoms: C22_41  and  O13_42 
ROOT
HETATM    1  C1  UNL     1      24.176 -10.656   1.244  1.00  0.00     0.047 C 
HETATM    2  C2  UNL     1      23.247 -11.523   0.534  1.00  0.00     0.070 C 
HETATM    3  C3  UNL     1      21.969 -10.744   0.280  1.00  0.00     0.076 C 
HETATM    4  C4  UNL     1      20.958 -10.762   1.337  1.00  0.00    -0.035 C 
HETATM    5  C5  UNL     1      20.528 -11.760   2.131  1.00  0.00     0.000 C 
HETATM    6  C6  UNL     1      19.468 -11.496   3.140  1.00  0.00     0.210 C 
HETATM    7  O2  UNL     1      18.469 -10.715   2.623  1.00  0.00    -0.376 OA
HETATM    8  C7  UNL     1      18.873  -9.555   2.030  1.00  0.00     0.185 C 
HETATM    9  C10 UNL     1      20.286  -9.459   1.594  1.00  0.00     0.179 C 
HETATM   10  C11 UNL     1      20.934 -13.158   2.205  1.00  0.00     0.061 C 
HETATM   11  C12 UNL     1      22.457 -13.345   2.121  1.00  0.00     0.020 C 
HETATM   12  C13 UNL     1      22.886 -12.526   3.356  1.00  0.00     0.023 C 
HETATM   13  C14 UNL     1      22.713 -14.749   2.584  1.00  0.00     0.020 C 
HETATM   14  C15 UNL     1      23.032 -15.741   1.519  1.00  0.00     0.046 C 
HETATM   15  C16 UNL     1      23.983 -15.285   0.486  1.00  0.00     0.107 C 
HETATM   16  C20 UNL     1      24.263 -13.824   0.387  1.00  0.00     0.017 C 
HETATM   17  C23 UNL     1      23.062 -12.968   0.833  1.00  0.00     0.030 C 
HETATM   18  C24 UNL     1      22.014 -13.333  -0.256  1.00  0.00     0.025 C 
ENDROOT
BRANCH  15  19
HETATM   19  O7  UNL     1      23.536 -15.810  -0.776  1.00  0.00    -0.383 OA
ATOM     20  H7  UNL     1      23.668 -15.133  -1.430  1.00  0.00     0.211 HD
ENDBRANCH  15  19
BRANCH  15  21
HETATM   21  C17 UNL     1      25.242 -16.157   0.625  1.00  0.00     0.214 C 
BRANCH  21  22
HETATM   22  O8  UNL     1      25.510 -16.618  -0.708  1.00  0.00    -0.351 OA
BRANCH  22  23
HETATM   23  C18 UNL     1      26.843 -16.690  -0.964  1.00  0.00     0.355 C 
HETATM   24  O9  UNL     1      27.695 -16.054  -0.071  1.00  0.00    -0.200 OA
HETATM   25  O10 UNL     1      28.545 -17.067  -0.263  1.00  0.00    -0.200 OA
HETATM   26  C19 UNL     1      27.446 -17.909  -0.287  1.00  0.00     0.352 C 
BRANCH  26  27
HETATM   27  O11 UNL     1      27.546 -19.032  -1.072  1.00  0.00    -0.365 OA
ATOM     28  H11 UNL     1      27.004 -19.766  -0.806  1.00  0.00     0.213 HD
ENDBRANCH  26  27
ENDBRANCH  22  23
ENDBRANCH  21  22
ENDBRANCH  15  21
BRANCH  16  29
HETATM   29  C21 UNL     1      25.595 -13.340   0.702  1.00  0.00     0.178 C 
HETATM   30  O12 UNL     1      26.339 -12.941  -0.247  1.00  0.00    -0.291 OA
BRANCH  29  31
HETATM   31  C22 UNL     1      26.340 -13.199   1.966  1.00  0.00     0.247 C 
BRANCH  31  32
HETATM   32  O13 UNL     1      27.605 -13.854   1.868  1.00  0.00    -0.393 OA
ATOM     33  H13 UNL     1      28.154 -13.616   2.605  1.00  0.00     0.209 HD
ENDBRANCH  31  32
ENDBRANCH  29  31
ENDBRANCH  16  29
BRANCH   2  34
HETATM   34  O1  UNL     1      23.775 -11.573  -0.810  1.00  0.00    -0.389 OA
ATOM     35  H1  UNL     1      23.344 -12.325  -1.198  1.00  0.00     0.210 HD
ENDBRANCH   2  34
BRANCH  10  36
HETATM   36  O6  UNL     1      20.196 -14.064   1.506  1.00  0.00    -0.363 OA
ATOM     37  H6  UNL     1      19.831 -14.797   1.988  1.00  0.00     0.217 HD
ENDBRANCH  10  36
BRANCH   9  38
HETATM   38  O5  UNL     1      20.362  -8.740   0.380  1.00  0.00    -0.388 OA
ATOM     39  H5  UNL     1      20.132  -7.844   0.595  1.00  0.00     0.210 HD
ENDBRANCH   9  38
BRANCH   8  40
HETATM   40  C8  UNL     1      18.455  -8.415   2.949  1.00  0.00     0.173 C 
BRANCH  40  41
HETATM   41  O3  UNL     1      18.810  -7.192   2.422  1.00  0.00    -0.391 OA
ATOM     42  H3  UNL     1      18.962  -6.552   3.107  1.00  0.00     0.210 HD
ENDBRANCH  40  41
BRANCH  40  43
HETATM   43  C9  UNL     1      16.947  -8.482   3.213  1.00  0.00     0.198 C 
BRANCH  43  44
HETATM   44  O4  UNL     1      16.672  -9.157   4.386  1.00  0.00    -0.398 OA
ATOM     45  H4  UNL     1      15.822  -9.579   4.350  1.00  0.00     0.209 HD
ENDBRANCH  43  44
ENDBRANCH  40  43
ENDBRANCH   8  40
TORSDOF 15
ENDMDL
MODEL 3
REMARK VINA RESULT: -6.319686859      1.250      1.620
REMARK  15 active torsions:
REMARK  status: ('A' for Active; 'I' for Inactive)
REMARK    1  A    between atoms: C2_2  and  O1_3 
REMARK    2  A    between atoms: C7_10  and  C8_11 
REMARK    3  A    between atoms: C8_11  and  O3_12 
REMARK    4  A    between atoms: C8_11  and  C9_14 
REMARK    5  A    between atoms: C9_14  and  O4_15 
REMARK    6  A    between atoms: C10_17  and  O5_18 
REMARK    7  A    between atoms: C11_20  and  O6_21 
REMARK    8  A    between atoms: C16_27  and  O7_28 
REMARK    9  A    between atoms: C16_27  and  C17_30 
REMARK   10  A    between atoms: C17_30  and  O8_31 
REMARK   11  A    between atoms: O8_31  and  C18_32 
REMARK   12  A    between atoms: C19_35  and  O11_36 
REMARK   13  A    between atoms: C20_38  and  C21_39 
REMARK   14  A    between atoms: C21_39  and  C22_41 
REMARK   15  A    between atoms: C22_41  and  O13_42 
ROOT
HETATM    1  C1  UNL     1      23.870 -10.326   1.412  1.00  0.00     0.047 C 
HETATM    2  C2  UNL     1      22.995 -11.237   0.689  1.00  0.00     0.070 C 
HETATM    3  C3  UNL     1      21.644 -10.567   0.521  1.00  0.00     0.076 C 
HETATM    4  C4  UNL     1      20.681 -10.730   1.609  1.00  0.00    -0.035 C 
HETATM    5  C5  UNL     1      20.373 -11.800   2.364  1.00  0.00     0.000 C 
HETATM    6  C6  UNL     1      19.333 -11.684   3.422  1.00  0.00     0.210 C 
HETATM    7  O2  UNL     1      18.250 -10.973   2.981  1.00  0.00    -0.376 OA
HETATM    8  C7  UNL     1      18.525  -9.753   2.436  1.00  0.00     0.185 C 
HETATM    9  C10 UNL     1      19.906  -9.507   1.957  1.00  0.00     0.179 C 
HETATM   10  C11 UNL     1      20.905 -13.157   2.351  1.00  0.00     0.061 C 
HETATM   11  C12 UNL     1      22.435 -13.200   2.205  1.00  0.00     0.020 C 
HETATM   12  C13 UNL     1      22.836 -12.406   3.465  1.00  0.00     0.023 C 
HETATM   13  C14 UNL     1      22.832 -14.596   2.585  1.00  0.00     0.020 C 
HETATM   14  C15 UNL     1      23.197 -15.501   1.459  1.00  0.00     0.046 C 
HETATM   15  C16 UNL     1      24.063 -14.910   0.420  1.00  0.00     0.107 C 
HETATM   16  C20 UNL     1      24.207 -13.426   0.388  1.00  0.00     0.017 C 
HETATM   17  C23 UNL     1      22.953 -12.707   0.919  1.00  0.00     0.030 C 
HETATM   18  C24 UNL     1      21.900 -13.112  -0.151  1.00  0.00     0.025 C 
ENDROOT
BRANCH  15  19
HETATM   19  O7  UNL     1      23.616 -15.411  -0.852  1.00  0.00    -0.383 OA
ATOM     20  H7  UNL     1      23.439 -14.661  -1.408  1.00  0.00     0.211 HD
ENDBRANCH  15  19
BRANCH  15  21
HETATM   21  C17 UNL     1      25.400 -15.669   0.469  1.00  0.00     0.214 C 
BRANCH  21  22
HETATM   22  O8  UNL     1      25.579 -15.994   1.856  1.00  0.00    -0.351 OA
BRANCH  22  23
HETATM   23  C18 UNL     1      26.870 -16.305   2.144  1.00  0.00     0.355 C 
HETATM   24  O9  UNL     1      27.832 -15.951   1.206  1.00  0.00    -0.200 OA
HETATM   25  O10 UNL     1      28.639 -15.678   2.234  1.00  0.00    -0.200 OA
HETATM   26  C19 UNL     1      27.535 -15.160   2.890  1.00  0.00     0.352 C 
BRANCH  26  27
HETATM   27  O11 UNL     1      27.526 -15.264   4.260  1.00  0.00    -0.365 OA
ATOM     28  H11 UNL     1      26.858 -14.756   4.704  1.00  0.00     0.213 HD
ENDBRANCH  26  27
ENDBRANCH  22  23
ENDBRANCH  21  22
ENDBRANCH  15  21
BRANCH  16  29
HETATM   29  C21 UNL     1      25.502 -12.839   0.681  1.00  0.00     0.178 C 
HETATM   30  O12 UNL     1      25.840 -12.686   1.896  1.00  0.00    -0.291 OA
BRANCH  29  31
HETATM   31  C22 UNL     1      26.594 -12.338  -0.172  1.00  0.00     0.247 C 
BRANCH  31  32
HETATM   32  O13 UNL     1      27.503 -13.396  -0.479  1.00  0.00    -0.393 OA
ATOM     33  H13 UNL     1      27.085 -14.033  -1.045  1.00  0.00     0.209 HD
ENDBRANCH  31  32
ENDBRANCH  29  31
ENDBRANCH  16  29
BRANCH   2  34
HETATM   34  O1  UNL     1      23.473 -11.173  -0.673  1.00  0.00    -0.389 OA
ATOM     35  H1  UNL     1      23.109 -10.361  -1.005  1.00  0.00     0.210 HD
ENDBRANCH   2  34
BRANCH  10  36
HETATM   36  O6  UNL     1      20.224 -14.092   1.631  1.00  0.00    -0.363 OA
ATOM     37  H6  UNL     1      19.739 -13.791   0.873  1.00  0.00     0.217 HD
ENDBRANCH  10  36
BRANCH   9  38
HETATM   38  O5  UNL     1      19.869  -8.726   0.780  1.00  0.00    -0.388 OA
ATOM     39  H5  UNL     1      20.027  -7.832   1.058  1.00  0.00     0.210 HD
ENDBRANCH   9  38
BRANCH   8  40
HETATM   40  C8  UNL     1      18.042  -8.703   3.427  1.00  0.00     0.173 C 
BRANCH  40  41
HETATM   41  O3  UNL     1      18.012  -7.450   2.852  1.00  0.00    -0.391 OA
ATOM     42  H3  UNL     1      17.712  -6.794   3.470  1.00  0.00     0.210 HD
ENDBRANCH  40  41
BRANCH  40  43
HETATM   43  C9  UNL     1      16.663  -9.091   3.971  1.00  0.00     0.198 C 
BRANCH  43  44
HETATM   44  O4  UNL     1      16.762  -9.677   5.217  1.00  0.00    -0.398 OA
ATOM     45  H4  UNL     1      16.335  -9.150   5.882  1.00  0.00     0.209 HD
ENDBRANCH  43  44
ENDBRANCH  40  43
ENDBRANCH   8  40
TORSDOF 15
ENDMDL
MODEL 4
REMARK VINA RESULT: -6.296501528      1.219      1.530
REMARK  15 active torsions:
REMARK  status: ('A' for Active; 'I' for Inactive)
REMARK    1  A    between atoms: C2_2  and  O1_3 
REMARK    2  A    between atoms: C7_10  and  C8_11 
REMARK    3  A    between atoms: C8_11  and  O3_12 
REMARK    4  A    between atoms: C8_11  and  C9_14 
REMARK    5  A    between atoms: C9_14  and  O4_15 
REMARK    6  A    between atoms: C10_17  and  O5_18 
REMARK    7  A    between atoms: C11_20  and  O6_21 
REMARK    8  A    between atoms: C16_27  and  O7_28 
REMARK    9  A    between atoms: C16_27  and  C17_30 
REMARK   10  A    between atoms: C17_30  and  O8_31 
REMARK   11  A    between atoms: O8_31  and  C18_32 
REMARK   12  A    between atoms: C19_35  and  O11_36 
REMARK   13  A    between atoms: C20_38  and  C21_39 
REMARK   14  A    between atoms: C21_39  and  C22_41 
REMARK   15  A    between atoms: C22_41  and  O13_42 
ROOT
HETATM    1  C1  UNL     1      24.973 -11.106   1.094  1.00  0.00     0.047 C 
HETATM    2  C2  UNL     1      24.078 -12.034   0.418  1.00  0.00     0.070 C 
HETATM    3  C3  UNL     1      22.760 -11.325   0.163  1.00  0.00     0.076 C 
HETATM    4  C4  UNL     1      21.765 -11.366   1.235  1.00  0.00    -0.035 C 
HETATM    5  C5  UNL     1      21.395 -12.365   2.058  1.00  0.00     0.000 C 
HETATM    6  C6  UNL     1      20.336 -12.128   3.075  1.00  0.00     0.210 C 
HETATM    7  O2  UNL     1      19.294 -11.409   2.554  1.00  0.00    -0.376 OA
HETATM    8  C7  UNL     1      19.633 -10.245   1.928  1.00  0.00     0.185 C 
HETATM    9  C10 UNL     1      21.034 -10.092   1.470  1.00  0.00     0.179 C 
HETATM   10  C11 UNL     1      21.870 -13.739   2.160  1.00  0.00     0.061 C 
HETATM   11  C12 UNL     1      23.400 -13.853   2.059  1.00  0.00     0.020 C 
HETATM   12  C13 UNL     1      23.804 -12.984   3.267  1.00  0.00     0.023 C 
HETATM   13  C14 UNL     1      23.730 -15.231   2.551  1.00  0.00     0.020 C 
HETATM   14  C15 UNL     1      24.083 -16.232   1.506  1.00  0.00     0.046 C 
HETATM   15  C16 UNL     1      24.998 -15.756   0.450  1.00  0.00     0.107 C 
HETATM   16  C20 UNL     1      25.204 -14.285   0.312  1.00  0.00     0.017 C 
HETATM   17  C23 UNL     1      23.969 -13.479   0.754  1.00  0.00     0.030 C 
HETATM   18  C24 UNL     1      22.926 -13.921  -0.311  1.00  0.00     0.025 C 
ENDROOT
BRANCH  15  19
HETATM   19  O7  UNL     1      24.561 -16.333  -0.793  1.00  0.00    -0.383 OA
ATOM     20  H7  UNL     1      25.180 -16.068  -1.464  1.00  0.00     0.211 HD
ENDBRANCH  15  19
BRANCH  15  21
HETATM   21  C17 UNL     1      26.300 -16.562   0.591  1.00  0.00     0.214 C 
BRANCH  21  22
HETATM   22  O8  UNL     1      26.214 -17.569  -0.428  1.00  0.00    -0.351 OA
BRANCH  22  23
HETATM   23  C18 UNL     1      26.680 -18.771   0.002  1.00  0.00     0.355 C 
HETATM   24  O9  UNL     1      26.364 -19.145   1.302  1.00  0.00    -0.200 OA
HETATM   25  O10 UNL     1      26.252 -20.394   0.844  1.00  0.00    -0.200 OA
HETATM   26  C19 UNL     1      25.668 -19.865  -0.294  1.00  0.00     0.352 C 
BRANCH  26  27
HETATM   27  O11 UNL     1      25.867 -20.553  -1.466  1.00  0.00    -0.365 OA
ATOM     28  H11 UNL     1      25.231 -21.233  -1.655  1.00  0.00     0.213 HD
ENDBRANCH  26  27
ENDBRANCH  22  23
ENDBRANCH  21  22
ENDBRANCH  15  21
BRANCH  16  29
HETATM   29  C21 UNL     1      26.515 -13.730   0.596  1.00  0.00     0.178 C 
HETATM   30  O12 UNL     1      27.219 -13.304  -0.371  1.00  0.00    -0.291 OA
BRANCH  29  31
HETATM   31  C22 UNL     1      27.275 -13.536   1.844  1.00  0.00     0.247 C 
BRANCH  31  32
HETATM   32  O13 UNL     1      28.567 -14.133   1.732  1.00  0.00    -0.393 OA
ATOM     33  H13 UNL     1      29.235 -13.460   1.683  1.00  0.00     0.209 HD
ENDBRANCH  31  32
ENDBRANCH  29  31
ENDBRANCH  16  29
BRANCH   2  34
HETATM   34  O1  UNL     1      24.591 -12.091  -0.932  1.00  0.00    -0.389 OA
ATOM     35  H1  UNL     1      24.745 -11.181  -1.157  1.00  0.00     0.210 HD
ENDBRANCH   2  34
BRANCH  10  36
HETATM   36  O6  UNL     1      21.169 -14.697   1.493  1.00  0.00    -0.363 OA
ATOM     37  H6  UNL     1      21.666 -15.352   1.018  1.00  0.00     0.217 HD
ENDBRANCH  10  36
BRANCH   9  38
HETATM   38  O5  UNL     1      21.058  -9.400   0.238  1.00  0.00    -0.388 OA
ATOM     39  H5  UNL     1      21.536  -9.959  -0.363  1.00  0.00     0.210 HD
ENDBRANCH   9  38
BRANCH   8  40
HETATM   40  C8  UNL     1      19.171  -9.105   2.825  1.00  0.00     0.173 C 
BRANCH  40  41
HETATM   41  O3  UNL     1      19.579  -7.884   2.331  1.00  0.00    -0.391 OA
ATOM     42  H3  UNL     1      19.256  -7.170   2.868  1.00  0.00     0.210 HD
ENDBRANCH  40  41
BRANCH  40  43
HETATM   43  C9  UNL     1      17.648  -9.151   2.988  1.00  0.00     0.198 C 
BRANCH  43  44
HETATM   44  O4  UNL     1      17.280  -9.968   4.038  1.00  0.00    -0.398 OA
ATOM     45  H4  UNL     1      17.655 -10.836   3.948  1.00  0.00     0.209 HD
ENDBRANCH  43  44
ENDBRANCH  40  43
ENDBRANCH   8  40
TORSDOF 15
ENDMDL
MODEL 5
REMARK VINA RESULT: -6.242777115      1.296      1.763
REMARK  15 active torsions:
REMARK  status: ('A' for Active; 'I' for Inactive)
REMARK    1  A    between atoms: C2_2  and  O1_3 
REMARK    2  A    between atoms: C7_10  and  C8_11 
REMARK    3  A    between atoms: C8_11  and  O3_12 
REMARK    4  A    between atoms: C8_11  and  C9_14 
REMARK    5  A    between atoms: C9_14  and  O4_15 
REMARK    6  A    between atoms: C10_17  and  O5_18 
REMARK    7  A    between atoms: C11_20  and  O6_21 
REMARK    8  A    between atoms: C16_27  and  O7_28 
REMARK    9  A    between atoms: C16_27  and  C17_30 
REMARK   10  A    between atoms: C17_30  and  O8_31 
REMARK   11  A    between atoms: O8_31  and  C18_32 
REMARK   12  A    between atoms: C19_35  and  O11_36 
REMARK   13  A    between atoms: C20_38  and  C21_39 
REMARK   14  A    between atoms: C21_39  and  C22_41 
REMARK   15  A    between atoms: C22_41  and  O13_42 
ROOT
HETATM    1  C1  UNL     1      23.953 -10.445   1.393  1.00  0.00     0.047 C 
HETATM    2  C2  UNL     1      23.064 -11.340   0.668  1.00  0.00     0.070 C 
HETATM    3  C3  UNL     1      21.726 -10.644   0.495  1.00  0.00     0.076 C 
HETATM    4  C4  UNL     1      20.756 -10.788   1.581  1.00  0.00    -0.035 C 
HETATM    5  C5  UNL     1      20.426 -11.852   2.335  1.00  0.00     0.000 C 
HETATM    6  C6  UNL     1      19.385 -11.715   3.389  1.00  0.00     0.210 C 
HETATM    7  O2  UNL     1      18.317 -10.984   2.945  1.00  0.00    -0.376 OA
HETATM    8  C7  UNL     1      18.617  -9.769   2.401  1.00  0.00     0.185 C 
HETATM    9  C10 UNL     1      20.004  -9.551   1.926  1.00  0.00     0.179 C 
HETATM   10  C11 UNL     1      20.932 -13.219   2.324  1.00  0.00     0.061 C 
HETATM   11  C12 UNL     1      22.461 -13.291   2.182  1.00  0.00     0.020 C 
HETATM   12  C13 UNL     1      22.874 -12.505   3.444  1.00  0.00     0.023 C 
HETATM   13  C14 UNL     1      22.831 -14.694   2.564  1.00  0.00     0.020 C 
HETATM   14  C15 UNL     1      23.181 -15.606   1.440  1.00  0.00     0.046 C 
HETATM   15  C16 UNL     1      24.062 -15.032   0.403  1.00  0.00     0.107 C 
HETATM   16  C20 UNL     1      24.234 -13.551   0.371  1.00  0.00     0.017 C 
HETATM   17  C23 UNL     1      22.992 -12.808   0.898  1.00  0.00     0.030 C 
HETATM   18  C24 UNL     1      21.935 -13.193  -0.176  1.00  0.00     0.025 C 
ENDROOT
BRANCH  15  19
HETATM   19  O7  UNL     1      23.609 -15.525  -0.871  1.00  0.00    -0.383 OA
ATOM     20  H7  UNL     1      24.081 -16.330  -1.049  1.00  0.00     0.211 HD
ENDBRANCH  15  19
BRANCH  15  21
HETATM   21  C17 UNL     1      25.384 -15.817   0.456  1.00  0.00     0.214 C 
BRANCH  21  22
HETATM   22  O8  UNL     1      25.314 -16.558   1.684  1.00  0.00    -0.351 OA
BRANCH  22  23
HETATM   23  C18 UNL     1      26.526 -17.048   2.053  1.00  0.00     0.355 C 
HETATM   24  O9  UNL     1      27.513 -16.125   2.371  1.00  0.00    -0.200 OA
HETATM   25  O10 UNL     1      27.914 -16.978   3.317  1.00  0.00    -0.200 OA
HETATM   26  C19 UNL     1      26.578 -17.249   3.558  1.00  0.00     0.352 C 
BRANCH  26  27
HETATM   27  O11 UNL     1      26.275 -18.516   3.996  1.00  0.00    -0.365 OA
ATOM     28  H11 UNL     1      25.567 -18.572   4.627  1.00  0.00     0.213 HD
ENDBRANCH  26  27
ENDBRANCH  22  23
ENDBRANCH  21  22
ENDBRANCH  15  21
BRANCH  16  29
HETATM   29  C21 UNL     1      25.539 -12.989   0.668  1.00  0.00     0.178 C 
HETATM   30  O12 UNL     1      26.296 -12.660  -0.297  1.00  0.00    -0.291 OA
BRANCH  29  31
HETATM   31  C22 UNL     1      26.241 -12.693   1.930  1.00  0.00     0.247 C 
BRANCH  31  32
HETATM   32  O13 UNL     1      26.066 -13.767   2.854  1.00  0.00    -0.393 OA
ATOM     33  H13 UNL     1      26.688 -14.460   2.673  1.00  0.00     0.209 HD
ENDBRANCH  31  32
ENDBRANCH  29  31
ENDBRANCH  16  29
BRANCH   2  34
HETATM   34  O1  UNL     1      23.547 -11.285  -0.693  1.00  0.00    -0.389 OA
ATOM     35  H1  UNL     1      22.845 -11.673  -1.201  1.00  0.00     0.210 HD
ENDBRANCH   2  34
BRANCH  10  36
HETATM   36  O6  UNL     1      20.236 -14.140   1.602  1.00  0.00    -0.363 OA
ATOM     37  H6  UNL     1      19.291 -14.055   1.579  1.00  0.00     0.217 HD
ENDBRANCH  10  36
BRANCH   9  38
HETATM   38  O5  UNL     1      19.986  -8.769   0.749  1.00  0.00    -0.388 OA
ATOM     39  H5  UNL     1      19.304  -9.141   0.202  1.00  0.00     0.210 HD
ENDBRANCH   9  38
BRANCH   8  40
HETATM   40  C8  UNL     1      18.152  -8.710   3.390  1.00  0.00     0.173 C 
BRANCH  40  41
HETATM   41  O3  UNL     1      18.104  -7.464   2.802  1.00  0.00    -0.391 OA
ATOM     42  H3  UNL     1      17.586  -6.859   3.319  1.00  0.00     0.210 HD
ENDBRANCH  40  41
BRANCH  40  43
HETATM   43  C9  UNL     1      16.786  -9.097   3.968  1.00  0.00     0.198 C 
BRANCH  43  44
HETATM   44  O4  UNL     1      16.914  -9.673   5.215  1.00  0.00    -0.398 OA
ATOM     45  H4  UNL     1      17.124 -10.597   5.150  1.00  0.00     0.209 HD
ENDBRANCH  43  44
ENDBRANCH  40  43
ENDBRANCH   8  40
TORSDOF 15
ENDMDL
