MODEL 1
REMARK VINA RESULT: -7.346965756      0.000      0.000
REMARK  14 active torsions:
REMARK  status: ('A' for Active; 'I' for Inactive)
REMARK    1  A    between atoms: C9_9  and  O1_10 
REMARK    2  A    between atoms: C10_12  and  C11_13 
REMARK    3  A    between atoms: C11_13  and  C12_14 
REMARK    4  A    between atoms: C12_14  and  C13_15 
REMARK    5  A    between atoms: C14_18  and  O3_19 
REMARK    6  A    between atoms: C17_26  and  O7_27 
REMARK    7  A    between atoms: O7_27  and  C18_28 
REMARK    8  A    between atoms: C18_28  and  C19_29 
REMARK    9  A    between atoms: C19_29  and  O8_30 
REMARK   10  A    between atoms: C19_29  and  C20_32 
REMARK   11  A    between atoms: C20_32  and  O9_33 
REMARK   12  A    between atoms: C22_37  and  C23_38 
REMARK   13  A    between atoms: C23_38  and  O11_39 
REMARK   14  A    between atoms: C24_41  and  O12_42 
ROOT
HETATM    1  C1  UNL     1      22.742 -15.100   2.765  1.00  0.00     0.020 C 
HETATM    2  C2  UNL     1      23.103 -14.257   1.857  1.00  0.00    -0.024 C 
HETATM    3  C3  UNL     1      22.332 -12.951   2.142  1.00  0.00     0.040 C 
HETATM    4  C4  UNL     1      23.382 -12.032   2.660  1.00  0.00     0.019 C 
HETATM    5  C5  UNL     1      24.498 -11.711   1.737  1.00  0.00     0.019 C 
HETATM    6  C6  UNL     1      24.568 -10.190   1.774  1.00  0.00     0.021 C 
HETATM    7  C7  UNL     1      25.834 -12.308   2.169  1.00  0.00     0.033 C 
HETATM    8  C8  UNL     1      25.972 -12.633   3.573  1.00  0.00     0.014 C 
HETATM    9  C9  UNL     1      26.236 -13.268   1.119  1.00  0.00     0.108 C 
HETATM   10  C10 UNL     1      25.910 -12.455  -0.106  1.00  0.00     0.087 C 
HETATM   11  C14 UNL     1      24.436 -12.144   0.328  1.00  0.00     0.180 C 
HETATM   12  O4  UNL     1      23.811 -13.267  -0.051  1.00  0.00    -0.310 OA
HETATM   13  C15 UNL     1      24.033 -14.424   0.761  1.00  0.00     0.228 C 
HETATM   14  O5  UNL     1      23.674 -15.388  -0.169  1.00  0.00    -0.324 OA
HETATM   15  C16 UNL     1      22.604 -16.136  -0.082  1.00  0.00     0.347 C 
HETATM   16  O6  UNL     1      22.849 -17.458   0.331  1.00  0.00    -0.314 OA
HETATM   17  C17 UNL     1      24.022 -17.995  -0.130  1.00  0.00     0.414 C 
HETATM   18  O10 UNL     1      25.155 -17.193   0.062  1.00  0.00    -0.338 OA
HETATM   19  C21 UNL     1      25.543 -17.084   1.359  1.00  0.00     0.183 C 
HETATM   20  C22 UNL     1      25.902 -15.695   1.842  1.00  0.00     0.076 C 
HETATM   21  C24 UNL     1      25.500 -14.569   0.989  1.00  0.00     0.158 C 
ENDROOT
BRANCH  17  22
HETATM   22  O7  UNL     1      23.945 -18.444  -1.444  1.00  0.00    -0.336 OA
BRANCH  22  23
HETATM   23  C18 UNL     1      22.944 -19.381  -1.590  1.00  0.00     0.207 C 
BRANCH  23  24
HETATM   24  C19 UNL     1      22.198 -19.335  -2.879  1.00  0.00     0.165 C 
BRANCH  24  25
HETATM   25  O8  UNL     1      23.132 -19.569  -3.903  1.00  0.00    -0.391 OA
ATOM     26  H8  UNL     1      23.100 -20.498  -4.101  1.00  0.00     0.210 HD
ENDBRANCH  24  25
BRANCH  24  27
HETATM   27  C20 UNL     1      21.673 -17.916  -3.066  1.00  0.00     0.198 C 
BRANCH  27  28
HETATM   28  O9  UNL     1      22.737 -17.177  -3.621  1.00  0.00    -0.398 OA
ATOM     29  H9  UNL     1      22.336 -16.469  -4.111  1.00  0.00     0.209 HD
ENDBRANCH  27  28
ENDBRANCH  24  27
ENDBRANCH  23  24
ENDBRANCH  22  23
ENDBRANCH  17  22
BRANCH  20  30
HETATM   30  C23 UNL     1      27.347 -15.832   2.230  1.00  0.00     0.174 C 
BRANCH  30  31
HETATM   31  O11 UNL     1      28.228 -16.085   1.186  1.00  0.00    -0.400 OA
ATOM     32  H11 UNL     1      29.147 -16.120   1.425  1.00  0.00     0.209 HD
ENDBRANCH  30  31
ENDBRANCH  20  30
BRANCH  21  33
HETATM   33  O12 UNL     1      26.049 -15.000  -0.269  1.00  0.00    -0.380 OA
ATOM     34  H12 UNL     1      25.633 -15.853  -0.320  1.00  0.00     0.211 HD
ENDBRANCH  21  33
BRANCH   9  35
HETATM   35  O1  UNL     1      27.607 -13.418   1.062  1.00  0.00    -0.386 OA
ATOM     36  H1  UNL     1      27.854 -14.273   0.731  1.00  0.00     0.210 HD
ENDBRANCH   9  35
BRANCH  11  37
HETATM   37  O3  UNL     1      24.040 -11.140  -0.568  1.00  0.00    -0.364 OA
ATOM     38  H3  UNL     1      23.890 -11.445  -1.455  1.00  0.00     0.213 HD
ENDBRANCH  11  37
BRANCH  10  39
HETATM   39  C11 UNL     1      26.637 -11.271  -0.486  1.00  0.00     0.022 C 
BRANCH  39  40
HETATM   40  C12 UNL     1      26.776 -10.927  -1.940  1.00  0.00     0.100 C 
BRANCH  40  41
HETATM   41  C13 UNL     1      28.167 -10.411  -2.223  1.00  0.00     0.231 C 
HETATM   42  N1  UNL     1      28.819  -9.471  -1.411  1.00  0.00    -0.062 NA
HETATM   43  O2  UNL     1      28.740 -10.861  -3.240  1.00  0.00    -0.277 OA
ENDBRANCH  40  41
ENDBRANCH  39  40
ENDBRANCH  10  39
TORSDOF 14
ENDMDL
MODEL 2
REMARK VINA RESULT: -7.215740686      1.132      1.662
REMARK  14 active torsions:
REMARK  status: ('A' for Active; 'I' for Inactive)
REMARK    1  A    between atoms: C9_9  and  O1_10 
REMARK    2  A    between atoms: C10_12  and  C11_13 
REMARK    3  A    between atoms: C11_13  and  C12_14 
REMARK    4  A    between atoms: C12_14  and  C13_15 
REMARK    5  A    between atoms: C14_18  and  O3_19 
REMARK    6  A    between atoms: C17_26  and  O7_27 
REMARK    7  A    between atoms: O7_27  and  C18_28 
REMARK    8  A    between atoms: C18_28  and  C19_29 
REMARK    9  A    between atoms: C19_29  and  O8_30 
REMARK   10  A    between atoms: C19_29  and  C20_32 
REMARK   11  A    between atoms: C20_32  and  O9_33 
REMARK   12  A    between atoms: C22_37  and  C23_38 
REMARK   13  A    between atoms: C23_38  and  O11_39 
REMARK   14  A    between atoms: C24_41  and  O12_42 
ROOT
HETATM    1  C1  UNL     1      22.679 -15.175   2.775  1.00  0.00     0.020 C 
HETATM    2  C2  UNL     1      23.030 -14.338   1.859  1.00  0.00    -0.024 C 
HETATM    3  C3  UNL     1      22.193 -13.062   2.091  1.00  0.00     0.040 C 
HETATM    4  C4  UNL     1      23.186 -12.086   2.617  1.00  0.00     0.019 C 
HETATM    5  C5  UNL     1      24.313 -11.735   1.719  1.00  0.00     0.019 C 
HETATM    6  C6  UNL     1      24.315 -10.212   1.722  1.00  0.00     0.021 C 
HETATM    7  C7  UNL     1      25.660 -12.262   2.203  1.00  0.00     0.033 C 
HETATM    8  C8  UNL     1      25.771 -12.549   3.618  1.00  0.00     0.014 C 
HETATM    9  C9  UNL     1      26.136 -13.227   1.188  1.00  0.00     0.108 C 
HETATM   10  C10 UNL     1      25.810 -12.456  -0.064  1.00  0.00     0.087 C 
HETATM   11  C14 UNL     1      24.313 -12.202   0.320  1.00  0.00     0.180 C 
HETATM   12  O4  UNL     1      23.750 -13.360  -0.051  1.00  0.00    -0.310 OA
HETATM   13  C15 UNL     1      23.998 -14.487   0.794  1.00  0.00     0.228 C 
HETATM   14  O5  UNL     1      23.709 -15.487  -0.123  1.00  0.00    -0.324 OA
HETATM   15  C16 UNL     1      22.671 -16.280  -0.049  1.00  0.00     0.347 C 
HETATM   16  O6  UNL     1      22.963 -17.581   0.401  1.00  0.00    -0.314 OA
HETATM   17  C17 UNL     1      24.171 -18.074  -0.013  1.00  0.00     0.414 C 
HETATM   18  O10 UNL     1      25.261 -17.218   0.193  1.00  0.00    -0.338 OA
HETATM   19  C21 UNL     1      25.605 -17.063   1.498  1.00  0.00     0.183 C 
HETATM   20  C22 UNL     1      25.888 -15.649   1.958  1.00  0.00     0.076 C 
HETATM   21  C24 UNL     1      25.462 -14.562   1.067  1.00  0.00     0.158 C 
ENDROOT
BRANCH  17  22
HETATM   22  O7  UNL     1      24.153 -18.555  -1.318  1.00  0.00    -0.336 OA
BRANCH  22  23
HETATM   23  C18 UNL     1      23.857 -19.901  -1.346  1.00  0.00     0.207 C 
BRANCH  23  24
HETATM   24  C19 UNL     1      24.937 -20.811  -0.868  1.00  0.00     0.165 C 
BRANCH  24  25
HETATM   25  O8  UNL     1      26.115 -20.436  -1.536  1.00  0.00    -0.391 OA
ATOM     26  H8  UNL     1      26.715 -20.106  -0.878  1.00  0.00     0.210 HD
ENDBRANCH  24  25
BRANCH  24  27
HETATM   27  C20 UNL     1      24.593 -22.225  -1.322  1.00  0.00     0.198 C 
BRANCH  27  28
HETATM   28  O9  UNL     1      25.683 -22.660  -2.102  1.00  0.00    -0.398 OA
ATOM     29  H9  UNL     1      26.416 -22.743  -1.504  1.00  0.00     0.209 HD
ENDBRANCH  27  28
ENDBRANCH  24  27
ENDBRANCH  23  24
ENDBRANCH  22  23
ENDBRANCH  17  22
BRANCH  20  30
HETATM   30  C23 UNL     1      27.326 -15.713   2.391  1.00  0.00     0.174 C 
BRANCH  30  31
HETATM   31  O11 UNL     1      28.244 -15.988   1.385  1.00  0.00    -0.400 OA
ATOM     32  H11 UNL     1      28.821 -16.725   1.547  1.00  0.00     0.209 HD
ENDBRANCH  30  31
ENDBRANCH  20  30
BRANCH  21  33
HETATM   33  O12 UNL     1      26.067 -14.996  -0.164  1.00  0.00    -0.380 OA
ATOM     34  H12 UNL     1      26.877 -14.502  -0.104  1.00  0.00     0.211 HD
ENDBRANCH  21  33
BRANCH   9  35
HETATM   35  O1  UNL     1      27.514 -13.316   1.174  1.00  0.00    -0.386 OA
ATOM     36  H1  UNL     1      27.824 -14.046   1.696  1.00  0.00     0.210 HD
ENDBRANCH   9  35
BRANCH  11  37
HETATM   37  O3  UNL     1      23.899 -11.237  -0.611  1.00  0.00    -0.364 OA
ATOM     38  H3  UNL     1      23.727 -11.580  -1.480  1.00  0.00     0.213 HD
ENDBRANCH  11  37
BRANCH  10  39
HETATM   39  C11 UNL     1      26.495 -11.250  -0.452  1.00  0.00     0.022 C 
BRANCH  39  40
HETATM   40  C12 UNL     1      26.669 -10.935  -1.908  1.00  0.00     0.100 C 
BRANCH  40  41
HETATM   41  C13 UNL     1      28.080 -10.472  -2.179  1.00  0.00     0.231 C 
HETATM   42  N1  UNL     1      28.760  -9.558  -1.359  1.00  0.00    -0.062 NA
HETATM   43  O2  UNL     1      28.645 -10.942  -3.191  1.00  0.00    -0.277 OA
ENDBRANCH  40  41
ENDBRANCH  39  40
ENDBRANCH  10  39
TORSDOF 14
ENDMDL
MODEL 3
REMARK VINA RESULT: -6.759796892      1.585      1.970
REMARK  14 active torsions:
REMARK  status: ('A' for Active; 'I' for Inactive)
REMARK    1  A    between atoms: C9_9  and  O1_10 
REMARK    2  A    between atoms: C10_12  and  C11_13 
REMARK    3  A    between atoms: C11_13  and  C12_14 
REMARK    4  A    between atoms: C12_14  and  C13_15 
REMARK    5  A    between atoms: C14_18  and  O3_19 
REMARK    6  A    between atoms: C17_26  and  O7_27 
REMARK    7  A    between atoms: O7_27  and  C18_28 
REMARK    8  A    between atoms: C18_28  and  C19_29 
REMARK    9  A    between atoms: C19_29  and  O8_30 
REMARK   10  A    between atoms: C19_29  and  C20_32 
REMARK   11  A    between atoms: C20_32  and  O9_33 
REMARK   12  A    between atoms: C22_37  and  C23_38 
REMARK   13  A    between atoms: C23_38  and  O11_39 
REMARK   14  A    between atoms: C24_41  and  O12_42 
ROOT
HETATM    1  C1  UNL     1      21.828 -15.807   2.753  1.00  0.00     0.020 C 
HETATM    2  C2  UNL     1      22.034 -14.998   1.769  1.00  0.00    -0.024 C 
HETATM    3  C3  UNL     1      20.801 -14.074   1.699  1.00  0.00     0.040 C 
HETATM    4  C4  UNL     1      21.318 -12.766   2.187  1.00  0.00     0.019 C 
HETATM    5  C5  UNL     1      22.402 -12.141   1.390  1.00  0.00     0.019 C 
HETATM    6  C6  UNL     1      21.906 -10.719   1.161  1.00  0.00     0.021 C 
HETATM    7  C7  UNL     1      23.747 -12.117   2.110  1.00  0.00     0.033 C 
HETATM    8  C8  UNL     1      23.707 -12.202   3.555  1.00  0.00     0.014 C 
HETATM    9  C9  UNL     1      24.674 -12.956   1.320  1.00  0.00     0.108 C 
HETATM   10  C10 UNL     1      24.328 -12.478  -0.065  1.00  0.00     0.087 C 
HETATM   11  C14 UNL     1      22.788 -12.720   0.089  1.00  0.00     0.180 C 
HETATM   12  O4  UNL     1      22.703 -14.032  -0.165  1.00  0.00    -0.310 OA
HETATM   13  C15 UNL     1      23.162 -14.912   0.866  1.00  0.00     0.228 C 
HETATM   14  O5  UNL     1      23.373 -16.038   0.085  1.00  0.00    -0.324 OA
HETATM   15  C16 UNL     1      22.653 -17.129   0.151  1.00  0.00     0.347 C 
HETATM   16  O6  UNL     1      23.274 -18.195   0.828  1.00  0.00    -0.314 OA
HETATM   17  C17 UNL     1      24.628 -18.280   0.645  1.00  0.00     0.414 C 
HETATM   18  O10 UNL     1      25.328 -17.084   0.849  1.00  0.00    -0.338 OA
HETATM   19  C21 UNL     1      25.380 -16.687   2.147  1.00  0.00     0.183 C 
HETATM   20  C22 UNL     1      25.105 -15.222   2.416  1.00  0.00     0.076 C 
HETATM   21  C24 UNL     1      24.503 -14.447   1.324  1.00  0.00     0.158 C 
ENDROOT
BRANCH  17  22
HETATM   22  O7  UNL     1      24.986 -18.869  -0.563  1.00  0.00    -0.336 OA
BRANCH  22  23
HETATM   23  C18 UNL     1      25.480 -20.141  -0.368  1.00  0.00     0.207 C 
BRANCH  23  24
HETATM   24  C19 UNL     1      24.959 -21.187  -1.293  1.00  0.00     0.165 C 
BRANCH  24  25
HETATM   25  O8  UNL     1      25.756 -21.145  -2.450  1.00  0.00    -0.391 OA
ATOM     26  H8  UNL     1      25.486 -20.381  -2.946  1.00  0.00     0.210 HD
ENDBRANCH  24  25
BRANCH  24  27
HETATM   27  C20 UNL     1      23.547 -20.786  -1.705  1.00  0.00     0.198 C 
BRANCH  27  28
HETATM   28  O9  UNL     1      23.688 -20.003  -2.868  1.00  0.00    -0.398 OA
ATOM     29  H9  UNL     1      24.613 -20.021  -3.086  1.00  0.00     0.209 HD
ENDBRANCH  27  28
ENDBRANCH  24  27
ENDBRANCH  23  24
ENDBRANCH  22  23
ENDBRANCH  17  22
BRANCH  20  30
HETATM   30  C23 UNL     1      26.391 -14.741   3.026  1.00  0.00     0.174 C 
BRANCH  30  31
HETATM   31  O11 UNL     1      27.543 -15.037   2.309  1.00  0.00    -0.400 OA
ATOM     32  H11 UNL     1      28.362 -14.814   2.738  1.00  0.00     0.209 HD
ENDBRANCH  30  31
ENDBRANCH  20  30
BRANCH  21  33
HETATM   33  O12 UNL     1      25.413 -14.769   0.257  1.00  0.00    -0.380 OA
ATOM     34  H12 UNL     1      25.786 -13.905   0.126  1.00  0.00     0.211 HD
ENDBRANCH  21  33
BRANCH   9  35
HETATM   35  O1  UNL     1      25.987 -12.565   1.489  1.00  0.00    -0.386 OA
ATOM     36  H1  UNL     1      26.243 -11.910   0.850  1.00  0.00     0.210 HD
ENDBRANCH   9  35
BRANCH  11  37
HETATM   37  O3  UNL     1      22.243 -12.058  -1.021  1.00  0.00    -0.364 OA
ATOM     38  H3  UNL     1      21.487 -12.490  -1.402  1.00  0.00     0.213 HD
ENDBRANCH  11  37
BRANCH  10  39
HETATM   39  C11 UNL     1      24.636 -11.156  -0.546  1.00  0.00     0.022 C 
BRANCH  39  40
HETATM   40  C12 UNL     1      25.454 -10.997  -1.793  1.00  0.00     0.100 C 
BRANCH  40  41
HETATM   41  C13 UNL     1      26.914 -11.246  -1.497  1.00  0.00     0.231 C 
HETATM   42  N1  UNL     1      27.865 -10.220  -1.402  1.00  0.00    -0.062 NA
HETATM   43  O2  UNL     1      27.262 -12.436  -1.333  1.00  0.00    -0.277 OA
ENDBRANCH  40  41
ENDBRANCH  39  40
ENDBRANCH  10  39
TORSDOF 14
ENDMDL
MODEL 4
REMARK VINA RESULT: -6.595084436      1.956      2.841
REMARK  14 active torsions:
REMARK  status: ('A' for Active; 'I' for Inactive)
REMARK    1  A    between atoms: C9_9  and  O1_10 
REMARK    2  A    between atoms: C10_12  and  C11_13 
REMARK    3  A    between atoms: C11_13  and  C12_14 
REMARK    4  A    between atoms: C12_14  and  C13_15 
REMARK    5  A    between atoms: C14_18  and  O3_19 
REMARK    6  A    between atoms: C17_26  and  O7_27 
REMARK    7  A    between atoms: O7_27  and  C18_28 
REMARK    8  A    between atoms: C18_28  and  C19_29 
REMARK    9  A    between atoms: C19_29  and  O8_30 
REMARK   10  A    between atoms: C19_29  and  C20_32 
REMARK   11  A    between atoms: C20_32  and  O9_33 
REMARK   12  A    between atoms: C22_37  and  C23_38 
REMARK   13  A    between atoms: C23_38  and  O11_39 
REMARK   14  A    between atoms: C24_41  and  O12_42 
ROOT
HETATM    1  C1  UNL     1      21.590 -15.912   2.465  1.00  0.00     0.020 C 
HETATM    2  C2  UNL     1      21.861 -15.121   1.482  1.00  0.00    -0.024 C 
HETATM    3  C3  UNL     1      20.583 -14.298   1.220  1.00  0.00     0.040 C 
HETATM    4  C4  UNL     1      20.937 -12.939   1.715  1.00  0.00     0.019 C 
HETATM    5  C5  UNL     1      22.066 -12.258   1.035  1.00  0.00     0.019 C 
HETATM    6  C6  UNL     1      21.501 -10.887   0.687  1.00  0.00     0.021 C 
HETATM    7  C7  UNL     1      23.302 -12.108   1.916  1.00  0.00     0.033 C 
HETATM    8  C8  UNL     1      23.084 -12.149   3.347  1.00  0.00     0.014 C 
HETATM    9  C9  UNL     1      24.381 -12.897   1.284  1.00  0.00     0.108 C 
HETATM   10  C10 UNL     1      24.181 -12.491  -0.153  1.00  0.00     0.087 C 
HETATM   11  C14 UNL     1      22.655 -12.846  -0.182  1.00  0.00     0.180 C 
HETATM   12  O4  UNL     1      22.700 -14.169  -0.391  1.00  0.00    -0.310 OA
HETATM   13  C15 UNL     1      23.085 -14.977   0.725  1.00  0.00     0.228 C 
HETATM   14  O5  UNL     1      23.476 -16.108   0.022  1.00  0.00    -0.324 OA
HETATM   15  C16 UNL     1      22.835 -17.248   0.043  1.00  0.00     0.347 C 
HETATM   16  O6  UNL     1      23.440 -18.241   0.836  1.00  0.00    -0.314 OA
HETATM   17  C17 UNL     1      24.809 -18.227   0.827  1.00  0.00     0.414 C 
HETATM   18  O10 UNL     1      25.388 -16.974   1.068  1.00  0.00    -0.338 OA
HETATM   19  C21 UNL     1      25.245 -16.534   2.344  1.00  0.00     0.183 C 
HETATM   20  C22 UNL     1      24.832 -15.087   2.517  1.00  0.00     0.076 C 
HETATM   21  C24 UNL     1      24.319 -14.396   1.327  1.00  0.00     0.158 C 
ENDROOT
BRANCH  17  22
HETATM   22  O7  UNL     1      25.360 -18.824  -0.301  1.00  0.00    -0.336 OA
BRANCH  22  23
HETATM   23  C18 UNL     1      26.690 -19.129  -0.102  1.00  0.00     0.207 C 
BRANCH  23  24
HETATM   24  C19 UNL     1      27.640 -18.569  -1.105  1.00  0.00     0.165 C 
BRANCH  24  25
HETATM   25  O8  UNL     1      28.933 -18.945  -0.700  1.00  0.00    -0.391 OA
ATOM     26  H8  UNL     1      29.541 -18.355  -1.130  1.00  0.00     0.210 HD
ENDBRANCH  24  25
BRANCH  24  27
HETATM   27  C20 UNL     1      27.567 -17.050  -1.023  1.00  0.00     0.198 C 
BRANCH  27  28
HETATM   28  O9  UNL     1      28.025 -16.707   0.265  1.00  0.00    -0.398 OA
ATOM     29  H9  UNL     1      27.258 -16.705   0.825  1.00  0.00     0.209 HD
ENDBRANCH  27  28
ENDBRANCH  24  27
ENDBRANCH  23  24
ENDBRANCH  22  23
ENDBRANCH  17  22
BRANCH  20  30
HETATM   30  C23 UNL     1      25.991 -14.489   3.263  1.00  0.00     0.174 C 
BRANCH  30  31
HETATM   31  O11 UNL     1      27.247 -14.742   2.725  1.00  0.00    -0.400 OA
ATOM     32  H11 UNL     1      27.984 -14.485   3.265  1.00  0.00     0.209 HD
ENDBRANCH  30  31
ENDBRANCH  20  30
BRANCH  21  33
HETATM   33  O12 UNL     1      25.379 -14.680   0.397  1.00  0.00    -0.380 OA
ATOM     34  H12 UNL     1      25.735 -15.452   0.820  1.00  0.00     0.211 HD
ENDBRANCH  21  33
BRANCH   9  35
HETATM   35  O1  UNL     1      25.629 -12.400   1.599  1.00  0.00    -0.386 OA
ATOM     36  H1  UNL     1      26.219 -13.087   1.887  1.00  0.00     0.210 HD
ENDBRANCH   9  35
BRANCH  11  37
HETATM   37  O3  UNL     1      22.210 -12.264  -1.378  1.00  0.00    -0.364 OA
ATOM     38  H3  UNL     1      21.857 -12.882  -2.007  1.00  0.00     0.213 HD
ENDBRANCH  11  37
BRANCH  10  39
HETATM   39  C11 UNL     1      24.451 -11.165  -0.645  1.00  0.00     0.022 C 
BRANCH  39  40
HETATM   40  C12 UNL     1      25.432 -10.979  -1.765  1.00  0.00     0.100 C 
BRANCH  40  41
HETATM   41  C13 UNL     1      26.836 -11.255  -1.282  1.00  0.00     0.231 C 
HETATM   42  N1  UNL     1      27.788 -10.247  -1.070  1.00  0.00    -0.062 NA
HETATM   43  O2  UNL     1      27.136 -12.451  -1.070  1.00  0.00    -0.277 OA
ENDBRANCH  40  41
ENDBRANCH  39  40
ENDBRANCH  10  39
TORSDOF 14
ENDMDL
MODEL 5
REMARK VINA RESULT: -6.586418849      2.421      6.670
REMARK  14 active torsions:
REMARK  status: ('A' for Active; 'I' for Inactive)
REMARK    1  A    between atoms: C9_9  and  O1_10 
REMARK    2  A    between atoms: C10_12  and  C11_13 
REMARK    3  A    between atoms: C11_13  and  C12_14 
REMARK    4  A    between atoms: C12_14  and  C13_15 
REMARK    5  A    between atoms: C14_18  and  O3_19 
REMARK    6  A    between atoms: C17_26  and  O7_27 
REMARK    7  A    between atoms: O7_27  and  C18_28 
REMARK    8  A    between atoms: C18_28  and  C19_29 
REMARK    9  A    between atoms: C19_29  and  O8_30 
REMARK   10  A    between atoms: C19_29  and  C20_32 
REMARK   11  A    between atoms: C20_32  and  O9_33 
REMARK   12  A    between atoms: C22_37  and  C23_38 
REMARK   13  A    between atoms: C23_38  and  O11_39 
REMARK   14  A    between atoms: C24_41  and  O12_42 
ROOT
HETATM    1  C1  UNL     1      25.813 -17.820   2.310  1.00  0.00     0.020 C 
HETATM    2  C2  UNL     1      25.264 -17.833   1.142  1.00  0.00    -0.024 C 
HETATM    3  C3  UNL     1      25.078 -19.318   0.764  1.00  0.00     0.040 C 
HETATM    4  C4  UNL     1      23.608 -19.524   0.873  1.00  0.00     0.019 C 
HETATM    5  C5  UNL     1      22.756 -18.712  -0.031  1.00  0.00     0.019 C 
HETATM    6  C6  UNL     1      21.838 -19.741  -0.678  1.00  0.00     0.021 C 
HETATM    7  C7  UNL     1      21.928 -17.659   0.700  1.00  0.00     0.033 C 
HETATM    8  C8  UNL     1      21.675 -17.898   2.107  1.00  0.00     0.014 C 
HETATM    9  C9  UNL     1      22.390 -16.339   0.221  1.00  0.00     0.108 C 
HETATM   10  C10 UNL     1      22.478 -16.624  -1.255  1.00  0.00     0.087 C 
HETATM   11  C14 UNL     1      23.373 -17.899  -1.094  1.00  0.00     0.180 C 
HETATM   12  O4  UNL     1      24.588 -17.348  -0.962  1.00  0.00    -0.310 OA
HETATM   13  C15 UNL     1      24.872 -16.728   0.295  1.00  0.00     0.228 C 
HETATM   14  O5  UNL     1      25.915 -15.912  -0.120  1.00  0.00    -0.324 OA
HETATM   15  C16 UNL     1      27.164 -16.073   0.232  1.00  0.00     0.347 C 
HETATM   16  O6  UNL     1      27.615 -15.167   1.209  1.00  0.00    -0.314 OA
HETATM   17  C17 UNL     1      27.091 -13.906   1.109  1.00  0.00     0.414 C 
HETATM   18  O10 UNL     1      25.696 -13.854   0.984  1.00  0.00    -0.338 OA
HETATM   19  C21 UNL     1      25.026 -14.201   2.113  1.00  0.00     0.183 C 
HETATM   20  C22 UNL     1      23.849 -15.137   1.938  1.00  0.00     0.076 C 
HETATM   21  C24 UNL     1      23.736 -15.829   0.648  1.00  0.00     0.158 C 
ENDROOT
BRANCH  17  22
HETATM   22  O7  UNL     1      27.708 -13.128   0.135  1.00  0.00    -0.336 OA
BRANCH  22  23
HETATM   23  C18 UNL     1      27.085 -11.904   0.009  1.00  0.00     0.207 C 
BRANCH  23  24
HETATM   24  C19 UNL     1      26.920 -11.402  -1.384  1.00  0.00     0.165 C 
BRANCH  24  25
HETATM   25  O8  UNL     1      27.641 -10.199  -1.475  1.00  0.00    -0.391 OA
ATOM     26  H8  UNL     1      27.127  -9.607  -2.012  1.00  0.00     0.210 HD
ENDBRANCH  24  25
BRANCH  24  27
HETATM   27  C20 UNL     1      25.449 -11.061  -1.588  1.00  0.00     0.198 C 
BRANCH  27  28
HETATM   28  O9  UNL     1      24.723 -11.995  -0.822  1.00  0.00    -0.398 OA
ATOM     29  H9  UNL     1      25.266 -12.196  -0.069  1.00  0.00     0.209 HD
ENDBRANCH  27  28
ENDBRANCH  24  27
ENDBRANCH  23  24
ENDBRANCH  22  23
ENDBRANCH  17  22
BRANCH  20  30
HETATM   30  C23 UNL     1      22.688 -14.321   2.430  1.00  0.00     0.174 C 
BRANCH  30  31
HETATM   31  O11 UNL     1      22.571 -13.051   1.879  1.00  0.00    -0.400 OA
ATOM     32  H11 UNL     1      21.693 -12.794   1.623  1.00  0.00     0.209 HD
ENDBRANCH  30  31
ENDBRANCH  20  30
BRANCH  21  33
HETATM   33  O12 UNL     1      23.832 -14.707  -0.247  1.00  0.00    -0.380 OA
ATOM     34  H12 UNL     1      24.558 -15.012  -0.778  1.00  0.00     0.211 HD
ENDBRANCH  21  33
BRANCH   9  35
HETATM   35  O1  UNL     1      21.398 -15.384   0.317  1.00  0.00    -0.386 OA
ATOM     36  H1  UNL     1      21.715 -14.522   0.077  1.00  0.00     0.210 HD
ENDBRANCH   9  35
BRANCH  11  37
HETATM   37  O3  UNL     1      23.333 -18.486  -2.367  1.00  0.00    -0.364 OA
ATOM     38  H3  UNL     1      23.767 -17.981  -3.045  1.00  0.00     0.213 HD
ENDBRANCH  11  37
BRANCH  10  39
HETATM   39  C11 UNL     1      21.324 -16.858  -2.085  1.00  0.00     0.022 C 
BRANCH  39  40
HETATM   40  C12 UNL     1      20.981 -15.875  -3.166  1.00  0.00     0.100 C 
BRANCH  40  41
HETATM   41  C13 UNL     1      21.323 -16.447  -4.520  1.00  0.00     0.231 C 
HETATM   42  N1  UNL     1      21.047 -15.784  -5.726  1.00  0.00    -0.062 NA
HETATM   43  O2  UNL     1      21.878 -17.568  -4.537  1.00  0.00    -0.277 OA
ENDBRANCH  40  41
ENDBRANCH  39  40
ENDBRANCH  10  39
TORSDOF 14
ENDMDL
