MODEL 1
REMARK VINA RESULT: -9.951495575      0.000      0.000
REMARK  4 active torsions:
REMARK  status: ('A' for Active; 'I' for Inactive)
REMARK    1  A    between atoms: C6_10  and  S1_11 
REMARK    2  A    between atoms: S1_11  and  N4_14 
REMARK    3  A    between atoms: N4_14  and  C7_16 
REMARK    4  A    between atoms: C10_19  and  N5_20 
ROOT
HETATM    1  N1  UNL     1      -0.369 -13.871  26.255  1.00  0.00    -0.190 NA
HETATM    2  C1  UNL     1       0.276 -13.329  25.448  1.00  0.00     0.119 C 
HETATM    3  C2  UNL     1       1.074 -12.652  24.478  1.00  0.00     0.138 A 
HETATM    4  N2  UNL     1       2.312 -12.214  24.808  1.00  0.00    -0.335 N 
ATOM      5  H2  UNL     1       2.647 -12.382  25.756  1.00  0.00     0.168 HD
HETATM    6  C3  UNL     1       3.123 -11.566  23.946  1.00  0.00     0.117 A 
HETATM    7  N3  UNL     1       4.418 -11.116  24.317  1.00  0.00    -0.083 NA
HETATM    8  C4  UNL     1       2.632 -11.357  22.665  1.00  0.00     0.047 A 
HETATM    9  C5  UNL     1       1.366 -11.803  22.318  1.00  0.00     0.032 A 
HETATM   10  C6  UNL     1       0.554 -12.462  23.217  1.00  0.00     0.117 A 
ENDROOT
BRANCH  10  11
HETATM   11  S1  UNL     1      -1.046 -13.012  22.740  1.00  0.00     0.266 S 
HETATM   12  O1  UNL     1      -1.212 -12.851  21.230  1.00  0.00    -0.200 OA
HETATM   13  O2  UNL     1      -1.212 -14.466  23.004  1.00  0.00    -0.200 OA
BRANCH  11  14
HETATM   14  N4  UNL     1      -2.278 -12.135  23.523  1.00  0.00    -0.281 N 
ATOM     15  H4  UNL     1      -2.865 -12.591  24.221  1.00  0.00     0.179 HD
BRANCH  14  16
HETATM   16  C7  UNL     1      -2.486 -10.757  23.199  1.00  0.00     0.042 A 
HETATM   17  C8  UNL     1      -2.349  -9.778  24.188  1.00  0.00     0.032 A 
HETATM   18  C9  UNL     1      -2.544  -8.444  23.920  1.00  0.00     0.033 A 
HETATM   19  C10 UNL     1      -2.885  -8.007  22.659  1.00  0.00     0.055 A 
HETATM   20  C12 UNL     1      -3.023  -8.956  21.678  1.00  0.00     0.033 A 
HETATM   21  C13 UNL     1      -2.827 -10.310  21.942  1.00  0.00     0.032 A 
BRANCH  19  22
HETATM   22  N5  UNL     1      -3.086  -6.639  22.381  1.00  0.00    -0.236 N 
HETATM   23  C11 UNL     1      -3.536  -5.743  23.272  1.00  0.00     0.218 A 
HETATM   24  N6  UNL     1      -3.615  -4.520  22.685  1.00  0.00    -0.280 N 
HETATM   25  N7  UNL     1      -3.210  -4.690  21.437  1.00  0.00    -0.007 NA
ATOM     26  H6  UNL     1      -3.923  -3.649  23.118  1.00  0.00     0.184 HD
HETATM   27  N8  UNL     1      -2.889  -5.979  21.252  1.00  0.00    -0.000 NA
ENDBRANCH  19  22
ENDBRANCH  14  16
ENDBRANCH  11  14
ENDBRANCH  10  11
TORSDOF 4
ENDMDL
MODEL 2
REMARK VINA RESULT: -9.843469588      1.607      2.195
REMARK  4 active torsions:
REMARK  status: ('A' for Active; 'I' for Inactive)
REMARK    1  A    between atoms: C6_10  and  S1_11 
REMARK    2  A    between atoms: S1_11  and  N4_14 
REMARK    3  A    between atoms: N4_14  and  C7_16 
REMARK    4  A    between atoms: C10_19  and  N5_20 
ROOT
HETATM    1  N1  UNL     1       0.059 -13.620  25.730  1.00  0.00    -0.190 NA
HETATM    2  C1  UNL     1       0.754 -13.012  25.017  1.00  0.00     0.119 C 
HETATM    3  C2  UNL     1       1.615 -12.260  24.163  1.00  0.00     0.138 A 
HETATM    4  N2  UNL     1       2.911 -12.072  24.507  1.00  0.00    -0.335 N 
ATOM      5  H2  UNL     1       3.244 -12.480  25.380  1.00  0.00     0.168 HD
HETATM    6  C3  UNL     1       3.785 -11.372  23.752  1.00  0.00     0.117 A 
HETATM    7  N3  UNL     1       5.140 -11.189  24.135  1.00  0.00    -0.083 NA
HETATM    8  C4  UNL     1       3.294 -10.833  22.571  1.00  0.00     0.047 A 
HETATM    9  C5  UNL     1       1.969 -11.021  22.212  1.00  0.00     0.032 A 
HETATM   10  C6  UNL     1       1.095 -11.740  23.000  1.00  0.00     0.117 A 
ENDROOT
BRANCH  10  11
HETATM   11  S1  UNL     1      -0.579 -11.955  22.510  1.00  0.00     0.266 S 
HETATM   12  O1  UNL     1      -0.917 -10.966  21.396  1.00  0.00    -0.200 OA
HETATM   13  O2  UNL     1      -0.794 -13.303  21.921  1.00  0.00    -0.200 OA
BRANCH  11  14
HETATM   14  N4  UNL     1      -1.656 -11.710  23.806  1.00  0.00    -0.281 N 
ATOM     15  H4  UNL     1      -2.038 -12.509  24.312  1.00  0.00     0.179 HD
BRANCH  14  16
HETATM   16  C7  UNL     1      -2.023 -10.380  24.183  1.00  0.00     0.042 A 
HETATM   17  C8  UNL     1      -2.422  -9.461  23.207  1.00  0.00     0.032 A 
HETATM   18  C9  UNL     1      -2.779  -8.172  23.526  1.00  0.00     0.033 A 
HETATM   19  C10 UNL     1      -2.760  -7.723  24.828  1.00  0.00     0.055 A 
HETATM   20  C12 UNL     1      -2.370  -8.613  25.797  1.00  0.00     0.033 A 
HETATM   21  C13 UNL     1      -2.007  -9.920  25.482  1.00  0.00     0.032 A 
BRANCH  19  22
HETATM   22  N5  UNL     1      -3.125  -6.402  25.159  1.00  0.00    -0.236 N 
HETATM   23  C11 UNL     1      -3.146  -5.381  24.288  1.00  0.00     0.218 A 
HETATM   24  N6  UNL     1      -3.542  -4.249  24.926  1.00  0.00    -0.280 N 
HETATM   25  N7  UNL     1      -3.758  -4.598  26.184  1.00  0.00    -0.007 NA
ATOM     26  H6  UNL     1      -3.651  -3.320  24.519  1.00  0.00     0.184 HD
HETATM   27  N8  UNL     1      -3.504  -5.907  26.325  1.00  0.00    -0.000 NA
ENDBRANCH  19  22
ENDBRANCH  14  16
ENDBRANCH  11  14
ENDBRANCH  10  11
TORSDOF 4
ENDMDL
MODEL 3
REMARK VINA RESULT: -9.624543822      2.067      2.471
REMARK  4 active torsions:
REMARK  status: ('A' for Active; 'I' for Inactive)
REMARK    1  A    between atoms: C6_10  and  S1_11 
REMARK    2  A    between atoms: S1_11  and  N4_14 
REMARK    3  A    between atoms: N4_14  and  C7_16 
REMARK    4  A    between atoms: C10_19  and  N5_20 
ROOT
HETATM    1  N1  UNL     1       0.258 -13.550  25.624  1.00  0.00    -0.190 NA
HETATM    2  C1  UNL     1       0.950 -12.934  24.914  1.00  0.00     0.119 C 
HETATM    3  C2  UNL     1       1.807 -12.174  24.064  1.00  0.00     0.138 A 
HETATM    4  N2  UNL     1       3.111 -12.012  24.390  1.00  0.00    -0.335 N 
ATOM      5  H2  UNL     1       3.452 -12.444  25.248  1.00  0.00     0.168 HD
HETATM    6  C3  UNL     1       3.981 -11.307  23.637  1.00  0.00     0.117 A 
HETATM    7  N3  UNL     1       5.345 -11.151  24.002  1.00  0.00    -0.083 NA
HETATM    8  C4  UNL     1       3.480 -10.734  22.477  1.00  0.00     0.047 A 
HETATM    9  C5  UNL     1       2.146 -10.896  22.135  1.00  0.00     0.032 A 
HETATM   10  C6  UNL     1       1.275 -11.620  22.921  1.00  0.00     0.117 A 
ENDROOT
BRANCH  10  11
HETATM   11  S1  UNL     1      -0.410 -11.802  22.454  1.00  0.00     0.266 S 
HETATM   12  O1  UNL     1      -0.799 -10.676  21.497  1.00  0.00    -0.200 OA
HETATM   13  O2  UNL     1      -0.620 -13.061  21.692  1.00  0.00    -0.200 OA
BRANCH  11  14
HETATM   14  N4  UNL     1      -1.450 -11.759  23.802  1.00  0.00    -0.281 N 
ATOM     15  H4  UNL     1      -1.765 -12.628  24.232  1.00  0.00     0.179 HD
BRANCH  14  16
HETATM   16  C7  UNL     1      -1.880 -10.500  24.328  1.00  0.00     0.042 A 
HETATM   17  C8  UNL     1      -1.919 -10.297  25.711  1.00  0.00     0.032 A 
HETATM   18  C9  UNL     1      -2.330  -9.105  26.258  1.00  0.00     0.033 A 
HETATM   19  C10 UNL     1      -2.724  -8.049  25.466  1.00  0.00     0.055 A 
HETATM   20  C12 UNL     1      -2.691  -8.233  24.107  1.00  0.00     0.033 A 
HETATM   21  C13 UNL     1      -2.276  -9.438  23.545  1.00  0.00     0.032 A 
BRANCH  19  22
HETATM   22  N5  UNL     1      -3.146  -6.824  26.024  1.00  0.00    -0.236 N 
HETATM   23  C11 UNL     1      -3.456  -6.648  27.317  1.00  0.00     0.218 A 
HETATM   24  N6  UNL     1      -3.822  -5.356  27.524  1.00  0.00    -0.280 N 
HETATM   25  N7  UNL     1      -3.730  -4.760  26.346  1.00  0.00    -0.007 NA
ATOM     26  H6  UNL     1      -4.110  -4.932  28.406  1.00  0.00     0.184 HD
HETATM   27  N8  UNL     1      -3.319  -5.653  25.434  1.00  0.00    -0.000 NA
ENDBRANCH  19  22
ENDBRANCH  14  16
ENDBRANCH  11  14
ENDBRANCH  10  11
TORSDOF 4
ENDMDL
MODEL 4
REMARK VINA RESULT: -9.598007050      1.712      6.927
REMARK  4 active torsions:
REMARK  status: ('A' for Active; 'I' for Inactive)
REMARK    1  A    between atoms: C6_10  and  S1_11 
REMARK    2  A    between atoms: S1_11  and  N4_14 
REMARK    3  A    between atoms: N4_14  and  C7_16 
REMARK    4  A    between atoms: C10_19  and  N5_20 
ROOT
HETATM    1  N1  UNL     1      -2.108  -9.644  25.957  1.00  0.00    -0.190 NA
HETATM    2  C1  UNL     1      -2.306  -9.380  24.837  1.00  0.00     0.119 C 
HETATM    3  C2  UNL     1      -2.565  -9.045  23.475  1.00  0.00     0.138 A 
HETATM    4  N2  UNL     1      -2.991  -7.800  23.154  1.00  0.00    -0.335 N 
ATOM      5  H2  UNL     1      -3.116  -7.124  23.907  1.00  0.00     0.168 HD
HETATM    6  C3  UNL     1      -3.257  -7.410  21.890  1.00  0.00     0.117 A 
HETATM    7  N3  UNL     1      -3.702  -6.098  21.581  1.00  0.00    -0.083 NA
HETATM    8  C4  UNL     1      -3.073  -8.358  20.894  1.00  0.00     0.047 A 
HETATM    9  C5  UNL     1      -2.638  -9.635  21.213  1.00  0.00     0.032 A 
HETATM   10  C6  UNL     1      -2.373 -10.011  22.513  1.00  0.00     0.117 A 
ENDROOT
BRANCH  10  11
HETATM   11  S1  UNL     1      -1.822 -11.640  22.878  1.00  0.00     0.266 S 
HETATM   12  O1  UNL     1      -3.012 -12.498  23.304  1.00  0.00    -0.200 OA
HETATM   13  O2  UNL     1      -1.271 -12.301  21.666  1.00  0.00    -0.200 OA
BRANCH  11  14
HETATM   14  N4  UNL     1      -0.663 -11.654  24.125  1.00  0.00    -0.281 N 
ATOM     15  H4  UNL     1      -0.956 -11.787  25.093  1.00  0.00     0.179 HD
BRANCH  14  16
HETATM   16  C7  UNL     1       0.721 -11.477  23.811  1.00  0.00     0.042 A 
HETATM   17  C8  UNL     1       1.702 -11.964  24.681  1.00  0.00     0.032 A 
HETATM   18  C9  UNL     1       3.044 -11.813  24.419  1.00  0.00     0.033 A 
HETATM   19  C10 UNL     1       3.486 -11.171  23.284  1.00  0.00     0.055 A 
HETATM   20  C12 UNL     1       2.535 -10.687  22.420  1.00  0.00     0.033 A 
HETATM   21  C13 UNL     1       1.174 -10.837  22.679  1.00  0.00     0.032 A 
BRANCH  19  22
HETATM   22  N5  UNL     1       4.861 -11.013  23.012  1.00  0.00    -0.236 N 
HETATM   23  C11 UNL     1       5.370 -10.786  21.792  1.00  0.00     0.218 A 
HETATM   24  N6  UNL     1       6.723 -10.684  21.878  1.00  0.00    -0.280 N 
HETATM   25  N7  UNL     1       7.019 -10.852  23.156  1.00  0.00    -0.007 NA
ATOM     26  H6  UNL     1       7.376 -10.512  21.113  1.00  0.00     0.184 HD
HETATM   27  N8  UNL     1       5.887 -11.053  23.846  1.00  0.00    -0.000 NA
ENDBRANCH  19  22
ENDBRANCH  14  16
ENDBRANCH  11  14
ENDBRANCH  10  11
TORSDOF 4
ENDMDL
MODEL 5
REMARK VINA RESULT: -9.432343974      1.931      7.023
REMARK  4 active torsions:
REMARK  status: ('A' for Active; 'I' for Inactive)
REMARK    1  A    between atoms: C6_10  and  S1_11 
REMARK    2  A    between atoms: S1_11  and  N4_14 
REMARK    3  A    between atoms: N4_14  and  C7_16 
REMARK    4  A    between atoms: C10_19  and  N5_20 
ROOT
HETATM    1  N1  UNL     1      -2.153  -9.309  26.210  1.00  0.00    -0.190 NA
HETATM    2  C1  UNL     1      -2.346  -9.139  25.072  1.00  0.00     0.119 C 
HETATM    3  C2  UNL     1      -2.599  -8.918  23.685  1.00  0.00     0.138 A 
HETATM    4  N2  UNL     1      -3.080  -7.723  23.268  1.00  0.00    -0.335 N 
ATOM      5  H2  UNL     1      -3.251  -7.000  23.967  1.00  0.00     0.168 HD
HETATM    6  C3  UNL     1      -3.345  -7.441  21.975  1.00  0.00     0.117 A 
HETATM    7  N3  UNL     1      -3.850  -6.179  21.564  1.00  0.00    -0.083 NA
HETATM    8  C4  UNL     1      -3.099  -8.450  21.054  1.00  0.00     0.047 A 
HETATM    9  C5  UNL     1      -2.606  -9.675  21.473  1.00  0.00     0.032 A 
HETATM   10  C6  UNL     1      -2.344  -9.941  22.800  1.00  0.00     0.117 A 
ENDROOT
BRANCH  10  11
HETATM   11  S1  UNL     1      -1.720 -11.509  23.291  1.00  0.00     0.266 S 
HETATM   12  O1  UNL     1      -2.844 -12.333  23.918  1.00  0.00    -0.200 OA
HETATM   13  O2  UNL     1      -1.262 -12.295  22.115  1.00  0.00    -0.200 OA
BRANCH  11  14
HETATM   14  N4  UNL     1      -0.454 -11.363  24.420  1.00  0.00    -0.281 N 
ATOM     15  H4  UNL     1      -0.661 -11.314  25.417  1.00  0.00     0.179 HD
BRANCH  14  16
HETATM   16  C7  UNL     1       0.901 -11.308  23.965  1.00  0.00     0.042 A 
HETATM   17  C8  UNL     1       1.207 -10.682  22.753  1.00  0.00     0.032 A 
HETATM   18  C9  UNL     1       2.495 -10.611  22.277  1.00  0.00     0.033 A 
HETATM   19  C10 UNL     1       3.549 -11.156  22.976  1.00  0.00     0.055 A 
HETATM   20  C12 UNL     1       3.266 -11.774  24.168  1.00  0.00     0.033 A 
HETATM   21  C13 UNL     1       1.963 -11.850  24.656  1.00  0.00     0.032 A 
BRANCH  19  22
HETATM   22  N5  UNL     1       4.872 -11.085  22.491  1.00  0.00    -0.236 N 
HETATM   23  C11 UNL     1       5.224 -10.509  21.332  1.00  0.00     0.218 A 
HETATM   24  N6  UNL     1       6.569 -10.612  21.164  1.00  0.00    -0.280 N 
HETATM   25  N7  UNL     1       7.019 -11.252  22.230  1.00  0.00    -0.007 NA
ATOM     26  H6  UNL     1       7.118 -10.266  20.377  1.00  0.00     0.184 HD
HETATM   27  N8  UNL     1       5.987 -11.540  23.037  1.00  0.00    -0.000 NA
ENDBRANCH  19  22
ENDBRANCH  14  16
ENDBRANCH  11  14
ENDBRANCH  10  11
TORSDOF 4
ENDMDL
