MODEL 1
REMARK VINA RESULT: -9.823741061      0.000      0.000
REMARK  5 active torsions:
REMARK  status: ('A' for Active; 'I' for Inactive)
REMARK       I    between atoms: C1_2  and  N1_3 
REMARK    1  A    between atoms: C1_2  and  C10_23 
REMARK    2  A    between atoms: N1_3  and  N2_5 
REMARK       I    between atoms: N2_5  and  C2_7 
REMARK    3  A    between atoms: C2_7  and  C3_9 
REMARK    4  A    between atoms: C4_15  and  C5_16 
REMARK    5  A    between atoms: C13_26  and  N6_27 
ROOT
HETATM    1  N2  UNL     1       1.441 -12.920  24.117  1.00  0.00    -0.262 N 
ATOM      2  H2  UNL     1       1.399 -13.877  24.467  1.00  0.00     0.190 HD
HETATM    3  C2  UNL     1       0.357 -12.060  24.406  1.00  0.00     0.291 C 
HETATM    4  O2  UNL     1       0.308 -10.881  23.992  1.00  0.00    -0.264 OA
ENDROOT
BRANCH   3   5
HETATM    5  C3  UNL     1      -0.739 -12.563  25.217  1.00  0.00     0.156 A 
HETATM    6  N3  UNL     1      -0.957 -13.913  25.404  1.00  0.00    -0.234 N 
HETATM    7  O3  UNL     1      -2.000 -14.034  26.148  1.00  0.00    -0.156 OA
ATOM      8  H3  UNL     1      -0.395 -14.674  25.023  1.00  0.00     0.197 HD
HETATM    9  N4  UNL     1      -2.472 -12.874  26.456  1.00  0.00    -0.237 N 
HETATM   10  C4  UNL     1      -1.708 -11.882  25.891  1.00  0.00     0.117 A 
ATOM     11  H4  UNL     1      -3.295 -12.715  27.037  1.00  0.00     0.197 HD
BRANCH  10  12
HETATM   12  C5  UNL     1      -1.971 -10.470  26.027  1.00  0.00     0.063 A 
HETATM   13  C6  UNL     1      -2.017  -9.744  27.164  1.00  0.00     0.032 A 
HETATM   14  C7  UNL     1      -2.295  -8.384  27.173  1.00  0.00     0.004 A 
HETATM   15  C8  UNL     1      -2.543  -7.713  25.979  1.00  0.00     0.017 A 
HETATM   16  C9  UNL     1      -2.491  -8.481  24.834  1.00  0.00     0.088 A 
HETATM   17  N5  UNL     1      -2.221  -9.775  24.875  1.00  0.00    -0.364 N 
ATOM     18  H5  UNL     1      -2.196 -10.287  23.993  1.00  0.00     0.165 HD
ENDBRANCH  10  12
ENDBRANCH   3   5
BRANCH   1  19
HETATM   19  N1  UNL     1       2.552 -12.545  23.392  1.00  0.00    -0.261 N 
HETATM   20  C1  UNL     1       3.669 -11.822  23.804  1.00  0.00     0.293 C 
HETATM   21  O1  UNL     1       3.768 -11.412  24.973  1.00  0.00    -0.264 OA
ATOM     22  H1  UNL     1       2.556 -12.838  22.414  1.00  0.00     0.190 HD
BRANCH  20  23
HETATM   23  C10 UNL     1       4.777 -11.512  22.869  1.00  0.00     0.147 A 
HETATM   24  C11 UNL     1       6.110 -11.792  23.114  1.00  0.00     0.048 A 
HETATM   25  C12 UNL     1       6.855 -11.377  22.046  1.00  0.00     0.066 A 
HETATM   26  C13 UNL     1       5.927 -10.839  21.150  1.00  0.00     0.215 A 
HETATM   27  O6  UNL     1       4.739 -10.953  21.697  1.00  0.00    -0.283 OA
BRANCH  26  28
HETATM   28  N6  UNL     1       6.190 -10.270  19.881  1.00  0.00    -0.090 N 
HETATM   29  O4  UNL     1       7.019  -9.360  19.770  1.00  0.00    -0.530 OA
HETATM   30  O5  UNL     1       5.535 -10.723  18.780  1.00  0.00    -0.530 OA
ENDBRANCH  26  28
ENDBRANCH  20  23
ENDBRANCH   1  19
TORSDOF 5
ENDMDL
MODEL 2
REMARK VINA RESULT: -9.359498747      1.126      1.507
REMARK  5 active torsions:
REMARK  status: ('A' for Active; 'I' for Inactive)
REMARK       I    between atoms: C1_2  and  N1_3 
REMARK    1  A    between atoms: C1_2  and  C10_23 
REMARK    2  A    between atoms: N1_3  and  N2_5 
REMARK       I    between atoms: N2_5  and  C2_7 
REMARK    3  A    between atoms: C2_7  and  C3_9 
REMARK    4  A    between atoms: C4_15  and  C5_16 
REMARK    5  A    between atoms: C13_26  and  N6_27 
ROOT
HETATM    1  N2  UNL     1       1.821 -12.416  24.966  1.00  0.00    -0.262 N 
ATOM      2  H2  UNL     1       1.860 -12.190  25.960  1.00  0.00     0.190 HD
HETATM    3  C2  UNL     1       0.612 -12.935  24.450  1.00  0.00     0.291 C 
HETATM    4  O2  UNL     1       0.484 -13.269  23.251  1.00  0.00    -0.264 OA
ENDROOT
BRANCH   3   5
HETATM    5  C3  UNL     1      -0.523 -13.083  25.344  1.00  0.00     0.156 A 
HETATM    6  N3  UNL     1      -0.702 -14.203  26.129  1.00  0.00    -0.234 N 
HETATM    7  O3  UNL     1      -1.796 -14.040  26.788  1.00  0.00    -0.156 OA
ATOM      8  H3  UNL     1      -0.082 -15.011  26.178  1.00  0.00     0.197 HD
HETATM    9  N4  UNL     1      -2.336 -12.907  26.492  1.00  0.00    -0.237 N 
HETATM   10  C4  UNL     1      -1.569 -12.239  25.570  1.00  0.00     0.117 A 
ATOM     11  H4  UNL     1      -3.209 -12.556  26.888  1.00  0.00     0.197 HD
BRANCH  10  12
HETATM   12  C5  UNL     1      -1.898 -10.948  25.015  1.00  0.00     0.063 A 
HETATM   13  C6  UNL     1      -2.073 -10.627  23.716  1.00  0.00     0.032 A 
HETATM   14  C7  UNL     1      -2.376  -9.338  23.297  1.00  0.00     0.004 A 
HETATM   15  C8  UNL     1      -2.511  -8.314  24.229  1.00  0.00     0.017 A 
HETATM   16  C9  UNL     1      -2.325  -8.671  25.549  1.00  0.00     0.088 A 
HETATM   17  N5  UNL     1      -2.039  -9.913  25.900  1.00  0.00    -0.364 N 
ATOM     18  H5  UNL     1      -1.914 -10.113  26.893  1.00  0.00     0.165 HD
ENDBRANCH  10  12
ENDBRANCH   3   5
BRANCH   1  19
HETATM   19  N1  UNL     1       2.953 -12.196  24.210  1.00  0.00    -0.261 N 
HETATM   20  C1  UNL     1       3.189 -11.219  23.244  1.00  0.00     0.293 C 
HETATM   21  O1  UNL     1       2.316 -10.384  22.954  1.00  0.00    -0.264 OA
ATOM     22  H1  UNL     1       3.726 -12.839  24.380  1.00  0.00     0.190 HD
BRANCH  20  23
HETATM   23  C10 UNL     1       4.484 -11.139  22.527  1.00  0.00     0.147 A 
HETATM   24  C11 UNL     1       5.705 -11.494  23.075  1.00  0.00     0.048 A 
HETATM   25  C12 UNL     1       6.684 -11.299  22.141  1.00  0.00     0.066 A 
HETATM   26  C13 UNL     1       6.013 -10.815  21.015  1.00  0.00     0.215 A 
HETATM   27  O6  UNL     1       4.736 -10.749  21.314  1.00  0.00    -0.283 OA
BRANCH  26  28
HETATM   28  N6  UNL     1       6.578 -10.454  19.768  1.00  0.00    -0.090 N 
HETATM   29  O4  UNL     1       7.019  -9.313  19.594  1.00  0.00    -0.530 OA
HETATM   30  O5  UNL     1       6.642 -11.362  18.758  1.00  0.00    -0.530 OA
ENDBRANCH  26  28
ENDBRANCH  20  23
ENDBRANCH   1  19
TORSDOF 5
ENDMDL
MODEL 3
REMARK VINA RESULT: -9.324158467      1.583      2.048
REMARK  5 active torsions:
REMARK  status: ('A' for Active; 'I' for Inactive)
REMARK       I    between atoms: C1_2  and  N1_3 
REMARK    1  A    between atoms: C1_2  and  C10_23 
REMARK    2  A    between atoms: N1_3  and  N2_5 
REMARK       I    between atoms: N2_5  and  C2_7 
REMARK    3  A    between atoms: C2_7  and  C3_9 
REMARK    4  A    between atoms: C4_15  and  C5_16 
REMARK    5  A    between atoms: C13_26  and  N6_27 
ROOT
HETATM    1  N2  UNL     1       1.293 -11.159  23.925  1.00  0.00    -0.262 N 
ATOM      2  H2  UNL     1       0.958 -10.305  24.370  1.00  0.00     0.190 HD
HETATM    3  C2  UNL     1       0.569 -12.353  24.148  1.00  0.00     0.291 C 
HETATM    4  O2  UNL     1       0.925 -13.451  23.668  1.00  0.00    -0.264 OA
ENDROOT
BRANCH   3   5
HETATM    5  C3  UNL     1      -0.633 -12.299  24.962  1.00  0.00     0.156 A 
HETATM    6  N3  UNL     1      -0.779 -13.050  26.110  1.00  0.00    -0.234 N 
HETATM    7  O3  UNL     1      -1.947 -12.795  26.589  1.00  0.00    -0.156 OA
ATOM      8  H3  UNL     1      -0.090 -13.687  26.507  1.00  0.00     0.197 HD
HETATM    9  N4  UNL     1      -2.564 -11.943  25.844  1.00  0.00    -0.237 N 
HETATM   10  C4  UNL     1      -1.777 -11.580  24.779  1.00  0.00     0.117 A 
ATOM     11  H4  UNL     1      -3.504 -11.588  26.020  1.00  0.00     0.197 HD
BRANCH  10  12
HETATM   12  C5  UNL     1      -2.174 -10.654  23.747  1.00  0.00     0.063 A 
HETATM   13  C6  UNL     1      -2.359 -10.910  22.434  1.00  0.00     0.032 A 
HETATM   14  C7  UNL     1      -2.731  -9.927  21.526  1.00  0.00     0.004 A 
HETATM   15  C8  UNL     1      -2.928  -8.618  21.953  1.00  0.00     0.017 A 
HETATM   16  C9  UNL     1      -2.731  -8.387  23.299  1.00  0.00     0.088 A 
HETATM   17  N5  UNL     1      -2.377  -9.355  24.127  1.00  0.00    -0.364 N 
ATOM     18  H5  UNL     1      -2.248  -9.119  25.111  1.00  0.00     0.165 HD
ENDBRANCH  10  12
ENDBRANCH   3   5
BRANCH   1  19
HETATM   19  N1  UNL     1       2.425 -11.078  23.142  1.00  0.00    -0.261 N 
HETATM   20  C1  UNL     1       3.744 -11.392  23.466  1.00  0.00     0.293 C 
HETATM   21  O1  UNL     1       4.040 -11.812  24.598  1.00  0.00    -0.264 OA
ATOM     22  H1  UNL     1       2.277 -10.738  22.191  1.00  0.00     0.190 HD
BRANCH  20  23
HETATM   23  C10 UNL     1       4.839 -11.237  22.480  1.00  0.00     0.147 A 
HETATM   24  C11 UNL     1       6.125 -11.720  22.656  1.00  0.00     0.048 A 
HETATM   25  C12 UNL     1       6.873 -11.403  21.556  1.00  0.00     0.066 A 
HETATM   26  C13 UNL     1       5.995 -10.716  20.713  1.00  0.00     0.215 A 
HETATM   27  O6  UNL     1       4.831 -10.658  21.318  1.00  0.00    -0.283 OA
BRANCH  26  28
HETATM   28  N6  UNL     1       6.280 -10.170  19.438  1.00  0.00    -0.090 N 
HETATM   29  O4  UNL     1       7.019  -9.184  19.337  1.00  0.00    -0.530 OA
HETATM   30  O5  UNL     1       5.747 -10.731  18.320  1.00  0.00    -0.530 OA
ENDBRANCH  26  28
ENDBRANCH  20  23
ENDBRANCH   1  19
TORSDOF 5
ENDMDL
MODEL 4
REMARK VINA RESULT: -9.095644259      3.039      8.284
REMARK  5 active torsions:
REMARK  status: ('A' for Active; 'I' for Inactive)
REMARK       I    between atoms: C1_2  and  N1_3 
REMARK    1  A    between atoms: C1_2  and  C10_23 
REMARK    2  A    between atoms: N1_3  and  N2_5 
REMARK       I    between atoms: N2_5  and  C2_7 
REMARK    3  A    between atoms: C2_7  and  C3_9 
REMARK    4  A    between atoms: C4_15  and  C5_16 
REMARK    5  A    between atoms: C13_26  and  N6_27 
ROOT
HETATM    1  N2  UNL     1       0.258 -11.406  23.425  1.00  0.00    -0.262 N 
ATOM      2  H2  UNL     1      -0.234 -12.299  23.400  1.00  0.00     0.190 HD
HETATM    3  C2  UNL     1       1.478 -11.301  22.719  1.00  0.00     0.291 C 
HETATM    4  O2  UNL     1       2.163 -10.255  22.720  1.00  0.00    -0.264 OA
ENDROOT
BRANCH   3   5
HETATM    5  C3  UNL     1       1.950 -12.449  21.964  1.00  0.00     0.156 A 
HETATM    6  N3  UNL     1       1.089 -13.391  21.441  1.00  0.00    -0.234 N 
HETATM    7  O3  UNL     1       1.807 -14.280  20.848  1.00  0.00    -0.156 OA
ATOM      8  H3  UNL     1       0.072 -13.385  21.512  1.00  0.00     0.197 HD
HETATM    9  N4  UNL     1       3.059 -13.987  20.946  1.00  0.00    -0.237 N 
HETATM   10  C4  UNL     1       3.224 -12.820  21.650  1.00  0.00     0.117 A 
ATOM     11  H4  UNL     1       3.820 -14.543  20.554  1.00  0.00     0.197 HD
BRANCH  10  12
HETATM   12  C5  UNL     1       4.501 -12.221  21.952  1.00  0.00     0.063 A 
HETATM   13  C6  UNL     1       5.167 -12.241  23.126  1.00  0.00     0.032 A 
HETATM   14  C7  UNL     1       6.392 -11.612  23.302  1.00  0.00     0.004 A 
HETATM   15  C8  UNL     1       6.983 -10.924  22.247  1.00  0.00     0.017 A 
HETATM   16  C9  UNL     1       6.279 -10.919  21.060  1.00  0.00     0.088 A 
HETATM   17  N5  UNL     1       5.115 -11.534  20.939  1.00  0.00    -0.364 N 
ATOM     18  H5  UNL     1       4.645 -11.494  20.035  1.00  0.00     0.165 HD
ENDBRANCH  10  12
ENDBRANCH   3   5
BRANCH   1  19
HETATM   19  N1  UNL     1      -0.310 -10.376  24.145  1.00  0.00    -0.261 N 
HETATM   20  C1  UNL     1      -1.600  -9.855  24.068  1.00  0.00     0.293 C 
HETATM   21  O1  UNL     1      -2.428 -10.318  23.265  1.00  0.00    -0.264 OA
ATOM     22  H1  UNL     1       0.302  -9.933  24.831  1.00  0.00     0.190 HD
BRANCH  20  23
HETATM   23  C10 UNL     1      -2.032  -8.733  24.934  1.00  0.00     0.147 A 
HETATM   24  C11 UNL     1      -2.340  -8.854  26.278  1.00  0.00     0.048 A 
HETATM   25  C12 UNL     1      -2.697  -7.627  26.765  1.00  0.00     0.066 A 
HETATM   26  C13 UNL     1      -2.593  -6.765  25.671  1.00  0.00     0.215 A 
HETATM   27  O6  UNL     1      -2.202  -7.479  24.640  1.00  0.00    -0.283 OA
BRANCH  26  28
HETATM   28  N6  UNL     1      -2.856  -5.374  25.647  1.00  0.00    -0.090 N 
HETATM   29  O4  UNL     1      -3.786  -4.907  26.315  1.00  0.00    -0.530 OA
HETATM   30  O5  UNL     1      -2.086  -4.546  24.893  1.00  0.00    -0.530 OA
ENDBRANCH  26  28
ENDBRANCH  20  23
ENDBRANCH   1  19
TORSDOF 5
ENDMDL
MODEL 5
REMARK VINA RESULT: -9.090121992      3.175      8.322
REMARK  5 active torsions:
REMARK  status: ('A' for Active; 'I' for Inactive)
REMARK       I    between atoms: C1_2  and  N1_3 
REMARK    1  A    between atoms: C1_2  and  C10_23 
REMARK    2  A    between atoms: N1_3  and  N2_5 
REMARK       I    between atoms: N2_5  and  C2_7 
REMARK    3  A    between atoms: C2_7  and  C3_9 
REMARK    4  A    between atoms: C4_15  and  C5_16 
REMARK    5  A    between atoms: C13_26  and  N6_27 
ROOT
HETATM    1  N2  UNL     1      -0.101 -11.352  23.174  1.00  0.00    -0.262 N 
ATOM      2  H2  UNL     1      -0.746 -12.106  22.941  1.00  0.00     0.190 HD
HETATM    3  C2  UNL     1       1.230 -11.447  22.707  1.00  0.00     0.291 C 
HETATM    4  O2  UNL     1       2.095 -10.584  22.971  1.00  0.00    -0.264 OA
ENDROOT
BRANCH   3   5
HETATM    5  C3  UNL     1       1.603 -12.587  21.887  1.00  0.00     0.156 A 
HETATM    6  N3  UNL     1       0.669 -13.466  21.378  1.00  0.00    -0.234 N 
HETATM    7  O3  UNL     1       1.309 -14.366  20.717  1.00  0.00    -0.156 OA
ATOM      8  H3  UNL     1      -0.342 -13.412  21.504  1.00  0.00     0.197 HD
HETATM    9  N4  UNL     1       2.577 -14.138  20.756  1.00  0.00    -0.237 N 
HETATM   10  C4  UNL     1       2.837 -13.008  21.492  1.00  0.00     0.117 A 
ATOM     11  H4  UNL     1       3.287 -14.715  20.305  1.00  0.00     0.197 HD
BRANCH  10  12
HETATM   12  C5  UNL     1       4.158 -12.484  21.745  1.00  0.00     0.063 A 
HETATM   13  C6  UNL     1       5.013 -11.935  20.856  1.00  0.00     0.032 A 
HETATM   14  C7  UNL     1       6.272 -11.475  21.216  1.00  0.00     0.004 A 
HETATM   15  C8  UNL     1       6.700 -11.568  22.537  1.00  0.00     0.017 A 
HETATM   16  C9  UNL     1       5.805 -12.134  23.422  1.00  0.00     0.088 A 
HETATM   17  N5  UNL     1       4.615 -12.558  23.033  1.00  0.00    -0.364 N 
ATOM     18  H5  UNL     1       3.999 -12.967  23.736  1.00  0.00     0.165 HD
ENDBRANCH  10  12
ENDBRANCH   3   5
BRANCH   1  19
HETATM   19  N1  UNL     1      -0.582 -10.301  23.927  1.00  0.00    -0.261 N 
HETATM   20  C1  UNL     1      -1.846  -9.714  23.912  1.00  0.00     0.293 C 
HETATM   21  O1  UNL     1      -2.732 -10.126  23.144  1.00  0.00    -0.264 OA
ATOM     22  H1  UNL     1       0.082  -9.896  24.588  1.00  0.00     0.190 HD
BRANCH  20  23
HETATM   23  C10 UNL     1      -2.181  -8.580  24.805  1.00  0.00     0.147 A 
HETATM   24  C11 UNL     1      -2.389  -8.692  26.169  1.00  0.00     0.048 A 
HETATM   25  C12 UNL     1      -2.675  -7.456  26.679  1.00  0.00     0.066 A 
HETATM   26  C13 UNL     1      -2.631  -6.597  25.577  1.00  0.00     0.215 A 
HETATM   27  O6  UNL     1      -2.338  -7.322  24.522  1.00  0.00    -0.283 OA
BRANCH  26  28
HETATM   28  N6  UNL     1      -2.857  -5.199  25.570  1.00  0.00    -0.090 N 
HETATM   29  O4  UNL     1      -3.814  -4.723  26.191  1.00  0.00    -0.530 OA
HETATM   30  O5  UNL     1      -2.021  -4.376  24.883  1.00  0.00    -0.530 OA
ENDBRANCH  26  28
ENDBRANCH  20  23
ENDBRANCH   1  19
TORSDOF 5
ENDMDL
