MODEL 1
REMARK VINA RESULT: -8.385672296      0.000      0.000
REMARK  8 active torsions:
REMARK  status: ('A' for Active; 'I' for Inactive)
REMARK    1  A    between atoms: O1_2  and  C2_3 
REMARK    2  A    between atoms: C2_3  and  C3_5 
REMARK    3  A    between atoms: C5_7  and  O3_8 
REMARK    4  A    between atoms: C6_10  and  C7_11 
REMARK    5  A    between atoms: N1_12  and  O4_14 
REMARK    6  A    between atoms: C9_17  and  O5_18 
REMARK    7  A    between atoms: O5_18  and  C10_19 
REMARK    8  A    between atoms: C10_19  and  C12_24 
ROOT
HETATM    1  C10 UNL     1      -1.103 -11.355  23.380  1.00  0.00     0.185 C 
HETATM    2  N2  UNL     1      -1.748 -12.166  22.570  1.00  0.00    -0.272 N 
ATOM      3  H2  UNL     1      -2.760 -12.055  22.510  1.00  0.00     0.180 HD
HETATM    4  C11 UNL     1      -1.196 -13.115  21.826  1.00  0.00     0.183 C 
HETATM    5  N3  UNL     1      -0.739 -13.951  21.180  1.00  0.00    -0.172 NA
ENDROOT
BRANCH   1   6
HETATM    6  O5  UNL     1      -1.999 -10.536  23.953  1.00  0.00    -0.290 OA
BRANCH   6   7
HETATM    7  C9  UNL     1      -2.327  -9.398  24.359  1.00  0.00     0.095 A 
HETATM    8  C3  UNL     1      -2.312  -9.119  25.777  1.00  0.00     0.076 A 
HETATM    9  C4  UNL     1      -2.656  -7.891  26.181  1.00  0.00     0.057 A 
HETATM   10  C5  UNL     1      -3.039  -6.827  25.338  1.00  0.00     0.078 A 
HETATM   11  C6  UNL     1      -3.053  -7.076  23.995  1.00  0.00     0.017 A 
HETATM   12  C8  UNL     1      -2.697  -8.358  23.548  1.00  0.00     0.054 A 
BRANCH   8  13
HETATM   13  C2  UNL     1      -1.915 -10.203  26.688  1.00  0.00     0.295 C 
HETATM   14  O2  UNL     1      -0.748 -10.092  27.207  1.00  0.00    -0.259 OA
BRANCH  13  15
HETATM   15  O1  UNL     1      -2.661 -11.269  27.009  1.00  0.00    -0.322 OA
HETATM   16  C1  UNL     1      -2.502 -12.601  26.567  1.00  0.00     0.213 C 
ENDBRANCH  13  15
ENDBRANCH   8  13
BRANCH  10  17
HETATM   17  O3  UNL     1      -3.360  -5.645  25.919  1.00  0.00    -0.360 OA
ATOM     18  H3  UNL     1      -3.025  -4.850  25.521  1.00  0.00     0.217 HD
ENDBRANCH  10  17
BRANCH  11  19
HETATM   19  C7  UNL     1      -3.408  -6.088  23.002  1.00  0.00     0.128 C 
HETATM   20  N1  UNL     1      -3.057  -4.873  23.119  1.00  0.00    -0.280 N 
ATOM     21  H1  UNL     1      -2.523  -4.598  23.943  1.00  0.00     0.193 HD
BRANCH  20  22
HETATM   22  O4  UNL     1      -3.365  -3.912  22.183  1.00  0.00    -0.290 OA
ATOM     23  H4  UNL     1      -2.704  -3.452  21.679  1.00  0.00     0.244 HD
ENDBRANCH  20  22
ENDBRANCH  11  19
ENDBRANCH   6   7
ENDBRANCH   1   6
BRANCH   1  24
HETATM   24  C12 UNL     1       0.330 -11.403  23.566  1.00  0.00     0.100 A 
HETATM   25  C13 UNL     1       0.858 -12.060  24.672  1.00  0.00     0.121 A 
HETATM   26  N4  UNL     1       2.157 -12.173  24.886  1.00  0.00    -0.372 N 
HETATM   27  C14 UNL     1       3.068 -11.651  24.028  1.00  0.00     0.104 A 
ATOM     28  H4  UNL     1       2.483 -12.665  25.717  1.00  0.00     0.164 HD
HETATM   29  C15 UNL     1       2.540 -11.004  22.944  1.00  0.00     0.105 A 
HETATM   30  N5  UNL     1       1.218 -10.875  22.704  1.00  0.00    -0.360 N 
ATOM     31  H5  UNL     1       0.894 -10.381  21.873  1.00  0.00     0.165 HD
ENDBRANCH   1  24
TORSDOF 8
ENDMDL
MODEL 2
REMARK VINA RESULT: -8.279216887      1.471      2.024
REMARK  8 active torsions:
REMARK  status: ('A' for Active; 'I' for Inactive)
REMARK    1  A    between atoms: O1_2  and  C2_3 
REMARK    2  A    between atoms: C2_3  and  C3_5 
REMARK    3  A    between atoms: C5_7  and  O3_8 
REMARK    4  A    between atoms: C6_10  and  C7_11 
REMARK    5  A    between atoms: N1_12  and  O4_14 
REMARK    6  A    between atoms: C9_17  and  O5_18 
REMARK    7  A    between atoms: O5_18  and  C10_19 
REMARK    8  A    between atoms: C10_19  and  C12_24 
ROOT
HETATM    1  C10 UNL     1      -0.882 -11.454  23.388  1.00  0.00     0.185 C 
HETATM    2  N2  UNL     1      -1.578 -12.299  22.660  1.00  0.00    -0.272 N 
ATOM      3  H2  UNL     1      -2.594 -12.244  22.724  1.00  0.00     0.180 HD
HETATM    4  C11 UNL     1      -1.070 -13.218  21.848  1.00  0.00     0.183 C 
HETATM    5  N3  UNL     1      -0.651 -14.029  21.146  1.00  0.00    -0.172 NA
ENDROOT
BRANCH   1   6
HETATM    6  O5  UNL     1      -1.745 -10.684  24.072  1.00  0.00    -0.290 OA
BRANCH   6   7
HETATM    7  C9  UNL     1      -1.983  -9.885  25.006  1.00  0.00     0.095 A 
HETATM    8  C3  UNL     1      -2.126 -10.390  26.352  1.00  0.00     0.076 A 
HETATM    9  C4  UNL     1      -2.370  -9.512  27.332  1.00  0.00     0.057 A 
HETATM   10  C5  UNL     1      -2.502  -8.118  27.170  1.00  0.00     0.078 A 
HETATM   11  C6  UNL     1      -2.366  -7.626  25.903  1.00  0.00     0.017 A 
HETATM   12  C8  UNL     1      -2.111  -8.529  24.859  1.00  0.00     0.054 A 
BRANCH   8  13
HETATM   13  C2  UNL     1      -1.990 -11.840  26.562  1.00  0.00     0.295 C 
HETATM   14  O2  UNL     1      -3.056 -12.450  26.928  1.00  0.00    -0.259 OA
BRANCH  13  15
HETATM   15  O1  UNL     1      -0.867 -12.552  26.402  1.00  0.00    -0.322 OA
HETATM   16  C1  UNL     1      -0.743 -13.950  26.246  1.00  0.00     0.213 C 
ENDBRANCH  13  15
ENDBRANCH   8  13
BRANCH  10  17
HETATM   17  O3  UNL     1      -2.753  -7.375  28.276  1.00  0.00    -0.360 OA
ATOM     18  H3  UNL     1      -2.971  -6.459  28.153  1.00  0.00     0.217 HD
ENDBRANCH  10  17
BRANCH  11  19
HETATM   19  C7  UNL     1      -2.460  -6.222  25.575  1.00  0.00     0.128 C 
HETATM   20  N1  UNL     1      -3.495  -5.543  25.857  1.00  0.00    -0.280 N 
ATOM     21  H1  UNL     1      -4.276  -6.012  26.315  1.00  0.00     0.193 HD
BRANCH  20  22
HETATM   22  O4  UNL     1      -3.609  -4.201  25.573  1.00  0.00    -0.290 OA
ATOM     23  H4  UNL     1      -4.437  -3.735  25.602  1.00  0.00     0.244 HD
ENDBRANCH  20  22
ENDBRANCH  11  19
ENDBRANCH   6   7
ENDBRANCH   1   6
BRANCH   1  24
HETATM   24  C12 UNL     1       0.562 -11.423  23.397  1.00  0.00     0.100 A 
HETATM   25  C13 UNL     1       1.246 -10.867  22.323  1.00  0.00     0.121 A 
HETATM   26  N4  UNL     1       2.564 -10.774  22.281  1.00  0.00    -0.372 N 
HETATM   27  C14 UNL     1       3.341 -11.219  23.298  1.00  0.00     0.104 A 
ATOM     28  H4  UNL     1       3.007 -10.356  21.464  1.00  0.00     0.164 HD
HETATM   29  C15 UNL     1       2.661 -11.770  24.351  1.00  0.00     0.105 A 
HETATM   30  N5  UNL     1       1.317 -11.875  24.416  1.00  0.00    -0.360 N 
ATOM     31  H5  UNL     1       0.876 -12.295  25.234  1.00  0.00     0.165 HD
ENDBRANCH   1  24
TORSDOF 8
ENDMDL
MODEL 3
REMARK VINA RESULT: -7.836703647      2.532      4.352
REMARK  8 active torsions:
REMARK  status: ('A' for Active; 'I' for Inactive)
REMARK    1  A    between atoms: O1_2  and  C2_3 
REMARK    2  A    between atoms: C2_3  and  C3_5 
REMARK    3  A    between atoms: C5_7  and  O3_8 
REMARK    4  A    between atoms: C6_10  and  C7_11 
REMARK    5  A    between atoms: N1_12  and  O4_14 
REMARK    6  A    between atoms: C9_17  and  O5_18 
REMARK    7  A    between atoms: O5_18  and  C10_19 
REMARK    8  A    between atoms: C10_19  and  C12_24 
ROOT
HETATM    1  C10 UNL     1      -1.935 -10.268  25.563  1.00  0.00     0.185 C 
HETATM    2  N2  UNL     1      -2.275  -9.391  26.482  1.00  0.00    -0.272 N 
ATOM      3  H2  UNL     1      -2.493  -8.446  26.166  1.00  0.00     0.180 HD
HETATM    4  C11 UNL     1      -2.359  -9.630  27.784  1.00  0.00     0.183 C 
HETATM    5  N3  UNL     1      -2.428  -9.813  28.919  1.00  0.00    -0.172 NA
ENDROOT
BRANCH   1   6
HETATM    6  O5  UNL     1      -1.966  -9.655  24.368  1.00  0.00    -0.290 OA
BRANCH   6   7
HETATM    7  C9  UNL     1      -2.475  -8.816  23.591  1.00  0.00     0.095 A 
HETATM    8  C3  UNL     1      -2.767  -9.196  22.228  1.00  0.00     0.076 A 
HETATM    9  C4  UNL     1      -3.320  -8.281  21.423  1.00  0.00     0.057 A 
HETATM   10  C5  UNL     1      -3.650  -6.960  21.788  1.00  0.00     0.078 A 
HETATM   11  C6  UNL     1      -3.384  -6.588  23.075  1.00  0.00     0.017 A 
HETATM   12  C8  UNL     1      -2.802  -7.531  23.937  1.00  0.00     0.054 A 
BRANCH   8  13
HETATM   13  C2  UNL     1      -2.439 -10.568  21.811  1.00  0.00     0.295 C 
HETATM   14  O2  UNL     1      -1.539 -10.673  20.904  1.00  0.00    -0.259 OA
BRANCH  13  15
HETATM   15  O1  UNL     1      -2.995 -11.687  22.296  1.00  0.00    -0.322 OA
HETATM   16  C1  UNL     1      -2.356 -12.910  22.598  1.00  0.00     0.213 C 
ENDBRANCH  13  15
ENDBRANCH   8  13
BRANCH  10  17
HETATM   17  O3  UNL     1      -4.204  -6.163  20.841  1.00  0.00    -0.360 OA
ATOM     18  H3  UNL     1      -4.112  -5.224  20.944  1.00  0.00     0.217 HD
ENDBRANCH  10  17
BRANCH  11  19
HETATM   19  C7  UNL     1      -3.676  -5.276  23.606  1.00  0.00     0.128 C 
HETATM   20  N1  UNL     1      -3.408  -4.972  24.809  1.00  0.00    -0.280 N 
ATOM     21  H1  UNL     1      -2.988  -5.682  25.409  1.00  0.00     0.193 HD
BRANCH  20  22
HETATM   22  O4  UNL     1      -3.658  -3.726  25.339  1.00  0.00    -0.290 OA
ATOM     23  H4  UNL     1      -4.455  -3.517  25.813  1.00  0.00     0.244 HD
ENDBRANCH  20  22
ENDBRANCH  11  19
ENDBRANCH   6   7
ENDBRANCH   1   6
BRANCH   1  24
HETATM   24  C12 UNL     1      -1.597 -11.639  25.868  1.00  0.00     0.100 A 
HETATM   25  C13 UNL     1      -0.276 -12.060  25.771  1.00  0.00     0.121 A 
HETATM   26  N4  UNL     1       0.109 -13.289  26.069  1.00  0.00    -0.372 N 
HETATM   27  C14 UNL     1      -0.771 -14.227  26.497  1.00  0.00     0.104 A 
ATOM     28  H4  UNL     1       1.094 -13.538  25.976  1.00  0.00     0.164 HD
HETATM   29  C15 UNL     1      -2.070 -13.805  26.587  1.00  0.00     0.105 A 
HETATM   30  N5  UNL     1      -2.487 -12.557  26.288  1.00  0.00    -0.360 N 
ATOM     31  H5  UNL     1      -3.472 -12.311  26.381  1.00  0.00     0.165 HD
ENDBRANCH   1  24
TORSDOF 8
ENDMDL
MODEL 4
REMARK VINA RESULT: -7.658654893      1.198      1.364
REMARK  8 active torsions:
REMARK  status: ('A' for Active; 'I' for Inactive)
REMARK    1  A    between atoms: O1_2  and  C2_3 
REMARK    2  A    between atoms: C2_3  and  C3_5 
REMARK    3  A    between atoms: C5_7  and  O3_8 
REMARK    4  A    between atoms: C6_10  and  C7_11 
REMARK    5  A    between atoms: N1_12  and  O4_14 
REMARK    6  A    between atoms: C9_17  and  O5_18 
REMARK    7  A    between atoms: O5_18  and  C10_19 
REMARK    8  A    between atoms: C10_19  and  C12_24 
ROOT
HETATM    1  C10 UNL     1      -1.131 -11.961  22.861  1.00  0.00     0.185 C 
HETATM    2  N2  UNL     1      -1.852 -12.827  22.185  1.00  0.00    -0.272 N 
ATOM      3  H2  UNL     1      -2.864 -12.790  22.311  1.00  0.00     0.180 HD
HETATM    4  C11 UNL     1      -1.377 -13.745  21.353  1.00  0.00     0.183 C 
HETATM    5  N3  UNL     1      -0.985 -14.555  20.634  1.00  0.00    -0.172 NA
ENDROOT
BRANCH   1   6
HETATM    6  O5  UNL     1      -1.965 -11.200  23.589  1.00  0.00    -0.290 OA
BRANCH   6   7
HETATM    7  C9  UNL     1      -2.197 -10.151  24.232  1.00  0.00     0.095 A 
HETATM    8  C3  UNL     1      -2.139 -10.176  25.675  1.00  0.00     0.076 A 
HETATM    9  C4  UNL     1      -2.380  -9.038  26.336  1.00  0.00     0.057 A 
HETATM   10  C5  UNL     1      -2.691  -7.797  25.744  1.00  0.00     0.078 A 
HETATM   11  C6  UNL     1      -2.745  -7.757  24.379  1.00  0.00     0.017 A 
HETATM   12  C8  UNL     1      -2.497  -8.940  23.666  1.00  0.00     0.054 A 
BRANCH   8  13
HETATM   13  C2  UNL     1      -1.814 -11.453  26.329  1.00  0.00     0.295 C 
HETATM   14  O2  UNL     1      -2.747 -11.965  27.044  1.00  0.00    -0.259 OA
BRANCH  13  15
HETATM   15  O1  UNL     1      -0.647 -12.106  26.235  1.00  0.00    -0.322 OA
HETATM   16  C1  UNL     1      -0.431 -13.501  26.268  1.00  0.00     0.213 C 
ENDBRANCH  13  15
ENDBRANCH   8  13
BRANCH  10  17
HETATM   17  O3  UNL     1      -2.911  -6.742  26.568  1.00  0.00    -0.360 OA
ATOM     18  H3  UNL     1      -2.163  -6.213  26.818  1.00  0.00     0.217 HD
ENDBRANCH  10  17
BRANCH  11  19
HETATM   19  C7  UNL     1      -3.037  -6.560  23.625  1.00  0.00     0.128 C 
HETATM   20  N1  UNL     1      -3.969  -5.769  23.968  1.00  0.00    -0.280 N 
ATOM     21  H1  UNL     1      -4.526  -6.001  24.790  1.00  0.00     0.193 HD
BRANCH  20  22
HETATM   22  O4  UNL     1      -4.260  -4.613  23.280  1.00  0.00    -0.290 OA
ATOM     23  H4  UNL     1      -4.829  -4.594  22.519  1.00  0.00     0.244 HD
ENDBRANCH  20  22
ENDBRANCH  11  19
ENDBRANCH   6   7
ENDBRANCH   1   6
BRANCH   1  24
HETATM   24  C12 UNL     1       0.311 -11.903  22.783  1.00  0.00     0.100 A 
HETATM   25  C13 UNL     1       1.068 -12.988  23.210  1.00  0.00     0.121 A 
HETATM   26  N4  UNL     1       2.387 -13.017  23.134  1.00  0.00    -0.372 N 
HETATM   27  C14 UNL     1       3.093 -11.978  22.625  1.00  0.00     0.104 A 
ATOM     28  H4  UNL     1       2.886 -13.841  23.466  1.00  0.00     0.164 HD
HETATM   29  C15 UNL     1       2.341 -10.913  22.209  1.00  0.00     0.105 A 
HETATM   30  N5  UNL     1       0.995 -10.860  22.277  1.00  0.00    -0.360 N 
ATOM     31  H5  UNL     1       0.498 -10.033  21.945  1.00  0.00     0.165 HD
ENDBRANCH   1  24
TORSDOF 8
ENDMDL
MODEL 5
REMARK VINA RESULT: -7.597299510      1.717      3.017
REMARK  8 active torsions:
REMARK  status: ('A' for Active; 'I' for Inactive)
REMARK    1  A    between atoms: O1_2  and  C2_3 
REMARK    2  A    between atoms: C2_3  and  C3_5 
REMARK    3  A    between atoms: C5_7  and  O3_8 
REMARK    4  A    between atoms: C6_10  and  C7_11 
REMARK    5  A    between atoms: N1_12  and  O4_14 
REMARK    6  A    between atoms: C9_17  and  O5_18 
REMARK    7  A    between atoms: O5_18  and  C10_19 
REMARK    8  A    between atoms: C10_19  and  C12_24 
ROOT
HETATM    1  C10 UNL     1      -0.920 -11.302  23.423  1.00  0.00     0.185 C 
HETATM    2  N2  UNL     1       0.193 -10.620  23.267  1.00  0.00    -0.272 N 
ATOM      3  H2  UNL     1       0.223  -9.680  23.660  1.00  0.00     0.180 HD
HETATM    4  C11 UNL     1       1.281 -11.051  22.641  1.00  0.00     0.183 C 
HETATM    5  N3  UNL     1       2.232 -11.402  22.094  1.00  0.00    -0.172 NA
ENDROOT
BRANCH   1   6
HETATM    6  O5  UNL     1      -1.787 -10.536  24.107  1.00  0.00    -0.290 OA
BRANCH   6   7
HETATM    7  C9  UNL     1      -2.026  -9.727  25.032  1.00  0.00     0.095 A 
HETATM    8  C3  UNL     1      -2.172 -10.216  26.383  1.00  0.00     0.076 A 
HETATM    9  C4  UNL     1      -2.417  -9.327  27.352  1.00  0.00     0.057 A 
HETATM   10  C5  UNL     1      -2.548  -7.934  27.173  1.00  0.00     0.078 A 
HETATM   11  C6  UNL     1      -2.408  -7.457  25.901  1.00  0.00     0.017 A 
HETATM   12  C8  UNL     1      -2.152  -8.372  24.868  1.00  0.00     0.054 A 
BRANCH   8  13
HETATM   13  C2  UNL     1      -2.038 -11.663  26.609  1.00  0.00     0.295 C 
HETATM   14  O2  UNL     1      -0.861 -12.145  26.445  1.00  0.00    -0.259 OA
BRANCH  13  15
HETATM   15  O1  UNL     1      -3.027 -12.495  26.965  1.00  0.00    -0.322 OA
HETATM   16  C1  UNL     1      -3.297 -13.785  26.459  1.00  0.00     0.213 C 
ENDBRANCH  13  15
ENDBRANCH   8  13
BRANCH  10  17
HETATM   17  O3  UNL     1      -2.800  -7.178  28.271  1.00  0.00    -0.360 OA
ATOM     18  H3  UNL     1      -2.917  -6.244  28.147  1.00  0.00     0.217 HD
ENDBRANCH  10  17
BRANCH  11  19
HETATM   19  C7  UNL     1      -2.500  -6.057  25.557  1.00  0.00     0.128 C 
HETATM   20  N1  UNL     1      -3.546  -5.381  25.803  1.00  0.00    -0.280 N 
ATOM     21  H1  UNL     1      -4.338  -5.850  26.242  1.00  0.00     0.193 HD
BRANCH  20  22
HETATM   22  O4  UNL     1      -3.659  -4.042  25.502  1.00  0.00    -0.290 OA
ATOM     23  H4  UNL     1      -3.444  -3.684  24.649  1.00  0.00     0.244 HD
ENDBRANCH  20  22
ENDBRANCH  11  19
ENDBRANCH   6   7
ENDBRANCH   1   6
BRANCH   1  24
HETATM   24  C12 UNL     1      -1.102 -12.642  22.915  1.00  0.00     0.100 A 
HETATM   25  C13 UNL     1      -1.270 -12.844  21.550  1.00  0.00     0.121 A 
HETATM   26  N4  UNL     1      -1.405 -14.044  21.013  1.00  0.00    -0.372 N 
HETATM   27  C14 UNL     1      -1.387 -15.168  21.770  1.00  0.00     0.104 A 
ATOM     28  H4  UNL     1      -1.527 -14.127  20.004  1.00  0.00     0.164 HD
HETATM   29  C15 UNL     1      -1.226 -14.961  23.113  1.00  0.00     0.105 A 
HETATM   30  N5  UNL     1      -1.085 -13.747  23.684  1.00  0.00    -0.360 N 
ATOM     31  H5  UNL     1      -0.966 -13.666  24.694  1.00  0.00     0.165 HD
ENDBRANCH   1  24
TORSDOF 8
ENDMDL
