MODEL 1
REMARK VINA RESULT: -8.373705084      0.000      0.000
REMARK  6 active torsions:
REMARK  status: ('A' for Active; 'I' for Inactive)
REMARK    1  A    between atoms: N1_1  and  S1_4 
REMARK    2  A    between atoms: S1_4  and  C1_7 
REMARK    3  A    between atoms: C2_8  and  N2_9 
REMARK    4  A    between atoms: C4_13  and  N3_14 
REMARK    5  A    between atoms: C5_17  and  C6_18 
REMARK    6  A    between atoms: C10_26  and  O7_27 
ROOT
HETATM    1  C1  UNL     1      -3.019  -7.192  23.788  1.00  0.00     0.146 A 
HETATM    2  C2  UNL     1      -3.259  -7.354  22.456  1.00  0.00     0.131 A 
HETATM    3  C3  UNL     1      -2.920  -8.608  21.903  1.00  0.00     0.074 A 
HETATM    4  C4  UNL     1      -2.375  -9.632  22.644  1.00  0.00     0.119 A 
HETATM    5  C5  UNL     1      -2.131  -9.468  23.988  1.00  0.00     0.043 A 
HETATM    6  C10 UNL     1      -2.457  -8.250  24.541  1.00  0.00     0.105 A 
ENDROOT
BRANCH   5   7
HETATM    7  C6  UNL     1      -1.547 -10.519  24.844  1.00  0.00    -0.002 A 
HETATM    8  C7  UNL     1      -2.376 -11.300  25.623  1.00  0.00     0.032 A 
HETATM    9  C8  UNL     1      -1.867 -12.282  26.439  1.00  0.00     0.108 A 
HETATM   10  N4  UNL     1      -0.554 -12.465  26.462  1.00  0.00    -0.312 N 
HETATM   11  N5  UNL     1       0.249 -11.722  25.721  1.00  0.00    -0.311 N 
ATOM     12  H4  UNL     1      -0.159 -13.190  27.060  1.00  0.00     0.186 HD
HETATM   13  C9  UNL     1      -0.197 -10.743  24.901  1.00  0.00     0.119 A 
ATOM     14  H5  UNL     1       1.253 -11.895  25.770  1.00  0.00     0.186 HD
ENDBRANCH   5   7
BRANCH   4  15
HETATM   15  N3  UNL     1      -2.061 -10.890  22.033  1.00  0.00    -0.115 N 
HETATM   16  O5  UNL     1      -1.044 -11.003  21.341  1.00  0.00    -0.532 OA
HETATM   17  O6  UNL     1      -2.859 -11.981  22.193  1.00  0.00    -0.532 OA
ENDBRANCH   4  15
BRANCH   6  18
HETATM   18  O7  UNL     1      -2.227  -8.056  25.883  1.00  0.00    -0.358 OA
ATOM     19  H7  UNL     1      -2.230  -8.810  26.461  1.00  0.00     0.217 HD
ENDBRANCH   6  18
BRANCH   1  20
HETATM   20  S1  UNL     1      -3.428  -5.732  24.638  1.00  0.00     0.262 S 
HETATM   21  O1  UNL     1      -4.055  -5.965  25.960  1.00  0.00    -0.201 OA
HETATM   22  O2  UNL     1      -2.118  -4.931  24.898  1.00  0.00    -0.201 OA
BRANCH  20  23
HETATM   23  N1  UNL     1      -4.386  -4.644  23.717  1.00  0.00    -0.324 N 
ATOM     24  H12 UNL     1      -5.385  -4.497  23.861  1.00  0.00     0.169 HD
ATOM     25  H11 UNL     1      -3.809  -4.177  23.018  1.00  0.00     0.169 HD
ENDBRANCH  20  23
ENDBRANCH   1  20
BRANCH   2  26
HETATM   26  N2  UNL     1      -3.756  -6.351  21.599  1.00  0.00    -0.114 N 
HETATM   27  O3  UNL     1      -4.988  -6.503  21.253  1.00  0.00    -0.532 OA
HETATM   28  O4  UNL     1      -3.182  -5.263  21.068  1.00  0.00    -0.532 OA
ENDBRANCH   2  26
TORSDOF 6
ENDMDL
MODEL 2
REMARK VINA RESULT: -8.199034006      1.964      3.641
REMARK  6 active torsions:
REMARK  status: ('A' for Active; 'I' for Inactive)
REMARK    1  A    between atoms: N1_1  and  S1_4 
REMARK    2  A    between atoms: S1_4  and  C1_7 
REMARK    3  A    between atoms: C2_8  and  N2_9 
REMARK    4  A    between atoms: C4_13  and  N3_14 
REMARK    5  A    between atoms: C5_17  and  C6_18 
REMARK    6  A    between atoms: C10_26  and  O7_27 
ROOT
HETATM    1  C1  UNL     1      -3.073  -7.364  23.375  1.00  0.00     0.146 A 
HETATM    2  C2  UNL     1      -2.947  -7.115  24.708  1.00  0.00     0.131 A 
HETATM    3  C3  UNL     1      -2.453  -8.173  25.503  1.00  0.00     0.074 A 
HETATM    4  C4  UNL     1      -2.109  -9.401  24.987  1.00  0.00     0.119 A 
HETATM    5  C5  UNL     1      -2.238  -9.653  23.640  1.00  0.00     0.043 A 
HETATM    6  C10 UNL     1      -2.718  -8.631  22.853  1.00  0.00     0.105 A 
ENDROOT
BRANCH   5   7
HETATM    7  C6  UNL     1      -1.892 -10.946  23.017  1.00  0.00    -0.002 A 
HETATM    8  C7  UNL     1      -2.790 -11.991  23.076  1.00  0.00     0.032 A 
HETATM    9  C8  UNL     1      -2.499 -13.211  22.514  1.00  0.00     0.108 A 
HETATM   10  N4  UNL     1      -1.330 -13.364  21.909  1.00  0.00    -0.312 N 
HETATM   11  N5  UNL     1      -0.462 -12.370  21.847  1.00  0.00    -0.311 N 
ATOM     12  H4  UNL     1      -1.097 -14.262  21.485  1.00  0.00     0.186 HD
HETATM   13  C9  UNL     1      -0.696 -11.149  22.382  1.00  0.00     0.119 A 
ATOM     14  H5  UNL     1       0.427 -12.530  21.373  1.00  0.00     0.186 HD
ENDBRANCH   5   7
BRANCH   4  15
HETATM   15  N3  UNL     1      -1.602 -10.436  25.838  1.00  0.00    -0.115 N 
HETATM   16  O5  UNL     1      -2.369 -11.053  26.584  1.00  0.00    -0.532 OA
HETATM   17  O6  UNL     1      -0.282 -10.767  25.851  1.00  0.00    -0.532 OA
ENDBRANCH   4  15
BRANCH   6  18
HETATM   18  O7  UNL     1      -2.857  -8.851  21.502  1.00  0.00    -0.358 OA
ATOM     19  H7  UNL     1      -2.757  -8.117  20.908  1.00  0.00     0.217 HD
ENDBRANCH   6  18
BRANCH   1  20
HETATM   20  S1  UNL     1      -3.613  -6.156  22.247  1.00  0.00     0.262 S 
HETATM   21  O1  UNL     1      -2.650  -5.885  21.155  1.00  0.00    -0.201 OA
HETATM   22  O2  UNL     1      -4.923  -6.660  21.575  1.00  0.00    -0.201 OA
BRANCH  20  23
HETATM   23  N1  UNL     1      -4.087  -4.682  22.992  1.00  0.00    -0.324 N 
ATOM     24  H12 UNL     1      -3.592  -3.798  22.878  1.00  0.00     0.169 HD
ATOM     25  H11 UNL     1      -4.925  -4.829  23.554  1.00  0.00     0.169 HD
ENDBRANCH  20  23
ENDBRANCH   1  20
BRANCH   2  26
HETATM   26  N2  UNL     1      -3.328  -5.916  25.344  1.00  0.00    -0.114 N 
HETATM   27  O3  UNL     1      -2.403  -5.020  25.397  1.00  0.00    -0.532 OA
HETATM   28  O4  UNL     1      -4.479  -5.530  25.913  1.00  0.00    -0.532 OA
ENDBRANCH   2  26
TORSDOF 6
ENDMDL
MODEL 3
REMARK VINA RESULT: -7.934964841      1.949      3.660
REMARK  6 active torsions:
REMARK  status: ('A' for Active; 'I' for Inactive)
REMARK    1  A    between atoms: N1_1  and  S1_4 
REMARK    2  A    between atoms: S1_4  and  C1_7 
REMARK    3  A    between atoms: C2_8  and  N2_9 
REMARK    4  A    between atoms: C4_13  and  N3_14 
REMARK    5  A    between atoms: C5_17  and  C6_18 
REMARK    6  A    between atoms: C10_26  and  O7_27 
ROOT
HETATM    1  C1  UNL     1      -3.126  -7.198  23.640  1.00  0.00     0.146 A 
HETATM    2  C2  UNL     1      -3.043  -6.984  24.983  1.00  0.00     0.131 A 
HETATM    3  C3  UNL     1      -2.552  -8.055  25.763  1.00  0.00     0.074 A 
HETATM    4  C4  UNL     1      -2.171  -9.262  25.223  1.00  0.00     0.119 A 
HETATM    5  C5  UNL     1      -2.257  -9.478  23.867  1.00  0.00     0.043 A 
HETATM    6  C10 UNL     1      -2.733  -8.443  23.095  1.00  0.00     0.105 A 
ENDROOT
BRANCH   5   7
HETATM    7  C6  UNL     1      -1.870 -10.746  23.218  1.00  0.00    -0.002 A 
HETATM    8  C7  UNL     1      -0.589 -10.895  22.726  1.00  0.00     0.032 A 
HETATM    9  C8  UNL     1      -0.196 -12.058  22.108  1.00  0.00     0.108 A 
HETATM   10  N4  UNL     1      -1.078 -13.041  21.995  1.00  0.00    -0.312 N 
HETATM   11  N5  UNL     1      -2.306 -12.909  22.461  1.00  0.00    -0.311 N 
ATOM     12  H4  UNL     1      -0.803 -13.912  21.541  1.00  0.00     0.186 HD
HETATM   13  C9  UNL     1      -2.747 -11.788  23.078  1.00  0.00     0.119 A 
ATOM     14  H5  UNL     1      -2.954 -13.690  22.352  1.00  0.00     0.186 HD
ENDBRANCH   5   7
BRANCH   4  15
HETATM   15  N3  UNL     1      -1.670 -10.311  26.060  1.00  0.00    -0.115 N 
HETATM   16  O5  UNL     1      -0.453 -10.446  26.221  1.00  0.00    -0.532 OA
HETATM   17  O6  UNL     1      -2.506 -11.179  26.694  1.00  0.00    -0.532 OA
ENDBRANCH   4  15
BRANCH   6  18
HETATM   18  O7  UNL     1      -2.829  -8.628  21.735  1.00  0.00    -0.358 OA
ATOM     19  H7  UNL     1      -3.623  -8.353  21.292  1.00  0.00     0.217 HD
ENDBRANCH   6  18
BRANCH   1  20
HETATM   20  S1  UNL     1      -3.654  -5.967  22.531  1.00  0.00     0.262 S 
HETATM   21  O1  UNL     1      -2.576  -5.441  21.664  1.00  0.00    -0.201 OA
HETATM   22  O2  UNL     1      -4.728  -6.585  21.587  1.00  0.00    -0.201 OA
BRANCH  20  23
HETATM   23  N1  UNL     1      -4.487  -4.670  23.288  1.00  0.00    -0.324 N 
ATOM     24  H12 UNL     1      -5.033  -4.761  24.144  1.00  0.00     0.169 HD
ATOM     25  H11 UNL     1      -4.351  -3.810  22.756  1.00  0.00     0.169 HD
ENDBRANCH  20  23
ENDBRANCH   1  20
BRANCH   2  26
HETATM   26  N2  UNL     1      -3.463  -5.810  25.640  1.00  0.00    -0.114 N 
HETATM   27  O3  UNL     1      -4.574  -5.923  26.283  1.00  0.00    -0.532 OA
HETATM   28  O4  UNL     1      -2.923  -4.585  25.719  1.00  0.00    -0.532 OA
ENDBRANCH   2  26
TORSDOF 6
ENDMDL
MODEL 4
REMARK VINA RESULT: -7.683472132      1.649      2.131
REMARK  6 active torsions:
REMARK  status: ('A' for Active; 'I' for Inactive)
REMARK    1  A    between atoms: N1_1  and  S1_4 
REMARK    2  A    between atoms: S1_4  and  C1_7 
REMARK    3  A    between atoms: C2_8  and  N2_9 
REMARK    4  A    between atoms: C4_13  and  N3_14 
REMARK    5  A    between atoms: C5_17  and  C6_18 
REMARK    6  A    between atoms: C10_26  and  O7_27 
ROOT
HETATM    1  C1  UNL     1      -2.781  -7.789  25.838  1.00  0.00     0.146 A 
HETATM    2  C2  UNL     1      -2.990  -7.357  24.563  1.00  0.00     0.131 A 
HETATM    3  C3  UNL     1      -2.673  -8.266  23.529  1.00  0.00     0.074 A 
HETATM    4  C4  UNL     1      -2.177  -9.528  23.767  1.00  0.00     0.119 A 
HETATM    5  C5  UNL     1      -1.964  -9.963  25.054  1.00  0.00     0.043 A 
HETATM    6  C10 UNL     1      -2.269  -9.088  26.071  1.00  0.00     0.105 A 
ENDROOT
BRANCH   5   7
HETATM    7  C6  UNL     1      -1.433 -11.300  25.384  1.00  0.00    -0.002 A 
HETATM    8  C7  UNL     1      -2.307 -12.336  25.639  1.00  0.00     0.032 A 
HETATM    9  C8  UNL     1      -1.849 -13.591  25.959  1.00  0.00     0.108 A 
HETATM   10  N4  UNL     1      -0.540 -13.789  26.016  1.00  0.00    -0.312 N 
HETATM   11  N5  UNL     1       0.307 -12.804  25.775  1.00  0.00    -0.311 N 
ATOM     12  H4  UNL     1      -0.181 -14.715  26.250  1.00  0.00     0.186 HD
HETATM   13  C9  UNL     1      -0.088 -11.550  25.456  1.00  0.00     0.119 A 
ATOM     14  H5  UNL     1       1.307 -12.999  25.831  1.00  0.00     0.186 HD
ENDBRANCH   5   7
BRANCH   4  15
HETATM   15  N3  UNL     1      -1.883 -10.414  22.679  1.00  0.00    -0.115 N 
HETATM   16  O5  UNL     1      -0.770 -10.388  22.146  1.00  0.00    -0.532 OA
HETATM   17  O6  UNL     1      -2.805 -11.298  22.209  1.00  0.00    -0.532 OA
ENDBRANCH   4  15
BRANCH   6  18
HETATM   18  O7  UNL     1      -2.068  -9.494  27.371  1.00  0.00    -0.358 OA
ATOM     19  H7  UNL     1      -1.416 -10.163  27.543  1.00  0.00     0.217 HD
ENDBRANCH   6  18
BRANCH   1  20
HETATM   20  S1  UNL     1      -3.170  -6.819  27.227  1.00  0.00     0.262 S 
HETATM   21  O1  UNL     1      -4.174  -7.435  28.124  1.00  0.00    -0.201 OA
HETATM   22  O2  UNL     1      -1.875  -6.624  28.069  1.00  0.00    -0.201 OA
BRANCH  20  23
HETATM   23  N1  UNL     1      -3.638  -5.213  26.836  1.00  0.00    -0.324 N 
ATOM     24  H12 UNL     1      -4.572  -4.835  26.990  1.00  0.00     0.169 HD
ATOM     25  H11 UNL     1      -2.848  -4.708  26.433  1.00  0.00     0.169 HD
ENDBRANCH  20  23
ENDBRANCH   1  20
BRANCH   2  26
HETATM   26  N2  UNL     1      -3.436  -6.067  24.212  1.00  0.00    -0.114 N 
HETATM   27  O3  UNL     1      -2.497  -5.195  24.073  1.00  0.00    -0.532 OA
HETATM   28  O4  UNL     1      -4.662  -5.570  23.998  1.00  0.00    -0.532 OA
ENDBRANCH   2  26
TORSDOF 6
ENDMDL
MODEL 5
REMARK VINA RESULT: -7.679439267      2.273      3.996
REMARK  6 active torsions:
REMARK  status: ('A' for Active; 'I' for Inactive)
REMARK    1  A    between atoms: N1_1  and  S1_4 
REMARK    2  A    between atoms: S1_4  and  C1_7 
REMARK    3  A    between atoms: C2_8  and  N2_9 
REMARK    4  A    between atoms: C4_13  and  N3_14 
REMARK    5  A    between atoms: C5_17  and  C6_18 
REMARK    6  A    between atoms: C10_26  and  O7_27 
ROOT
HETATM    1  C1  UNL     1      -2.927  -7.109  24.947  1.00  0.00     0.146 A 
HETATM    2  C2  UNL     1      -2.858  -7.273  26.298  1.00  0.00     0.131 A 
HETATM    3  C3  UNL     1      -2.448  -8.544  26.758  1.00  0.00     0.074 A 
HETATM    4  C4  UNL     1      -2.129  -9.581  25.912  1.00  0.00     0.119 A 
HETATM    5  C5  UNL     1      -2.200  -9.415  24.548  1.00  0.00     0.043 A 
HETATM    6  C10 UNL     1      -2.598  -8.182  24.085  1.00  0.00     0.105 A 
ENDROOT
BRANCH   5   7
HETATM    7  C6  UNL     1      -1.876 -10.482  23.580  1.00  0.00    -0.002 A 
HETATM    8  C7  UNL     1      -0.602 -10.560  23.055  1.00  0.00     0.032 A 
HETATM    9  C8  UNL     1      -0.267 -11.533  22.145  1.00  0.00     0.108 A 
HETATM   10  N4  UNL     1      -1.198 -12.403  21.780  1.00  0.00    -0.312 N 
HETATM   11  N5  UNL     1      -2.421 -12.337  22.276  1.00  0.00    -0.311 N 
ATOM     12  H4  UNL     1      -0.966 -13.134  21.107  1.00  0.00     0.186 HD
HETATM   13  C9  UNL     1      -2.806 -11.401  23.173  1.00  0.00     0.119 A 
ATOM     14  H5  UNL     1      -3.107 -13.026  21.967  1.00  0.00     0.186 HD
ENDBRANCH   5   7
BRANCH   4  15
HETATM   15  N3  UNL     1      -1.708 -10.847  26.434  1.00  0.00    -0.115 N 
HETATM   16  O5  UNL     1      -0.511 -11.148  26.434  1.00  0.00    -0.532 OA
HETATM   17  O6  UNL     1      -2.601 -11.744  26.937  1.00  0.00    -0.532 OA
ENDBRANCH   4  15
BRANCH   6  18
HETATM   18  O7  UNL     1      -2.677  -7.984  22.725  1.00  0.00    -0.358 OA
ATOM     19  H7  UNL     1      -3.505  -7.702  22.353  1.00  0.00     0.217 HD
ENDBRANCH   6  18
BRANCH   1  20
HETATM   20  S1  UNL     1      -3.359  -5.593  24.213  1.00  0.00     0.262 S 
HETATM   21  O1  UNL     1      -3.075  -5.530  22.761  1.00  0.00    -0.201 OA
HETATM   22  O2  UNL     1      -4.893  -5.386  24.379  1.00  0.00    -0.201 OA
BRANCH  20  23
HETATM   23  N1  UNL     1      -2.683  -4.227  25.004  1.00  0.00    -0.324 N 
ATOM     24  H12 UNL     1      -2.364  -3.386  24.523  1.00  0.00     0.169 HD
ATOM     25  H11 UNL     1      -2.651  -4.387  26.011  1.00  0.00     0.169 HD
ENDBRANCH  20  23
ENDBRANCH   1  20
BRANCH   2  26
HETATM   26  N2  UNL     1      -3.221  -6.297  27.248  1.00  0.00    -0.114 N 
HETATM   27  O3  UNL     1      -2.541  -6.334  28.342  1.00  0.00    -0.532 OA
HETATM   28  O4  UNL     1      -4.152  -5.332  27.230  1.00  0.00    -0.532 OA
ENDBRANCH   2  26
TORSDOF 6
ENDMDL
