MODEL 1
REMARK VINA RESULT: -9.901253765      0.000      0.000
REMARK  11 active torsions:
REMARK  status: ('A' for Active; 'I' for Inactive)
REMARK    1  A    between atoms: C5_6  and  N2_7 
REMARK    2  A    between atoms: N2_7  and  C6_9 
REMARK    3  A    between atoms: C6_9  and  C7_10 
REMARK    4  A    between atoms: C7_10  and  C8_11 
REMARK    5  A    between atoms: C8_11  and  C9_12 
REMARK    6  A    between atoms: C9_12  and  C10_13 
REMARK    7  A    between atoms: C10_13  and  C11_14 
REMARK    8  A    between atoms: C11_14  and  O1_15 
REMARK    9  A    between atoms: O1_15  and  C12_16 
REMARK   10  A    between atoms: C15_19  and  C16_20 
REMARK   11  A    between atoms: C16_20  and  C17_21 
ROOT
HETATM    1  O1  UNL     1       6.732 -66.653  62.797  1.00  0.00    -0.351 OA
ENDROOT
BRANCH   1   2
HETATM    2  C11 UNL     1       7.473 -65.549  63.134  1.00  0.00     0.175 C 
BRANCH   2   3
HETATM    3  C10 UNL     1       7.162 -64.270  62.437  1.00  0.00     0.027 C 
BRANCH   3   4
HETATM    4  C9  UNL     1       8.415 -63.662  61.835  1.00  0.00     0.002 C 
BRANCH   4   5
HETATM    5  C8  UNL     1       8.179 -63.141  60.448  1.00  0.00     0.002 C 
BRANCH   5   6
HETATM    6  C7  UNL     1       7.918 -64.216  59.444  1.00  0.00     0.020 C 
BRANCH   6   7
HETATM    7  C6  UNL     1       6.724 -63.927  58.573  1.00  0.00     0.119 C 
BRANCH   7   8
HETATM    8  N2  UNL     1       5.966 -65.072  58.189  1.00  0.00    -0.390 N 
ATOM      9  H2  UNL     1       5.214 -65.354  58.818  1.00  0.00     0.159 HD
BRANCH   8  10
HETATM   10  C5  UNL     1       6.149 -65.857  57.027  1.00  0.00     0.029 A 
HETATM   11  C4  UNL     1       5.701 -65.463  55.780  1.00  0.00     0.029 A 
HETATM   12  C3  UNL     1       5.917 -66.255  54.671  1.00  0.00     0.004 A 
HETATM   13  C2  UNL     1       6.582 -67.457  54.768  1.00  0.00     0.027 A 
HETATM   14  C1  UNL     1       7.039 -67.872  56.003  1.00  0.00     0.048 A 
HETATM   15  N1  UNL     1       7.729 -69.088  56.197  1.00  0.00    -0.102 NA
HETATM   16  C24 UNL     1       6.811 -67.055  57.112  1.00  0.00     0.055 A 
ENDBRANCH   8  10
ENDBRANCH   7   8
ENDBRANCH   6   7
ENDBRANCH   5   6
ENDBRANCH   4   5
ENDBRANCH   3   4
ENDBRANCH   2   3
ENDBRANCH   1   2
BRANCH   1  17
HETATM   17  C12 UNL     1       7.054 -67.779  62.103  1.00  0.00     0.068 A 
HETATM   18  C13 UNL     1       7.030 -69.031  62.638  1.00  0.00     0.037 A 
HETATM   19  C14 UNL     1       7.379 -70.111  61.850  1.00  0.00     0.010 A 
HETATM   20  C15 UNL     1       7.757 -70.007  60.530  1.00  0.00    -0.058 A 
HETATM   21  C22 UNL     1       7.773 -68.727  60.009  1.00  0.00     0.010 A 
HETATM   22  C23 UNL     1       7.437 -67.637  60.750  1.00  0.00     0.037 A 
BRANCH  20  23
HETATM   23  C16 UNL     1       8.131 -71.147  59.680  1.00  0.00     0.043 C 
BRANCH  23  24
HETATM   24  C17 UNL     1       8.287 -72.422  60.484  1.00  0.00    -0.007 C 
HETATM   25  C18 UNL     1       9.691 -72.948  60.440  1.00  0.00     0.032 C 
HETATM   26  C19 UNL     1       9.742 -74.449  60.682  1.00  0.00     0.232 C 
HETATM   27  N3  UNL     1       8.679 -74.829  61.568  1.00  0.00    -0.075 N 
HETATM   28  C20 UNL     1       7.373 -74.617  61.014  1.00  0.00     0.232 C 
ATOM     29  H32 UNL     1       8.790 -75.796  61.872  1.00  0.00     0.277 HD
ATOM     30  H31 UNL     1       8.772 -74.358  62.468  1.00  0.00     0.277 HD
HETATM   31  C21 UNL     1       7.368 -73.504  59.986  1.00  0.00     0.032 C 
ENDBRANCH  23  24
ENDBRANCH  20  23
ENDBRANCH   1  17
TORSDOF 11
ENDMDL
MODEL 2
REMARK VINA RESULT: -9.895541541      2.200      5.028
REMARK  11 active torsions:
REMARK  status: ('A' for Active; 'I' for Inactive)
REMARK    1  A    between atoms: C5_6  and  N2_7 
REMARK    2  A    between atoms: N2_7  and  C6_9 
REMARK    3  A    between atoms: C6_9  and  C7_10 
REMARK    4  A    between atoms: C7_10  and  C8_11 
REMARK    5  A    between atoms: C8_11  and  C9_12 
REMARK    6  A    between atoms: C9_12  and  C10_13 
REMARK    7  A    between atoms: C10_13  and  C11_14 
REMARK    8  A    between atoms: C11_14  and  O1_15 
REMARK    9  A    between atoms: O1_15  and  C12_16 
REMARK   10  A    between atoms: C15_19  and  C16_20 
REMARK   11  A    between atoms: C16_20  and  C17_21 
ROOT
HETATM    1  O1  UNL     1       7.091 -67.812  55.181  1.00  0.00    -0.351 OA
ENDROOT
BRANCH   1   2
HETATM    2  C11 UNL     1       6.009 -67.089  54.749  1.00  0.00     0.175 C 
BRANCH   2   3
HETATM    3  C10 UNL     1       6.058 -65.610  54.912  1.00  0.00     0.027 C 
BRANCH   3   4
HETATM    4  C9  UNL     1       5.079 -65.149  55.976  1.00  0.00     0.002 C 
BRANCH   4   5
HETATM    5  C8  UNL     1       5.778 -64.624  57.196  1.00  0.00     0.002 C 
BRANCH   5   6
HETATM    6  C7  UNL     1       7.256 -64.485  57.023  1.00  0.00     0.020 C 
BRANCH   6   7
HETATM    7  C6  UNL     1       7.978 -64.256  58.324  1.00  0.00     0.119 C 
BRANCH   7   8
HETATM    8  N2  UNL     1       8.169 -65.423  59.121  1.00  0.00    -0.390 N 
ATOM      9  H2  UNL     1       8.586 -66.230  58.657  1.00  0.00     0.159 HD
BRANCH   8  10
HETATM   10  C5  UNL     1       7.841 -65.577  60.489  1.00  0.00     0.029 A 
HETATM   11  C4  UNL     1       7.740 -64.508  61.359  1.00  0.00     0.029 A 
HETATM   12  C3  UNL     1       7.400 -64.706  62.682  1.00  0.00     0.004 A 
HETATM   13  C2  UNL     1       7.154 -65.966  63.176  1.00  0.00     0.027 A 
HETATM   14  C1  UNL     1       7.249 -67.050  62.327  1.00  0.00     0.048 A 
HETATM   15  N1  UNL     1       7.014 -68.378  62.747  1.00  0.00    -0.102 NA
HETATM   16  C24 UNL     1       7.593 -66.828  60.992  1.00  0.00     0.055 A 
ENDBRANCH   8  10
ENDBRANCH   7   8
ENDBRANCH   6   7
ENDBRANCH   5   6
ENDBRANCH   4   5
ENDBRANCH   3   4
ENDBRANCH   2   3
ENDBRANCH   1   2
BRANCH   1  17
HETATM   17  C12 UNL     1       7.299 -68.538  56.315  1.00  0.00     0.068 A 
HETATM   18  C13 UNL     1       8.164 -69.587  56.395  1.00  0.00     0.037 A 
HETATM   19  C14 UNL     1       8.300 -70.262  57.592  1.00  0.00     0.010 A 
HETATM   20  C15 UNL     1       7.607 -69.941  58.737  1.00  0.00    -0.058 A 
HETATM   21  C22 UNL     1       6.736 -68.873  58.632  1.00  0.00     0.010 A 
HETATM   22  C23 UNL     1       6.572 -68.180  57.473  1.00  0.00     0.037 A 
BRANCH  20  23
HETATM   23  C16 UNL     1       7.741 -70.651  60.018  1.00  0.00     0.043 C 
BRANCH  23  24
HETATM   24  C17 UNL     1       8.205 -72.081  59.823  1.00  0.00    -0.007 C 
HETATM   25  C18 UNL     1       7.055 -73.041  59.756  1.00  0.00     0.032 C 
HETATM   26  C19 UNL     1       7.465 -74.446  60.172  1.00  0.00     0.232 C 
HETATM   27  N3  UNL     1       8.835 -74.674  59.811  1.00  0.00    -0.075 N 
HETATM   28  C20 UNL     1       9.757 -73.827  60.512  1.00  0.00     0.232 C 
ATOM     29  H32 UNL     1       9.082 -75.656  59.932  1.00  0.00     0.277 HD
ATOM     30  H31 UNL     1       8.962 -74.591  58.802  1.00  0.00     0.277 HD
HETATM   31  C21 UNL     1       9.116 -72.521  60.936  1.00  0.00     0.032 C 
ENDBRANCH  23  24
ENDBRANCH  20  23
ENDBRANCH   1  17
TORSDOF 11
ENDMDL
MODEL 3
REMARK VINA RESULT: -9.880526260      3.165      5.385
REMARK  11 active torsions:
REMARK  status: ('A' for Active; 'I' for Inactive)
REMARK    1  A    between atoms: C5_6  and  N2_7 
REMARK    2  A    between atoms: N2_7  and  C6_9 
REMARK    3  A    between atoms: C6_9  and  C7_10 
REMARK    4  A    between atoms: C7_10  and  C8_11 
REMARK    5  A    between atoms: C8_11  and  C9_12 
REMARK    6  A    between atoms: C9_12  and  C10_13 
REMARK    7  A    between atoms: C10_13  and  C11_14 
REMARK    8  A    between atoms: C11_14  and  O1_15 
REMARK    9  A    between atoms: O1_15  and  C12_16 
REMARK   10  A    between atoms: C15_19  and  C16_20 
REMARK   11  A    between atoms: C16_20  and  C17_21 
ROOT
HETATM    1  O1  UNL     1       5.997 -67.726  55.595  1.00  0.00    -0.351 OA
ENDROOT
BRANCH   1   2
HETATM    2  C11 UNL     1       6.447 -67.068  54.480  1.00  0.00     0.175 C 
BRANCH   2   3
HETATM    3  C10 UNL     1       6.739 -65.613  54.608  1.00  0.00     0.027 C 
BRANCH   3   4
HETATM    4  C9  UNL     1       5.551 -64.870  55.189  1.00  0.00     0.002 C 
BRANCH   4   5
HETATM    5  C8  UNL     1       5.239 -63.617  54.425  1.00  0.00     0.002 C 
BRANCH   5   6
HETATM    6  C7  UNL     1       6.456 -62.873  53.979  1.00  0.00     0.020 C 
BRANCH   6   7
HETATM    7  C6  UNL     1       6.636 -61.562  54.698  1.00  0.00     0.119 C 
BRANCH   7   8
HETATM    8  N2  UNL     1       6.977 -61.673  56.078  1.00  0.00    -0.390 N 
ATOM      9  H2  UNL     1       6.228 -61.504  56.749  1.00  0.00     0.159 HD
BRANCH   8  10
HETATM   10  C5  UNL     1       8.248 -61.992  56.612  1.00  0.00     0.029 A 
HETATM   11  C4  UNL     1       8.685 -63.294  56.775  1.00  0.00     0.029 A 
HETATM   12  C3  UNL     1       9.940 -63.556  57.286  1.00  0.00     0.004 A 
HETATM   13  C2  UNL     1      10.792 -62.538  57.648  1.00  0.00     0.027 A 
HETATM   14  C1  UNL     1      10.378 -61.230  57.495  1.00  0.00     0.048 A 
HETATM   15  N1  UNL     1      11.184 -60.123  57.841  1.00  0.00    -0.102 NA
HETATM   16  C24 UNL     1       9.105 -60.986  56.976  1.00  0.00     0.055 A 
ENDBRANCH   8  10
ENDBRANCH   7   8
ENDBRANCH   6   7
ENDBRANCH   5   6
ENDBRANCH   4   5
ENDBRANCH   3   4
ENDBRANCH   2   3
ENDBRANCH   1   2
BRANCH   1  17
HETATM   17  C12 UNL     1       6.659 -68.405  56.573  1.00  0.00     0.068 A 
HETATM   18  C13 UNL     1       7.627 -69.331  56.329  1.00  0.00     0.037 A 
HETATM   19  C14 UNL     1       8.237 -69.968  57.392  1.00  0.00     0.010 A 
HETATM   20  C15 UNL     1       7.928 -69.726  58.712  1.00  0.00    -0.058 A 
HETATM   21  C22 UNL     1       6.943 -68.782  58.934  1.00  0.00     0.010 A 
HETATM   22  C23 UNL     1       6.317 -68.131  57.917  1.00  0.00     0.037 A 
BRANCH  20  23
HETATM   23  C16 UNL     1       8.568 -70.397  59.853  1.00  0.00     0.043 C 
BRANCH  23  24
HETATM   24  C17 UNL     1       8.564 -71.904  59.694  1.00  0.00    -0.007 C 
HETATM   25  C18 UNL     1       7.174 -72.466  59.684  1.00  0.00     0.032 C 
HETATM   26  C19 UNL     1       7.147 -73.918  60.137  1.00  0.00     0.232 C 
HETATM   27  N3  UNL     1       8.368 -74.565  59.752  1.00  0.00    -0.075 N 
HETATM   28  C20 UNL     1       9.527 -74.026  60.404  1.00  0.00     0.232 C 
ATOM     29  H32 UNL     1       8.306 -75.572  59.900  1.00  0.00     0.277 HD
ATOM     30  H31 UNL     1       8.483 -74.549  58.739  1.00  0.00     0.277 HD
HETATM   31  C21 UNL     1       9.332 -72.577  60.800  1.00  0.00     0.032 C 
ENDBRANCH  23  24
ENDBRANCH  20  23
ENDBRANCH   1  17
TORSDOF 11
ENDMDL
MODEL 4
REMARK VINA RESULT: -9.830053961      2.602      4.916
REMARK  11 active torsions:
REMARK  status: ('A' for Active; 'I' for Inactive)
REMARK    1  A    between atoms: C5_6  and  N2_7 
REMARK    2  A    between atoms: N2_7  and  C6_9 
REMARK    3  A    between atoms: C6_9  and  C7_10 
REMARK    4  A    between atoms: C7_10  and  C8_11 
REMARK    5  A    between atoms: C8_11  and  C9_12 
REMARK    6  A    between atoms: C9_12  and  C10_13 
REMARK    7  A    between atoms: C10_13  and  C11_14 
REMARK    8  A    between atoms: C11_14  and  O1_15 
REMARK    9  A    between atoms: O1_15  and  C12_16 
REMARK   10  A    between atoms: C15_19  and  C16_20 
REMARK   11  A    between atoms: C16_20  and  C17_21 
ROOT
HETATM    1  O1  UNL     1       5.976 -67.741  55.661  1.00  0.00    -0.351 OA
ENDROOT
BRANCH   1   2
HETATM    2  C11 UNL     1       6.399 -67.184  54.482  1.00  0.00     0.175 C 
BRANCH   2   3
HETATM    3  C10 UNL     1       6.845 -65.764  54.511  1.00  0.00     0.027 C 
BRANCH   3   4
HETATM    4  C9  UNL     1       5.796 -64.879  55.158  1.00  0.00     0.002 C 
BRANCH   4   5
HETATM    5  C8  UNL     1       5.738 -63.519  54.528  1.00  0.00     0.002 C 
BRANCH   5   6
HETATM    6  C7  UNL     1       7.069 -62.846  54.438  1.00  0.00     0.020 C 
BRANCH   6   7
HETATM    7  C6  UNL     1       7.410 -62.056  55.673  1.00  0.00     0.119 C 
BRANCH   7   8
HETATM    8  N2  UNL     1       8.502 -62.567  56.434  1.00  0.00    -0.390 N 
ATOM      9  H2  UNL     1       9.436 -62.279  56.142  1.00  0.00     0.159 HD
BRANCH   8  10
HETATM   10  C5  UNL     1       8.425 -63.431  57.551  1.00  0.00     0.029 A 
HETATM   11  C4  UNL     1       8.810 -64.757  57.500  1.00  0.00     0.029 A 
HETATM   12  C3  UNL     1       8.732 -65.557  58.621  1.00  0.00     0.004 A 
HETATM   13  C2  UNL     1       8.270 -65.065  59.821  1.00  0.00     0.027 A 
HETATM   14  C1  UNL     1       7.879 -63.743  59.898  1.00  0.00     0.048 A 
HETATM   15  N1  UNL     1       7.394 -63.154  61.085  1.00  0.00    -0.102 NA
HETATM   16  C24 UNL     1       7.967 -62.951  58.752  1.00  0.00     0.055 A 
ENDBRANCH   8  10
ENDBRANCH   7   8
ENDBRANCH   6   7
ENDBRANCH   5   6
ENDBRANCH   4   5
ENDBRANCH   3   4
ENDBRANCH   2   3
ENDBRANCH   1   2
BRANCH   1  17
HETATM   17  C12 UNL     1       6.647 -68.422  56.632  1.00  0.00     0.068 A 
HETATM   18  C13 UNL     1       7.628 -69.332  56.378  1.00  0.00     0.037 A 
HETATM   19  C14 UNL     1       8.246 -69.973  57.434  1.00  0.00     0.010 A 
HETATM   20  C15 UNL     1       7.933 -69.749  58.756  1.00  0.00    -0.058 A 
HETATM   21  C22 UNL     1       6.936 -68.822  58.989  1.00  0.00     0.010 A 
HETATM   22  C23 UNL     1       6.301 -68.168  57.978  1.00  0.00     0.037 A 
BRANCH  20  23
HETATM   23  C16 UNL     1       8.582 -70.424  59.890  1.00  0.00     0.043 C 
BRANCH  23  24
HETATM   24  C17 UNL     1       8.587 -71.931  59.721  1.00  0.00    -0.007 C 
HETATM   25  C18 UNL     1       7.200 -72.499  59.692  1.00  0.00     0.032 C 
HETATM   26  C19 UNL     1       7.174 -73.954  60.135  1.00  0.00     0.232 C 
HETATM   27  N3  UNL     1       8.403 -74.592  59.758  1.00  0.00    -0.075 N 
HETATM   28  C20 UNL     1       9.552 -74.053  60.426  1.00  0.00     0.232 C 
ATOM     29  H32 UNL     1       8.344 -75.601  59.898  1.00  0.00     0.277 HD
ATOM     30  H31 UNL     1       8.528 -74.569  58.746  1.00  0.00     0.277 HD
HETATM   31  C21 UNL     1       9.346 -72.607  60.830  1.00  0.00     0.032 C 
ENDBRANCH  23  24
ENDBRANCH  20  23
ENDBRANCH   1  17
TORSDOF 11
ENDMDL
MODEL 5
REMARK VINA RESULT: -9.825499746      2.249      4.371
REMARK  11 active torsions:
REMARK  status: ('A' for Active; 'I' for Inactive)
REMARK    1  A    between atoms: C5_6  and  N2_7 
REMARK    2  A    between atoms: N2_7  and  C6_9 
REMARK    3  A    between atoms: C6_9  and  C7_10 
REMARK    4  A    between atoms: C7_10  and  C8_11 
REMARK    5  A    between atoms: C8_11  and  C9_12 
REMARK    6  A    between atoms: C9_12  and  C10_13 
REMARK    7  A    between atoms: C10_13  and  C11_14 
REMARK    8  A    between atoms: C11_14  and  O1_15 
REMARK    9  A    between atoms: O1_15  and  C12_16 
REMARK   10  A    between atoms: C15_19  and  C16_20 
REMARK   11  A    between atoms: C16_20  and  C17_21 
ROOT
HETATM    1  O1  UNL     1       6.302 -67.809  59.117  1.00  0.00    -0.351 OA
ENDROOT
BRANCH   1   2
HETATM    2  C11 UNL     1       6.196 -67.123  57.934  1.00  0.00     0.175 C 
BRANCH   2   3
HETATM    3  C10 UNL     1       5.772 -67.886  56.729  1.00  0.00     0.027 C 
BRANCH   3   4
HETATM    4  C9  UNL     1       6.850 -67.857  55.661  1.00  0.00     0.002 C 
BRANCH   4   5
HETATM    5  C8  UNL     1       6.367 -67.223  54.390  1.00  0.00     0.002 C 
BRANCH   5   6
HETATM    6  C7  UNL     1       6.112 -65.756  54.515  1.00  0.00     0.020 C 
BRANCH   6   7
HETATM    7  C6  UNL     1       7.363 -64.967  54.797  1.00  0.00     0.119 C 
BRANCH   7   8
HETATM    8  N2  UNL     1       7.351 -64.234  56.020  1.00  0.00    -0.390 N 
ATOM      9  H2  UNL     1       6.469 -63.791  56.279  1.00  0.00     0.159 HD
BRANCH   8  10
HETATM   10  C5  UNL     1       8.435 -64.057  56.912  1.00  0.00     0.029 A 
HETATM   11  C4  UNL     1       8.723 -64.950  57.926  1.00  0.00     0.029 A 
HETATM   12  C3  UNL     1       9.801 -64.744  58.761  1.00  0.00     0.004 A 
HETATM   13  C2  UNL     1      10.621 -63.648  58.614  1.00  0.00     0.027 A 
HETATM   14  C1  UNL     1      10.354 -62.741  57.608  1.00  0.00     0.048 A 
HETATM   15  N1  UNL     1      11.140 -61.590  57.383  1.00  0.00    -0.102 NA
HETATM   16  C24 UNL     1       9.259 -62.969  56.773  1.00  0.00     0.055 A 
ENDBRANCH   8  10
ENDBRANCH   7   8
ENDBRANCH   6   7
ENDBRANCH   5   6
ENDBRANCH   4   5
ENDBRANCH   3   4
ENDBRANCH   2   3
ENDBRANCH   1   2
BRANCH   1  17
HETATM   17  C12 UNL     1       7.138 -68.809  59.510  1.00  0.00     0.068 A 
HETATM   18  C13 UNL     1       7.051 -69.439  60.714  1.00  0.00     0.037 A 
HETATM   19  C14 UNL     1       7.952 -70.441  61.020  1.00  0.00     0.010 A 
HETATM   20  C15 UNL     1       8.953 -70.857  60.172  1.00  0.00    -0.058 A 
HETATM   21  C22 UNL     1       9.022 -70.204  58.957  1.00  0.00     0.010 A 
HETATM   22  C23 UNL     1       8.155 -69.212  58.615  1.00  0.00     0.037 A 
BRANCH  20  23
HETATM   23  C16 UNL     1       9.920 -71.922  60.484  1.00  0.00     0.043 C 
BRANCH  23  24
HETATM   24  C17 UNL     1       9.228 -73.208  60.892  1.00  0.00    -0.007 C 
HETATM   25  C18 UNL     1      10.069 -74.415  60.603  1.00  0.00     0.032 C 
HETATM   26  C19 UNL     1       9.221 -75.664  60.417  1.00  0.00     0.232 C 
HETATM   27  N3  UNL     1       8.048 -75.576  61.238  1.00  0.00    -0.075 N 
HETATM   28  C20 UNL     1       7.168 -74.507  60.860  1.00  0.00     0.232 C 
ATOM     29  H32 UNL     1       7.550 -76.465  61.254  1.00  0.00     0.277 HD
ATOM     30  H31 UNL     1       8.300 -75.506  62.224  1.00  0.00     0.277 HD
HETATM   31  C21 UNL     1       7.912 -73.374  60.182  1.00  0.00     0.032 C 
ENDBRANCH  23  24
ENDBRANCH  20  23
ENDBRANCH   1  17
TORSDOF 11
ENDMDL
