MODEL 1
REMARK VINA RESULT: -10.776067177      0.000      0.000
REMARK  10 active torsions:
REMARK  status: ('A' for Active; 'I' for Inactive)
REMARK    1  A    between atoms: N2_10  and  C8_12 
REMARK    2  A    between atoms: C13_17  and  N3_18 
REMARK    3  A    between atoms: C14_20  and  C15_21 
REMARK    4  A    between atoms: C15_21  and  C16_22 
REMARK    5  A    between atoms: C16_22  and  C17_23 
REMARK    6  A    between atoms: C17_23  and  C18_24 
REMARK    7  A    between atoms: C18_24  and  C19_25 
REMARK    8  A    between atoms: C19_25  and  N4_26 
REMARK    9  A    between atoms: N4_26  and  C20_28 
REMARK   10  A    between atoms: C20_28  and  C21_29 
ROOT
HETATM    1  C8  UNL     1       6.314 -65.880  57.241  1.00  0.00     0.129 C 
HETATM    2  C9  UNL     1       6.333 -64.749  56.267  1.00  0.00     0.031 C 
HETATM    3  C10 UNL     1       5.646 -65.158  54.969  1.00  0.00     0.003 C 
HETATM    4  C11 UNL     1       6.532 -66.180  54.368  1.00  0.00     0.006 C 
HETATM    5  C12 UNL     1       6.649 -67.424  55.209  1.00  0.00     0.054 C 
HETATM    6  C13 UNL     1       6.686 -67.211  56.655  1.00  0.00     0.009 C 
ENDROOT
BRANCH   6   7
HETATM    7  N3  UNL     1       6.407 -68.348  57.411  1.00  0.00    -0.374 N 
HETATM    8  C14 UNL     1       7.220 -69.415  57.593  1.00  0.00     0.061 C 
ATOM      9  H3  UNL     1       5.499 -68.379  57.874  1.00  0.00     0.164 HD
BRANCH   8  10
HETATM   10  C15 UNL     1       8.509 -69.439  58.311  1.00  0.00     0.044 C 
BRANCH  10  11
HETATM   11  C16 UNL     1       8.757 -70.445  59.391  1.00  0.00     0.005 C 
BRANCH  11  12
HETATM   12  C17 UNL     1       7.438 -71.176  59.699  1.00  0.00     0.005 C 
BRANCH  12  13
HETATM   13  C18 UNL     1       7.564 -72.646  59.666  1.00  0.00     0.044 C 
BRANCH  13  14
HETATM   14  C19 UNL     1       7.977 -73.286  60.917  1.00  0.00     0.056 C 
BRANCH  14  15
HETATM   15  N4  UNL     1       9.224 -73.657  61.357  1.00  0.00    -0.398 N 
ATOM     16  H4  UNL     1       9.491 -73.487  62.327  1.00  0.00     0.158 HD
BRANCH  15  17
HETATM   17  C20 UNL     1      10.142 -74.277  60.467  1.00  0.00     0.159 C 
BRANCH  17  18
HETATM   18  C21 UNL     1       9.959 -75.766  60.585  1.00  0.00    -0.017 A 
HETATM   19  C22 UNL     1      10.477 -76.563  61.568  1.00  0.00     0.035 A 
HETATM   20  C23 UNL     1       9.957 -77.826  61.299  1.00  0.00     0.142 A 
HETATM   21  O1  UNL     1       9.198 -77.755  60.234  1.00  0.00    -0.334 OA
HETATM   22  C24 UNL     1       9.169 -76.535  59.770  1.00  0.00     0.150 A 
ENDBRANCH  17  18
ENDBRANCH  15  17
ENDBRANCH  14  15
ENDBRANCH  13  14
ENDBRANCH  12  13
ENDBRANCH  11  12
ENDBRANCH  10  11
ENDBRANCH   8  10
ENDBRANCH   6   7
BRANCH   1  23
HETATM   23  N2  UNL     1       6.891 -65.562  58.438  1.00  0.00    -0.366 N 
HETATM   24  C7  UNL     1       7.039 -65.927  59.604  1.00  0.00     0.114 A 
HETATM   25  C4  UNL     1       6.671 -66.997  60.508  1.00  0.00     0.034 A 
HETATM   26  N1  UNL     1       7.748 -65.350  60.718  1.00  0.00    -0.341 N 
HETATM   27  C3  UNL     1       6.008 -68.208  60.772  1.00  0.00     0.017 A 
HETATM   28  C5  UNL     1       7.345 -66.429  61.527  1.00  0.00     0.047 A 
HETATM   29  C2  UNL     1       6.035 -68.794  62.003  1.00  0.00     0.001 A 
HETATM   30  C1  UNL     1       6.726 -68.206  63.041  1.00  0.00     0.002 A 
HETATM   31  C6  UNL     1       7.395 -67.006  62.824  1.00  0.00     0.030 A 
ATOM     32  H1  UNL     1       8.309 -64.509  60.861  1.00  0.00     0.167 HD
ATOM     33  H2  UNL     1       7.392 -64.682  58.320  1.00  0.00     0.161 HD
ENDBRANCH   1  23
TORSDOF 10
ENDMDL
MODEL 2
REMARK VINA RESULT: -10.447053724      3.240      8.569
REMARK  10 active torsions:
REMARK  status: ('A' for Active; 'I' for Inactive)
REMARK    1  A    between atoms: N2_10  and  C8_12 
REMARK    2  A    between atoms: C13_17  and  N3_18 
REMARK    3  A    between atoms: C14_20  and  C15_21 
REMARK    4  A    between atoms: C15_21  and  C16_22 
REMARK    5  A    between atoms: C16_22  and  C17_23 
REMARK    6  A    between atoms: C17_23  and  C18_24 
REMARK    7  A    between atoms: C18_24  and  C19_25 
REMARK    8  A    between atoms: C19_25  and  N4_26 
REMARK    9  A    between atoms: N4_26  and  C20_28 
REMARK   10  A    between atoms: C20_28  and  C21_29 
ROOT
HETATM    1  C8  UNL     1       7.821 -69.982  60.355  1.00  0.00     0.129 C 
HETATM    2  C9  UNL     1       7.052 -69.649  61.591  1.00  0.00     0.031 C 
HETATM    3  C10 UNL     1       5.850 -68.776  61.247  1.00  0.00     0.003 C 
HETATM    4  C11 UNL     1       6.423 -67.485  60.807  1.00  0.00     0.006 C 
HETATM    5  C12 UNL     1       7.248 -67.604  59.553  1.00  0.00     0.054 C 
HETATM    6  C13 UNL     1       8.056 -68.818  59.437  1.00  0.00     0.009 C 
ENDROOT
BRANCH   6   7
HETATM    7  N3  UNL     1       8.494 -69.096  58.144  1.00  0.00    -0.374 N 
HETATM    8  C14 UNL     1       7.741 -69.570  57.122  1.00  0.00     0.061 C 
ATOM      9  H3  UNL     1       9.480 -68.926  57.947  1.00  0.00     0.164 HD
BRANCH   8  10
HETATM   10  C15 UNL     1       6.636 -68.875  56.436  1.00  0.00     0.044 C 
BRANCH  10  11
HETATM   11  C16 UNL     1       6.892 -67.621  55.661  1.00  0.00     0.005 C 
BRANCH  11  12
HETATM   12  C17 UNL     1       5.786 -66.602  55.991  1.00  0.00     0.005 C 
BRANCH  12  13
HETATM   13  C18 UNL     1       5.855 -65.380  55.166  1.00  0.00     0.044 C 
BRANCH  13  14
HETATM   14  C19 UNL     1       7.116 -65.150  54.456  1.00  0.00     0.056 C 
BRANCH  14  15
HETATM   15  N4  UNL     1       8.164 -64.314  54.753  1.00  0.00    -0.398 N 
ATOM     16  H4  UNL     1       9.051 -64.418  54.262  1.00  0.00     0.158 HD
BRANCH  15  17
HETATM   17  C20 UNL     1       8.016 -63.304  55.742  1.00  0.00     0.159 C 
BRANCH  17  18
HETATM   18  C21 UNL     1       8.834 -63.710  56.937  1.00  0.00    -0.017 A 
HETATM   19  C22 UNL     1       8.565 -64.756  57.777  1.00  0.00     0.035 A 
HETATM   20  C23 UNL     1       9.645 -64.781  58.654  1.00  0.00     0.142 A 
HETATM   21  O1  UNL     1      10.472 -63.815  58.340  1.00  0.00    -0.334 OA
HETATM   22  C24 UNL     1      10.025 -63.144  57.312  1.00  0.00     0.150 A 
ENDBRANCH  17  18
ENDBRANCH  15  17
ENDBRANCH  14  15
ENDBRANCH  13  14
ENDBRANCH  12  13
ENDBRANCH  11  12
ENDBRANCH  10  11
ENDBRANCH   8  10
ENDBRANCH   6   7
BRANCH   1  23
HETATM   23  N2  UNL     1       8.896 -70.790  60.598  1.00  0.00    -0.366 N 
HETATM   24  C7  UNL     1       9.302 -71.950  60.561  1.00  0.00     0.114 A 
HETATM   25  C4  UNL     1       8.868 -73.288  60.215  1.00  0.00     0.034 A 
HETATM   26  N1  UNL     1      10.570 -72.546  60.901  1.00  0.00    -0.341 N 
HETATM   27  C3  UNL     1       7.883 -74.179  59.753  1.00  0.00     0.017 A 
HETATM   28  C5  UNL     1      10.066 -73.810  60.541  1.00  0.00     0.047 A 
HETATM   29  C2  UNL     1       8.116 -75.518  59.637  1.00  0.00     0.001 A 
HETATM   30  C1  UNL     1       9.345 -76.044  59.974  1.00  0.00     0.002 A 
HETATM   31  C6  UNL     1      10.347 -75.199  60.436  1.00  0.00     0.030 A 
ATOM     32  H1  UNL     1      11.461 -72.196  61.254  1.00  0.00     0.167 HD
ATOM     33  H2  UNL     1       9.656 -70.203  60.943  1.00  0.00     0.161 HD
ENDBRANCH   1  23
TORSDOF 10
ENDMDL
MODEL 3
REMARK VINA RESULT: -10.417530902      1.913      3.901
REMARK  10 active torsions:
REMARK  status: ('A' for Active; 'I' for Inactive)
REMARK    1  A    between atoms: N2_10  and  C8_12 
REMARK    2  A    between atoms: C13_17  and  N3_18 
REMARK    3  A    between atoms: C14_20  and  C15_21 
REMARK    4  A    between atoms: C15_21  and  C16_22 
REMARK    5  A    between atoms: C16_22  and  C17_23 
REMARK    6  A    between atoms: C17_23  and  C18_24 
REMARK    7  A    between atoms: C18_24  and  C19_25 
REMARK    8  A    between atoms: C19_25  and  N4_26 
REMARK    9  A    between atoms: N4_26  and  C20_28 
REMARK   10  A    between atoms: C20_28  and  C21_29 
ROOT
HETATM    1  C8  UNL     1       7.837 -64.643  58.195  1.00  0.00     0.129 C 
HETATM    2  C9  UNL     1       9.128 -64.487  58.928  1.00  0.00     0.031 C 
HETATM    3  C10 UNL     1       9.780 -63.155  58.574  1.00  0.00     0.003 C 
HETATM    4  C11 UNL     1      10.173 -63.282  57.153  1.00  0.00     0.006 C 
HETATM    5  C12 UNL     1       8.995 -63.450  56.230  1.00  0.00     0.054 C 
HETATM    6  C13 UNL     1       7.899 -64.272  56.742  1.00  0.00     0.009 C 
ENDROOT
BRANCH   6   7
HETATM    7  N3  UNL     1       6.691 -64.104  56.069  1.00  0.00    -0.374 N 
HETATM    8  C14 UNL     1       6.184 -64.912  55.108  1.00  0.00     0.061 C 
ATOM      9  H3  UNL     1       6.132 -63.291  56.326  1.00  0.00     0.164 HD
BRANCH   8  10
HETATM   10  C15 UNL     1       5.727 -66.306  55.268  1.00  0.00     0.044 C 
BRANCH  10  11
HETATM   11  C16 UNL     1       6.643 -67.446  54.951  1.00  0.00     0.005 C 
BRANCH  11  12
HETATM   12  C17 UNL     1       6.511 -68.508  56.058  1.00  0.00     0.005 C 
BRANCH  12  13
HETATM   13  C18 UNL     1       7.810 -68.946  56.604  1.00  0.00     0.044 C 
BRANCH  13  14
HETATM   14  C19 UNL     1       7.809 -70.216  57.333  1.00  0.00     0.056 C 
BRANCH  14  15
HETATM   15  N4  UNL     1       8.285 -70.524  58.584  1.00  0.00    -0.398 N 
ATOM     16  H4  UNL     1       9.256 -70.324  58.821  1.00  0.00     0.158 HD
BRANCH  15  17
HETATM   17  C20 UNL     1       7.428 -71.119  59.550  1.00  0.00     0.159 C 
BRANCH  17  18
HETATM   18  C21 UNL     1       7.916 -72.522  59.791  1.00  0.00    -0.017 A 
HETATM   19  C22 UNL     1       7.314 -73.668  59.352  1.00  0.00     0.035 A 
HETATM   20  C23 UNL     1       8.182 -74.684  59.740  1.00  0.00     0.142 A 
HETATM   21  O1  UNL     1       9.206 -74.155  60.361  1.00  0.00    -0.334 OA
HETATM   22  C24 UNL     1       9.090 -72.856  60.416  1.00  0.00     0.150 A 
ENDBRANCH  17  18
ENDBRANCH  15  17
ENDBRANCH  14  15
ENDBRANCH  13  14
ENDBRANCH  12  13
ENDBRANCH  11  12
ENDBRANCH  10  11
ENDBRANCH   8  10
ENDBRANCH   6   7
BRANCH   1  23
HETATM   23  N2  UNL     1       7.191 -65.809  58.496  1.00  0.00    -0.366 N 
HETATM   24  C7  UNL     1       6.895 -66.580  59.407  1.00  0.00     0.114 A 
HETATM   25  C4  UNL     1       7.054 -66.755  60.836  1.00  0.00     0.034 A 
HETATM   26  N1  UNL     1       6.155 -67.817  59.429  1.00  0.00    -0.341 N 
HETATM   27  C3  UNL     1       7.550 -66.320  62.079  1.00  0.00     0.017 A 
HETATM   28  C5  UNL     1       6.357 -67.906  60.819  1.00  0.00     0.047 A 
HETATM   29  C2  UNL     1       7.342 -67.028  63.226  1.00  0.00     0.001 A 
HETATM   30  C1  UNL     1       6.628 -68.206  63.201  1.00  0.00     0.002 A 
HETATM   31  C6  UNL     1       6.121 -68.673  61.993  1.00  0.00     0.030 A 
ATOM     32  H1  UNL     1       5.682 -68.389  58.729  1.00  0.00     0.167 HD
ATOM     33  H2  UNL     1       6.805 -66.186  57.630  1.00  0.00     0.161 HD
ENDBRANCH   1  23
TORSDOF 10
ENDMDL
MODEL 4
REMARK VINA RESULT: -10.249527953      1.919      4.695
REMARK  10 active torsions:
REMARK  status: ('A' for Active; 'I' for Inactive)
REMARK    1  A    between atoms: N2_10  and  C8_12 
REMARK    2  A    between atoms: C13_17  and  N3_18 
REMARK    3  A    between atoms: C14_20  and  C15_21 
REMARK    4  A    between atoms: C15_21  and  C16_22 
REMARK    5  A    between atoms: C16_22  and  C17_23 
REMARK    6  A    between atoms: C17_23  and  C18_24 
REMARK    7  A    between atoms: C18_24  and  C19_25 
REMARK    8  A    between atoms: C19_25  and  N4_26 
REMARK    9  A    between atoms: N4_26  and  C20_28 
REMARK   10  A    between atoms: C20_28  and  C21_29 
ROOT
HETATM    1  C8  UNL     1       6.318 -66.195  57.709  1.00  0.00     0.129 C 
HETATM    2  C9  UNL     1       5.915 -66.693  56.360  1.00  0.00     0.031 C 
HETATM    3  C10 UNL     1       5.945 -68.217  56.329  1.00  0.00     0.003 C 
HETATM    4  C11 UNL     1       7.375 -68.579  56.447  1.00  0.00     0.006 C 
HETATM    5  C12 UNL     1       7.981 -68.158  57.760  1.00  0.00     0.054 C 
HETATM    6  C13 UNL     1       7.527 -66.872  58.286  1.00  0.00     0.009 C 
ENDROOT
BRANCH   6   7
HETATM    7  N3  UNL     1       7.785 -66.681  59.642  1.00  0.00    -0.374 N 
HETATM    8  C14 UNL     1       6.925 -66.899  60.665  1.00  0.00     0.061 C 
ATOM      9  H3  UNL     1       8.715 -66.344  59.889  1.00  0.00     0.164 HD
BRANCH   8  10
HETATM   10  C15 UNL     1       6.378 -68.197  61.106  1.00  0.00     0.044 C 
BRANCH  10  11
HETATM   11  C16 UNL     1       7.045 -68.968  62.202  1.00  0.00     0.005 C 
BRANCH  11  12
HETATM   12  C17 UNL     1       7.462 -70.345  61.653  1.00  0.00     0.005 C 
BRANCH  12  13
HETATM   13  C18 UNL     1       7.082 -70.549  60.242  1.00  0.00     0.044 C 
BRANCH  13  14
HETATM   14  C19 UNL     1       7.546 -71.792  59.621  1.00  0.00     0.056 C 
BRANCH  14  15
HETATM   15  N4  UNL     1       7.889 -72.995  60.189  1.00  0.00    -0.398 N 
ATOM     16  H4  UNL     1       7.160 -73.665  60.436  1.00  0.00     0.158 HD
BRANCH  15  17
HETATM   17  C20 UNL     1       9.253 -73.310  60.432  1.00  0.00     0.159 C 
BRANCH  17  18
HETATM   18  C21 UNL     1       9.333 -74.774  60.766  1.00  0.00    -0.017 A 
HETATM   19  C22 UNL     1      10.349 -75.622  60.424  1.00  0.00     0.035 A 
HETATM   20  C23 UNL     1      10.014 -76.828  61.032  1.00  0.00     0.142 A 
HETATM   21  O1  UNL     1       8.882 -76.680  61.675  1.00  0.00    -0.334 OA
HETATM   22  C24 UNL     1       8.434 -75.460  61.542  1.00  0.00     0.150 A 
ENDBRANCH  17  18
ENDBRANCH  15  17
ENDBRANCH  14  15
ENDBRANCH  13  14
ENDBRANCH  12  13
ENDBRANCH  11  12
ENDBRANCH  10  11
ENDBRANCH   8  10
ENDBRANCH   6   7
BRANCH   1  23
HETATM   23  N2  UNL     1       6.281 -64.832  57.806  1.00  0.00    -0.366 N 
HETATM   24  C7  UNL     1       6.366 -63.783  57.170  1.00  0.00     0.114 A 
HETATM   25  C4  UNL     1       6.573 -63.292  55.823  1.00  0.00     0.034 A 
HETATM   26  N1  UNL     1       6.282 -62.399  57.566  1.00  0.00    -0.341 N 
HETATM   27  C3  UNL     1       6.799 -63.520  54.454  1.00  0.00     0.017 A 
HETATM   28  C5  UNL     1       6.488 -62.010  56.229  1.00  0.00     0.047 A 
HETATM   29  C2  UNL     1       6.930 -62.495  53.563  1.00  0.00     0.001 A 
HETATM   30  C1  UNL     1       6.842 -61.187  53.986  1.00  0.00     0.002 A 
HETATM   31  C6  UNL     1       6.622 -60.916  55.332  1.00  0.00     0.030 A 
ATOM     32  H1  UNL     1       6.134 -61.907  58.447  1.00  0.00     0.167 HD
ATOM     33  H2  UNL     1       6.122 -64.593  58.785  1.00  0.00     0.161 HD
ENDBRANCH   1  23
TORSDOF 10
ENDMDL
MODEL 5
REMARK VINA RESULT: -10.248473562      3.983      9.756
REMARK  10 active torsions:
REMARK  status: ('A' for Active; 'I' for Inactive)
REMARK    1  A    between atoms: N2_10  and  C8_12 
REMARK    2  A    between atoms: C13_17  and  N3_18 
REMARK    3  A    between atoms: C14_20  and  C15_21 
REMARK    4  A    between atoms: C15_21  and  C16_22 
REMARK    5  A    between atoms: C16_22  and  C17_23 
REMARK    6  A    between atoms: C17_23  and  C18_24 
REMARK    7  A    between atoms: C18_24  and  C19_25 
REMARK    8  A    between atoms: C19_25  and  N4_26 
REMARK    9  A    between atoms: N4_26  and  C20_28 
REMARK   10  A    between atoms: C20_28  and  C21_29 
ROOT
HETATM    1  C8  UNL     1       7.746 -70.084  60.310  1.00  0.00     0.129 C 
HETATM    2  C9  UNL     1       7.151 -69.506  61.550  1.00  0.00     0.031 C 
HETATM    3  C10 UNL     1       5.908 -68.691  61.210  1.00  0.00     0.003 C 
HETATM    4  C11 UNL     1       6.408 -67.519  60.456  1.00  0.00     0.006 C 
HETATM    5  C12 UNL     1       7.056 -67.894  59.149  1.00  0.00     0.054 C 
HETATM    6  C13 UNL     1       7.847 -69.123  59.161  1.00  0.00     0.009 C 
ENDROOT
BRANCH   6   7
HETATM    7  N3  UNL     1       8.107 -69.653  57.899  1.00  0.00    -0.374 N 
HETATM    8  C14 UNL     1       7.429 -69.386  56.757  1.00  0.00     0.061 C 
ATOM      9  H3  UNL     1       8.886 -70.307  57.828  1.00  0.00     0.164 HD
BRANCH   8  10
HETATM   10  C15 UNL     1       7.369 -68.099  56.038  1.00  0.00     0.044 C 
BRANCH  10  11
HETATM   11  C16 UNL     1       6.245 -67.808  55.094  1.00  0.00     0.005 C 
BRANCH  11  12
HETATM   12  C17 UNL     1       6.124 -66.283  54.926  1.00  0.00     0.005 C 
BRANCH  12  13
HETATM   13  C18 UNL     1       5.315 -65.643  55.982  1.00  0.00     0.044 C 
BRANCH  13  14
HETATM   14  C19 UNL     1       6.030 -64.734  56.881  1.00  0.00     0.056 C 
BRANCH  14  15
HETATM   15  N4  UNL     1       6.516 -63.468  56.663  1.00  0.00    -0.398 N 
ATOM     16  H4  UNL     1       7.496 -63.260  56.853  1.00  0.00     0.158 HD
BRANCH  15  17
HETATM   17  C20 UNL     1       5.657 -62.446  56.172  1.00  0.00     0.159 C 
BRANCH  17  18
HETATM   18  C21 UNL     1       6.278 -61.890  54.919  1.00  0.00    -0.017 A 
HETATM   19  C22 UNL     1       6.501 -62.578  53.759  1.00  0.00     0.035 A 
HETATM   20  C23 UNL     1       6.997 -61.622  52.879  1.00  0.00     0.142 A 
HETATM   21  O1  UNL     1       7.056 -60.467  53.495  1.00  0.00    -0.334 OA
HETATM   22  C24 UNL     1       6.634 -60.580  54.725  1.00  0.00     0.150 A 
ENDBRANCH  17  18
ENDBRANCH  15  17
ENDBRANCH  14  15
ENDBRANCH  13  14
ENDBRANCH  12  13
ENDBRANCH  11  12
ENDBRANCH  10  11
ENDBRANCH   8  10
ENDBRANCH   6   7
BRANCH   1  23
HETATM   23  N2  UNL     1       8.850 -70.852  60.556  1.00  0.00    -0.366 N 
HETATM   24  C7  UNL     1       9.293 -72.000  60.536  1.00  0.00     0.114 A 
HETATM   25  C4  UNL     1       8.900 -73.357  60.218  1.00  0.00     0.034 A 
HETATM   26  N1  UNL     1      10.582 -72.547  60.874  1.00  0.00    -0.341 N 
HETATM   27  C3  UNL     1       7.940 -74.287  59.782  1.00  0.00     0.017 A 
HETATM   28  C5  UNL     1      10.117 -73.834  60.542  1.00  0.00     0.047 A 
HETATM   29  C2  UNL     1       8.216 -75.620  59.688  1.00  0.00     0.001 A 
HETATM   30  C1  UNL     1       9.463 -76.100  60.022  1.00  0.00     0.002 A 
HETATM   31  C6  UNL     1      10.442 -75.215  60.460  1.00  0.00     0.030 A 
ATOM     32  H1  UNL     1      11.465 -72.163  61.212  1.00  0.00     0.167 HD
ATOM     33  H2  UNL     1       9.594 -70.236  60.883  1.00  0.00     0.161 HD
ENDBRANCH   1  23
TORSDOF 10
ENDMDL
