MODEL 1
REMARK VINA RESULT: -9.537081773      0.000      0.000
REMARK  11 active torsions:
REMARK  status: ('A' for Active; 'I' for Inactive)
REMARK    1  A    between atoms: C4_4  and  O1_5 
REMARK    2  A    between atoms: O1_5  and  C5_6 
REMARK    3  A    between atoms: C5_6  and  C6_7 
REMARK    4  A    between atoms: C6_7  and  C7_8 
REMARK    5  A    between atoms: C7_8  and  N1_9 
REMARK    6  A    between atoms: N1_9  and  C8_11 
REMARK    7  A    between atoms: C8_11  and  C9_12 
REMARK    8  A    between atoms: C9_12  and  C10_13 
REMARK    9  A    between atoms: C10_13  and  C11_14 
REMARK   10  A    between atoms: C11_14  and  N2_15 
REMARK   11  A    between atoms: N2_15  and  C12_17 
ROOT
HETATM    1  C11 UNL     1       7.573 -69.120  56.706  1.00  0.00     0.120 C 
ENDROOT
BRANCH   1   2
HETATM    2  C10 UNL     1       6.281 -68.452  56.297  1.00  0.00     0.025 C 
BRANCH   2   3
HETATM    3  C9  UNL     1       6.367 -67.737  55.007  1.00  0.00     0.046 C 
BRANCH   3   4
HETATM    4  C8  UNL     1       6.759 -66.332  54.928  1.00  0.00     0.055 C 
BRANCH   4   5
HETATM    5  N1  UNL     1       6.614 -65.430  55.989  1.00  0.00    -0.402 N 
ATOM      6  H1  UNL     1       5.684 -65.133  56.283  1.00  0.00     0.158 HD
BRANCH   5   7
HETATM    7  C7  UNL     1       7.740 -64.938  56.644  1.00  0.00     0.120 C 
BRANCH   7   8
HETATM    8  C6  UNL     1       7.961 -65.593  58.017  1.00  0.00     0.046 C 
BRANCH   8   9
HETATM    9  C5  UNL     1       6.720 -65.425  58.837  1.00  0.00     0.177 C 
BRANCH   9  10
HETATM   10  O1  UNL     1       6.325 -66.600  59.425  1.00  0.00    -0.351 OA
BRANCH  10  11
HETATM   11  C4  UNL     1       6.566 -67.005  60.702  1.00  0.00     0.068 A 
HETATM   12  C3  UNL     1       6.264 -68.335  61.076  1.00  0.00     0.037 A 
HETATM   13  C2  UNL     1       6.499 -68.760  62.340  1.00  0.00     0.003 A 
HETATM   14  C1  UNL     1       7.035 -67.949  63.322  1.00  0.00     0.000 A 
HETATM   15  C23 UNL     1       7.326 -66.663  62.952  1.00  0.00     0.003 A 
HETATM   16  C22 UNL     1       7.099 -66.183  61.658  1.00  0.00     0.037 A 
ENDBRANCH  10  11
ENDBRANCH   9  10
ENDBRANCH   8   9
ENDBRANCH   7   8
ENDBRANCH   5   7
ENDBRANCH   4   5
ENDBRANCH   3   4
ENDBRANCH   2   3
ENDBRANCH   1   2
BRANCH   1  17
HETATM   17  N2  UNL     1       7.661 -69.140  58.143  1.00  0.00    -0.390 N 
ATOM     18  H2  UNL     1       7.431 -68.296  58.667  1.00  0.00     0.159 HD
BRANCH  17  19
HETATM   19  C12 UNL     1       8.059 -70.302  58.844  1.00  0.00     0.030 A 
HETATM   20  C13 UNL     1       9.272 -70.347  59.471  1.00  0.00     0.030 A 
HETATM   21  C14 UNL     1       9.639 -71.501  60.160  1.00  0.00     0.019 A 
HETATM   22  C15 UNL     1       8.780 -72.589  60.206  1.00  0.00     0.026 A 
HETATM   23  C16 UNL     1       8.868 -73.836  60.799  1.00  0.00     0.103 A 
HETATM   24  C18 UNL     1       7.553 -72.554  59.576  1.00  0.00     0.047 A 
HETATM   25  C17 UNL     1       7.723 -74.544  60.538  1.00  0.00     0.046 A 
HETATM   26  O2  UNL     1       9.721 -74.619  61.574  1.00  0.00    -0.348 OA
HETATM   27  N3  UNL     1       6.940 -73.737  59.791  1.00  0.00    -0.356 N 
HETATM   28  C20 UNL     1       7.802 -75.908  61.182  1.00  0.00     0.086 C 
ATOM     29  H3  UNL     1       6.015 -73.986  59.438  1.00  0.00     0.166 HD
HETATM   30  C21 UNL     1       9.206 -75.929  61.695  1.00  0.00     0.181 C 
HETATM   31  C19 UNL     1       7.197 -71.412  58.897  1.00  0.00     0.059 A 
ENDBRANCH  17  19
ENDBRANCH   1  17
TORSDOF 11
ENDMDL
MODEL 2
REMARK VINA RESULT: -9.507701772      1.660      4.090
REMARK  11 active torsions:
REMARK  status: ('A' for Active; 'I' for Inactive)
REMARK    1  A    between atoms: C4_4  and  O1_5 
REMARK    2  A    between atoms: O1_5  and  C5_6 
REMARK    3  A    between atoms: C5_6  and  C6_7 
REMARK    4  A    between atoms: C6_7  and  C7_8 
REMARK    5  A    between atoms: C7_8  and  N1_9 
REMARK    6  A    between atoms: N1_9  and  C8_11 
REMARK    7  A    between atoms: C8_11  and  C9_12 
REMARK    8  A    between atoms: C9_12  and  C10_13 
REMARK    9  A    between atoms: C10_13  and  C11_14 
REMARK   10  A    between atoms: C11_14  and  N2_15 
REMARK   11  A    between atoms: N2_15  and  C12_17 
ROOT
HETATM    1  C11 UNL     1       6.202 -68.807  61.422  1.00  0.00     0.120 C 
ENDROOT
BRANCH   1   2
HETATM    2  C10 UNL     1       6.532 -68.236  62.781  1.00  0.00     0.025 C 
BRANCH   2   3
HETATM    3  C9  UNL     1       7.384 -67.030  62.727  1.00  0.00     0.046 C 
BRANCH   3   4
HETATM    4  C8  UNL     1       7.019 -65.863  61.927  1.00  0.00     0.055 C 
BRANCH   4   5
HETATM    5  N1  UNL     1       7.720 -65.463  60.783  1.00  0.00    -0.402 N 
ATOM      6  H1  UNL     1       7.905 -66.134  60.038  1.00  0.00     0.158 HD
BRANCH   5   7
HETATM    7  C7  UNL     1       8.164 -64.149  60.663  1.00  0.00     0.120 C 
BRANCH   7   8
HETATM    8  C6  UNL     1       9.121 -63.952  59.477  1.00  0.00     0.046 C 
BRANCH   8   9
HETATM    9  C5  UNL     1       9.102 -65.187  58.630  1.00  0.00     0.177 C 
BRANCH   9  10
HETATM   10  O1  UNL     1       8.007 -65.231  57.804  1.00  0.00    -0.351 OA
BRANCH  10  11
HETATM   11  C4  UNL     1       7.438 -66.336  57.249  1.00  0.00     0.068 A 
HETATM   12  C3  UNL     1       6.515 -66.182  56.189  1.00  0.00     0.037 A 
HETATM   13  C2  UNL     1       5.940 -67.267  55.619  1.00  0.00     0.003 A 
HETATM   14  C1  UNL     1       6.207 -68.562  56.022  1.00  0.00     0.000 A 
HETATM   15  C23 UNL     1       7.102 -68.704  57.049  1.00  0.00     0.003 A 
HETATM   16  C22 UNL     1       7.719 -67.610  57.664  1.00  0.00     0.037 A 
ENDBRANCH  10  11
ENDBRANCH   9  10
ENDBRANCH   8   9
ENDBRANCH   7   8
ENDBRANCH   5   7
ENDBRANCH   4   5
ENDBRANCH   3   4
ENDBRANCH   2   3
ENDBRANCH   1   2
BRANCH   1  17
HETATM   17  N2  UNL     1       7.424 -69.033  60.695  1.00  0.00    -0.390 N 
ATOM     18  H2  UNL     1       7.860 -68.255  60.199  1.00  0.00     0.159 HD
BRANCH  17  19
HETATM   19  C12 UNL     1       8.034 -70.309  60.652  1.00  0.00     0.030 A 
HETATM   20  C13 UNL     1       9.259 -70.467  60.070  1.00  0.00     0.030 A 
HETATM   21  C14 UNL     1       9.842 -71.732  60.045  1.00  0.00     0.019 A 
HETATM   22  C15 UNL     1       9.182 -72.815  60.606  1.00  0.00     0.026 A 
HETATM   23  C16 UNL     1       9.505 -74.155  60.732  1.00  0.00     0.103 A 
HETATM   24  C18 UNL     1       7.945 -72.666  61.197  1.00  0.00     0.047 A 
HETATM   25  C17 UNL     1       8.490 -74.807  61.383  1.00  0.00     0.046 A 
HETATM   26  O2  UNL     1      10.510 -75.069  60.424  1.00  0.00    -0.348 OA
HETATM   27  N3  UNL     1       7.552 -73.874  61.654  1.00  0.00    -0.356 N 
HETATM   28  C20 UNL     1       8.828 -76.271  61.530  1.00  0.00     0.086 C 
ATOM     29  H3  UNL     1       6.671 -74.056  62.137  1.00  0.00     0.166 HD
HETATM   30  C21 UNL     1      10.087 -76.382  60.732  1.00  0.00     0.181 C 
HETATM   31  C19 UNL     1       7.374 -71.415  61.218  1.00  0.00     0.059 A 
ENDBRANCH  17  19
ENDBRANCH   1  17
TORSDOF 11
ENDMDL
MODEL 3
REMARK VINA RESULT: -9.437350154      2.113      4.409
REMARK  11 active torsions:
REMARK  status: ('A' for Active; 'I' for Inactive)
REMARK    1  A    between atoms: C4_4  and  O1_5 
REMARK    2  A    between atoms: O1_5  and  C5_6 
REMARK    3  A    between atoms: C5_6  and  C6_7 
REMARK    4  A    between atoms: C6_7  and  C7_8 
REMARK    5  A    between atoms: C7_8  and  N1_9 
REMARK    6  A    between atoms: N1_9  and  C8_11 
REMARK    7  A    between atoms: C8_11  and  C9_12 
REMARK    8  A    between atoms: C9_12  and  C10_13 
REMARK    9  A    between atoms: C10_13  and  C11_14 
REMARK   10  A    between atoms: C11_14  and  N2_15 
REMARK   11  A    between atoms: N2_15  and  C12_17 
ROOT
HETATM    1  C11 UNL     1       7.804 -65.663  59.915  1.00  0.00     0.120 C 
ENDROOT
BRANCH   1   2
HETATM    2  C10 UNL     1       8.586 -65.941  58.652  1.00  0.00     0.025 C 
BRANCH   2   3
HETATM    3  C9  UNL     1       8.787 -64.747  57.805  1.00  0.00     0.046 C 
BRANCH   3   4
HETATM    4  C8  UNL     1       8.215 -63.449  58.154  1.00  0.00     0.055 C 
BRANCH   4   5
HETATM    5  N1  UNL     1       7.378 -62.720  57.299  1.00  0.00    -0.402 N 
ATOM      6  H1  UNL     1       6.365 -62.791  57.396  1.00  0.00     0.158 HD
BRANCH   5   7
HETATM    7  C7  UNL     1       7.928 -61.899  56.319  1.00  0.00     0.120 C 
BRANCH   7   8
HETATM    8  C6  UNL     1       7.105 -61.891  55.021  1.00  0.00     0.046 C 
BRANCH   8   9
HETATM    9  C5  UNL     1       7.119 -63.267  54.432  1.00  0.00     0.177 C 
BRANCH   9  10
HETATM   10  O1  UNL     1       6.040 -64.014  54.833  1.00  0.00    -0.351 OA
BRANCH  10  11
HETATM   11  C4  UNL     1       6.036 -65.323  55.207  1.00  0.00     0.068 A 
HETATM   12  C3  UNL     1       6.576 -66.295  54.332  1.00  0.00     0.037 A 
HETATM   13  C2  UNL     1       6.586 -67.602  54.686  1.00  0.00     0.003 A 
HETATM   14  C1  UNL     1       6.086 -68.063  55.889  1.00  0.00     0.000 A 
HETATM   15  C23 UNL     1       5.566 -67.116  56.731  1.00  0.00     0.003 A 
HETATM   16  C22 UNL     1       5.536 -65.756  56.405  1.00  0.00     0.037 A 
ENDBRANCH  10  11
ENDBRANCH   9  10
ENDBRANCH   8   9
ENDBRANCH   7   8
ENDBRANCH   5   7
ENDBRANCH   4   5
ENDBRANCH   3   4
ENDBRANCH   2   3
ENDBRANCH   1   2
BRANCH   1  17
HETATM   17  N2  UNL     1       6.749 -66.634  60.041  1.00  0.00    -0.390 N 
ATOM     18  H2  UNL     1       5.786 -66.350  59.860  1.00  0.00     0.159 HD
BRANCH  17  19
HETATM   19  C12 UNL     1       7.017 -67.974  60.410  1.00  0.00     0.030 A 
HETATM   20  C13 UNL     1       7.108 -68.320  61.728  1.00  0.00     0.030 A 
HETATM   21  C14 UNL     1       7.367 -69.647  62.066  1.00  0.00     0.019 A 
HETATM   22  C15 UNL     1       7.529 -70.601  61.072  1.00  0.00     0.026 A 
HETATM   23  C16 UNL     1       7.784 -71.961  61.103  1.00  0.00     0.103 A 
HETATM   24  C18 UNL     1       7.438 -70.262  59.739  1.00  0.00     0.047 A 
HETATM   25  C17 UNL     1       7.848 -72.439  59.819  1.00  0.00     0.046 A 
HETATM   26  O2  UNL     1       7.998 -73.012  61.992  1.00  0.00    -0.348 OA
HETATM   27  N3  UNL     1       7.633 -71.381  59.008  1.00  0.00    -0.356 N 
HETATM   28  C20 UNL     1       8.124 -73.923  59.835  1.00  0.00     0.086 C 
ATOM     29  H3  UNL     1       7.620 -71.420  57.989  1.00  0.00     0.166 HD
HETATM   30  C21 UNL     1       8.370 -74.179  61.287  1.00  0.00     0.181 C 
HETATM   31  C19 UNL     1       7.183 -68.950  59.411  1.00  0.00     0.059 A 
ENDBRANCH  17  19
ENDBRANCH   1  17
TORSDOF 11
ENDMDL
MODEL 4
REMARK VINA RESULT: -9.429573583      1.756      4.060
REMARK  11 active torsions:
REMARK  status: ('A' for Active; 'I' for Inactive)
REMARK    1  A    between atoms: C4_4  and  O1_5 
REMARK    2  A    between atoms: O1_5  and  C5_6 
REMARK    3  A    between atoms: C5_6  and  C6_7 
REMARK    4  A    between atoms: C6_7  and  C7_8 
REMARK    5  A    between atoms: C7_8  and  N1_9 
REMARK    6  A    between atoms: N1_9  and  C8_11 
REMARK    7  A    between atoms: C8_11  and  C9_12 
REMARK    8  A    between atoms: C9_12  and  C10_13 
REMARK    9  A    between atoms: C10_13  and  C11_14 
REMARK   10  A    between atoms: C11_14  and  N2_15 
REMARK   11  A    between atoms: N2_15  and  C12_17 
ROOT
HETATM    1  C11 UNL     1       6.761 -68.176  62.243  1.00  0.00     0.120 C 
ENDROOT
BRANCH   1   2
HETATM    2  C10 UNL     1       7.067 -66.711  62.448  1.00  0.00     0.025 C 
BRANCH   2   3
HETATM    3  C9  UNL     1       7.342 -65.982  61.192  1.00  0.00     0.046 C 
BRANCH   3   4
HETATM    4  C8  UNL     1       7.849 -64.612  61.190  1.00  0.00     0.055 C 
BRANCH   4   5
HETATM    5  N1  UNL     1       8.027 -63.857  60.025  1.00  0.00    -0.402 N 
ATOM      6  H1  UNL     1       7.219 -63.459  59.547  1.00  0.00     0.158 HD
BRANCH   5   7
HETATM    7  C7  UNL     1       9.307 -63.649  59.519  1.00  0.00     0.120 C 
BRANCH   7   8
HETATM    8  C6  UNL     1       9.638 -64.577  58.340  1.00  0.00     0.046 C 
BRANCH   8   9
HETATM    9  C5  UNL     1       8.757 -64.221  57.183  1.00  0.00     0.177 C 
BRANCH   9  10
HETATM   10  O1  UNL     1       7.500 -64.759  57.304  1.00  0.00    -0.351 OA
BRANCH  10  11
HETATM   11  C4  UNL     1       7.069 -65.961  56.832  1.00  0.00     0.068 A 
HETATM   12  C3  UNL     1       7.105 -67.092  57.680  1.00  0.00     0.037 A 
HETATM   13  C2  UNL     1       6.677 -68.296  57.232  1.00  0.00     0.003 A 
HETATM   14  C1  UNL     1       6.189 -68.497  55.954  1.00  0.00     0.000 A 
HETATM   15  C23 UNL     1       6.156 -67.396  55.139  1.00  0.00     0.003 A 
HETATM   16  C22 UNL     1       6.589 -66.135  55.562  1.00  0.00     0.037 A 
ENDBRANCH  10  11
ENDBRANCH   9  10
ENDBRANCH   8   9
ENDBRANCH   7   8
ENDBRANCH   5   7
ENDBRANCH   4   5
ENDBRANCH   3   4
ENDBRANCH   2   3
ENDBRANCH   1   2
BRANCH   1  17
HETATM   17  N2  UNL     1       7.310 -68.602  60.983  1.00  0.00    -0.390 N 
ATOM     18  H2  UNL     1       7.271 -67.970  60.183  1.00  0.00     0.159 HD
BRANCH  17  19
HETATM   19  C12 UNL     1       7.903 -69.878  60.827  1.00  0.00     0.030 A 
HETATM   20  C13 UNL     1       9.020 -70.029  60.056  1.00  0.00     0.030 A 
HETATM   21  C14 UNL     1       9.588 -71.294  59.922  1.00  0.00     0.019 A 
HETATM   22  C15 UNL     1       9.022 -72.384  60.567  1.00  0.00     0.026 A 
HETATM   23  C16 UNL     1       9.357 -73.726  60.622  1.00  0.00     0.103 A 
HETATM   24  C18 UNL     1       7.894 -72.242  61.348  1.00  0.00     0.047 A 
HETATM   25  C17 UNL     1       8.456 -74.386  61.417  1.00  0.00     0.046 A 
HETATM   26  O2  UNL     1      10.299 -74.636  60.147  1.00  0.00    -0.348 OA
HETATM   27  N3  UNL     1       7.576 -73.456  61.846  1.00  0.00    -0.356 N 
HETATM   28  C20 UNL     1       8.809 -75.852  61.490  1.00  0.00     0.086 C 
ATOM     29  H3  UNL     1       6.782 -73.644  62.459  1.00  0.00     0.166 HD
HETATM   30  C21 UNL     1       9.926 -75.953  60.500  1.00  0.00     0.181 C 
HETATM   31  C19 UNL     1       7.338 -70.991  61.476  1.00  0.00     0.059 A 
ENDBRANCH  17  19
ENDBRANCH   1  17
TORSDOF 11
ENDMDL
MODEL 5
REMARK VINA RESULT: -9.382775338      2.293      5.083
REMARK  11 active torsions:
REMARK  status: ('A' for Active; 'I' for Inactive)
REMARK    1  A    between atoms: C4_4  and  O1_5 
REMARK    2  A    between atoms: O1_5  and  C5_6 
REMARK    3  A    between atoms: C5_6  and  C6_7 
REMARK    4  A    between atoms: C6_7  and  C7_8 
REMARK    5  A    between atoms: C7_8  and  N1_9 
REMARK    6  A    between atoms: N1_9  and  C8_11 
REMARK    7  A    between atoms: C8_11  and  C9_12 
REMARK    8  A    between atoms: C9_12  and  C10_13 
REMARK    9  A    between atoms: C10_13  and  C11_14 
REMARK   10  A    between atoms: C11_14  and  N2_15 
REMARK   11  A    between atoms: N2_15  and  C12_17 
ROOT
HETATM    1  C11 UNL     1       7.486 -64.281  59.895  1.00  0.00     0.120 C 
ENDROOT
BRANCH   1   2
HETATM    2  C10 UNL     1       8.939 -63.880  59.781  1.00  0.00     0.025 C 
BRANCH   2   3
HETATM    3  C9  UNL     1       9.624 -64.465  58.610  1.00  0.00     0.046 C 
BRANCH   3   4
HETATM    4  C8  UNL     1       9.794 -63.722  57.364  1.00  0.00     0.055 C 
BRANCH   4   5
HETATM    5  N1  UNL     1       8.775 -63.559  56.418  1.00  0.00    -0.402 N 
ATOM      6  H1  UNL     1       8.495 -64.344  55.830  1.00  0.00     0.158 HD
BRANCH   5   7
HETATM    7  C7  UNL     1       8.143 -62.326  56.280  1.00  0.00     0.120 C 
BRANCH   7   8
HETATM    8  C6  UNL     1       7.233 -62.261  55.044  1.00  0.00     0.046 C 
BRANCH   8   9
HETATM    9  C5  UNL     1       7.233 -63.599  54.372  1.00  0.00     0.177 C 
BRANCH   9  10
HETATM   10  O1  UNL     1       6.146 -64.357  54.728  1.00  0.00    -0.351 OA
BRANCH  10  11
HETATM   11  C4  UNL     1       6.150 -65.636  55.195  1.00  0.00     0.068 A 
HETATM   12  C3  UNL     1       5.856 -65.877  56.558  1.00  0.00     0.037 A 
HETATM   13  C2  UNL     1       5.851 -67.141  57.042  1.00  0.00     0.003 A 
HETATM   14  C1  UNL     1       6.123 -68.250  56.263  1.00  0.00     0.000 A 
HETATM   15  C23 UNL     1       6.405 -68.008  54.945  1.00  0.00     0.003 A 
HETATM   16  C22 UNL     1       6.421 -66.719  54.404  1.00  0.00     0.037 A 
ENDBRANCH  10  11
ENDBRANCH   9  10
ENDBRANCH   8   9
ENDBRANCH   7   8
ENDBRANCH   5   7
ENDBRANCH   4   5
ENDBRANCH   3   4
ENDBRANCH   2   3
ENDBRANCH   1   2
BRANCH   1  17
HETATM   17  N2  UNL     1       7.262 -64.881  61.184  1.00  0.00    -0.390 N 
ATOM     18  H2  UNL     1       7.066 -64.281  61.986  1.00  0.00     0.159 HD
BRANCH  17  19
HETATM   19  C12 UNL     1       7.306 -66.284  61.366  1.00  0.00     0.030 A 
HETATM   20  C13 UNL     1       7.156 -66.822  62.612  1.00  0.00     0.030 A 
HETATM   21  C14 UNL     1       7.199 -68.206  62.764  1.00  0.00     0.019 A 
HETATM   22  C15 UNL     1       7.391 -69.024  61.660  1.00  0.00     0.026 A 
HETATM   23  C16 UNL     1       7.473 -70.396  61.506  1.00  0.00     0.103 A 
HETATM   24  C18 UNL     1       7.544 -68.490  60.398  1.00  0.00     0.047 A 
HETATM   25  C17 UNL     1       7.670 -70.693  60.181  1.00  0.00     0.046 A 
HETATM   26  O2  UNL     1       7.421 -71.582  62.235  1.00  0.00    -0.348 OA
HETATM   27  N3  UNL     1       7.709 -69.511  59.529  1.00  0.00    -0.356 N 
HETATM   28  C20 UNL     1       7.759 -72.188  59.995  1.00  0.00     0.086 C 
ATOM     29  H3  UNL     1       7.845 -69.404  58.524  1.00  0.00     0.166 HD
HETATM   30  C21 UNL     1       7.751 -72.679  61.407  1.00  0.00     0.181 C 
HETATM   31  C19 UNL     1       7.501 -67.123  60.254  1.00  0.00     0.059 A 
ENDBRANCH  17  19
ENDBRANCH   1  17
TORSDOF 11
ENDMDL
