MODEL 1
REMARK VINA RESULT: -6.773617938      0.000      0.000
REMARK  11 active torsions:
REMARK  status: ('A' for Active; 'I' for Inactive)
REMARK    1  A    between atoms: C2_2  and  C4_4 
REMARK    2  A    between atoms: C7_7  and  C9_9 
REMARK    3  A    between atoms: C10_10  and  C11_11 
REMARK    4  A    between atoms: C11_11  and  C12_12 
REMARK    5  A    between atoms: C18_19  and  C20_21 
REMARK    6  A    between atoms: C20_21  and  C21_22 
REMARK    7  A    between atoms: C21_22  and  C22_23 
REMARK    8  A    between atoms: C22_23  and  O3_25 
REMARK    9  A    between atoms: C30_34  and  O5_35 
REMARK   10  A    between atoms: C31_37  and  C32_38 
REMARK   11  A    between atoms: C32_38  and  O6_41 
ROOT
HETATM    1  C4  UNL     1     -19.025 -47.015 -52.507  1.00  0.00    -0.005 C 
HETATM    2  C5  UNL     1     -19.282 -45.726 -51.813  1.00  0.00     0.021 C 
HETATM    3  C6  UNL     1     -19.137 -46.986 -53.933  1.00  0.00     0.048 C 
HETATM    4  C7  UNL     1     -19.820 -46.060 -54.851  1.00  0.00    -0.019 C 
HETATM    5  C8  UNL     1     -20.414 -44.800 -54.476  1.00  0.00     0.020 C 
HETATM    6  C15 UNL     1     -20.973 -46.910 -55.424  1.00  0.00     0.017 C 
HETATM    7  C16 UNL     1     -20.408 -48.279 -55.431  1.00  0.00     0.043 C 
HETATM    8  C17 UNL     1     -19.419 -48.447 -54.315  1.00  0.00     0.101 C 
HETATM    9  O1  UNL     1     -18.268 -48.927 -54.807  1.00  0.00    -0.361 OA
HETATM   10  C18 UNL     1     -18.014 -50.206 -55.128  1.00  0.00     0.083 C 
HETATM   11  C19 UNL     1     -18.624 -50.672 -56.467  1.00  0.00     0.051 C 
HETATM   12  C24 UNL     1     -18.507 -51.021 -54.030  1.00  0.00    -0.031 C 
HETATM   13  C25 UNL     1     -18.233 -52.274 -53.672  1.00  0.00    -0.012 C 
HETATM   14  C26 UNL     1     -19.013 -52.652 -52.424  1.00  0.00     0.107 C 
HETATM   15  C27 UNL     1     -19.078 -51.239 -51.913  1.00  0.00     0.146 C 
HETATM   16  O4  UNL     1     -18.721 -51.030 -50.806  1.00  0.00    -0.296 OA
HETATM   17  C28 UNL     1     -19.617 -50.541 -53.095  1.00  0.00     0.077 C 
HETATM   18  C29 UNL     1     -20.796 -51.443 -53.585  1.00  0.00     0.032 C 
HETATM   19  C30 UNL     1     -19.998 -49.157 -53.103  1.00  0.00     0.115 C 
HETATM   20  C31 UNL     1     -19.842 -48.215 -51.961  1.00  0.00     0.071 C 
ENDROOT
BRANCH   4  21
HETATM   21  C9  UNL     1     -18.934 -45.786 -56.037  1.00  0.00    -0.021 C 
HETATM   22  C10 UNL     1     -18.098 -44.691 -56.313  1.00  0.00    -0.029 C 
BRANCH  22  23
HETATM   23  C11 UNL     1     -16.913 -44.400 -55.466  1.00  0.00     0.030 C 
BRANCH  23  24
HETATM   24  C12 UNL     1     -16.917 -42.877 -55.091  1.00  0.00    -0.019 C 
HETATM   25  C13 UNL     1     -17.731 -42.204 -56.158  1.00  0.00     0.010 C 
HETATM   26  C14 UNL     1     -17.503 -42.690 -53.729  1.00  0.00     0.010 C 
ENDBRANCH  23  24
ENDBRANCH  22  23
ENDBRANCH   4  21
BRANCH   1  27
HETATM   27  C2  UNL     1     -17.592 -47.215 -52.049  1.00  0.00    -0.084 C 
HETATM   28  C1  UNL     1     -16.573 -46.734 -52.662  1.00  0.00     0.015 C 
HETATM   29  C3  UNL     1     -17.260 -47.971 -50.790  1.00  0.00     0.043 C 
ENDBRANCH   1  27
BRANCH  20  30
HETATM   30  C32 UNL     1     -20.939 -47.871 -51.050  1.00  0.00     0.058 C 
HETATM   31  C33 UNL     1     -22.092 -47.053 -51.591  1.00  0.00     0.046 C 
HETATM   32  C34 UNL     1     -20.673 -47.127 -49.766  1.00  0.00     0.046 C 
BRANCH  30  33
HETATM   33  O6  UNL     1     -21.536 -49.075 -50.669  1.00  0.00    -0.390 OA
ATOM     34  H6  UNL     1     -20.919 -49.516 -50.096  1.00  0.00     0.210 HD
ENDBRANCH  30  33
ENDBRANCH  20  30
BRANCH  19  35
HETATM   35  O5  UNL     1     -21.410 -49.088 -53.353  1.00  0.00    -0.385 OA
ATOM     36  H5  UNL     1     -21.760 -49.699 -52.716  1.00  0.00     0.210 HD
ENDBRANCH  19  35
BRANCH  10  37
HETATM   37  C20 UNL     1     -16.535 -50.170 -55.406  1.00  0.00     0.052 C 
BRANCH  37  38
HETATM   38  C21 UNL     1     -15.578 -49.912 -54.349  1.00  0.00     0.114 C 
BRANCH  38  39
HETATM   39  C22 UNL     1     -14.762 -51.148 -54.000  1.00  0.00     0.258 C 
HETATM   40  O2  UNL     1     -14.188 -51.694 -54.972  1.00  0.00    -0.265 OA
BRANCH  39  41
HETATM   41  O3  UNL     1     -14.642 -51.651 -52.744  1.00  0.00    -0.326 OA
HETATM   42  C23 UNL     1     -15.269 -50.971 -51.668  1.00  0.00     0.213 C 
ENDBRANCH  39  41
ENDBRANCH  38  39
ENDBRANCH  37  38
ENDBRANCH  10  37
TORSDOF 11
ENDMDL
MODEL 2
REMARK VINA RESULT: -6.691434094      1.957      5.396
REMARK  11 active torsions:
REMARK  status: ('A' for Active; 'I' for Inactive)
REMARK    1  A    between atoms: C2_2  and  C4_4 
REMARK    2  A    between atoms: C7_7  and  C9_9 
REMARK    3  A    between atoms: C10_10  and  C11_11 
REMARK    4  A    between atoms: C11_11  and  C12_12 
REMARK    5  A    between atoms: C18_19  and  C20_21 
REMARK    6  A    between atoms: C20_21  and  C21_22 
REMARK    7  A    between atoms: C21_22  and  C22_23 
REMARK    8  A    between atoms: C22_23  and  O3_25 
REMARK    9  A    between atoms: C30_34  and  O5_35 
REMARK   10  A    between atoms: C31_37  and  C32_38 
REMARK   11  A    between atoms: C32_38  and  O6_41 
ROOT
HETATM    1  C4  UNL     1     -20.640 -49.257 -53.598  1.00  0.00    -0.005 C 
HETATM    2  C5  UNL     1     -21.551 -49.872 -54.599  1.00  0.00     0.021 C 
HETATM    3  C6  UNL     1     -20.216 -47.921 -53.883  1.00  0.00     0.048 C 
HETATM    4  C7  UNL     1     -20.170 -47.145 -55.133  1.00  0.00    -0.019 C 
HETATM    5  C8  UNL     1     -20.753 -47.550 -56.389  1.00  0.00     0.020 C 
HETATM    6  C15 UNL     1     -18.659 -46.992 -55.405  1.00  0.00     0.017 C 
HETATM    7  C16 UNL     1     -18.077 -46.957 -54.044  1.00  0.00     0.043 C 
HETATM    8  C17 UNL     1     -18.908 -47.768 -53.093  1.00  0.00     0.101 C 
HETATM    9  O1  UNL     1     -19.211 -47.025 -52.020  1.00  0.00    -0.361 OA
HETATM   10  C18 UNL     1     -18.403 -46.766 -50.979  1.00  0.00     0.083 C 
HETATM   11  C19 UNL     1     -17.323 -45.696 -51.246  1.00  0.00     0.051 C 
HETATM   12  C24 UNL     1     -17.789 -48.029 -50.599  1.00  0.00    -0.031 C 
HETATM   13  C25 UNL     1     -17.189 -48.411 -49.474  1.00  0.00    -0.012 C 
HETATM   14  C26 UNL     1     -16.728 -49.855 -49.584  1.00  0.00     0.107 C 
HETATM   15  C27 UNL     1     -17.806 -50.231 -50.563  1.00  0.00     0.146 C 
HETATM   16  O4  UNL     1     -18.477 -51.173 -50.319  1.00  0.00    -0.296 OA
HETATM   17  C28 UNL     1     -17.627 -49.184 -51.586  1.00  0.00     0.077 C 
HETATM   18  C29 UNL     1     -16.085 -49.123 -51.828  1.00  0.00     0.032 C 
HETATM   19  C30 UNL     1     -18.340 -49.153 -52.833  1.00  0.00     0.115 C 
HETATM   20  C31 UNL     1     -19.399 -50.115 -53.243  1.00  0.00     0.071 C 
ENDROOT
BRANCH   4  21
HETATM   21  C9  UNL     1     -20.644 -45.740 -54.869  1.00  0.00    -0.021 C 
HETATM   22  C10 UNL     1     -20.092 -44.507 -55.253  1.00  0.00    -0.029 C 
BRANCH  22  23
HETATM   23  C11 UNL     1     -20.005 -44.120 -56.685  1.00  0.00     0.030 C 
BRANCH  23  24
HETATM   24  C12 UNL     1     -18.661 -43.348 -56.924  1.00  0.00    -0.019 C 
HETATM   25  C13 UNL     1     -18.003 -43.263 -55.576  1.00  0.00     0.010 C 
HETATM   26  C14 UNL     1     -17.821 -44.083 -57.917  1.00  0.00     0.010 C 
ENDBRANCH  23  24
ENDBRANCH  22  23
ENDBRANCH   4  21
BRANCH   1  27
HETATM   27  C2  UNL     1     -21.574 -49.319 -52.404  1.00  0.00    -0.084 C 
HETATM   28  C1  UNL     1     -21.553 -50.257 -51.529  1.00  0.00     0.015 C 
HETATM   29  C3  UNL     1     -22.583 -48.235 -52.129  1.00  0.00     0.043 C 
ENDBRANCH   1  27
BRANCH  20  30
HETATM   30  C32 UNL     1     -19.145 -51.257 -54.128  1.00  0.00     0.058 C 
HETATM   31  C33 UNL     1     -18.811 -50.981 -55.578  1.00  0.00     0.046 C 
HETATM   32  C34 UNL     1     -20.175 -52.345 -54.301  1.00  0.00     0.046 C 
BRANCH  30  33
HETATM   33  O6  UNL     1     -18.003 -51.896 -53.640  1.00  0.00    -0.390 OA
ATOM     34  H6  UNL     1     -17.260 -51.504 -54.084  1.00  0.00     0.210 HD
ENDBRANCH  30  33
ENDBRANCH  20  30
BRANCH  19  35
HETATM   35  O5  UNL     1     -17.383 -49.296 -53.893  1.00  0.00    -0.385 OA
ATOM     36  H5  UNL     1     -17.151 -48.394 -54.081  1.00  0.00     0.210 HD
ENDBRANCH  19  35
BRANCH  10  37
HETATM   37  C20 UNL     1     -19.342 -46.089 -50.015  1.00  0.00     0.052 C 
BRANCH  37  38
HETATM   38  C21 UNL     1     -20.655 -45.643 -50.435  1.00  0.00     0.114 C 
BRANCH  38  39
HETATM   39  C22 UNL     1     -21.546 -45.291 -49.254  1.00  0.00     0.258 C 
HETATM   40  O2  UNL     1     -22.734 -45.022 -49.548  1.00  0.00    -0.265 OA
BRANCH  39  41
HETATM   41  O3  UNL     1     -21.121 -45.257 -47.963  1.00  0.00    -0.326 OA
HETATM   42  C23 UNL     1     -22.034 -44.870 -46.949  1.00  0.00     0.213 C 
ENDBRANCH  39  41
ENDBRANCH  38  39
ENDBRANCH  37  38
ENDBRANCH  10  37
TORSDOF 11
ENDMDL
MODEL 3
REMARK VINA RESULT: -6.648124152      2.225      4.430
REMARK  11 active torsions:
REMARK  status: ('A' for Active; 'I' for Inactive)
REMARK    1  A    between atoms: C2_2  and  C4_4 
REMARK    2  A    between atoms: C7_7  and  C9_9 
REMARK    3  A    between atoms: C10_10  and  C11_11 
REMARK    4  A    between atoms: C11_11  and  C12_12 
REMARK    5  A    between atoms: C18_19  and  C20_21 
REMARK    6  A    between atoms: C20_21  and  C21_22 
REMARK    7  A    between atoms: C21_22  and  C22_23 
REMARK    8  A    between atoms: C22_23  and  O3_25 
REMARK    9  A    between atoms: C30_34  and  O5_35 
REMARK   10  A    between atoms: C31_37  and  C32_38 
REMARK   11  A    between atoms: C32_38  and  O6_41 
ROOT
HETATM    1  C4  UNL     1     -18.188 -47.607 -51.632  1.00  0.00    -0.005 C 
HETATM    2  C5  UNL     1     -16.997 -47.246 -50.820  1.00  0.00     0.021 C 
HETATM    3  C6  UNL     1     -19.121 -46.549 -51.871  1.00  0.00     0.048 C 
HETATM    4  C7  UNL     1     -19.365 -45.273 -51.179  1.00  0.00    -0.019 C 
HETATM    5  C8  UNL     1     -18.530 -44.711 -50.145  1.00  0.00     0.020 C 
HETATM    6  C15 UNL     1     -20.750 -45.477 -50.532  1.00  0.00     0.017 C 
HETATM    7  C16 UNL     1     -21.434 -46.382 -51.482  1.00  0.00     0.043 C 
HETATM    8  C17 UNL     1     -20.441 -47.275 -52.168  1.00  0.00     0.101 C 
HETATM    9  O1  UNL     1     -20.613 -47.199 -53.495  1.00  0.00    -0.361 OA
HETATM   10  C18 UNL     1     -21.561 -47.826 -54.210  1.00  0.00     0.083 C 
HETATM   11  C19 UNL     1     -22.964 -47.188 -54.128  1.00  0.00     0.051 C 
HETATM   12  C24 UNL     1     -21.597 -49.203 -53.744  1.00  0.00    -0.031 C 
HETATM   13  C25 UNL     1     -22.088 -50.307 -54.303  1.00  0.00    -0.012 C 
HETATM   14  C26 UNL     1     -21.855 -51.507 -53.400  1.00  0.00     0.107 C 
HETATM   15  C27 UNL     1     -20.622 -50.920 -52.769  1.00  0.00     0.146 C 
HETATM   16  O4  UNL     1     -19.637 -51.575 -52.758  1.00  0.00    -0.296 OA
HETATM   17  C28 UNL     1     -21.128 -49.601 -52.346  1.00  0.00     0.077 C 
HETATM   18  C29 UNL     1     -22.505 -49.903 -51.671  1.00  0.00     0.032 C 
HETATM   19  C30 UNL     1     -20.370 -48.667 -51.562  1.00  0.00     0.115 C 
HETATM   20  C31 UNL     1     -18.958 -48.854 -51.127  1.00  0.00     0.071 C 
ENDROOT
BRANCH   4  21
HETATM   21  C9  UNL     1     -19.586 -44.185 -52.197  1.00  0.00    -0.021 C 
HETATM   22  C10 UNL     1     -18.662 -43.367 -52.866  1.00  0.00    -0.029 C 
BRANCH  22  23
HETATM   23  C11 UNL     1     -17.677 -43.943 -53.819  1.00  0.00     0.030 C 
BRANCH  23  24
HETATM   24  C12 UNL     1     -16.269 -43.313 -53.538  1.00  0.00    -0.019 C 
HETATM   25  C13 UNL     1     -16.508 -41.836 -53.409  1.00  0.00     0.010 C 
HETATM   26  C14 UNL     1     -15.686 -43.903 -52.295  1.00  0.00     0.010 C 
ENDBRANCH  23  24
ENDBRANCH  22  23
ENDBRANCH   4  21
BRANCH   1  27
HETATM   27  C2  UNL     1     -17.458 -48.023 -52.896  1.00  0.00    -0.084 C 
HETATM   28  C1  UNL     1     -16.990 -47.195 -53.756  1.00  0.00     0.015 C 
HETATM   29  C3  UNL     1     -17.185 -49.470 -53.215  1.00  0.00     0.043 C 
ENDBRANCH   1  27
BRANCH  20  30
HETATM   30  C32 UNL     1     -18.589 -49.328 -49.789  1.00  0.00     0.058 C 
HETATM   31  C33 UNL     1     -17.138 -49.672 -49.525  1.00  0.00     0.046 C 
HETATM   32  C34 UNL     1     -19.257 -50.538 -49.186  1.00  0.00     0.046 C 
BRANCH  30  33
HETATM   33  O6  UNL     1     -18.847 -48.277 -48.906  1.00  0.00    -0.390 OA
ATOM     34  H6  UNL     1     -19.067 -48.672 -48.070  1.00  0.00     0.210 HD
ENDBRANCH  30  33
ENDBRANCH  20  30
BRANCH  19  35
HETATM   35  O5  UNL     1     -21.045 -48.491 -50.308  1.00  0.00    -0.385 OA
ATOM     36  H5  UNL     1     -20.591 -49.105 -49.744  1.00  0.00     0.210 HD
ENDBRANCH  19  35
BRANCH  10  37
HETATM   37  C20 UNL     1     -21.125 -47.542 -55.623  1.00  0.00     0.052 C 
BRANCH  37  38
HETATM   38  C21 UNL     1     -19.822 -46.974 -55.907  1.00  0.00     0.114 C 
BRANCH  38  39
HETATM   39  C22 UNL     1     -19.902 -45.492 -56.240  1.00  0.00     0.258 C 
HETATM   40  O2  UNL     1     -20.768 -44.852 -55.599  1.00  0.00    -0.265 OA
BRANCH  39  41
HETATM   41  O3  UNL     1     -19.113 -44.875 -57.158  1.00  0.00    -0.326 OA
HETATM   42  C23 UNL     1     -19.317 -43.496 -57.423  1.00  0.00     0.213 C 
ENDBRANCH  39  41
ENDBRANCH  38  39
ENDBRANCH  37  38
ENDBRANCH  10  37
TORSDOF 11
ENDMDL
MODEL 4
REMARK VINA RESULT: -6.629407998      1.985      5.819
REMARK  11 active torsions:
REMARK  status: ('A' for Active; 'I' for Inactive)
REMARK    1  A    between atoms: C2_2  and  C4_4 
REMARK    2  A    between atoms: C7_7  and  C9_9 
REMARK    3  A    between atoms: C10_10  and  C11_11 
REMARK    4  A    between atoms: C11_11  and  C12_12 
REMARK    5  A    between atoms: C18_19  and  C20_21 
REMARK    6  A    between atoms: C20_21  and  C21_22 
REMARK    7  A    between atoms: C21_22  and  C22_23 
REMARK    8  A    between atoms: C22_23  and  O3_25 
REMARK    9  A    between atoms: C30_34  and  O5_35 
REMARK   10  A    between atoms: C31_37  and  C32_38 
REMARK   11  A    between atoms: C32_38  and  O6_41 
ROOT
HETATM    1  C4  UNL     1     -19.186 -47.767 -53.897  1.00  0.00    -0.005 C 
HETATM    2  C5  UNL     1     -18.303 -47.300 -54.998  1.00  0.00     0.021 C 
HETATM    3  C6  UNL     1     -18.781 -47.394 -52.576  1.00  0.00     0.048 C 
HETATM    4  C7  UNL     1     -17.484 -46.972 -52.023  1.00  0.00    -0.019 C 
HETATM    5  C8  UNL     1     -16.308 -46.660 -52.798  1.00  0.00     0.020 C 
HETATM    6  C15 UNL     1     -17.083 -48.152 -51.114  1.00  0.00     0.017 C 
HETATM    7  C16 UNL     1     -18.387 -48.667 -50.639  1.00  0.00     0.043 C 
HETATM    8  C17 UNL     1     -19.453 -48.437 -51.671  1.00  0.00     0.101 C 
HETATM    9  O1  UNL     1     -20.496 -47.816 -51.104  1.00  0.00    -0.361 OA
HETATM   10  C18 UNL     1     -21.450 -48.390 -50.353  1.00  0.00     0.083 C 
HETATM   11  C19 UNL     1     -21.028 -48.712 -48.904  1.00  0.00     0.051 C 
HETATM   12  C24 UNL     1     -21.860 -49.600 -51.047  1.00  0.00    -0.031 C 
HETATM   13  C25 UNL     1     -22.956 -50.348 -50.937  1.00  0.00    -0.012 C 
HETATM   14  C26 UNL     1     -22.904 -51.511 -51.913  1.00  0.00     0.107 C 
HETATM   15  C27 UNL     1     -22.040 -50.776 -52.901  1.00  0.00     0.146 C 
HETATM   16  O4  UNL     1     -22.399 -50.728 -54.027  1.00  0.00    -0.296 OA
HETATM   17  C28 UNL     1     -20.940 -50.327 -52.027  1.00  0.00     0.077 C 
HETATM   18  C29 UNL     1     -20.573 -51.585 -51.175  1.00  0.00     0.032 C 
HETATM   19  C30 UNL     1     -19.756 -49.671 -52.504  1.00  0.00     0.115 C 
HETATM   20  C31 UNL     1     -19.496 -49.286 -53.919  1.00  0.00     0.071 C 
ENDROOT
BRANCH   4  21
HETATM   21  C9  UNL     1     -17.694 -45.824 -51.072  1.00  0.00    -0.021 C 
HETATM   22  C10 UNL     1     -17.607 -44.439 -51.287  1.00  0.00    -0.029 C 
BRANCH  22  23
HETATM   23  C11 UNL     1     -18.550 -43.745 -52.201  1.00  0.00     0.030 C 
BRANCH  23  24
HETATM   24  C12 UNL     1     -17.727 -42.931 -53.260  1.00  0.00    -0.019 C 
HETATM   25  C13 UNL     1     -16.343 -42.816 -52.689  1.00  0.00     0.010 C 
HETATM   26  C14 UNL     1     -17.740 -43.645 -54.573  1.00  0.00     0.010 C 
ENDBRANCH  23  24
ENDBRANCH  22  23
ENDBRANCH   4  21
BRANCH   1  27
HETATM   27  C2  UNL     1     -20.453 -47.054 -54.331  1.00  0.00    -0.084 C 
HETATM   28  C1  UNL     1     -20.706 -45.824 -54.068  1.00  0.00     0.015 C 
HETATM   29  C3  UNL     1     -21.507 -47.742 -55.158  1.00  0.00     0.043 C 
ENDBRANCH   1  27
BRANCH  20  30
HETATM   30  C32 UNL     1     -18.669 -50.088 -54.828  1.00  0.00     0.058 C 
HETATM   31  C33 UNL     1     -17.166 -50.039 -54.662  1.00  0.00     0.046 C 
HETATM   32  C34 UNL     1     -18.772 -49.912 -56.322  1.00  0.00     0.046 C 
BRANCH  30  33
HETATM   33  O6  UNL     1     -18.987 -51.425 -54.584  1.00  0.00    -0.390 OA
ATOM     34  H6  UNL     1     -18.219 -51.821 -54.188  1.00  0.00     0.210 HD
ENDBRANCH  30  33
ENDBRANCH  20  30
BRANCH  19  35
HETATM   35  O5  UNL     1     -18.634 -50.519 -52.217  1.00  0.00    -0.385 OA
ATOM     36  H5  UNL     1     -19.053 -51.324 -51.939  1.00  0.00     0.210 HD
ENDBRANCH  19  35
BRANCH  10  37
HETATM   37  C20 UNL     1     -22.439 -47.266 -50.192  1.00  0.00     0.052 C 
BRANCH  37  38
HETATM   38  C21 UNL     1     -21.999 -45.895 -50.040  1.00  0.00     0.114 C 
BRANCH  38  39
HETATM   39  C22 UNL     1     -22.879 -45.113 -49.076  1.00  0.00     0.258 C 
HETATM   40  O2  UNL     1     -23.958 -44.699 -49.563  1.00  0.00    -0.265 OA
BRANCH  39  41
HETATM   41  O3  UNL     1     -22.554 -44.861 -47.781  1.00  0.00    -0.326 OA
HETATM   42  C23 UNL     1     -21.239 -45.150 -47.334  1.00  0.00     0.213 C 
ENDBRANCH  39  41
ENDBRANCH  38  39
ENDBRANCH  37  38
ENDBRANCH  10  37
TORSDOF 11
ENDMDL
MODEL 5
REMARK VINA RESULT: -6.604773459      2.303      6.454
REMARK  11 active torsions:
REMARK  status: ('A' for Active; 'I' for Inactive)
REMARK    1  A    between atoms: C2_2  and  C4_4 
REMARK    2  A    between atoms: C7_7  and  C9_9 
REMARK    3  A    between atoms: C10_10  and  C11_11 
REMARK    4  A    between atoms: C11_11  and  C12_12 
REMARK    5  A    between atoms: C18_19  and  C20_21 
REMARK    6  A    between atoms: C20_21  and  C21_22 
REMARK    7  A    between atoms: C21_22  and  C22_23 
REMARK    8  A    between atoms: C22_23  and  O3_25 
REMARK    9  A    between atoms: C30_34  and  O5_35 
REMARK   10  A    between atoms: C31_37  and  C32_38 
REMARK   11  A    between atoms: C32_38  and  O6_41 
ROOT
HETATM    1  C4  UNL     1     -19.233 -49.337 -52.473  1.00  0.00    -0.005 C 
HETATM    2  C5  UNL     1     -19.570 -50.735 -52.095  1.00  0.00     0.021 C 
HETATM    3  C6  UNL     1     -18.054 -49.176 -53.267  1.00  0.00     0.048 C 
HETATM    4  C7  UNL     1     -16.882 -50.040 -53.483  1.00  0.00    -0.019 C 
HETATM    5  C8  UNL     1     -16.761 -51.407 -53.036  1.00  0.00     0.020 C 
HETATM    6  C15 UNL     1     -15.738 -49.272 -52.789  1.00  0.00     0.017 C 
HETATM    7  C16 UNL     1     -16.131 -47.855 -52.967  1.00  0.00     0.043 C 
HETATM    8  C17 UNL     1     -17.626 -47.724 -53.009  1.00  0.00     0.101 C 
HETATM    9  O1  UNL     1     -17.983 -47.035 -54.102  1.00  0.00    -0.361 OA
HETATM   10  C18 UNL     1     -17.933 -45.701 -54.251  1.00  0.00     0.083 C 
HETATM   11  C19 UNL     1     -16.524 -45.130 -54.517  1.00  0.00     0.051 C 
HETATM   12  C24 UNL     1     -18.501 -45.122 -53.045  1.00  0.00    -0.031 C 
HETATM   13  C25 UNL     1     -18.991 -43.909 -52.798  1.00  0.00    -0.012 C 
HETATM   14  C26 UNL     1     -19.481 -43.816 -51.363  1.00  0.00     0.107 C 
HETATM   15  C27 UNL     1     -19.793 -45.284 -51.268  1.00  0.00     0.146 C 
HETATM   16  O4  UNL     1     -20.871 -45.602 -50.902  1.00  0.00    -0.296 OA
HETATM   17  C28 UNL     1     -18.514 -45.869 -51.712  1.00  0.00     0.077 C 
HETATM   18  C29 UNL     1     -17.420 -45.064 -50.937  1.00  0.00     0.032 C 
HETATM   19  C30 UNL     1     -18.225 -47.275 -51.687  1.00  0.00     0.115 C 
HETATM   20  C31 UNL     1     -19.180 -48.343 -51.285  1.00  0.00     0.071 C 
ENDROOT
BRANCH   4  21
HETATM   21  C9  UNL     1     -16.509 -50.026 -54.942  1.00  0.00    -0.021 C 
HETATM   22  C10 UNL     1     -16.871 -50.900 -55.980  1.00  0.00    -0.029 C 
BRANCH  22  23
HETATM   23  C11 UNL     1     -18.283 -51.016 -56.427  1.00  0.00     0.030 C 
BRANCH  23  24
HETATM   24  C12 UNL     1     -18.712 -52.523 -56.373  1.00  0.00    -0.019 C 
HETATM   25  C13 UNL     1     -17.430 -53.304 -56.322  1.00  0.00     0.010 C 
HETATM   26  C14 UNL     1     -19.570 -52.765 -55.173  1.00  0.00     0.010 C 
ENDBRANCH  23  24
ENDBRANCH  22  23
ENDBRANCH   4  21
BRANCH   1  27
HETATM   27  C2  UNL     1     -20.496 -49.023 -53.253  1.00  0.00    -0.084 C 
HETATM   28  C1  UNL     1     -20.656 -49.301 -54.496  1.00  0.00     0.015 C 
HETATM   29  C3  UNL     1     -21.696 -48.391 -52.599  1.00  0.00     0.043 C 
ENDBRANCH   1  27
BRANCH  20  30
HETATM   30  C32 UNL     1     -19.187 -48.951 -49.950  1.00  0.00     0.058 C 
HETATM   31  C33 UNL     1     -18.013 -49.819 -49.551  1.00  0.00     0.046 C 
HETATM   32  C34 UNL     1     -20.326 -49.837 -49.510  1.00  0.00     0.046 C 
BRANCH  30  33
HETATM   33  O6  UNL     1     -19.151 -47.901 -49.031  1.00  0.00    -0.390 OA
ATOM     34  H6  UNL     1     -18.673 -48.217 -48.273  1.00  0.00     0.210 HD
ENDBRANCH  30  33
ENDBRANCH  20  30
BRANCH  19  35
HETATM   35  O5  UNL     1     -17.140 -47.488 -50.771  1.00  0.00    -0.385 OA
ATOM     36  H5  UNL     1     -16.413 -47.669 -51.355  1.00  0.00     0.210 HD
ENDBRANCH  19  35
BRANCH  10  37
HETATM   37  C20 UNL     1     -18.647 -45.507 -55.563  1.00  0.00     0.052 C 
BRANCH  37  38
HETATM   38  C21 UNL     1     -18.051 -44.734 -56.634  1.00  0.00     0.114 C 
BRANCH  38  39
HETATM   39  C22 UNL     1     -18.727 -43.383 -56.810  1.00  0.00     0.258 C 
HETATM   40  O2  UNL     1     -19.910 -43.432 -57.220  1.00  0.00    -0.265 OA
BRANCH  39  41
HETATM   41  O3  UNL     1     -18.124 -42.192 -56.555  1.00  0.00    -0.326 OA
HETATM   42  C23 UNL     1     -16.715 -42.093 -56.684  1.00  0.00     0.213 C 
ENDBRANCH  39  41
ENDBRANCH  38  39
ENDBRANCH  37  38
ENDBRANCH  10  37
TORSDOF 11
ENDMDL
