MODEL 1
REMARK VINA RESULT: -7.375412818      0.000      0.000
REMARK  12 active torsions:
REMARK  status: ('A' for Active; 'I' for Inactive)
REMARK    1  A    between atoms: C13_14  and  C14_15 
REMARK    2  A    between atoms: C14_15  and  C15_16 
REMARK    3  A    between atoms: C15_16  and  C16_17 
REMARK    4  A    between atoms: C16_17  and  C17_18 
REMARK    5  A    between atoms: C17_18  and  O2_20 
REMARK    6  A    between atoms: C17_18  and  C19_22 
REMARK    7  A    between atoms: C19_22  and  C20_23 
REMARK    8  A    between atoms: C20_23  and  C21_24 
REMARK    9  A    between atoms: C21_24  and  C22_25 
REMARK   10  A    between atoms: C24_28  and  C25_29 
REMARK   11  A    between atoms: C28_33  and  O5_34 
REMARK   12  A    between atoms: O5_34  and  C29_35 
ROOT
HETATM    1  C1  UNL     1     -23.887 -47.269 -54.621  1.00  0.00     0.015 C 
HETATM    2  C2  UNL     1     -23.310 -48.373 -54.246  1.00  0.00    -0.078 C 
HETATM    3  C3  UNL     1     -23.987 -49.704 -54.435  1.00  0.00     0.034 C 
HETATM    4  C4  UNL     1     -23.017 -50.719 -53.784  1.00  0.00     0.010 C 
HETATM    5  C5  UNL     1     -21.769 -50.025 -54.253  1.00  0.00     0.006 C 
HETATM    6  C6  UNL     1     -20.508 -50.291 -53.689  1.00  0.00     0.011 C 
HETATM    7  C7  UNL     1     -19.813 -51.502 -54.342  1.00  0.00     0.036 C 
HETATM    8  C8  UNL     1     -18.424 -51.441 -53.798  1.00  0.00     0.007 C 
HETATM    9  C9  UNL     1     -17.894 -50.268 -53.938  1.00  0.00     0.053 C 
HETATM   10  O1  UNL     1     -16.725 -49.662 -53.567  1.00  0.00    -0.340 OA
HETATM   11  C10 UNL     1     -17.273 -48.734 -52.439  1.00  0.00     0.086 C 
HETATM   12  C11 UNL     1     -16.476 -47.593 -52.200  1.00  0.00     0.051 C 
HETATM   13  C12 UNL     1     -16.640 -49.654 -51.301  1.00  0.00     0.051 C 
HETATM   14  C13 UNL     1     -18.789 -48.864 -52.354  1.00  0.00    -0.015 C 
HETATM   15  C27 UNL     1     -19.649 -48.967 -53.606  1.00  0.00     0.032 C 
HETATM   16  C28 UNL     1     -20.760 -48.008 -53.848  1.00  0.00     0.159 C 
HETATM   17  C31 UNL     1     -22.083 -48.652 -53.622  1.00  0.00     0.011 C 
HETATM   18  C32 UNL     1     -22.480 -48.778 -52.168  1.00  0.00     0.023 C 
HETATM   19  C33 UNL     1     -18.696 -49.210 -54.743  1.00  0.00     0.016 C 
HETATM   20  C34 UNL     1     -17.760 -48.092 -55.119  1.00  0.00     0.023 C 
HETATM   21  C35 UNL     1     -18.980 -49.816 -56.011  1.00  0.00     0.023 C 
ENDROOT
BRANCH  14  22
HETATM   22  C14 UNL     1     -19.112 -47.906 -51.270  1.00  0.00     0.015 C 
HETATM   23  C24 UNL     1     -19.359 -48.330 -50.031  1.00  0.00     0.069 C 
BRANCH  22  24
HETATM   24  C15 UNL     1     -19.118 -46.472 -51.325  1.00  0.00    -0.141 C 
BRANCH  24  25
HETATM   25  C16 UNL     1     -19.124 -45.244 -51.372  1.00  0.00     0.123 C 
BRANCH  25  26
HETATM   26  C17 UNL     1     -18.212 -44.251 -51.929  1.00  0.00     0.064 C 
HETATM   27  C18 UNL     1     -17.085 -44.079 -50.908  1.00  0.00     0.046 C 
BRANCH  26  28
HETATM   28  O2  UNL     1     -18.883 -42.954 -51.902  1.00  0.00    -0.389 OA
ATOM     29  H2  UNL     1     -18.228 -42.281 -52.044  1.00  0.00     0.210 HD
ENDBRANCH  26  28
BRANCH  26  30
HETATM   30  C19 UNL     1     -17.712 -44.375 -53.288  1.00  0.00     0.038 C 
BRANCH  30  31
HETATM   31  C20 UNL     1     -16.612 -43.597 -53.853  1.00  0.00     0.010 C 
BRANCH  31  32
HETATM   32  C21 UNL     1     -16.889 -42.833 -55.125  1.00  0.00     0.078 C 
BRANCH  32  33
HETATM   33  C22 UNL     1     -16.144 -43.471 -56.271  1.00  0.00     0.123 C 
HETATM   34  C23 UNL     1     -16.656 -43.346 -57.648  1.00  0.00     0.091 C 
HETATM   35  O3  UNL     1     -15.132 -44.078 -56.028  1.00  0.00    -0.298 OA
ENDBRANCH  32  33
ENDBRANCH  31  32
ENDBRANCH  30  31
ENDBRANCH  26  30
ENDBRANCH  25  26
ENDBRANCH  24  25
ENDBRANCH  22  24
BRANCH  23  36
HETATM   36  C25 UNL     1     -19.418 -49.571 -49.358  1.00  0.00     0.146 C 
HETATM   37  C26 UNL     1     -20.400 -50.657 -49.739  1.00  0.00     0.096 C 
HETATM   38  O4  UNL     1     -18.697 -49.909 -48.404  1.00  0.00    -0.294 OA
ENDBRANCH  23  36
ENDBRANCH  14  22
BRANCH  16  39
HETATM   39  O5  UNL     1     -20.573 -47.297 -54.996  1.00  0.00    -0.314 OA
BRANCH  39  40
HETATM   40  C29 UNL     1     -20.416 -45.986 -55.260  1.00  0.00     0.255 C 
HETATM   41  C30 UNL     1     -19.680 -45.373 -56.371  1.00  0.00     0.126 C 
HETATM   42  O6  UNL     1     -20.987 -45.307 -54.425  1.00  0.00    -0.266 OA
ENDBRANCH  39  40
ENDBRANCH  16  39
TORSDOF 12
ENDMDL
MODEL 2
REMARK VINA RESULT: -7.117718317      1.460      1.574
REMARK  12 active torsions:
REMARK  status: ('A' for Active; 'I' for Inactive)
REMARK    1  A    between atoms: C13_14  and  C14_15 
REMARK    2  A    between atoms: C14_15  and  C15_16 
REMARK    3  A    between atoms: C15_16  and  C16_17 
REMARK    4  A    between atoms: C16_17  and  C17_18 
REMARK    5  A    between atoms: C17_18  and  O2_20 
REMARK    6  A    between atoms: C17_18  and  C19_22 
REMARK    7  A    between atoms: C19_22  and  C20_23 
REMARK    8  A    between atoms: C20_23  and  C21_24 
REMARK    9  A    between atoms: C21_24  and  C22_25 
REMARK   10  A    between atoms: C24_28  and  C25_29 
REMARK   11  A    between atoms: C28_33  and  O5_34 
REMARK   12  A    between atoms: O5_34  and  C29_35 
ROOT
HETATM    1  C1  UNL     1     -23.376 -47.247 -51.753  1.00  0.00     0.015 C 
HETATM    2  C2  UNL     1     -22.724 -48.372 -51.728  1.00  0.00    -0.078 C 
HETATM    3  C3  UNL     1     -23.450 -49.687 -51.651  1.00  0.00     0.034 C 
HETATM    4  C4  UNL     1     -22.320 -50.740 -51.553  1.00  0.00     0.010 C 
HETATM    5  C5  UNL     1     -21.397 -50.028 -52.503  1.00  0.00     0.006 C 
HETATM    6  C6  UNL     1     -20.026 -50.330 -52.579  1.00  0.00     0.011 C 
HETATM    7  C7  UNL     1     -19.733 -51.509 -53.530  1.00  0.00     0.036 C 
HETATM    8  C8  UNL     1     -18.247 -51.483 -53.668  1.00  0.00     0.007 C 
HETATM    9  C9  UNL     1     -17.804 -50.306 -53.979  1.00  0.00     0.053 C 
HETATM   10  O1  UNL     1     -16.577 -49.727 -54.148  1.00  0.00    -0.340 OA
HETATM   11  C10 UNL     1     -16.532 -48.856 -52.854  1.00  0.00     0.086 C 
HETATM   12  C11 UNL     1     -15.681 -47.734 -52.949  1.00  0.00     0.051 C 
HETATM   13  C12 UNL     1     -15.481 -49.838 -52.165  1.00  0.00     0.051 C 
HETATM   14  C13 UNL     1     -17.850 -48.984 -52.101  1.00  0.00    -0.015 C 
HETATM   15  C27 UNL     1     -19.185 -49.017 -52.834  1.00  0.00     0.032 C 
HETATM   16  C28 UNL     1     -20.258 -48.041 -52.507  1.00  0.00     0.159 C 
HETATM   17  C31 UNL     1     -21.355 -48.689 -51.738  1.00  0.00     0.011 C 
HETATM   18  C32 UNL     1     -21.060 -48.889 -50.267  1.00  0.00     0.023 C 
HETATM   19  C33 UNL     1     -18.852 -49.204 -54.288  1.00  0.00     0.016 C 
HETATM   20  C34 UNL     1     -18.154 -48.073 -54.996  1.00  0.00     0.023 C 
HETATM   21  C35 UNL     1     -19.693 -49.742 -55.318  1.00  0.00     0.023 C 
ENDROOT
BRANCH  14  22
HETATM   22  C14 UNL     1     -17.624 -48.082 -50.946  1.00  0.00     0.015 C 
HETATM   23  C24 UNL     1     -17.327 -48.571 -49.743  1.00  0.00     0.069 C 
BRANCH  22  24
HETATM   24  C15 UNL     1     -17.587 -46.647 -50.933  1.00  0.00    -0.141 C 
BRANCH  24  25
HETATM   25  C16 UNL     1     -17.556 -45.419 -50.923  1.00  0.00     0.123 C 
BRANCH  25  26
HETATM   26  C17 UNL     1     -17.260 -44.409 -51.933  1.00  0.00     0.064 C 
HETATM   27  C18 UNL     1     -16.017 -43.660 -51.444  1.00  0.00     0.046 C 
BRANCH  26  28
HETATM   28  O2  UNL     1     -18.304 -43.389 -51.872  1.00  0.00    -0.389 OA
ATOM     29  H2  UNL     1     -18.335 -42.949 -52.713  1.00  0.00     0.210 HD
ENDBRANCH  26  28
BRANCH  26  30
HETATM   30  C19 UNL     1     -17.175 -44.761 -53.340  1.00  0.00     0.038 C 
BRANCH  30  31
HETATM   31  C20 UNL     1     -17.542 -43.884 -54.450  1.00  0.00     0.010 C 
BRANCH  31  32
HETATM   32  C21 UNL     1     -17.215 -44.360 -55.844  1.00  0.00     0.078 C 
BRANCH  32  33
HETATM   33  C22 UNL     1     -16.048 -43.575 -56.386  1.00  0.00     0.123 C 
HETATM   34  C23 UNL     1     -16.281 -42.419 -57.272  1.00  0.00     0.091 C 
HETATM   35  O3  UNL     1     -14.935 -43.917 -56.077  1.00  0.00    -0.298 OA
ENDBRANCH  32  33
ENDBRANCH  31  32
ENDBRANCH  30  31
ENDBRANCH  26  30
ENDBRANCH  25  26
ENDBRANCH  24  25
ENDBRANCH  22  24
BRANCH  23  36
HETATM   36  C25 UNL     1     -17.144 -49.846 -49.163  1.00  0.00     0.146 C 
HETATM   37  C26 UNL     1     -18.077 -51.005 -49.438  1.00  0.00     0.096 C 
HETATM   38  O4  UNL     1     -16.228 -50.161 -48.385  1.00  0.00    -0.294 OA
ENDBRANCH  23  36
ENDBRANCH  14  22
BRANCH  16  39
HETATM   39  O5  UNL     1     -20.587 -47.271 -53.583  1.00  0.00    -0.314 OA
BRANCH  39  40
HETATM   40  C29 UNL     1     -20.630 -45.942 -53.795  1.00  0.00     0.255 C 
HETATM   41  C30 UNL     1     -20.826 -45.239 -55.067  1.00  0.00     0.126 C 
HETATM   42  O6  UNL     1     -20.478 -45.334 -52.750  1.00  0.00    -0.266 OA
ENDBRANCH  39  40
ENDBRANCH  16  39
TORSDOF 12
ENDMDL
MODEL 3
REMARK VINA RESULT: -7.100988453      3.536      6.608
REMARK  12 active torsions:
REMARK  status: ('A' for Active; 'I' for Inactive)
REMARK    1  A    between atoms: C13_14  and  C14_15 
REMARK    2  A    between atoms: C14_15  and  C15_16 
REMARK    3  A    between atoms: C15_16  and  C16_17 
REMARK    4  A    between atoms: C16_17  and  C17_18 
REMARK    5  A    between atoms: C17_18  and  O2_20 
REMARK    6  A    between atoms: C17_18  and  C19_22 
REMARK    7  A    between atoms: C19_22  and  C20_23 
REMARK    8  A    between atoms: C20_23  and  C21_24 
REMARK    9  A    between atoms: C21_24  and  C22_25 
REMARK   10  A    between atoms: C24_28  and  C25_29 
REMARK   11  A    between atoms: C28_33  and  O5_34 
REMARK   12  A    between atoms: O5_34  and  C29_35 
ROOT
HETATM    1  C1  UNL     1     -17.924 -42.692 -53.650  1.00  0.00     0.015 C 
HETATM    2  C2  UNL     1     -18.157 -43.830 -54.235  1.00  0.00    -0.078 C 
HETATM    3  C3  UNL     1     -17.760 -44.059 -55.669  1.00  0.00     0.034 C 
HETATM    4  C4  UNL     1     -18.290 -45.477 -55.988  1.00  0.00     0.010 C 
HETATM    5  C5  UNL     1     -17.964 -46.045 -54.635  1.00  0.00     0.006 C 
HETATM    6  C6  UNL     1     -18.524 -47.250 -54.176  1.00  0.00     0.011 C 
HETATM    7  C7  UNL     1     -17.728 -48.487 -54.641  1.00  0.00     0.036 C 
HETATM    8  C8  UNL     1     -18.318 -49.601 -53.843  1.00  0.00     0.007 C 
HETATM    9  C9  UNL     1     -18.363 -49.328 -52.577  1.00  0.00     0.053 C 
HETATM   10  O1  UNL     1     -18.852 -49.934 -51.453  1.00  0.00    -0.340 OA
HETATM   11  C10 UNL     1     -20.083 -49.011 -51.189  1.00  0.00     0.086 C 
HETATM   12  C11 UNL     1     -20.506 -48.995 -49.842  1.00  0.00     0.051 C 
HETATM   13  C12 UNL     1     -21.098 -50.131 -51.697  1.00  0.00     0.051 C 
HETATM   14  C13 UNL     1     -20.101 -47.873 -52.201  1.00  0.00    -0.015 C 
HETATM   15  C27 UNL     1     -18.820 -47.167 -52.626  1.00  0.00     0.032 C 
HETATM   16  C28 UNL     1     -18.682 -45.692 -52.489  1.00  0.00     0.159 C 
HETATM   17  C31 UNL     1     -18.773 -45.020 -53.813  1.00  0.00     0.011 C 
HETATM   18  C32 UNL     1     -20.182 -44.859 -54.342  1.00  0.00     0.023 C 
HETATM   19  C33 UNL     1     -17.691 -48.010 -52.104  1.00  0.00     0.016 C 
HETATM   20  C34 UNL     1     -17.507 -48.084 -50.612  1.00  0.00     0.023 C 
HETATM   21  C35 UNL     1     -16.341 -48.065 -52.586  1.00  0.00     0.023 C 
ENDROOT
BRANCH  14  22
HETATM   22  C14 UNL     1     -21.299 -47.111 -51.774  1.00  0.00     0.015 C 
HETATM   23  C24 UNL     1     -22.436 -47.178 -52.465  1.00  0.00     0.069 C 
BRANCH  22  24
HETATM   24  C15 UNL     1     -21.471 -46.316 -50.592  1.00  0.00    -0.141 C 
BRANCH  24  25
HETATM   25  C16 UNL     1     -21.619 -45.634 -49.580  1.00  0.00     0.123 C 
BRANCH  25  26
HETATM   26  C17 UNL     1     -22.758 -45.343 -48.717  1.00  0.00     0.064 C 
HETATM   27  C18 UNL     1     -23.627 -46.603 -48.710  1.00  0.00     0.046 C 
BRANCH  26  28
HETATM   28  O2  UNL     1     -23.602 -44.364 -49.397  1.00  0.00    -0.389 OA
ATOM     29  H2  UNL     1     -24.264 -44.068 -48.783  1.00  0.00     0.210 HD
ENDBRANCH  26  28
BRANCH  26  30
HETATM   30  C19 UNL     1     -22.566 -44.796 -47.384  1.00  0.00     0.038 C 
BRANCH  30  31
HETATM   31  C20 UNL     1     -23.597 -44.718 -46.352  1.00  0.00     0.010 C 
BRANCH  31  32
HETATM   32  C21 UNL     1     -24.217 -43.366 -46.096  1.00  0.00     0.078 C 
BRANCH  32  33
HETATM   33  C22 UNL     1     -25.577 -43.301 -46.744  1.00  0.00     0.123 C 
HETATM   34  C23 UNL     1     -26.786 -43.612 -45.959  1.00  0.00     0.091 C 
HETATM   35  O3  UNL     1     -25.643 -42.992 -47.907  1.00  0.00    -0.298 OA
ENDBRANCH  32  33
ENDBRANCH  31  32
ENDBRANCH  30  31
ENDBRANCH  26  30
ENDBRANCH  25  26
ENDBRANCH  24  25
ENDBRANCH  22  24
BRANCH  23  36
HETATM   36  C25 UNL     1     -22.900 -47.833 -53.628  1.00  0.00     0.146 C 
HETATM   37  C26 UNL     1     -22.034 -48.021 -54.855  1.00  0.00     0.096 C 
HETATM   38  O4  UNL     1     -24.035 -48.316 -53.781  1.00  0.00    -0.294 OA
ENDBRANCH  23  36
ENDBRANCH  14  22
BRANCH  16  39
HETATM   39  O5  UNL     1     -17.653 -45.356 -51.660  1.00  0.00    -0.314 OA
BRANCH  39  40
HETATM   40  C29 UNL     1     -17.499 -44.421 -50.703  1.00  0.00     0.255 C 
HETATM   41  C30 UNL     1     -16.306 -43.620 -50.410  1.00  0.00     0.126 C 
HETATM   42  O6  UNL     1     -18.524 -44.295 -50.056  1.00  0.00    -0.266 OA
ENDBRANCH  39  40
ENDBRANCH  16  39
TORSDOF 12
ENDMDL
MODEL 4
REMARK VINA RESULT: -7.029055350      2.750      6.014
REMARK  12 active torsions:
REMARK  status: ('A' for Active; 'I' for Inactive)
REMARK    1  A    between atoms: C13_14  and  C14_15 
REMARK    2  A    between atoms: C14_15  and  C15_16 
REMARK    3  A    between atoms: C15_16  and  C16_17 
REMARK    4  A    between atoms: C16_17  and  C17_18 
REMARK    5  A    between atoms: C17_18  and  O2_20 
REMARK    6  A    between atoms: C17_18  and  C19_22 
REMARK    7  A    between atoms: C19_22  and  C20_23 
REMARK    8  A    between atoms: C20_23  and  C21_24 
REMARK    9  A    between atoms: C21_24  and  C22_25 
REMARK   10  A    between atoms: C24_28  and  C25_29 
REMARK   11  A    between atoms: C28_33  and  O5_34 
REMARK   12  A    between atoms: O5_34  and  C29_35 
ROOT
HETATM    1  C1  UNL     1     -17.990 -42.772 -53.983  1.00  0.00     0.015 C 
HETATM    2  C2  UNL     1     -18.300 -43.926 -54.498  1.00  0.00    -0.078 C 
HETATM    3  C3  UNL     1     -18.079 -44.206 -55.960  1.00  0.00     0.034 C 
HETATM    4  C4  UNL     1     -18.654 -45.628 -56.165  1.00  0.00     0.010 C 
HETATM    5  C5  UNL     1     -18.173 -46.155 -54.842  1.00  0.00     0.006 C 
HETATM    6  C6  UNL     1     -18.683 -47.338 -54.277  1.00  0.00     0.011 C 
HETATM    7  C7  UNL     1     -17.957 -48.598 -54.791  1.00  0.00     0.036 C 
HETATM    8  C8  UNL     1     -18.457 -49.678 -53.891  1.00  0.00     0.007 C 
HETATM    9  C9  UNL     1     -18.348 -49.363 -52.639  1.00  0.00     0.053 C 
HETATM   10  O1  UNL     1     -18.704 -49.925 -51.445  1.00  0.00    -0.340 OA
HETATM   11  C10 UNL     1     -19.888 -48.980 -51.068  1.00  0.00     0.086 C 
HETATM   12  C11 UNL     1     -20.147 -48.915 -49.681  1.00  0.00     0.051 C 
HETATM   13  C12 UNL     1     -20.965 -50.105 -51.412  1.00  0.00     0.051 C 
HETATM   14  C13 UNL     1     -20.018 -47.876 -52.109  1.00  0.00    -0.015 C 
HETATM   15  C27 UNL     1     -18.792 -47.199 -52.707  1.00  0.00     0.032 C 
HETATM   16  C28 UNL     1     -18.627 -45.723 -52.638  1.00  0.00     0.159 C 
HETATM   17  C31 UNL     1     -18.870 -45.094 -53.965  1.00  0.00     0.011 C 
HETATM   18  C32 UNL     1     -20.331 -44.935 -54.327  1.00  0.00     0.023 C 
HETATM   19  C33 UNL     1     -17.615 -48.038 -52.295  1.00  0.00     0.016 C 
HETATM   20  C34 UNL     1     -17.254 -48.064 -50.833  1.00  0.00     0.023 C 
HETATM   21  C35 UNL     1     -16.333 -48.124 -52.932  1.00  0.00     0.023 C 
ENDROOT
BRANCH  14  22
HETATM   22  C14 UNL     1     -21.151 -47.087 -51.569  1.00  0.00     0.015 C 
HETATM   23  C24 UNL     1     -22.368 -47.180 -52.103  1.00  0.00     0.069 C 
BRANCH  22  24
HETATM   24  C15 UNL     1     -21.169 -46.234 -50.415  1.00  0.00    -0.141 C 
BRANCH  24  25
HETATM   25  C16 UNL     1     -21.184 -45.503 -49.427  1.00  0.00     0.123 C 
BRANCH  25  26
HETATM   26  C17 UNL     1     -21.957 -45.494 -48.190  1.00  0.00     0.064 C 
HETATM   27  C18 UNL     1     -21.006 -45.014 -47.090  1.00  0.00     0.046 C 
BRANCH  26  28
HETATM   28  O2  UNL     1     -22.223 -46.880 -47.813  1.00  0.00    -0.389 OA
ATOM     29  H2  UNL     1     -21.923 -47.440 -48.519  1.00  0.00     0.210 HD
ENDBRANCH  26  28
BRANCH  26  30
HETATM   30  C19 UNL     1     -23.254 -44.842 -48.123  1.00  0.00     0.038 C 
BRANCH  30  31
HETATM   31  C20 UNL     1     -24.510 -45.419 -48.596  1.00  0.00     0.010 C 
BRANCH  31  32
HETATM   32  C21 UNL     1     -25.081 -44.872 -49.882  1.00  0.00     0.078 C 
BRANCH  32  33
HETATM   33  C22 UNL     1     -25.509 -46.012 -50.771  1.00  0.00     0.123 C 
HETATM   34  C23 UNL     1     -25.609 -47.378 -50.227  1.00  0.00     0.091 C 
HETATM   35  O3  UNL     1     -25.763 -45.772 -51.925  1.00  0.00    -0.298 OA
ENDBRANCH  32  33
ENDBRANCH  31  32
ENDBRANCH  30  31
ENDBRANCH  26  30
ENDBRANCH  25  26
ENDBRANCH  24  25
ENDBRANCH  22  24
BRANCH  23  36
HETATM   36  C25 UNL     1     -22.978 -47.887 -53.163  1.00  0.00     0.146 C 
HETATM   37  C26 UNL     1     -22.452 -47.840 -54.581  1.00  0.00     0.096 C 
HETATM   38  O4  UNL     1     -23.985 -48.609 -53.064  1.00  0.00    -0.294 OA
ENDBRANCH  23  36
ENDBRANCH  14  22
BRANCH  16  39
HETATM   39  O5  UNL     1     -17.504 -45.371 -51.950  1.00  0.00    -0.314 OA
BRANCH  39  40
HETATM   40  C29 UNL     1     -17.221 -44.387 -51.076  1.00  0.00     0.255 C 
HETATM   41  C30 UNL     1     -16.038 -43.521 -51.047  1.00  0.00     0.126 C 
HETATM   42  O6  UNL     1     -18.109 -44.277 -50.249  1.00  0.00    -0.266 OA
ENDBRANCH  39  40
ENDBRANCH  16  39
TORSDOF 12
ENDMDL
MODEL 5
REMARK VINA RESULT: -6.839192649      6.752      9.247
REMARK  12 active torsions:
REMARK  status: ('A' for Active; 'I' for Inactive)
REMARK    1  A    between atoms: C13_14  and  C14_15 
REMARK    2  A    between atoms: C14_15  and  C15_16 
REMARK    3  A    between atoms: C15_16  and  C16_17 
REMARK    4  A    between atoms: C16_17  and  C17_18 
REMARK    5  A    between atoms: C17_18  and  O2_20 
REMARK    6  A    between atoms: C17_18  and  C19_22 
REMARK    7  A    between atoms: C19_22  and  C20_23 
REMARK    8  A    between atoms: C20_23  and  C21_24 
REMARK    9  A    between atoms: C21_24  and  C22_25 
REMARK   10  A    between atoms: C24_28  and  C25_29 
REMARK   11  A    between atoms: C28_33  and  O5_34 
REMARK   12  A    between atoms: O5_34  and  C29_35 
ROOT
HETATM    1  C1  UNL     1     -28.570 -48.030 -51.198  1.00  0.00     0.015 C 
HETATM    2  C2  UNL     1     -28.014 -48.925 -50.435  1.00  0.00    -0.078 C 
HETATM    3  C3  UNL     1     -28.402 -50.376 -50.535  1.00  0.00     0.034 C 
HETATM    4  C4  UNL     1     -27.587 -51.064 -49.414  1.00  0.00     0.010 C 
HETATM    5  C5  UNL     1     -26.358 -50.221 -49.609  1.00  0.00     0.006 C 
HETATM    6  C6  UNL     1     -25.344 -50.141 -48.639  1.00  0.00     0.011 C 
HETATM    7  C7  UNL     1     -24.312 -51.280 -48.768  1.00  0.00     0.036 C 
HETATM    8  C8  UNL     1     -23.215 -50.862 -47.847  1.00  0.00     0.007 C 
HETATM    9  C9  UNL     1     -22.830 -49.644 -48.064  1.00  0.00     0.053 C 
HETATM   10  O1  UNL     1     -21.951 -48.770 -47.488  1.00  0.00    -0.340 OA
HETATM   11  C10 UNL     1     -22.970 -47.801 -46.812  1.00  0.00     0.086 C 
HETATM   12  C11 UNL     1     -22.462 -46.503 -46.588  1.00  0.00     0.051 C 
HETATM   13  C12 UNL     1     -22.648 -48.387 -45.364  1.00  0.00     0.051 C 
HETATM   14  C13 UNL     1     -24.391 -48.212 -47.175  1.00  0.00    -0.015 C 
HETATM   15  C27 UNL     1     -24.749 -48.679 -48.580  1.00  0.00     0.032 C 
HETATM   16  C28 UNL     1     -25.827 -48.007 -49.354  1.00  0.00     0.159 C 
HETATM   17  C31 UNL     1     -27.049 -48.854 -49.417  1.00  0.00     0.011 C 
HETATM   18  C32 UNL     1     -27.900 -48.825 -48.166  1.00  0.00     0.023 C 
HETATM   19  C33 UNL     1     -23.441 -48.906 -49.285  1.00  0.00     0.016 C 
HETATM   20  C34 UNL     1     -22.590 -47.700 -49.583  1.00  0.00     0.023 C 
HETATM   21  C35 UNL     1     -23.191 -49.749 -50.418  1.00  0.00     0.023 C 
ENDROOT
BRANCH  14  22
HETATM   22  C14 UNL     1     -25.190 -47.177 -46.477  1.00  0.00     0.015 C 
HETATM   23  C24 UNL     1     -25.888 -47.472 -45.381  1.00  0.00     0.069 C 
BRANCH  22  24
HETATM   24  C15 UNL     1     -25.272 -45.773 -46.766  1.00  0.00    -0.141 C 
BRANCH  24  25
HETATM   25  C16 UNL     1     -25.342 -44.571 -47.012  1.00  0.00     0.123 C 
BRANCH  25  26
HETATM   26  C17 UNL     1     -25.486 -43.378 -46.186  1.00  0.00     0.064 C 
HETATM   27  C18 UNL     1     -26.987 -43.200 -45.944  1.00  0.00     0.046 C 
BRANCH  26  28
HETATM   28  O2  UNL     1     -25.144 -42.216 -47.003  1.00  0.00    -0.389 OA
ATOM     29  H2  UNL     1     -24.696 -42.526 -47.782  1.00  0.00     0.210 HD
ENDBRANCH  26  28
BRANCH  26  30
HETATM   30  C19 UNL     1     -24.707 -43.212 -44.971  1.00  0.00     0.038 C 
BRANCH  30  31
HETATM   31  C20 UNL     1     -25.223 -43.374 -43.613  1.00  0.00     0.010 C 
BRANCH  31  32
HETATM   32  C21 UNL     1     -25.235 -44.770 -43.041  1.00  0.00     0.078 C 
BRANCH  32  33
HETATM   33  C22 UNL     1     -26.497 -44.979 -42.242  1.00  0.00     0.123 C 
HETATM   34  C23 UNL     1     -27.756 -45.330 -42.925  1.00  0.00     0.091 C 
HETATM   35  O3  UNL     1     -26.444 -44.851 -41.045  1.00  0.00    -0.298 OA
ENDBRANCH  32  33
ENDBRANCH  31  32
ENDBRANCH  30  31
ENDBRANCH  26  30
ENDBRANCH  25  26
ENDBRANCH  24  25
ENDBRANCH  22  24
BRANCH  23  36
HETATM   36  C25 UNL     1     -26.130 -48.617 -44.590  1.00  0.00     0.146 C 
HETATM   37  C26 UNL     1     -26.058 -50.022 -45.148  1.00  0.00     0.096 C 
HETATM   38  O4  UNL     1     -26.421 -48.611 -43.382  1.00  0.00    -0.294 OA
ENDBRANCH  23  36
ENDBRANCH  14  22
BRANCH  16  39
HETATM   39  O5  UNL     1     -25.354 -47.464 -50.512  1.00  0.00    -0.314 OA
BRANCH  39  40
HETATM   40  C29 UNL     1     -25.435 -46.238 -51.062  1.00  0.00     0.255 C 
HETATM   41  C30 UNL     1     -25.462 -44.942 -50.375  1.00  0.00     0.126 C 
HETATM   42  O6  UNL     1     -25.488 -46.314 -52.277  1.00  0.00    -0.266 OA
ENDBRANCH  39  40
ENDBRANCH  16  39
TORSDOF 12
ENDMDL
