MODEL 1
REMARK VINA RESULT: -8.148776349      0.000      0.000
REMARK  12 active torsions:
REMARK  status: ('A' for Active; 'I' for Inactive)
REMARK    1  A    between atoms: O1_2  and  C2_3 
REMARK    2  A    between atoms: C9_10  and  O2_11 
REMARK    3  A    between atoms: C16_19  and  O3_20 
REMARK    4  A    between atoms: C18_23  and  C20_25 
REMARK    5  A    between atoms: C20_25  and  O4_26 
REMARK    6  A    between atoms: C20_25  and  C23_30 
REMARK    7  A    between atoms: O4_26  and  C21_27 
REMARK    8  A    between atoms: C23_30  and  C25_32 
REMARK    9  A    between atoms: C25_32  and  C26_33 
REMARK   10  A    between atoms: C26_33  and  C27_34 
REMARK   11  A    between atoms: C27_34  and  C28_35 
REMARK   12  A    between atoms: C34_41  and  O6_42 
ROOT
HETATM    1  C2  UNL     1     -25.730 -47.133 -51.587  1.00  0.00     0.094 C 
HETATM    2  C3  UNL     1     -26.788 -47.607 -50.979  1.00  0.00     0.017 C 
HETATM    3  C4  UNL     1     -27.334 -48.953 -50.735  1.00  0.00     0.017 C 
HETATM    4  C5  UNL     1     -28.831 -48.909 -50.791  1.00  0.00     0.015 C 
HETATM    5  C6  UNL     1     -26.766 -49.663 -49.501  1.00  0.00    -0.015 C 
HETATM    6  C7  UNL     1     -25.992 -50.888 -49.921  1.00  0.00     0.018 C 
HETATM    7  C8  UNL     1     -28.003 -50.348 -48.909  1.00  0.00     0.018 C 
HETATM    8  C9  UNL     1     -26.233 -48.815 -48.443  1.00  0.00     0.134 C 
HETATM    9  C10 UNL     1     -25.011 -49.011 -47.645  1.00  0.00     0.033 C 
HETATM   10  C11 UNL     1     -24.864 -50.470 -47.118  1.00  0.00     0.017 C 
HETATM   11  C12 UNL     1     -23.704 -48.596 -48.221  1.00  0.00    -0.023 C 
HETATM   12  C13 UNL     1     -23.025 -47.531 -48.479  1.00  0.00    -0.023 C 
HETATM   13  C14 UNL     1     -21.704 -47.134 -49.058  1.00  0.00     0.032 C 
HETATM   14  C15 UNL     1     -21.121 -46.316 -47.828  1.00  0.00     0.017 C 
HETATM   15  C16 UNL     1     -21.845 -46.205 -50.254  1.00  0.00     0.126 C 
HETATM   16  C17 UNL     1     -21.278 -46.310 -51.522  1.00  0.00     0.044 C 
HETATM   17  C18 UNL     1     -21.443 -47.152 -52.734  1.00  0.00    -0.014 C 
HETATM   18  C19 UNL     1     -20.816 -48.513 -52.394  1.00  0.00     0.018 C 
HETATM   19  C31 UNL     1     -22.560 -47.135 -53.625  1.00  0.00     0.022 C 
HETATM   20  C32 UNL     1     -23.963 -47.583 -53.620  1.00  0.00     0.042 C 
HETATM   21  C33 UNL     1     -24.078 -49.076 -54.074  1.00  0.00     0.017 C 
HETATM   22  C34 UNL     1     -24.614 -47.665 -52.304  1.00  0.00     0.080 C 
ENDROOT
BRANCH  17  23
HETATM   23  C20 UNL     1     -20.299 -46.544 -53.627  1.00  0.00     0.143 C 
BRANCH  23  24
HETATM   24  O4  UNL     1     -20.115 -45.167 -53.234  1.00  0.00    -0.315 OA
BRANCH  24  25
HETATM   25  C21 UNL     1     -18.897 -44.659 -52.775  1.00  0.00     0.255 C 
HETATM   26  C22 UNL     1     -17.632 -45.419 -52.876  1.00  0.00     0.126 C 
HETATM   27  O5  UNL     1     -18.844 -43.520 -52.253  1.00  0.00    -0.266 OA
ENDBRANCH  24  25
ENDBRANCH  23  24
BRANCH  23  28
HETATM   28  C23 UNL     1     -20.479 -46.507 -55.065  1.00  0.00     0.012 C 
HETATM   29  C24 UNL     1     -19.523 -47.131 -56.019  1.00  0.00     0.012 C 
BRANCH  28  30
HETATM   30  C25 UNL     1     -20.388 -44.978 -55.403  1.00  0.00     0.007 C 
BRANCH  30  31
HETATM   31  C26 UNL     1     -19.570 -44.844 -56.653  1.00  0.00     0.001 C 
BRANCH  31  32
HETATM   32  C27 UNL     1     -19.335 -43.448 -57.137  1.00  0.00     0.004 C 
BRANCH  32  33
HETATM   33  C28 UNL     1     -17.970 -42.897 -57.121  1.00  0.00    -0.023 C 
HETATM   34  C29 UNL     1     -16.845 -43.759 -57.548  1.00  0.00     0.009 C 
HETATM   35  C30 UNL     1     -17.688 -42.464 -55.670  1.00  0.00     0.009 C 
ENDBRANCH  32  33
ENDBRANCH  31  32
ENDBRANCH  30  31
ENDBRANCH  28  30
ENDBRANCH  23  28
ENDBRANCH  17  23
BRANCH  15  36
HETATM   36  O3  UNL     1     -21.427 -44.932 -49.725  1.00  0.00    -0.395 OA
ATOM     37  H3  UNL     1     -20.934 -44.554 -50.444  1.00  0.00     0.210 HD
ENDBRANCH  15  36
BRANCH  22  38
HETATM   38  O6  UNL     1     -23.819 -48.520 -51.696  1.00  0.00    -0.362 OA
ATOM     39  H6  UNL     1     -23.543 -48.335 -50.806  1.00  0.00     0.217 HD
ENDBRANCH  22  38
BRANCH   1  40
HETATM   40  O1  UNL     1     -25.703 -45.727 -51.498  1.00  0.00    -0.354 OA
HETATM   41  C1  UNL     1     -25.359 -45.057 -50.354  1.00  0.00     0.210 C 
ENDBRANCH   1  40
BRANCH   8  42
HETATM   42  O2  UNL     1     -27.269 -48.439 -47.527  1.00  0.00    -0.394 OA
ATOM     43  H2  UNL     1     -27.700 -47.643 -47.817  1.00  0.00     0.210 HD
ENDBRANCH   8  42
TORSDOF 12
ENDMDL
MODEL 2
REMARK VINA RESULT: -7.595714544      1.666      3.346
REMARK  12 active torsions:
REMARK  status: ('A' for Active; 'I' for Inactive)
REMARK    1  A    between atoms: O1_2  and  C2_3 
REMARK    2  A    between atoms: C9_10  and  O2_11 
REMARK    3  A    between atoms: C16_19  and  O3_20 
REMARK    4  A    between atoms: C18_23  and  C20_25 
REMARK    5  A    between atoms: C20_25  and  O4_26 
REMARK    6  A    between atoms: C20_25  and  C23_30 
REMARK    7  A    between atoms: O4_26  and  C21_27 
REMARK    8  A    between atoms: C23_30  and  C25_32 
REMARK    9  A    between atoms: C25_32  and  C26_33 
REMARK   10  A    between atoms: C26_33  and  C27_34 
REMARK   11  A    between atoms: C27_34  and  C28_35 
REMARK   12  A    between atoms: C34_41  and  O6_42 
ROOT
HETATM    1  C2  UNL     1     -25.723 -47.243 -51.590  1.00  0.00     0.094 C 
HETATM    2  C3  UNL     1     -26.792 -47.688 -50.976  1.00  0.00     0.017 C 
HETATM    3  C4  UNL     1     -27.354 -49.020 -50.699  1.00  0.00     0.017 C 
HETATM    4  C5  UNL     1     -28.850 -48.963 -50.769  1.00  0.00     0.015 C 
HETATM    5  C6  UNL     1     -26.804 -49.700 -49.440  1.00  0.00    -0.015 C 
HETATM    6  C7  UNL     1     -26.039 -50.944 -49.818  1.00  0.00     0.018 C 
HETATM    7  C8  UNL     1     -28.053 -50.355 -48.839  1.00  0.00     0.018 C 
HETATM    8  C9  UNL     1     -26.271 -48.827 -48.403  1.00  0.00     0.134 C 
HETATM    9  C10 UNL     1     -25.058 -49.012 -47.588  1.00  0.00     0.033 C 
HETATM   10  C11 UNL     1     -24.931 -50.457 -47.018  1.00  0.00     0.017 C 
HETATM   11  C12 UNL     1     -23.742 -48.628 -48.165  1.00  0.00    -0.023 C 
HETATM   12  C13 UNL     1     -23.049 -47.577 -48.447  1.00  0.00    -0.023 C 
HETATM   13  C14 UNL     1     -21.719 -47.212 -49.026  1.00  0.00     0.032 C 
HETATM   14  C15 UNL     1     -21.138 -46.364 -47.816  1.00  0.00     0.017 C 
HETATM   15  C16 UNL     1     -21.840 -46.316 -50.249  1.00  0.00     0.126 C 
HETATM   16  C17 UNL     1     -21.264 -46.463 -51.509  1.00  0.00     0.044 C 
HETATM   17  C18 UNL     1     -21.427 -47.339 -52.698  1.00  0.00    -0.014 C 
HETATM   18  C19 UNL     1     -20.818 -48.696 -52.313  1.00  0.00     0.018 C 
HETATM   19  C31 UNL     1     -22.537 -47.337 -53.598  1.00  0.00     0.022 C 
HETATM   20  C32 UNL     1     -23.944 -47.769 -53.593  1.00  0.00     0.042 C 
HETATM   21  C33 UNL     1     -24.072 -49.273 -54.004  1.00  0.00     0.017 C 
HETATM   22  C34 UNL     1     -24.607 -47.806 -52.281  1.00  0.00     0.080 C 
ENDROOT
BRANCH  17  23
HETATM   23  C20 UNL     1     -20.270 -46.768 -53.598  1.00  0.00     0.143 C 
BRANCH  23  24
HETATM   24  O4  UNL     1     -19.532 -47.888 -54.133  1.00  0.00    -0.315 OA
BRANCH  24  25
HETATM   25  C21 UNL     1     -19.603 -48.280 -55.472  1.00  0.00     0.255 C 
HETATM   26  C22 UNL     1     -18.947 -49.507 -55.975  1.00  0.00     0.126 C 
HETATM   27  O5  UNL     1     -20.239 -47.587 -56.300  1.00  0.00    -0.266 OA
ENDBRANCH  24  25
ENDBRANCH  23  24
BRANCH  23  28
HETATM   28  C23 UNL     1     -19.271 -45.910 -52.992  1.00  0.00     0.012 C 
HETATM   29  C24 UNL     1     -18.983 -44.533 -53.476  1.00  0.00     0.012 C 
BRANCH  28  30
HETATM   30  C25 UNL     1     -17.928 -46.677 -53.251  1.00  0.00     0.007 C 
BRANCH  30  31
HETATM   31  C26 UNL     1     -17.096 -46.557 -52.009  1.00  0.00     0.001 C 
BRANCH  31  32
HETATM   32  C27 UNL     1     -17.729 -47.047 -50.745  1.00  0.00     0.004 C 
BRANCH  32  33
HETATM   33  C28 UNL     1     -17.226 -48.279 -50.115  1.00  0.00    -0.023 C 
HETATM   34  C29 UNL     1     -16.669 -49.347 -50.974  1.00  0.00     0.009 C 
HETATM   35  C30 UNL     1     -18.409 -48.888 -49.339  1.00  0.00     0.009 C 
ENDBRANCH  32  33
ENDBRANCH  31  32
ENDBRANCH  30  31
ENDBRANCH  28  30
ENDBRANCH  23  28
ENDBRANCH  17  23
BRANCH  15  36
HETATM   36  O3  UNL     1     -21.413 -45.033 -49.754  1.00  0.00    -0.395 OA
ATOM     37  H3  UNL     1     -21.021 -45.248 -48.916  1.00  0.00     0.210 HD
ENDBRANCH  15  36
BRANCH  22  38
HETATM   38  O6  UNL     1     -23.827 -48.651 -51.642  1.00  0.00    -0.362 OA
ATOM     39  H6  UNL     1     -24.040 -48.883 -50.745  1.00  0.00     0.217 HD
ENDBRANCH  22  38
BRANCH   1  40
HETATM   40  O1  UNL     1     -25.683 -45.835 -51.540  1.00  0.00    -0.354 OA
HETATM   41  C1  UNL     1     -25.357 -45.135 -50.409  1.00  0.00     0.210 C 
ENDBRANCH   1  40
BRANCH   8  42
HETATM   42  O2  UNL     1     -27.311 -48.414 -47.507  1.00  0.00    -0.394 OA
ATOM     43  H2  UNL     1     -27.022 -48.484 -46.604  1.00  0.00     0.210 HD
ENDBRANCH   8  42
TORSDOF 12
ENDMDL
MODEL 3
REMARK VINA RESULT: -7.591365350      4.111      6.462
REMARK  12 active torsions:
REMARK  status: ('A' for Active; 'I' for Inactive)
REMARK    1  A    between atoms: O1_2  and  C2_3 
REMARK    2  A    between atoms: C9_10  and  O2_11 
REMARK    3  A    between atoms: C16_19  and  O3_20 
REMARK    4  A    between atoms: C18_23  and  C20_25 
REMARK    5  A    between atoms: C20_25  and  O4_26 
REMARK    6  A    between atoms: C20_25  and  C23_30 
REMARK    7  A    between atoms: O4_26  and  C21_27 
REMARK    8  A    between atoms: C23_30  and  C25_32 
REMARK    9  A    between atoms: C25_32  and  C26_33 
REMARK   10  A    between atoms: C26_33  and  C27_34 
REMARK   11  A    between atoms: C27_34  and  C28_35 
REMARK   12  A    between atoms: C34_41  and  O6_42 
ROOT
HETATM    1  C2  UNL     1     -20.424 -50.416 -53.012  1.00  0.00     0.094 C 
HETATM    2  C3  UNL     1     -20.746 -51.642 -53.344  1.00  0.00     0.017 C 
HETATM    3  C4  UNL     1     -20.280 -52.604 -54.356  1.00  0.00     0.017 C 
HETATM    4  C5  UNL     1     -21.438 -53.412 -54.858  1.00  0.00     0.015 C 
HETATM    5  C6  UNL     1     -19.060 -53.433 -53.940  1.00  0.00    -0.015 C 
HETATM    6  C7  UNL     1     -17.883 -53.100 -54.823  1.00  0.00     0.018 C 
HETATM    7  C8  UNL     1     -19.395 -54.824 -54.495  1.00  0.00     0.018 C 
HETATM    8  C9  UNL     1     -18.846 -53.614 -52.511  1.00  0.00     0.134 C 
HETATM    9  C10 UNL     1     -17.577 -53.567 -51.765  1.00  0.00     0.033 C 
HETATM   10  C11 UNL     1     -16.440 -54.376 -52.458  1.00  0.00     0.017 C 
HETATM   11  C12 UNL     1     -17.025 -52.241 -51.373  1.00  0.00    -0.023 C 
HETATM   12  C13 UNL     1     -17.230 -51.289 -50.528  1.00  0.00    -0.023 C 
HETATM   13  C14 UNL     1     -16.657 -49.961 -50.148  1.00  0.00     0.032 C 
HETATM   14  C15 UNL     1     -16.336 -50.250 -48.620  1.00  0.00     0.017 C 
HETATM   15  C16 UNL     1     -17.677 -48.837 -50.239  1.00  0.00     0.126 C 
HETATM   16  C17 UNL     1     -17.578 -47.609 -50.888  1.00  0.00     0.044 C 
HETATM   17  C18 UNL     1     -17.568 -47.099 -52.283  1.00  0.00    -0.014 C 
HETATM   18  C19 UNL     1     -16.189 -47.460 -52.858  1.00  0.00     0.018 C 
HETATM   19  C31 UNL     1     -18.681 -47.081 -53.180  1.00  0.00     0.022 C 
HETATM   20  C32 UNL     1     -19.458 -48.049 -53.970  1.00  0.00     0.042 C 
HETATM   21  C33 UNL     1     -18.795 -48.298 -55.365  1.00  0.00     0.017 C 
HETATM   22  C34 UNL     1     -19.495 -49.426 -53.456  1.00  0.00     0.080 C 
ENDROOT
BRANCH  17  23
HETATM   23  C20 UNL     1     -17.349 -45.568 -51.997  1.00  0.00     0.143 C 
BRANCH  23  24
HETATM   24  O4  UNL     1     -18.644 -44.966 -51.787  1.00  0.00    -0.315 OA
BRANCH  24  25
HETATM   25  C21 UNL     1     -19.209 -44.790 -50.522  1.00  0.00     0.255 C 
HETATM   26  C22 UNL     1     -20.492 -45.414 -50.131  1.00  0.00     0.126 C 
HETATM   27  O5  UNL     1     -18.630 -44.081 -49.664  1.00  0.00    -0.266 OA
ENDBRANCH  24  25
ENDBRANCH  23  24
BRANCH  23  28
HETATM   28  C23 UNL     1     -16.710 -44.752 -53.010  1.00  0.00     0.012 C 
HETATM   29  C24 UNL     1     -15.502 -43.925 -52.744  1.00  0.00     0.012 C 
BRANCH  28  30
HETATM   30  C25 UNL     1     -17.809 -43.689 -53.365  1.00  0.00     0.007 C 
BRANCH  30  31
HETATM   31  C26 UNL     1     -17.748 -43.460 -54.846  1.00  0.00     0.001 C 
BRANCH  31  32
HETATM   32  C27 UNL     1     -17.907 -44.674 -55.705  1.00  0.00     0.004 C 
BRANCH  32  33
HETATM   33  C28 UNL     1     -19.050 -44.763 -56.628  1.00  0.00    -0.023 C 
HETATM   34  C29 UNL     1     -19.240 -43.698 -57.638  1.00  0.00     0.009 C 
HETATM   35  C30 UNL     1     -20.317 -44.794 -55.753  1.00  0.00     0.009 C 
ENDBRANCH  32  33
ENDBRANCH  31  32
ENDBRANCH  30  31
ENDBRANCH  28  30
ENDBRANCH  23  28
ENDBRANCH  17  23
BRANCH  15  36
HETATM   36  O3  UNL     1     -17.961 -48.545 -48.857  1.00  0.00    -0.395 OA
ATOM     37  H3  UNL     1     -18.911 -48.540 -48.832  1.00  0.00     0.210 HD
ENDBRANCH  15  36
BRANCH  22  38
HETATM   38  O6  UNL     1     -18.211 -49.713 -53.446  1.00  0.00    -0.362 OA
ATOM     39  H6  UNL     1     -17.899 -50.435 -53.979  1.00  0.00     0.217 HD
ENDBRANCH  22  38
BRANCH   1  40
HETATM   40  O1  UNL     1     -21.213 -49.980 -51.929  1.00  0.00    -0.354 OA
HETATM   41  C1  UNL     1     -21.017 -50.407 -50.642  1.00  0.00     0.210 C 
ENDBRANCH   1  40
BRANCH   8  42
HETATM   42  O2  UNL     1     -19.563 -54.759 -52.033  1.00  0.00    -0.394 OA
ATOM     43  H2  UNL     1     -19.057 -55.220 -51.374  1.00  0.00     0.210 HD
ENDBRANCH   8  42
TORSDOF 12
ENDMDL
MODEL 4
REMARK VINA RESULT: -7.521474483      1.079      2.036
REMARK  12 active torsions:
REMARK  status: ('A' for Active; 'I' for Inactive)
REMARK    1  A    between atoms: O1_2  and  C2_3 
REMARK    2  A    between atoms: C9_10  and  O2_11 
REMARK    3  A    between atoms: C16_19  and  O3_20 
REMARK    4  A    between atoms: C18_23  and  C20_25 
REMARK    5  A    between atoms: C20_25  and  O4_26 
REMARK    6  A    between atoms: C20_25  and  C23_30 
REMARK    7  A    between atoms: O4_26  and  C21_27 
REMARK    8  A    between atoms: C23_30  and  C25_32 
REMARK    9  A    between atoms: C25_32  and  C26_33 
REMARK   10  A    between atoms: C26_33  and  C27_34 
REMARK   11  A    between atoms: C27_34  and  C28_35 
REMARK   12  A    between atoms: C34_41  and  O6_42 
ROOT
HETATM    1  C2  UNL     1     -25.594 -47.077 -51.476  1.00  0.00     0.094 C 
HETATM    2  C3  UNL     1     -26.682 -47.537 -50.910  1.00  0.00     0.017 C 
HETATM    3  C4  UNL     1     -27.265 -48.874 -50.708  1.00  0.00     0.017 C 
HETATM    4  C5  UNL     1     -28.758 -48.795 -50.811  1.00  0.00     0.015 C 
HETATM    5  C6  UNL     1     -26.753 -49.616 -49.469  1.00  0.00    -0.015 C 
HETATM    6  C7  UNL     1     -25.993 -50.851 -49.884  1.00  0.00     0.018 C 
HETATM    7  C8  UNL     1     -28.024 -50.283 -48.929  1.00  0.00     0.018 C 
HETATM    8  C9  UNL     1     -26.237 -48.798 -48.380  1.00  0.00     0.134 C 
HETATM    9  C10 UNL     1     -25.047 -49.035 -47.545  1.00  0.00     0.033 C 
HETATM   10  C11 UNL     1     -24.949 -50.506 -47.039  1.00  0.00     0.017 C 
HETATM   11  C12 UNL     1     -23.712 -48.639 -48.072  1.00  0.00    -0.023 C 
HETATM   12  C13 UNL     1     -23.002 -47.586 -48.289  1.00  0.00    -0.023 C 
HETATM   13  C14 UNL     1     -21.654 -47.210 -48.818  1.00  0.00     0.032 C 
HETATM   14  C15 UNL     1     -21.095 -46.425 -47.556  1.00  0.00     0.017 C 
HETATM   15  C16 UNL     1     -21.735 -46.258 -50.001  1.00  0.00     0.126 C 
HETATM   16  C17 UNL     1     -21.130 -46.354 -51.251  1.00  0.00     0.044 C 
HETATM   17  C18 UNL     1     -21.273 -47.172 -52.483  1.00  0.00    -0.014 C 
HETATM   18  C19 UNL     1     -20.687 -48.553 -52.147  1.00  0.00     0.018 C 
HETATM   19  C31 UNL     1     -22.360 -47.116 -53.409  1.00  0.00     0.022 C 
HETATM   20  C32 UNL     1     -23.771 -47.532 -53.458  1.00  0.00     0.042 C 
HETATM   21  C33 UNL     1     -23.904 -49.014 -53.941  1.00  0.00     0.017 C 
HETATM   22  C34 UNL     1     -24.467 -47.621 -52.165  1.00  0.00     0.080 C 
ENDROOT
BRANCH  17  23
HETATM   23  C20 UNL     1     -20.087 -46.575 -53.328  1.00  0.00     0.143 C 
BRANCH  23  24
HETATM   24  O4  UNL     1     -19.236 -47.669 -53.731  1.00  0.00    -0.315 OA
BRANCH  24  25
HETATM   25  C21 UNL     1     -19.220 -48.187 -55.029  1.00  0.00     0.255 C 
HETATM   26  C22 UNL     1     -20.109 -47.680 -56.097  1.00  0.00     0.126 C 
HETATM   27  O5  UNL     1     -18.435 -49.117 -55.328  1.00  0.00    -0.266 OA
ENDBRANCH  24  25
ENDBRANCH  23  24
BRANCH  23  28
HETATM   28  C23 UNL     1     -19.200 -45.613 -52.705  1.00  0.00     0.012 C 
HETATM   29  C24 UNL     1     -19.484 -44.153 -52.667  1.00  0.00     0.012 C 
BRANCH  28  30
HETATM   30  C25 UNL     1     -17.896 -45.709 -53.571  1.00  0.00     0.007 C 
BRANCH  30  31
HETATM   31  C26 UNL     1     -17.811 -44.459 -54.395  1.00  0.00     0.001 C 
BRANCH  31  32
HETATM   32  C27 UNL     1     -17.954 -44.636 -55.873  1.00  0.00     0.004 C 
BRANCH  32  33
HETATM   33  C28 UNL     1     -18.957 -43.844 -56.603  1.00  0.00    -0.023 C 
HETATM   34  C29 UNL     1     -20.393 -44.132 -56.388  1.00  0.00     0.009 C 
HETATM   35  C30 UNL     1     -18.670 -44.049 -58.103  1.00  0.00     0.009 C 
ENDBRANCH  32  33
ENDBRANCH  31  32
ENDBRANCH  30  31
ENDBRANCH  28  30
ENDBRANCH  23  28
ENDBRANCH  17  23
BRANCH  15  36
HETATM   36  O3  UNL     1     -21.307 -45.004 -49.437  1.00  0.00    -0.395 OA
ATOM     37  H3  UNL     1     -22.054 -44.437 -49.586  1.00  0.00     0.210 HD
ENDBRANCH  15  36
BRANCH  22  38
HETATM   38  O6  UNL     1     -23.712 -48.504 -51.547  1.00  0.00    -0.362 OA
ATOM     39  H6  UNL     1     -23.463 -49.296 -52.008  1.00  0.00     0.217 HD
ENDBRANCH  22  38
BRANCH   1  40
HETATM   40  O1  UNL     1     -25.539 -45.673 -51.362  1.00  0.00    -0.354 OA
HETATM   41  C1  UNL     1     -25.226 -45.030 -50.193  1.00  0.00     0.210 C 
ENDBRANCH   1  40
BRANCH   8  42
HETATM   42  O2  UNL     1     -27.294 -48.415 -47.492  1.00  0.00    -0.394 OA
ATOM     43  H2  UNL     1     -26.941 -48.086 -46.673  1.00  0.00     0.210 HD
ENDBRANCH   8  42
TORSDOF 12
ENDMDL
MODEL 5
REMARK VINA RESULT: -7.500021179      5.095      8.834
REMARK  12 active torsions:
REMARK  status: ('A' for Active; 'I' for Inactive)
REMARK    1  A    between atoms: O1_2  and  C2_3 
REMARK    2  A    between atoms: C9_10  and  O2_11 
REMARK    3  A    between atoms: C16_19  and  O3_20 
REMARK    4  A    between atoms: C18_23  and  C20_25 
REMARK    5  A    between atoms: C20_25  and  O4_26 
REMARK    6  A    between atoms: C20_25  and  C23_30 
REMARK    7  A    between atoms: O4_26  and  C21_27 
REMARK    8  A    between atoms: C23_30  and  C25_32 
REMARK    9  A    between atoms: C25_32  and  C26_33 
REMARK   10  A    between atoms: C26_33  and  C27_34 
REMARK   11  A    between atoms: C27_34  and  C28_35 
REMARK   12  A    between atoms: C34_41  and  O6_42 
ROOT
HETATM    1  C2  UNL     1     -23.628 -51.231 -47.744  1.00  0.00     0.094 C 
HETATM    2  C3  UNL     1     -23.702 -52.536 -47.825  1.00  0.00     0.017 C 
HETATM    3  C4  UNL     1     -24.366 -53.592 -47.042  1.00  0.00     0.017 C 
HETATM    4  C5  UNL     1     -23.501 -54.816 -47.007  1.00  0.00     0.015 C 
HETATM    5  C6  UNL     1     -25.825 -53.857 -47.430  1.00  0.00    -0.015 C 
HETATM    6  C7  UNL     1     -26.737 -53.498 -46.283  1.00  0.00     0.018 C 
HETATM    7  C8  UNL     1     -25.921 -55.386 -47.347  1.00  0.00     0.018 C 
HETATM    8  C9  UNL     1     -26.218 -53.505 -48.787  1.00  0.00     0.134 C 
HETATM    9  C10 UNL     1     -27.462 -52.859 -49.238  1.00  0.00     0.033 C 
HETATM   10  C11 UNL     1     -28.735 -53.483 -48.589  1.00  0.00     0.017 C 
HETATM   11  C12 UNL     1     -27.577 -51.379 -49.143  1.00  0.00    -0.023 C 
HETATM   12  C13 UNL     1     -27.146 -50.309 -49.721  1.00  0.00    -0.023 C 
HETATM   13  C14 UNL     1     -27.278 -48.823 -49.611  1.00  0.00     0.032 C 
HETATM   14  C15 UNL     1     -27.817 -48.507 -51.071  1.00  0.00     0.017 C 
HETATM   15  C16 UNL     1     -25.939 -48.131 -49.413  1.00  0.00     0.126 C 
HETATM   16  C17 UNL     1     -25.564 -47.199 -48.448  1.00  0.00     0.044 C 
HETATM   17  C18 UNL     1     -25.274 -47.180 -46.991  1.00  0.00    -0.014 C 
HETATM   18  C19 UNL     1     -26.636 -47.290 -46.286  1.00  0.00     0.018 C 
HETATM   19  C31 UNL     1     -24.141 -47.768 -46.350  1.00  0.00     0.022 C 
HETATM   20  C32 UNL     1     -23.660 -49.119 -46.015  1.00  0.00     0.042 C 
HETATM   21  C33 UNL     1     -24.236 -49.595 -44.640  1.00  0.00     0.017 C 
HETATM   22  C34 UNL     1     -24.130 -50.210 -46.881  1.00  0.00     0.080 C 
ENDROOT
BRANCH  17  23
HETATM   23  C20 UNL     1     -24.998 -45.642 -46.805  1.00  0.00     0.143 C 
BRANCH  23  24
HETATM   24  O4  UNL     1     -23.691 -45.495 -46.211  1.00  0.00    -0.315 OA
BRANCH  24  25
HETATM   25  C21 UNL     1     -22.611 -44.909 -46.876  1.00  0.00     0.255 C 
HETATM   26  C22 UNL     1     -22.303 -45.192 -48.295  1.00  0.00     0.126 C 
HETATM   27  O5  UNL     1     -21.857 -44.108 -46.273  1.00  0.00    -0.266 OA
ENDBRANCH  24  25
ENDBRANCH  23  24
BRANCH  23  28
HETATM   28  C23 UNL     1     -25.887 -44.869 -45.960  1.00  0.00     0.012 C 
HETATM   29  C24 UNL     1     -26.403 -43.526 -46.338  1.00  0.00     0.012 C 
BRANCH  28  30
HETATM   30  C25 UNL     1     -25.018 -44.582 -44.686  1.00  0.00     0.007 C 
BRANCH  30  31
HETATM   31  C26 UNL     1     -25.875 -44.859 -43.487  1.00  0.00     0.001 C 
BRANCH  31  32
HETATM   32  C27 UNL     1     -26.204 -43.679 -42.628  1.00  0.00     0.004 C 
BRANCH  32  33
HETATM   33  C28 UNL     1     -27.582 -43.164 -42.604  1.00  0.00    -0.023 C 
HETATM   34  C29 UNL     1     -28.647 -43.934 -43.286  1.00  0.00     0.009 C 
HETATM   35  C30 UNL     1     -27.540 -41.769 -43.256  1.00  0.00     0.009 C 
ENDBRANCH  32  33
ENDBRANCH  31  32
ENDBRANCH  30  31
ENDBRANCH  28  30
ENDBRANCH  23  28
ENDBRANCH  17  23
BRANCH  15  36
HETATM   36  O3  UNL     1     -25.703 -47.511 -50.691  1.00  0.00    -0.395 OA
ATOM     37  H3  UNL     1     -25.133 -48.133 -51.128  1.00  0.00     0.210 HD
ENDBRANCH  15  36
BRANCH  22  38
HETATM   38  O6  UNL     1     -25.432 -50.095 -46.725  1.00  0.00    -0.362 OA
ATOM     39  H6  UNL     1     -26.006 -50.637 -47.254  1.00  0.00     0.217 HD
ENDBRANCH  22  38
BRANCH   1  40
HETATM   40  O1  UNL     1     -22.843 -50.720 -48.797  1.00  0.00    -0.354 OA
HETATM   41  C1  UNL     1     -23.303 -50.599 -50.082  1.00  0.00     0.210 C 
ENDBRANCH   1  40
BRANCH   8  42
HETATM   42  O2  UNL     1     -25.970 -54.595 -49.684  1.00  0.00    -0.394 OA
ATOM     43  H2  UNL     1     -26.637 -55.265 -49.588  1.00  0.00     0.210 HD
ENDBRANCH   8  42
TORSDOF 12
ENDMDL
