MODEL 1
REMARK VINA RESULT: -8.502320655      0.000      0.000
REMARK  6 active torsions:
REMARK  status: ('A' for Active; 'I' for Inactive)
REMARK    1  A    between atoms: C15_15  and  O1_16 
REMARK    2  A    between atoms: O1_16  and  C16_17 
REMARK    3  A    between atoms: C16_17  and  C17_19 
REMARK    4  A    between atoms: C21_23  and  O3_24 
REMARK    5  A    between atoms: C24_29  and  O5_30 
REMARK    6  A    between atoms: C27_35  and  C29_37 
ROOT
HETATM    1  C1  UNL     1       7.677   3.577  95.172  1.00  0.00     0.017 C 
HETATM    2  C2  UNL     1       8.103   2.767  96.378  1.00  0.00     0.040 C 
HETATM    3  C3  UNL     1       6.995   2.536  97.314  1.00  0.00    -0.069 C 
HETATM    4  C4  UNL     1       5.785   2.411  96.833  1.00  0.00    -0.022 C 
HETATM    5  C5  UNL     1       4.567   2.170  97.712  1.00  0.00     0.033 C 
HETATM    6  C6  UNL     1       4.941   2.494  99.119  1.00  0.00    -0.001 C 
HETATM    7  C7  UNL     1       4.073   2.121 100.237  1.00  0.00     0.003 C 
HETATM    8  C8  UNL     1       4.686   0.842 100.739  1.00  0.00     0.023 C 
HETATM    9  C9  UNL     1       6.171   1.302 100.731  1.00  0.00     0.013 C 
HETATM   10  C10 UNL     1       6.226   1.665  99.323  1.00  0.00     0.003 C 
HETATM   11  C11 UNL     1       7.335   2.454  98.760  1.00  0.00    -0.016 C 
HETATM   12  C12 UNL     1       7.454   3.836  99.385  1.00  0.00     0.020 C 
HETATM   13  C13 UNL     1       8.692   1.792  98.932  1.00  0.00     0.016 C 
HETATM   14  C14 UNL     1       9.774   2.456  98.156  1.00  0.00     0.034 C 
HETATM   15  C15 UNL     1       9.328   3.322  97.026  1.00  0.00     0.139 C 
HETATM   16  C21 UNL     1       4.386   0.483 102.140  1.00  0.00     0.160 C 
HETATM   17  C22 UNL     1       2.898   0.134 102.334  1.00  0.00     0.117 C 
HETATM   18  C23 UNL     1       2.556  -1.123 101.584  1.00  0.00     0.212 C 
HETATM   19  O4  UNL     1       2.255  -2.122 102.466  1.00  0.00    -0.358 OA
HETATM   20  C24 UNL     1       1.902  -1.561 103.691  1.00  0.00     0.263 C 
HETATM   21  C25 UNL     1       2.886  -0.421 103.773  1.00  0.00     0.076 C 
HETATM   22  C26 UNL     1       2.528   0.615 104.774  1.00  0.00     0.018 C 
HETATM   23  O6  UNL     1       2.083   1.157 102.273  1.00  0.00    -0.363 OA
HETATM   24  C27 UNL     1       1.830   2.010 101.305  1.00  0.00     0.071 C 
HETATM   25  C28 UNL     1       1.931   3.424 101.926  1.00  0.00     0.047 C 
HETATM   26  C30 UNL     1       2.618   2.075 100.044  1.00  0.00     0.021 C 
HETATM   27  C31 UNL     1       2.118   3.315  99.271  1.00  0.00     0.013 C 
ENDROOT
BRANCH  15  28
HETATM   28  O1  UNL     1      10.374   3.283  96.043  1.00  0.00    -0.315 OA
BRANCH  28  29
HETATM   29  C16 UNL     1      11.101   4.391  95.673  1.00  0.00     0.267 C 
HETATM   30  O2  UNL     1      10.570   5.516  95.726  1.00  0.00    -0.264 OA
BRANCH  29  31
HETATM   31  C17 UNL     1      12.494   4.223  95.219  1.00  0.00     0.037 C 
HETATM   32  C18 UNL     1      12.628   2.798  94.668  1.00  0.00     0.025 C 
HETATM   33  C19 UNL     1      13.476   4.379  96.372  1.00  0.00     0.025 C 
HETATM   34  C20 UNL     1      12.765   5.237  94.130  1.00  0.00     0.025 C 
ENDBRANCH  29  31
ENDBRANCH  28  29
ENDBRANCH  15  28
BRANCH  16  35
HETATM   35  O3  UNL     1       4.836   1.337 103.108  1.00  0.00    -0.392 OA
ATOM     36  H3  UNL     1       4.188   1.693 103.703  1.00  0.00     0.210 HD
ENDBRANCH  16  35
BRANCH  24  37
HETATM   37  C29 UNL     1       0.316   1.871 100.990  1.00  0.00     0.123 C 
HETATM   38 BR1  UNL     1      -0.734   2.150 102.593  1.00  0.00    -0.093 Br
ENDBRANCH  24  37
BRANCH  20  39
HETATM   39  O5  UNL     1       0.627  -1.054 103.725  1.00  0.00    -0.371 OA
ATOM     40  H5  UNL     1       0.446  -0.516 104.487  1.00  0.00     0.212 HD
ENDBRANCH  20  39
TORSDOF 6
ENDMDL
MODEL 2
REMARK VINA RESULT: -8.108247757      1.806      2.189
REMARK  6 active torsions:
REMARK  status: ('A' for Active; 'I' for Inactive)
REMARK    1  A    between atoms: C15_15  and  O1_16 
REMARK    2  A    between atoms: O1_16  and  C16_17 
REMARK    3  A    between atoms: C16_17  and  C17_19 
REMARK    4  A    between atoms: C21_23  and  O3_24 
REMARK    5  A    between atoms: C24_29  and  O5_30 
REMARK    6  A    between atoms: C27_35  and  C29_37 
ROOT
HETATM    1  C1  UNL     1       7.321   3.970  96.204  1.00  0.00     0.017 C 
HETATM    2  C2  UNL     1       8.040   2.900  96.999  1.00  0.00     0.040 C 
HETATM    3  C3  UNL     1       7.307   2.520  98.213  1.00  0.00    -0.069 C 
HETATM    4  C4  UNL     1       5.999   2.555  98.192  1.00  0.00    -0.022 C 
HETATM    5  C5  UNL     1       5.143   2.182  99.392  1.00  0.00     0.033 C 
HETATM    6  C6  UNL     1       6.018   2.178 100.600  1.00  0.00    -0.001 C 
HETATM    7  C7  UNL     1       5.553   1.610 101.867  1.00  0.00     0.003 C 
HETATM    8  C8  UNL     1       6.147   0.227 101.863  1.00  0.00     0.023 C 
HETATM    9  C9  UNL     1       7.579   0.612 101.401  1.00  0.00     0.013 C 
HETATM   10  C10 UNL     1       7.185   1.269 100.164  1.00  0.00     0.003 C 
HETATM   11  C11 UNL     1       8.116   2.112  99.394  1.00  0.00    -0.016 C 
HETATM   12  C12 UNL     1       8.606   3.320 100.178  1.00  0.00     0.020 C 
HETATM   13  C13 UNL     1       9.358   1.371  98.933  1.00  0.00     0.016 C 
HETATM   14  C14 UNL     1      10.175   2.140  97.954  1.00  0.00     0.034 C 
HETATM   15  C15 UNL     1       9.470   3.248  97.247  1.00  0.00     0.139 C 
HETATM   16  C21 UNL     1       6.311  -0.414 103.184  1.00  0.00     0.160 C 
HETATM   17  C22 UNL     1       4.953  -0.732 103.838  1.00  0.00     0.117 C 
HETATM   18  C23 UNL     1       4.225  -1.780 103.044  1.00  0.00     0.212 C 
HETATM   19  O4  UNL     1       4.132  -2.932 103.771  1.00  0.00    -0.358 OA
HETATM   20  C24 UNL     1       4.295  -2.636 105.122  1.00  0.00     0.263 C 
HETATM   21  C25 UNL     1       5.375  -1.584 105.052  1.00  0.00     0.076 C 
HETATM   22  C26 UNL     1       5.512  -0.775 106.288  1.00  0.00     0.018 C 
HETATM   23  O6  UNL     1       4.294   0.315 104.270  1.00  0.00    -0.363 OA
HETATM   24  C27 UNL     1       3.824   1.367 103.638  1.00  0.00     0.071 C 
HETATM   25  C28 UNL     1       4.302   2.607 104.431  1.00  0.00     0.047 C 
HETATM   26  C30 UNL     1       4.127   1.669 102.212  1.00  0.00     0.021 C 
HETATM   27  C31 UNL     1       3.541   3.069 101.920  1.00  0.00     0.013 C 
ENDROOT
BRANCH  15  28
HETATM   28  O1  UNL     1      10.098   3.378  95.962  1.00  0.00    -0.315 OA
BRANCH  28  29
HETATM   29  C16 UNL     1      10.948   4.410  95.640  1.00  0.00     0.267 C 
HETATM   30  O2  UNL     1      10.531   5.583  95.685  1.00  0.00    -0.264 OA
BRANCH  29  31
HETATM   31  C17 UNL     1      12.338   4.108  95.247  1.00  0.00     0.037 C 
HETATM   32  C18 UNL     1      12.367   2.657  94.751  1.00  0.00     0.025 C 
HETATM   33  C19 UNL     1      13.286   4.222  96.432  1.00  0.00     0.025 C 
HETATM   34  C20 UNL     1      12.734   5.054  94.136  1.00  0.00     0.025 C 
ENDBRANCH  29  31
ENDBRANCH  28  29
ENDBRANCH  15  28
BRANCH  16  35
HETATM   35  O3  UNL     1       7.167   0.189 104.063  1.00  0.00    -0.392 OA
ATOM     36  H3  UNL     1       8.087  -0.038 103.993  1.00  0.00     0.210 HD
ENDBRANCH  16  35
BRANCH  24  37
HETATM   37  C29 UNL     1       2.289   1.366 103.875  1.00  0.00     0.123 C 
HETATM   38 BR1  UNL     1       1.901   1.518 105.767  1.00  0.00    -0.093 Br
ENDBRANCH  24  37
BRANCH  20  39
HETATM   39  O5  UNL     1       3.181  -2.093 105.713  1.00  0.00    -0.371 OA
ATOM     40  H5  UNL     1       3.375  -1.460 106.394  1.00  0.00     0.212 HD
ENDBRANCH  20  39
TORSDOF 6
ENDMDL
MODEL 3
REMARK VINA RESULT: -8.019033938      2.282      4.412
REMARK  6 active torsions:
REMARK  status: ('A' for Active; 'I' for Inactive)
REMARK    1  A    between atoms: C15_15  and  O1_16 
REMARK    2  A    between atoms: O1_16  and  C16_17 
REMARK    3  A    between atoms: C16_17  and  C17_19 
REMARK    4  A    between atoms: C21_23  and  O3_24 
REMARK    5  A    between atoms: C24_29  and  O5_30 
REMARK    6  A    between atoms: C27_35  and  C29_37 
ROOT
HETATM    1  C1  UNL     1       8.993   2.904 101.587  1.00  0.00     0.017 C 
HETATM    2  C2  UNL     1       7.925   2.969 100.515  1.00  0.00     0.040 C 
HETATM    3  C3  UNL     1       6.574   2.798 101.063  1.00  0.00    -0.069 C 
HETATM    4  C4  UNL     1       6.324   3.247 102.266  1.00  0.00    -0.022 C 
HETATM    5  C5  UNL     1       4.961   3.122 102.928  1.00  0.00     0.033 C 
HETATM    6  C6  UNL     1       4.169   2.112 102.169  1.00  0.00    -0.001 C 
HETATM    7  C7  UNL     1       2.731   1.953 102.396  1.00  0.00     0.003 C 
HETATM    8  C8  UNL     1       2.115   2.758 101.283  1.00  0.00     0.023 C 
HETATM    9  C9  UNL     1       3.012   2.240 100.125  1.00  0.00     0.013 C 
HETATM   10  C10 UNL     1       4.285   2.619 100.717  1.00  0.00     0.003 C 
HETATM   11  C11 UNL     1       5.571   2.123 100.195  1.00  0.00    -0.016 C 
HETATM   12  C12 UNL     1       5.695   0.609 100.273  1.00  0.00     0.020 C 
HETATM   13  C13 UNL     1       5.815   2.495  98.743  1.00  0.00     0.016 C 
HETATM   14  C14 UNL     1       7.204   2.215  98.287  1.00  0.00     0.034 C 
HETATM   15  C15 UNL     1       8.224   2.065  99.366  1.00  0.00     0.139 C 
HETATM   16  C21 UNL     1       0.732   2.399 100.910  1.00  0.00     0.160 C 
HETATM   17  C22 UNL     1      -0.268   2.730 102.035  1.00  0.00     0.117 C 
HETATM   18  C23 UNL     1      -0.350   4.217 102.238  1.00  0.00     0.212 C 
HETATM   19  O4  UNL     1      -1.585   4.668 101.868  1.00  0.00    -0.358 OA
HETATM   20  C24 UNL     1      -2.485   3.606 101.885  1.00  0.00     0.263 C 
HETATM   21  C25 UNL     1      -1.623   2.497 101.336  1.00  0.00     0.076 C 
HETATM   22  C26 UNL     1      -2.158   1.135 101.585  1.00  0.00     0.018 C 
HETATM   23  O6  UNL     1      -0.196   1.944 103.081  1.00  0.00    -0.363 OA
HETATM   24  C27 UNL     1       0.785   1.709 103.924  1.00  0.00     0.071 C 
HETATM   25  C28 UNL     1       0.917   0.170 104.028  1.00  0.00     0.047 C 
HETATM   26  C30 UNL     1       2.172   2.213 103.729  1.00  0.00     0.021 C 
HETATM   27  C31 UNL     1       3.039   1.566 104.832  1.00  0.00     0.013 C 
ENDROOT
BRANCH  15  28
HETATM   28  O1  UNL     1       9.475   2.498  98.807  1.00  0.00    -0.315 OA
BRANCH  28  29
HETATM   29  C16 UNL     1      10.093   1.857  97.758  1.00  0.00     0.267 C 
HETATM   30  O2  UNL     1      10.548   0.710  97.925  1.00  0.00    -0.264 OA
BRANCH  29  31
HETATM   31  C17 UNL     1      10.204   2.543  96.457  1.00  0.00     0.037 C 
HETATM   32  C18 UNL     1      11.692   2.583  96.086  1.00  0.00     0.025 C 
HETATM   33  C19 UNL     1       9.698   3.976  96.540  1.00  0.00     0.025 C 
HETATM   34  C20 UNL     1       9.427   1.747  95.432  1.00  0.00     0.025 C 
ENDBRANCH  29  31
ENDBRANCH  28  29
ENDBRANCH  15  28
BRANCH  16  35
HETATM   35  O3  UNL     1       0.532   1.143 100.409  1.00  0.00    -0.392 OA
ATOM     36  H3  UNL     1       0.231   0.479 101.018  1.00  0.00     0.210 HD
ENDBRANCH  16  35
BRANCH  24  37
HETATM   37  C29 UNL     1       0.256   2.113 105.327  1.00  0.00     0.123 C 
HETATM   38 BR1  UNL     1      -1.388   1.169 105.725  1.00  0.00    -0.093 Br
ENDBRANCH  24  37
BRANCH  20  39
HETATM   39  O5  UNL     1      -2.914   3.258 103.142  1.00  0.00    -0.371 OA
ATOM     40  H5  UNL     1      -3.109   4.000 103.702  1.00  0.00     0.212 HD
ENDBRANCH  20  39
TORSDOF 6
ENDMDL
MODEL 4
REMARK VINA RESULT: -7.872880264      2.205      3.607
REMARK  6 active torsions:
REMARK  status: ('A' for Active; 'I' for Inactive)
REMARK    1  A    between atoms: C15_15  and  O1_16 
REMARK    2  A    between atoms: O1_16  and  C16_17 
REMARK    3  A    between atoms: C16_17  and  C17_19 
REMARK    4  A    between atoms: C21_23  and  O3_24 
REMARK    5  A    between atoms: C24_29  and  O5_30 
REMARK    6  A    between atoms: C27_35  and  C29_37 
ROOT
HETATM    1  C1  UNL     1      11.258   2.273  96.300  1.00  0.00     0.017 C 
HETATM    2  C2  UNL     1      10.226   3.262  96.799  1.00  0.00     0.040 C 
HETATM    3  C3  UNL     1       9.321   2.671  97.793  1.00  0.00    -0.069 C 
HETATM    4  C4  UNL     1       9.789   1.749  98.595  1.00  0.00    -0.022 C 
HETATM    5  C5  UNL     1       8.939   1.072  99.659  1.00  0.00     0.033 C 
HETATM    6  C6  UNL     1       7.506   1.344  99.348  1.00  0.00    -0.001 C 
HETATM    7  C7  UNL     1       6.452   1.049 100.322  1.00  0.00     0.003 C 
HETATM    8  C8  UNL     1       6.201   2.383 100.973  1.00  0.00     0.023 C 
HETATM    9  C9  UNL     1       6.162   3.245  99.681  1.00  0.00     0.013 C 
HETATM   10  C10 UNL     1       7.483   2.878  99.194  1.00  0.00     0.003 C 
HETATM   11  C11 UNL     1       7.921   3.174  97.819  1.00  0.00    -0.016 C 
HETATM   12  C12 UNL     1       7.063   2.491  96.766  1.00  0.00     0.020 C 
HETATM   13  C13 UNL     1       7.902   4.656  97.488  1.00  0.00     0.016 C 
HETATM   14  C14 UNL     1       8.571   4.981  96.198  1.00  0.00     0.034 C 
HETATM   15  C15 UNL     1       9.518   3.951  95.679  1.00  0.00     0.139 C 
HETATM   16  C21 UNL     1       4.881   2.556 101.611  1.00  0.00     0.160 C 
HETATM   17  C22 UNL     1       4.718   1.646 102.844  1.00  0.00     0.117 C 
HETATM   18  C23 UNL     1       5.672   2.062 103.928  1.00  0.00     0.212 C 
HETATM   19  O4  UNL     1       4.977   2.564 104.991  1.00  0.00    -0.358 OA
HETATM   20  C24 UNL     1       3.664   2.104 104.938  1.00  0.00     0.263 C 
HETATM   21  C25 UNL     1       3.401   2.169 103.454  1.00  0.00     0.076 C 
HETATM   22  C26 UNL     1       2.224   1.381 103.013  1.00  0.00     0.018 C 
HETATM   23  O6  UNL     1       4.576   0.373 102.571  1.00  0.00    -0.363 OA
HETATM   24  C27 UNL     1       5.370  -0.478 101.959  1.00  0.00     0.071 C 
HETATM   25  C28 UNL     1       4.509  -1.195 100.891  1.00  0.00     0.047 C 
HETATM   26  C30 UNL     1       6.618  -0.073 101.255  1.00  0.00     0.021 C 
HETATM   27  C31 UNL     1       7.144  -1.330 100.527  1.00  0.00     0.013 C 
ENDROOT
BRANCH  15  28
HETATM   28  O1  UNL     1      10.516   4.656  94.925  1.00  0.00    -0.315 OA
BRANCH  28  29
HETATM   29  C16 UNL     1      11.175   5.766  95.401  1.00  0.00     0.267 C 
HETATM   30  O2  UNL     1      10.543   6.623  96.047  1.00  0.00    -0.264 OA
BRANCH  29  31
HETATM   31  C17 UNL     1      12.618   5.920  95.135  1.00  0.00     0.037 C 
HETATM   32  C18 UNL     1      12.867   5.479  93.687  1.00  0.00     0.025 C 
HETATM   33  C19 UNL     1      13.448   5.030  96.050  1.00  0.00     0.025 C 
HETATM   34  C20 UNL     1      12.981   7.377  95.313  1.00  0.00     0.025 C 
ENDBRANCH  29  31
ENDBRANCH  28  29
ENDBRANCH  15  28
BRANCH  16  35
HETATM   35  O3  UNL     1       3.786   2.502 100.794  1.00  0.00    -0.392 OA
ATOM     36  H3  UNL     1       3.948   2.418  99.862  1.00  0.00     0.210 HD
ENDBRANCH  16  35
BRANCH  24  37
HETATM   37  C29 UNL     1       5.670  -1.604 102.985  1.00  0.00     0.123 C 
HETATM   38 BR1  UNL     1       4.018  -2.351 103.667  1.00  0.00    -0.093 Br
ENDBRANCH  24  37
BRANCH  20  39
HETATM   39  O5  UNL     1       3.509   0.807 105.362  1.00  0.00    -0.371 OA
ATOM     40  H5  UNL     1       2.866   0.700 106.052  1.00  0.00     0.212 HD
ENDBRANCH  20  39
TORSDOF 6
ENDMDL
MODEL 5
REMARK VINA RESULT: -7.816980949      1.723      2.152
REMARK  6 active torsions:
REMARK  status: ('A' for Active; 'I' for Inactive)
REMARK    1  A    between atoms: C15_15  and  O1_16 
REMARK    2  A    between atoms: O1_16  and  C16_17 
REMARK    3  A    between atoms: C16_17  and  C17_19 
REMARK    4  A    between atoms: C21_23  and  O3_24 
REMARK    5  A    between atoms: C24_29  and  O5_30 
REMARK    6  A    between atoms: C27_35  and  C29_37 
ROOT
HETATM    1  C1  UNL     1       6.558   3.740  96.216  1.00  0.00     0.017 C 
HETATM    2  C2  UNL     1       7.342   2.850  97.157  1.00  0.00     0.040 C 
HETATM    3  C3  UNL     1       6.582   2.512  98.368  1.00  0.00    -0.069 C 
HETATM    4  C4  UNL     1       5.283   2.389  98.277  1.00  0.00    -0.022 C 
HETATM    5  C5  UNL     1       4.401   2.042  99.467  1.00  0.00     0.033 C 
HETATM    6  C6  UNL     1       5.193   2.264 100.710  1.00  0.00    -0.001 C 
HETATM    7  C7  UNL     1       4.718   1.777 102.007  1.00  0.00     0.003 C 
HETATM    8  C8  UNL     1       5.462   0.481 102.183  1.00  0.00     0.023 C 
HETATM    9  C9  UNL     1       6.868   0.985 101.753  1.00  0.00     0.013 C 
HETATM   10  C10 UNL     1       6.480   1.461 100.434  1.00  0.00     0.003 C 
HETATM   11  C11 UNL     1       7.356   2.325  99.624  1.00  0.00    -0.016 C 
HETATM   12  C12 UNL     1       7.658   3.656 100.297  1.00  0.00     0.020 C 
HETATM   13  C13 UNL     1       8.701   1.693  99.310  1.00  0.00     0.016 C 
HETATM   14  C14 UNL     1       9.486   2.450  98.296  1.00  0.00     0.034 C 
HETATM   15  C15 UNL     1       8.705   3.389  97.438  1.00  0.00     0.139 C 
HETATM   16  C21 UNL     1       5.615   0.003 103.571  1.00  0.00     0.160 C 
HETATM   17  C22 UNL     1       4.263  -0.405 104.187  1.00  0.00     0.117 C 
HETATM   18  C23 UNL     1       3.709  -1.608 103.476  1.00  0.00     0.212 C 
HETATM   19  O4  UNL     1       3.702  -2.683 104.319  1.00  0.00    -0.358 OA
HETATM   20  C24 UNL     1       3.746  -2.233 105.636  1.00  0.00     0.263 C 
HETATM   21  C25 UNL     1       4.702  -1.073 105.506  1.00  0.00     0.076 C 
HETATM   22  C26 UNL     1       4.670  -0.132 106.652  1.00  0.00     0.018 C 
HETATM   23  O6  UNL     1       3.465   0.594 104.470  1.00  0.00    -0.363 OA
HETATM   24  C27 UNL     1       2.920   1.513 103.704  1.00  0.00     0.071 C 
HETATM   25  C28 UNL     1       3.205   2.876 104.381  1.00  0.00     0.047 C 
HETATM   26  C30 UNL     1       3.275   1.702 102.271  1.00  0.00     0.021 C 
HETATM   27  C31 UNL     1       2.555   2.985 101.800  1.00  0.00     0.013 C 
ENDROOT
BRANCH  15  28
HETATM   28  O1  UNL     1       9.394   3.460  96.180  1.00  0.00    -0.315 OA
BRANCH  28  29
HETATM   29  C16 UNL     1      10.282   2.501  95.752  1.00  0.00     0.267 C 
HETATM   30  O2  UNL     1       9.853   1.395  95.373  1.00  0.00    -0.264 OA
BRANCH  29  31
HETATM   31  C17 UNL     1      11.727   2.801  95.752  1.00  0.00     0.037 C 
HETATM   32  C18 UNL     1      12.333   2.134  94.510  1.00  0.00     0.025 C 
HETATM   33  C19 UNL     1      12.413   2.224  96.981  1.00  0.00     0.025 C 
HETATM   34  C20 UNL     1      11.900   4.301  95.682  1.00  0.00     0.025 C 
ENDBRANCH  29  31
ENDBRANCH  28  29
ENDBRANCH  15  28
BRANCH  16  35
HETATM   35  O3  UNL     1       6.341   0.790 104.421  1.00  0.00    -0.392 OA
ATOM     36  H3  UNL     1       7.287   0.756 104.338  1.00  0.00     0.210 HD
ENDBRANCH  16  35
BRANCH  24  37
HETATM   37  C29 UNL     1       1.383   1.355 103.863  1.00  0.00     0.123 C 
HETATM   38 BR1  UNL     1       0.884   1.475 105.731  1.00  0.00    -0.093 Br
ENDBRANCH  24  37
BRANCH  20  39
HETATM   39  O5  UNL     1       2.543  -1.769 106.108  1.00  0.00    -0.371 OA
ATOM     40  H5  UNL     1       1.933  -2.455 106.352  1.00  0.00     0.212 HD
ENDBRANCH  20  39
TORSDOF 6
ENDMDL
