MODEL 1
REMARK VINA RESULT: -7.162498674      0.000      0.000
REMARK  5 active torsions:
REMARK  status: ('A' for Active; 'I' for Inactive)
REMARK    1  A    between atoms: C2_2  and  C3_3 
REMARK    2  A    between atoms: C15_16  and  O1_17 
REMARK    3  A    between atoms: O1_17  and  C16_18 
REMARK    4  A    between atoms: C20_25  and  O5_26 
REMARK    5  A    between atoms: C20_25  and  C21_28 
ROOT
HETATM    1  C3  UNL     1     -13.897  29.422  19.209  1.00  0.00    -0.043 C 
HETATM    2  C4  UNL     1     -12.776  28.650  18.482  1.00  0.00    -0.061 C 
HETATM    3  C5  UNL     1     -12.064  27.692  19.336  1.00  0.00     0.056 C 
HETATM    4  C6  UNL     1     -12.808  26.944  20.370  1.00  0.00     0.093 C 
HETATM    5 CL1  UNL     1     -11.633  26.654  21.732  1.00  0.00    -0.124 Cl
HETATM    6  C7  UNL     1     -14.063  27.524  20.851  1.00  0.00     0.043 C 
HETATM    7  C8  UNL     1     -15.177  26.506  20.728  1.00  0.00     0.013 C 
HETATM    8  C9  UNL     1     -15.886  26.450  19.429  1.00  0.00     0.034 C 
HETATM    9  C10 UNL     1     -16.148  25.118  18.844  1.00  0.00    -0.087 C 
HETATM   10  C11 UNL     1     -17.366  24.416  19.416  1.00  0.00     0.043 C 
HETATM   11  C12 UNL     1     -15.454  24.508  17.914  1.00  0.00    -0.024 C 
HETATM   12  C13 UNL     1     -14.246  24.957  17.206  1.00  0.00     0.033 C 
HETATM   13  C14 UNL     1     -14.336  26.183  16.354  1.00  0.00     0.076 C 
HETATM   14  C15 UNL     1     -13.054  27.036  16.431  1.00  0.00     0.215 C 
HETATM   15  O3  UNL     1     -12.962  27.497  15.058  1.00  0.00    -0.199 OA
HETATM   16  O4  UNL     1     -11.944  28.320  15.095  1.00  0.00    -0.237 OA
HETATM   17  C18 UNL     1     -12.358  29.206  16.057  1.00  0.00     0.224 C 
HETATM   18  C19 UNL     1     -13.105  28.307  17.072  1.00  0.00     0.107 C 
HETATM   19  C20 UNL     1     -14.393  28.933  20.482  1.00  0.00     0.086 C 
ENDROOT
BRANCH  14  20
HETATM   20  O1  UNL     1     -11.957  26.209  16.496  1.00  0.00    -0.280 OA
BRANCH  20  21
HETATM   21  C16 UNL     1     -11.241  25.664  15.468  1.00  0.00     0.257 C 
HETATM   22  C17 UNL     1     -11.835  24.687  14.488  1.00  0.00     0.126 C 
HETATM   23  O2  UNL     1     -10.039  25.998  15.343  1.00  0.00    -0.266 OA
ENDBRANCH  20  21
ENDBRANCH  14  20
BRANCH   1  24
HETATM   24  C2  UNL     1     -13.878  30.888  18.922  1.00  0.00     0.033 C 
HETATM   25  C1  UNL     1     -14.951  31.503  18.128  1.00  0.00     0.010 C 
ENDBRANCH   1  24
BRANCH  19  26
HETATM   26  O5  UNL     1     -15.821  28.940  20.420  1.00  0.00    -0.385 OA
ATOM     27  H5  UNL     1     -16.085  28.261  19.811  1.00  0.00     0.211 HD
ENDBRANCH  19  26
BRANCH  19  28
HETATM   28  C21 UNL     1     -14.225  29.791  21.733  1.00  0.00     0.038 C 
HETATM   29  C22 UNL     1     -14.609  29.241  23.037  1.00  0.00     0.008 C 
ENDBRANCH  19  28
TORSDOF 5
ENDMDL
MODEL 2
REMARK VINA RESULT: -7.079829621      2.305      3.171
REMARK  5 active torsions:
REMARK  status: ('A' for Active; 'I' for Inactive)
REMARK    1  A    between atoms: C2_2  and  C3_3 
REMARK    2  A    between atoms: C15_16  and  O1_17 
REMARK    3  A    between atoms: O1_17  and  C16_18 
REMARK    4  A    between atoms: C20_25  and  O5_26 
REMARK    5  A    between atoms: C20_25  and  C21_28 
ROOT
HETATM    1  C3  UNL     1     -13.680  27.161  21.061  1.00  0.00    -0.043 C 
HETATM    2  C4  UNL     1     -13.339  26.389  19.769  1.00  0.00    -0.061 C 
HETATM    3  C5  UNL     1     -12.770  25.057  20.004  1.00  0.00     0.056 C 
HETATM    4  C6  UNL     1     -13.257  24.247  21.140  1.00  0.00     0.093 C 
HETATM    5 CL1  UNL     1     -11.841  23.239  21.689  1.00  0.00    -0.124 Cl
HETATM    6  C7  UNL     1     -13.881  24.957  22.257  1.00  0.00     0.043 C 
HETATM    7  C8  UNL     1     -15.246  24.367  22.539  1.00  0.00     0.013 C 
HETATM    8  C9  UNL     1     -16.382  24.916  21.763  1.00  0.00     0.034 C 
HETATM    9  C10 UNL     1     -17.347  23.957  21.183  1.00  0.00    -0.087 C 
HETATM   10  C11 UNL     1     -18.396  23.462  22.161  1.00  0.00     0.043 C 
HETATM   11  C12 UNL     1     -17.380  23.511  19.951  1.00  0.00    -0.024 C 
HETATM   12  C13 UNL     1     -16.491  23.822  18.821  1.00  0.00     0.033 C 
HETATM   13  C14 UNL     1     -16.441  25.232  18.324  1.00  0.00     0.076 C 
HETATM   14  C15 UNL     1     -15.018  25.642  17.895  1.00  0.00     0.215 C 
HETATM   15  O3  UNL     1     -15.320  26.472  16.743  1.00  0.00    -0.199 OA
HETATM   16  O4  UNL     1     -14.144  26.939  16.404  1.00  0.00    -0.237 OA
HETATM   17  C18 UNL     1     -13.759  27.551  17.570  1.00  0.00     0.224 C 
HETATM   18  C19 UNL     1     -14.314  26.611  18.666  1.00  0.00     0.107 C 
HETATM   19  C20 UNL     1     -13.764  26.445  22.321  1.00  0.00     0.086 C 
ENDROOT
BRANCH  14  20
HETATM   20  O1  UNL     1     -14.398  24.576  17.285  1.00  0.00    -0.280 OA
BRANCH  20  21
HETATM   21  C16 UNL     1     -14.442  24.205  15.972  1.00  0.00     0.257 C 
HETATM   22  C17 UNL     1     -15.710  23.767  15.289  1.00  0.00     0.126 C 
HETATM   23  O2  UNL     1     -13.375  24.235  15.313  1.00  0.00    -0.266 OA
ENDBRANCH  20  21
ENDBRANCH  14  20
BRANCH   1  24
HETATM   24  C2  UNL     1     -13.218  28.582  21.032  1.00  0.00     0.033 C 
HETATM   25  C1  UNL     1     -14.192  29.678  20.945  1.00  0.00     0.010 C 
ENDBRANCH   1  24
BRANCH  19  26
HETATM   26  O5  UNL     1     -14.972  26.852  22.968  1.00  0.00    -0.385 OA
ATOM     27  H5  UNL     1     -15.696  26.443  22.507  1.00  0.00     0.211 HD
ENDBRANCH  19  26
BRANCH  19  28
HETATM   28  C21 UNL     1     -12.790  26.785  23.445  1.00  0.00     0.038 C 
HETATM   29  C22 UNL     1     -12.400  25.741  24.398  1.00  0.00     0.008 C 
ENDBRANCH  19  28
TORSDOF 5
ENDMDL
MODEL 3
REMARK VINA RESULT: -6.871229879      3.613      7.188
REMARK  5 active torsions:
REMARK  status: ('A' for Active; 'I' for Inactive)
REMARK    1  A    between atoms: C2_2  and  C3_3 
REMARK    2  A    between atoms: C15_16  and  O1_17 
REMARK    3  A    between atoms: O1_17  and  C16_18 
REMARK    4  A    between atoms: C20_25  and  O5_26 
REMARK    5  A    between atoms: C20_25  and  C21_28 
ROOT
HETATM    1  C3  UNL     1     -16.104  24.069  20.599  1.00  0.00    -0.043 C 
HETATM    2  C4  UNL     1     -14.903  23.811  21.533  1.00  0.00    -0.061 C 
HETATM    3  C5  UNL     1     -13.604  23.831  20.850  1.00  0.00     0.056 C 
HETATM    4  C6  UNL     1     -13.378  24.781  19.741  1.00  0.00     0.093 C 
HETATM    5 CL1  UNL     1     -12.210  23.967  18.604  1.00  0.00    -0.124 Cl
HETATM    6  C7  UNL     1     -14.556  25.288  19.036  1.00  0.00     0.043 C 
HETATM    7  C8  UNL     1     -14.529  26.802  19.019  1.00  0.00     0.013 C 
HETATM    8  C9  UNL     1     -15.128  27.491  20.185  1.00  0.00     0.034 C 
HETATM    9  C10 UNL     1     -14.380  28.621  20.777  1.00  0.00    -0.087 C 
HETATM   10  C11 UNL     1     -14.560  29.938  20.043  1.00  0.00     0.043 C 
HETATM   11  C12 UNL     1     -13.605  28.594  21.833  1.00  0.00    -0.024 C 
HETATM   12  C13 UNL     1     -13.261  27.464  22.709  1.00  0.00     0.033 C 
HETATM   13  C14 UNL     1     -14.359  26.804  23.481  1.00  0.00     0.076 C 
HETATM   14  C15 UNL     1     -14.159  25.278  23.578  1.00  0.00     0.215 C 
HETATM   15  O3  UNL     1     -14.639  25.036  24.927  1.00  0.00    -0.199 OA
HETATM   16  O4  UNL     1     -14.594  23.730  25.022  1.00  0.00    -0.237 OA
HETATM   17  C18 UNL     1     -15.390  23.363  23.967  1.00  0.00     0.224 C 
HETATM   18  C19 UNL     1     -15.056  24.416  22.883  1.00  0.00     0.107 C 
HETATM   19  C20 UNL     1     -15.878  24.640  19.284  1.00  0.00     0.086 C 
ENDROOT
BRANCH  14  20
HETATM   20  O1  UNL     1     -12.821  25.000  23.730  1.00  0.00    -0.280 OA
BRANCH  20  21
HETATM   21  C16 UNL     1     -12.075  25.012  24.874  1.00  0.00     0.257 C 
HETATM   22  C17 UNL     1     -11.439  23.773  25.447  1.00  0.00     0.126 C 
HETATM   23  O2  UNL     1     -11.918  26.106  25.466  1.00  0.00    -0.266 OA
ENDBRANCH  20  21
ENDBRANCH  14  20
BRANCH   1  24
HETATM   24  C2  UNL     1     -17.232  23.115  20.821  1.00  0.00     0.033 C 
HETATM   25  C1  UNL     1     -18.440  23.547  21.537  1.00  0.00     0.010 C 
ENDBRANCH   1  24
BRANCH  19  26
HETATM   26  O5  UNL     1     -16.815  25.706  19.110  1.00  0.00    -0.385 OA
ATOM     27  H5  UNL     1     -16.389  26.380  18.594  1.00  0.00     0.211 HD
ENDBRANCH  19  26
BRANCH  19  28
HETATM   28  C21 UNL     1     -16.238  23.830  18.041  1.00  0.00     0.038 C 
HETATM   29  C22 UNL     1     -17.386  24.237  17.226  1.00  0.00     0.008 C 
ENDBRANCH  19  28
TORSDOF 5
ENDMDL
MODEL 4
REMARK VINA RESULT: -6.812908357      3.716      5.728
REMARK  5 active torsions:
REMARK  status: ('A' for Active; 'I' for Inactive)
REMARK    1  A    between atoms: C2_2  and  C3_3 
REMARK    2  A    between atoms: C15_16  and  O1_17 
REMARK    3  A    between atoms: O1_17  and  C16_18 
REMARK    4  A    between atoms: C20_25  and  O5_26 
REMARK    5  A    between atoms: C20_25  and  C21_28 
ROOT
HETATM    1  C3  UNL     1     -13.847  24.460  23.970  1.00  0.00    -0.043 C 
HETATM    2  C4  UNL     1     -13.008  25.051  22.818  1.00  0.00    -0.061 C 
HETATM    3  C5  UNL     1     -12.562  24.056  21.836  1.00  0.00     0.056 C 
HETATM    4  C6  UNL     1     -13.450  22.928  21.485  1.00  0.00     0.093 C 
HETATM    5 CL1  UNL     1     -12.358  21.526  21.083  1.00  0.00    -0.124 Cl
HETATM    6  C7  UNL     1     -14.479  22.552  22.456  1.00  0.00     0.043 C 
HETATM    7  C8  UNL     1     -15.834  22.533  21.783  1.00  0.00     0.013 C 
HETATM    8  C9  UNL     1     -16.573  23.815  21.736  1.00  0.00     0.034 C 
HETATM    9  C10 UNL     1     -17.213  24.196  20.459  1.00  0.00    -0.087 C 
HETATM   10  C11 UNL     1     -18.559  23.537  20.216  1.00  0.00     0.043 C 
HETATM   11  C12 UNL     1     -16.745  25.016  19.549  1.00  0.00    -0.024 C 
HETATM   12  C13 UNL     1     -15.484  25.772  19.535  1.00  0.00     0.033 C 
HETATM   13  C14 UNL     1     -15.258  26.799  20.598  1.00  0.00     0.076 C 
HETATM   14  C15 UNL     1     -13.789  26.838  21.061  1.00  0.00     0.215 C 
HETATM   15  O3  UNL     1     -13.617  28.264  21.271  1.00  0.00    -0.199 OA
HETATM   16  O4  UNL     1     -12.410  28.342  21.774  1.00  0.00    -0.237 OA
HETATM   17  C18 UNL     1     -12.531  27.527  22.872  1.00  0.00     0.224 C 
HETATM   18  C19 UNL     1     -13.464  26.397  22.376  1.00  0.00     0.107 C 
HETATM   19  C20 UNL     1     -14.418  23.132  23.831  1.00  0.00     0.086 C 
ENDROOT
BRANCH  14  20
HETATM   20  O1  UNL     1     -12.962  26.639  19.980  1.00  0.00    -0.280 OA
BRANCH  20  21
HETATM   21  C16 UNL     1     -12.506  27.557  19.078  1.00  0.00     0.257 C 
HETATM   22  C17 UNL     1     -13.426  28.378  18.213  1.00  0.00     0.126 C 
HETATM   23  O2  UNL     1     -11.267  27.718  18.972  1.00  0.00    -0.266 OA
ENDBRANCH  20  21
ENDBRANCH  14  20
BRANCH   1  24
HETATM   24  C2  UNL     1     -13.432  24.964  25.314  1.00  0.00     0.033 C 
HETATM   25  C1  UNL     1     -12.008  25.090  25.652  1.00  0.00     0.010 C 
ENDBRANCH   1  24
BRANCH  19  26
HETATM   26  O5  UNL     1     -15.789  23.209  24.227  1.00  0.00    -0.385 OA
ATOM     27  H5  UNL     1     -16.059  22.338  24.496  1.00  0.00     0.211 HD
ENDBRANCH  19  26
BRANCH  19  28
HETATM   28  C21 UNL     1     -13.978  22.023  24.783  1.00  0.00     0.038 C 
HETATM   29  C22 UNL     1     -12.629  21.463  24.658  1.00  0.00     0.008 C 
ENDBRANCH  19  28
TORSDOF 5
ENDMDL
MODEL 5
REMARK VINA RESULT: -6.687962218      2.099      4.268
REMARK  5 active torsions:
REMARK  status: ('A' for Active; 'I' for Inactive)
REMARK    1  A    between atoms: C2_2  and  C3_3 
REMARK    2  A    between atoms: C15_16  and  O1_17 
REMARK    3  A    between atoms: O1_17  and  C16_18 
REMARK    4  A    between atoms: C20_25  and  O5_26 
REMARK    5  A    between atoms: C20_25  and  C21_28 
ROOT
HETATM    1  C3  UNL     1     -12.495  25.992  21.199  1.00  0.00    -0.043 C 
HETATM    2  C4  UNL     1     -12.743  25.561  19.738  1.00  0.00    -0.061 C 
HETATM    3  C5  UNL     1     -14.161  25.381  19.403  1.00  0.00     0.056 C 
HETATM    4  C6  UNL     1     -15.171  26.280  19.999  1.00  0.00     0.093 C 
HETATM    5 CL1  UNL     1     -16.692  25.292  20.172  1.00  0.00    -0.124 Cl
HETATM    6  C7  UNL     1     -14.819  26.955  21.249  1.00  0.00     0.043 C 
HETATM    7  C8  UNL     1     -15.027  28.447  21.100  1.00  0.00     0.013 C 
HETATM    8  C9  UNL     1     -13.895  29.225  20.547  1.00  0.00     0.034 C 
HETATM    9  C10 UNL     1     -14.194  30.233  19.506  1.00  0.00    -0.087 C 
HETATM   10  C11 UNL     1     -14.697  31.557  20.049  1.00  0.00     0.043 C 
HETATM   11  C12 UNL     1     -14.071  30.094  18.209  1.00  0.00    -0.024 C 
HETATM   12  C13 UNL     1     -13.617  28.930  17.433  1.00  0.00     0.033 C 
HETATM   13  C14 UNL     1     -12.215  28.447  17.631  1.00  0.00     0.076 C 
HETATM   14  C15 UNL     1     -12.121  26.910  17.574  1.00  0.00     0.215 C 
HETATM   15  O3  UNL     1     -10.848  26.750  16.895  1.00  0.00    -0.199 OA
HETATM   16  O4  UNL     1     -10.665  25.453  16.919  1.00  0.00    -0.237 OA
HETATM   17  C18 UNL     1     -10.725  25.205  18.267  1.00  0.00     0.224 C 
HETATM   18  C19 UNL     1     -11.810  26.190  18.764  1.00  0.00     0.107 C 
HETATM   19  C20 UNL     1     -13.597  26.516  21.987  1.00  0.00     0.086 C 
ENDROOT
BRANCH  14  20
HETATM   20  O1  UNL     1     -12.983  26.433  16.614  1.00  0.00    -0.280 OA
BRANCH  20  21
HETATM   21  C16 UNL     1     -12.824  26.425  15.258  1.00  0.00     0.257 C 
HETATM   22  C17 UNL     1     -12.754  25.155  14.451  1.00  0.00     0.126 C 
HETATM   23  O2  UNL     1     -12.734  27.528  14.667  1.00  0.00    -0.266 OA
ENDBRANCH  20  21
ENDBRANCH  14  20
BRANCH   1  24
HETATM   24  C2  UNL     1     -11.399  25.221  21.858  1.00  0.00     0.033 C 
HETATM   25  C1  UNL     1     -11.303  23.766  21.678  1.00  0.00     0.010 C 
ENDBRANCH   1  24
BRANCH  19  26
HETATM   26  O5  UNL     1     -13.140  27.710  22.626  1.00  0.00    -0.385 OA
ATOM     27  H5  UNL     1     -13.780  28.391  22.453  1.00  0.00     0.211 HD
ENDBRANCH  19  26
BRANCH  19  28
HETATM   28  C21 UNL     1     -14.053  25.763  23.233  1.00  0.00     0.038 C 
HETATM   29  C22 UNL     1     -14.759  24.487  23.082  1.00  0.00     0.008 C 
ENDBRANCH  19  28
TORSDOF 5
ENDMDL
