MODEL 1
REMARK VINA RESULT: -7.588961960      0.000      0.000
REMARK  4 active torsions:
REMARK  status: ('A' for Active; 'I' for Inactive)
REMARK    1  A    between atoms: O1_2  and  C2_3 
REMARK    2  A    between atoms: C2_3  and  O3_5 
REMARK    3  A    between atoms: O3_5  and  C3_6 
REMARK    4  A    between atoms: C15_18  and  N1_19 
ROOT
HETATM    1  C3  UNL     1     -16.369  23.092  22.962  1.00  0.00     0.134 C 
HETATM    2  C4  UNL     1     -17.195  24.301  22.506  1.00  0.00     0.033 C 
HETATM    3  C5  UNL     1     -16.222  25.210  21.814  1.00  0.00     0.012 C 
HETATM    4  C6  UNL     1     -15.634  24.586  20.572  1.00  0.00    -0.036 C 
HETATM    5  C7  UNL     1     -16.811  24.435  19.593  1.00  0.00     0.016 C 
HETATM    6  C8  UNL     1     -15.085  23.211  20.796  1.00  0.00    -0.004 C 
HETATM    7  C9  UNL     1     -13.650  23.153  21.193  1.00  0.00     0.006 C 
HETATM    8  C10 UNL     1     -12.789  24.253  20.688  1.00  0.00     0.006 C 
HETATM    9  C11 UNL     1     -13.472  24.823  19.437  1.00  0.00    -0.004 C 
HETATM   10  C12 UNL     1     -12.483  25.686  18.741  1.00  0.00     0.007 C 
HETATM   11  C13 UNL     1     -11.597  26.487  19.675  1.00  0.00     0.035 C 
HETATM   12  C14 UNL     1     -11.095  27.536  18.757  1.00  0.00     0.002 C 
HETATM   13  C15 UNL     1     -11.928  27.708  17.723  1.00  0.00     0.038 C 
HETATM   14  C19 UNL     1     -13.050  26.775  17.887  1.00  0.00     0.005 C 
HETATM   15  C20 UNL     1     -13.573  26.207  16.580  1.00  0.00     0.022 C 
HETATM   16  C21 UNL     1     -14.238  27.464  18.556  1.00  0.00     0.016 C 
HETATM   17  C22 UNL     1     -15.272  26.404  18.867  1.00  0.00     0.007 C 
HETATM   18  C23 UNL     1     -14.683  25.543  19.962  1.00  0.00    -0.002 C 
HETATM   19  C24 UNL     1     -15.884  22.392  21.748  1.00  0.00     0.038 C 
ENDROOT
BRANCH  13  20
HETATM   20  N1  UNL     1     -11.693  28.669  16.666  1.00  0.00    -0.269 N 
HETATM   21  C16 UNL     1     -12.311  29.838  16.473  1.00  0.00     0.160 A 
HETATM   22  C17 UNL     1     -11.790  30.456  15.330  1.00  0.00     0.150 A 
HETATM   23  F1  UNL     1     -12.161  31.661  14.805  1.00  0.00    -0.203 F 
HETATM   24  C18 UNL     1     -10.833  29.592  14.858  1.00  0.00     0.151 A 
HETATM   25  N2  UNL     1     -10.811  28.544  15.683  1.00  0.00    -0.303 N 
ATOM     26  H2  UNL     1     -10.190  27.743  15.572  1.00  0.00     0.186 HD
ENDBRANCH  13  20
BRANCH   1  27
HETATM   27  O3  UNL     1     -15.385  23.570  23.819  1.00  0.00    -0.293 OA
BRANCH  27  28
HETATM   28  C2  UNL     1     -14.936  22.949  24.966  1.00  0.00     0.406 C 
HETATM   29  O2  UNL     1     -15.311  23.412  26.074  1.00  0.00    -0.230 OA
BRANCH  28  30
HETATM   30  O1  UNL     1     -14.088  21.839  24.936  1.00  0.00    -0.303 OA
HETATM   31  C1  UNL     1     -12.732  21.917  24.561  1.00  0.00     0.215 C 
ENDBRANCH  28  30
ENDBRANCH  27  28
ENDBRANCH   1  27
TORSDOF 4
ENDMDL
MODEL 2
REMARK VINA RESULT: -7.522953756      1.928      2.993
REMARK  4 active torsions:
REMARK  status: ('A' for Active; 'I' for Inactive)
REMARK    1  A    between atoms: O1_2  and  C2_3 
REMARK    2  A    between atoms: C2_3  and  O3_5 
REMARK    3  A    between atoms: O3_5  and  C3_6 
REMARK    4  A    between atoms: C15_18  and  N1_19 
ROOT
HETATM    1  C3  UNL     1     -15.108  23.031  23.465  1.00  0.00     0.134 C 
HETATM    2  C4  UNL     1     -13.757  23.689  23.772  1.00  0.00     0.033 C 
HETATM    3  C5  UNL     1     -13.378  24.424  22.520  1.00  0.00     0.012 C 
HETATM    4  C6  UNL     1     -14.343  25.536  22.190  1.00  0.00    -0.036 C 
HETATM    5  C7  UNL     1     -14.186  26.564  23.324  1.00  0.00     0.016 C 
HETATM    6  C8  UNL     1     -15.777  25.106  22.198  1.00  0.00    -0.004 C 
HETATM    7  C9  UNL     1     -16.302  24.611  20.895  1.00  0.00     0.006 C 
HETATM    8  C10 UNL     1     -15.680  25.191  19.678  1.00  0.00     0.006 C 
HETATM    9  C11 UNL     1     -15.081  26.546  20.080  1.00  0.00    -0.004 C 
HETATM   10  C12 UNL     1     -14.750  27.278  18.829  1.00  0.00     0.007 C 
HETATM   11  C13 UNL     1     -14.209  26.395  17.722  1.00  0.00     0.035 C 
HETATM   12  C14 UNL     1     -13.559  27.402  16.851  1.00  0.00     0.002 C 
HETATM   13  C15 UNL     1     -13.240  28.502  17.544  1.00  0.00     0.038 C 
HETATM   14  C19 UNL     1     -13.661  28.298  18.936  1.00  0.00     0.005 C 
HETATM   15  C20 UNL     1     -14.175  29.555  19.614  1.00  0.00     0.022 C 
HETATM   16  C21 UNL     1     -12.496  27.800  19.790  1.00  0.00     0.016 C 
HETATM   17  C22 UNL     1     -13.045  27.428  21.150  1.00  0.00     0.007 C 
HETATM   18  C23 UNL     1     -13.899  26.197  20.941  1.00  0.00    -0.002 C 
HETATM   19  C24 UNL     1     -16.101  24.113  23.259  1.00  0.00     0.038 C 
ENDROOT
BRANCH  13  20
HETATM   20  N1  UNL     1     -12.593  29.654  16.952  1.00  0.00    -0.269 N 
HETATM   21  C16 UNL     1     -11.421  29.692  16.311  1.00  0.00     0.160 A 
HETATM   22  C17 UNL     1     -11.158  31.005  15.901  1.00  0.00     0.150 A 
HETATM   23  F1  UNL     1     -10.061  31.449  15.219  1.00  0.00    -0.203 F 
HETATM   24  C18 UNL     1     -12.234  31.740  16.334  1.00  0.00     0.151 A 
HETATM   25  N2  UNL     1     -13.061  30.895  16.953  1.00  0.00    -0.303 N 
ATOM     26  H2  UNL     1     -13.947  31.170  17.376  1.00  0.00     0.186 HD
ENDBRANCH  13  20
BRANCH   1  27
HETATM   27  O3  UNL     1     -14.910  22.178  22.387  1.00  0.00    -0.293 OA
BRANCH  27  28
HETATM   28  C2  UNL     1     -15.685  21.083  22.065  1.00  0.00     0.406 C 
HETATM   29  O2  UNL     1     -16.061  20.955  20.872  1.00  0.00    -0.230 OA
BRANCH  28  30
HETATM   30  O1  UNL     1     -16.061  20.126  23.011  1.00  0.00    -0.303 OA
HETATM   31  C1  UNL     1     -15.137  19.286  23.665  1.00  0.00     0.215 C 
ENDBRANCH  28  30
ENDBRANCH  27  28
ENDBRANCH   1  27
TORSDOF 4
ENDMDL
MODEL 3
REMARK VINA RESULT: -7.512826662      1.874      3.383
REMARK  4 active torsions:
REMARK  status: ('A' for Active; 'I' for Inactive)
REMARK    1  A    between atoms: O1_2  and  C2_3 
REMARK    2  A    between atoms: C2_3  and  O3_5 
REMARK    3  A    between atoms: O3_5  and  C3_6 
REMARK    4  A    between atoms: C15_18  and  N1_19 
ROOT
HETATM    1  C3  UNL     1     -15.217  24.497  22.477  1.00  0.00     0.134 C 
HETATM    2  C4  UNL     1     -13.743  24.837  22.729  1.00  0.00     0.033 C 
HETATM    3  C5  UNL     1     -13.165  25.131  21.376  1.00  0.00     0.012 C 
HETATM    4  C6  UNL     1     -13.792  26.343  20.732  1.00  0.00    -0.036 C 
HETATM    5  C7  UNL     1     -13.378  27.534  21.614  1.00  0.00     0.016 C 
HETATM    6  C8  UNL     1     -15.289  26.313  20.729  1.00  0.00    -0.004 C 
HETATM    7  C9  UNL     1     -15.912  25.676  19.536  1.00  0.00     0.006 C 
HETATM    8  C10 UNL     1     -15.142  25.771  18.269  1.00  0.00     0.006 C 
HETATM    9  C11 UNL     1     -14.206  26.980  18.400  1.00  0.00    -0.004 C 
HETATM   10  C12 UNL     1     -13.675  27.284  17.045  1.00  0.00     0.007 C 
HETATM   11  C13 UNL     1     -13.378  26.055  16.209  1.00  0.00     0.035 C 
HETATM   12  C14 UNL     1     -12.471  26.624  15.184  1.00  0.00     0.002 C 
HETATM   13  C15 UNL     1     -11.877  27.736  15.634  1.00  0.00     0.038 C 
HETATM   14  C19 UNL     1     -12.354  27.983  17.001  1.00  0.00     0.005 C 
HETATM   15  C20 UNL     1     -12.519  29.453  17.339  1.00  0.00     0.022 C 
HETATM   16  C21 UNL     1     -11.376  27.418  18.030  1.00  0.00     0.016 C 
HETATM   17  C22 UNL     1     -12.021  27.533  19.394  1.00  0.00     0.007 C 
HETATM   18  C23 UNL     1     -13.172  26.552  19.404  1.00  0.00    -0.002 C 
HETATM   19  C24 UNL     1     -15.880  25.717  21.960  1.00  0.00     0.038 C 
ENDROOT
BRANCH  13  20
HETATM   20  N1  UNL     1     -10.936  28.507  14.848  1.00  0.00    -0.269 N 
HETATM   21  C16 UNL     1     -10.809  29.836  14.802  1.00  0.00     0.160 A 
HETATM   22  C17 UNL     1      -9.783  30.174  13.910  1.00  0.00     0.150 A 
HETATM   23  F1  UNL     1      -9.352  31.430  13.591  1.00  0.00    -0.203 F 
HETATM   24  C18 UNL     1      -9.312  28.976  13.432  1.00  0.00     0.151 A 
HETATM   25  N2  UNL     1     -10.028  28.013  14.018  1.00  0.00    -0.303 N 
ATOM     26  H2  UNL     1      -9.892  27.017  13.847  1.00  0.00     0.186 HD
ENDBRANCH  13  20
BRANCH   1  27
HETATM   27  O3  UNL     1     -15.243  23.391  21.637  1.00  0.00    -0.293 OA
BRANCH  27  28
HETATM   28  C2  UNL     1     -16.280  22.490  21.511  1.00  0.00     0.406 C 
HETATM   29  O2  UNL     1     -16.288  21.489  22.272  1.00  0.00    -0.230 OA
BRANCH  28  30
HETATM   30  O1  UNL     1     -17.306  22.653  20.577  1.00  0.00    -0.303 OA
HETATM   31  C1  UNL     1     -18.484  23.379  20.847  1.00  0.00     0.215 C 
ENDBRANCH  28  30
ENDBRANCH  27  28
ENDBRANCH   1  27
TORSDOF 4
ENDMDL
MODEL 4
REMARK VINA RESULT: -7.396792131      1.845      3.263
REMARK  4 active torsions:
REMARK  status: ('A' for Active; 'I' for Inactive)
REMARK    1  A    between atoms: O1_2  and  C2_3 
REMARK    2  A    between atoms: C2_3  and  O3_5 
REMARK    3  A    between atoms: O3_5  and  C3_6 
REMARK    4  A    between atoms: C15_18  and  N1_19 
ROOT
HETATM    1  C3  UNL     1     -15.470  23.686  22.764  1.00  0.00     0.134 C 
HETATM    2  C4  UNL     1     -14.866  22.897  21.596  1.00  0.00     0.033 C 
HETATM    3  C5  UNL     1     -14.577  23.917  20.533  1.00  0.00     0.012 C 
HETATM    4  C6  UNL     1     -13.539  24.923  20.967  1.00  0.00    -0.036 C 
HETATM    5  C7  UNL     1     -12.235  24.122  21.122  1.00  0.00     0.016 C 
HETATM    6  C8  UNL     1     -13.824  25.540  22.301  1.00  0.00    -0.004 C 
HETATM    7  C9  UNL     1     -14.643  26.784  22.267  1.00  0.00     0.006 C 
HETATM    8  C10 UNL     1     -14.511  27.618  21.045  1.00  0.00     0.006 C 
HETATM    9  C11 UNL     1     -13.153  27.281  20.413  1.00  0.00    -0.004 C 
HETATM   10  C12 UNL     1     -12.862  28.323  19.394  1.00  0.00     0.007 C 
HETATM   11  C13 UNL     1     -14.081  28.783  18.617  1.00  0.00     0.035 C 
HETATM   12  C14 UNL     1     -13.441  29.408  17.435  1.00  0.00     0.002 C 
HETATM   13  C15 UNL     1     -12.215  28.912  17.234  1.00  0.00     0.038 C 
HETATM   14  C19 UNL     1     -11.954  27.912  18.279  1.00  0.00     0.005 C 
HETATM   15  C20 UNL     1     -10.513  27.880  18.753  1.00  0.00     0.022 C 
HETATM   16  C21 UNL     1     -12.267  26.504  17.777  1.00  0.00     0.016 C 
HETATM   17  C22 UNL     1     -12.166  25.560  18.954  1.00  0.00     0.007 C 
HETATM   18  C23 UNL     1     -13.325  25.891  19.867  1.00  0.00    -0.002 C 
HETATM   19  C24 UNL     1     -14.421  24.595  23.285  1.00  0.00     0.038 C 
ENDROOT
BRANCH  13  20
HETATM   20  N1  UNL     1     -11.354  29.336  16.150  1.00  0.00    -0.269 N 
HETATM   21  C16 UNL     1     -10.829  30.549  15.952  1.00  0.00     0.160 A 
HETATM   22  C17 UNL     1     -10.061  30.537  14.781  1.00  0.00     0.150 A 
HETATM   23  F1  UNL     1      -9.366  31.583  14.243  1.00  0.00    -0.203 F 
HETATM   24  C18 UNL     1     -10.158  29.256  14.299  1.00  0.00     0.151 A 
HETATM   25  N2  UNL     1     -10.937  28.578  15.145  1.00  0.00    -0.303 N 
ATOM     26  H2  UNL     1     -11.182  27.594  15.032  1.00  0.00     0.186 HD
ENDBRANCH  13  20
BRANCH   1  27
HETATM   27  O3  UNL     1     -16.622  24.301  22.289  1.00  0.00    -0.293 OA
BRANCH  27  28
HETATM   28  C2  UNL     1     -17.854  23.702  22.128  1.00  0.00     0.406 C 
HETATM   29  O2  UNL     1     -18.322  23.043  23.091  1.00  0.00    -0.230 OA
BRANCH  28  30
HETATM   30  O1  UNL     1     -18.587  23.801  20.942  1.00  0.00    -0.303 OA
HETATM   31  C1  UNL     1     -18.074  23.418  19.687  1.00  0.00     0.215 C 
ENDBRANCH  28  30
ENDBRANCH  27  28
ENDBRANCH   1  27
TORSDOF 4
ENDMDL
MODEL 5
REMARK VINA RESULT: -7.342626251      1.736      2.681
REMARK  4 active torsions:
REMARK  status: ('A' for Active; 'I' for Inactive)
REMARK    1  A    between atoms: O1_2  and  C2_3 
REMARK    2  A    between atoms: C2_3  and  O3_5 
REMARK    3  A    between atoms: O3_5  and  C3_6 
REMARK    4  A    between atoms: C15_18  and  N1_19 
ROOT
HETATM    1  C3  UNL     1     -15.676  23.622  22.848  1.00  0.00     0.134 C 
HETATM    2  C4  UNL     1     -14.499  24.456  23.368  1.00  0.00     0.033 C 
HETATM    3  C5  UNL     1     -13.800  24.968  22.142  1.00  0.00     0.012 C 
HETATM    4  C6  UNL     1     -14.670  25.895  21.329  1.00  0.00    -0.036 C 
HETATM    5  C7  UNL     1     -14.889  27.133  22.215  1.00  0.00     0.016 C 
HETATM    6  C8  UNL     1     -16.027  25.336  21.033  1.00  0.00    -0.004 C 
HETATM    7  C9  UNL     1     -16.132  24.549  19.773  1.00  0.00     0.006 C 
HETATM    8  C10 UNL     1     -15.206  24.941  18.680  1.00  0.00     0.006 C 
HETATM    9  C11 UNL     1     -14.802  26.400  18.932  1.00  0.00    -0.004 C 
HETATM   10  C12 UNL     1     -14.151  26.905  17.695  1.00  0.00     0.007 C 
HETATM   11  C13 UNL     1     -13.278  25.881  16.995  1.00  0.00     0.035 C 
HETATM   12  C14 UNL     1     -12.442  26.759  16.143  1.00  0.00     0.002 C 
HETATM   13  C15 UNL     1     -12.380  27.998  16.646  1.00  0.00     0.038 C 
HETATM   14  C19 UNL     1     -13.180  28.027  17.878  1.00  0.00     0.005 C 
HETATM   15  C20 UNL     1     -13.916  29.335  18.103  1.00  0.00     0.022 C 
HETATM   16  C21 UNL     1     -12.294  27.821  19.106  1.00  0.00     0.016 C 
HETATM   17  C22 UNL     1     -13.200  27.667  20.308  1.00  0.00     0.007 C 
HETATM   18  C23 UNL     1     -13.909  26.342  20.140  1.00  0.00    -0.002 C 
HETATM   19  C24 UNL     1     -16.607  24.540  22.150  1.00  0.00     0.038 C 
ENDROOT
BRANCH  13  20
HETATM   20  N1  UNL     1     -11.634  29.072  16.024  1.00  0.00    -0.269 N 
HETATM   21  C16 UNL     1     -10.977  29.042  14.860  1.00  0.00     0.160 A 
HETATM   22  C17 UNL     1     -10.383  30.289  14.630  1.00  0.00     0.150 A 
HETATM   23  F1  UNL     1      -9.629  30.654  13.551  1.00  0.00    -0.203 F 
HETATM   24  C18 UNL     1     -10.722  31.056  15.717  1.00  0.00     0.151 A 
HETATM   25  N2  UNL     1     -11.466  30.291  16.519  1.00  0.00    -0.303 N 
ATOM     26  H2  UNL     1     -11.857  30.605  17.406  1.00  0.00     0.186 HD
ENDBRANCH  13  20
BRANCH   1  27
HETATM   27  O3  UNL     1     -15.140  22.599  22.074  1.00  0.00    -0.293 OA
BRANCH  27  28
HETATM   28  C2  UNL     1     -15.658  21.327  21.939  1.00  0.00     0.406 C 
HETATM   29  O2  UNL     1     -16.096  20.985  20.811  1.00  0.00    -0.230 OA
BRANCH  28  30
HETATM   30  O1  UNL     1     -15.711  20.422  23.001  1.00  0.00    -0.303 OA
HETATM   31  C1  UNL     1     -14.610  20.155  23.840  1.00  0.00     0.215 C 
ENDBRANCH  28  30
ENDBRANCH  27  28
ENDBRANCH   1  27
TORSDOF 4
ENDMDL
