MODEL 1
REMARK VINA RESULT: -9.068617807      0.000      0.000
REMARK  3 active torsions:
REMARK  status: ('A' for Active; 'I' for Inactive)
REMARK    1  A    between atoms: C12_12  and  C13_13 
REMARK    2  A    between atoms: C15_15  and  N1_16 
REMARK    3  A    between atoms: C17_23  and  O3_24 
ROOT
HETATM    1  C1  UNL     1     -16.724  22.336  20.536  1.00  0.00     0.015 C 
HETATM    2  C2  UNL     1     -17.181  23.742  20.781  1.00  0.00    -0.040 C 
HETATM    3  C3  UNL     1     -18.546  23.711  21.411  1.00  0.00     0.009 C 
HETATM    4  C4  UNL     1     -18.245  23.409  22.875  1.00  0.00     0.001 C 
HETATM    5  C5  UNL     1     -16.798  23.697  23.106  1.00  0.00     0.006 C 
HETATM    6  C6  UNL     1     -16.400  24.442  21.878  1.00  0.00    -0.002 C 
HETATM    7  C7  UNL     1     -14.942  24.307  21.543  1.00  0.00    -0.005 C 
HETATM    8  C8  UNL     1     -14.031  24.786  22.611  1.00  0.00     0.006 C 
HETATM    9  C9  UNL     1     -12.862  25.639  22.043  1.00  0.00     0.013 C 
HETATM   10  C10 UNL     1     -13.451  26.872  21.514  1.00  0.00    -0.009 C 
HETATM   11  C11 UNL     1     -14.153  27.550  22.624  1.00  0.00     0.018 C 
HETATM   12  C12 UNL     1     -12.593  27.910  20.833  1.00  0.00     0.167 C 
HETATM   13  O4  UNL     1     -13.278  28.681  19.977  1.00  0.00    -0.380 OA
HETATM   14  C18 UNL     1     -14.619  28.808  20.054  1.00  0.00     0.169 C 
HETATM   15  C19 UNL     1     -15.368  27.483  20.179  1.00  0.00     0.032 C 
HETATM   16  C20 UNL     1     -14.336  26.443  20.354  1.00  0.00     0.003 C 
HETATM   17  C21 UNL     1     -14.657  25.015  20.254  1.00  0.00    -0.005 C 
HETATM   18  C22 UNL     1     -15.644  24.728  19.148  1.00  0.00     0.006 C 
HETATM   19  C23 UNL     1     -17.076  24.643  19.575  1.00  0.00     0.010 C 
ENDROOT
BRANCH  12  20
HETATM   20  C13 UNL     1     -11.411  27.328  20.100  1.00  0.00     0.025 A 
HETATM   21  C14 UNL     1     -11.476  26.662  18.923  1.00  0.00     0.055 A 
HETATM   22  C15 UNL     1     -10.321  26.144  18.344  1.00  0.00     0.159 A 
HETATM   23  C16 UNL     1      -9.117  26.298  18.953  1.00  0.00     0.223 A 
HETATM   24  F1  UNL     1      -7.959  25.823  18.383  1.00  0.00    -0.183 F 
HETATM   25  N2  UNL     1      -9.017  26.948  20.128  1.00  0.00    -0.311 N 
HETATM   26  C17 UNL     1     -10.139  27.439  20.667  1.00  0.00     0.151 A 
ATOM     27  H2  UNL     1      -8.116  27.062  20.592  1.00  0.00     0.170 HD
BRANCH  22  28
HETATM   28  N1  UNL     1     -10.434  25.431  17.116  1.00  0.00    -0.111 N 
HETATM   29  O1  UNL     1     -10.602  24.213  17.104  1.00  0.00    -0.532 OA
HETATM   30  O2  UNL     1     -10.334  26.102  15.904  1.00  0.00    -0.532 OA
ENDBRANCH  22  28
BRANCH  26  31
HETATM   31  O3  UNL     1      -9.981  28.107  21.900  1.00  0.00    -0.346 OA
ATOM     32  H3  UNL     1     -10.638  28.004  22.579  1.00  0.00     0.219 HD
ENDBRANCH  26  31
ENDBRANCH  12  20
TORSDOF 3
ENDMDL
MODEL 2
REMARK VINA RESULT: -8.616951525      3.128      5.016
REMARK  3 active torsions:
REMARK  status: ('A' for Active; 'I' for Inactive)
REMARK    1  A    between atoms: C12_12  and  C13_13 
REMARK    2  A    between atoms: C15_15  and  N1_16 
REMARK    3  A    between atoms: C17_23  and  O3_24 
ROOT
HETATM    1  C1  UNL     1     -17.451  24.103  22.681  1.00  0.00     0.015 C 
HETATM    2  C2  UNL     1     -16.033  23.657  22.484  1.00  0.00    -0.040 C 
HETATM    3  C3  UNL     1     -15.937  22.187  22.784  1.00  0.00     0.009 C 
HETATM    4  C4  UNL     1     -16.461  21.538  21.507  1.00  0.00     0.001 C 
HETATM    5  C5  UNL     1     -16.425  22.572  20.429  1.00  0.00     0.006 C 
HETATM    6  C6  UNL     1     -15.602  23.659  21.030  1.00  0.00    -0.002 C 
HETATM    7  C7  UNL     1     -15.912  25.021  20.475  1.00  0.00    -0.005 C 
HETATM    8  C8  UNL     1     -15.712  25.133  19.009  1.00  0.00     0.006 C 
HETATM    9  C9  UNL     1     -14.982  26.449  18.619  1.00  0.00     0.013 C 
HETATM   10  C10 UNL     1     -13.618  26.352  19.145  1.00  0.00    -0.009 C 
HETATM   11  C11 UNL     1     -12.985  25.158  18.545  1.00  0.00     0.018 C 
HETATM   12  C12 UNL     1     -12.645  27.495  18.990  1.00  0.00     0.167 C 
HETATM   13  O4  UNL     1     -11.678  27.494  19.919  1.00  0.00    -0.380 OA
HETATM   14  C18 UNL     1     -11.361  26.381  20.612  1.00  0.00     0.169 C 
HETATM   15  C19 UNL     1     -12.563  25.644  21.199  1.00  0.00     0.032 C 
HETATM   16  C20 UNL     1     -13.760  26.317  20.659  1.00  0.00     0.003 C 
HETATM   17  C21 UNL     1     -15.100  26.052  21.196  1.00  0.00    -0.005 C 
HETATM   18  C22 UNL     1     -15.095  25.909  22.698  1.00  0.00     0.006 C 
HETATM   19  C23 UNL     1     -15.016  24.505  23.208  1.00  0.00     0.010 C 
ENDROOT
BRANCH  12  20
HETATM   20  C13 UNL     1     -13.302  28.851  18.995  1.00  0.00     0.025 A 
HETATM   21  C14 UNL     1     -13.705  29.517  20.103  1.00  0.00     0.055 A 
HETATM   22  C15 UNL     1     -14.326  30.758  19.990  1.00  0.00     0.159 A 
HETATM   23  C16 UNL     1     -14.535  31.314  18.770  1.00  0.00     0.223 A 
HETATM   24  F1  UNL     1     -15.117  32.554  18.638  1.00  0.00    -0.183 F 
HETATM   25  N2  UNL     1     -14.155  30.676  17.647  1.00  0.00    -0.311 N 
HETATM   26  C17 UNL     1     -13.559  29.485  17.778  1.00  0.00     0.151 A 
ATOM     27  H2  UNL     1     -14.315  31.088  16.727  1.00  0.00     0.170 HD
BRANCH  22  28
HETATM   28  N1  UNL     1     -14.754  31.416  21.179  1.00  0.00    -0.111 N 
HETATM   29  O1  UNL     1     -14.878  30.799  22.235  1.00  0.00    -0.532 OA
HETATM   30  O2  UNL     1     -15.062  32.770  21.158  1.00  0.00    -0.532 OA
ENDBRANCH  22  28
BRANCH  26  31
HETATM   31  O3  UNL     1     -13.184  28.856  16.570  1.00  0.00    -0.346 OA
ATOM     32  H3  UNL     1     -13.855  28.570  15.961  1.00  0.00     0.219 HD
ENDBRANCH  26  31
ENDBRANCH  12  20
TORSDOF 3
ENDMDL
MODEL 3
REMARK VINA RESULT: -8.441464843      3.157      5.164
REMARK  3 active torsions:
REMARK  status: ('A' for Active; 'I' for Inactive)
REMARK    1  A    between atoms: C12_12  and  C13_13 
REMARK    2  A    between atoms: C15_15  and  N1_16 
REMARK    3  A    between atoms: C17_23  and  O3_24 
ROOT
HETATM    1  C1  UNL     1     -16.119  23.413  23.812  1.00  0.00     0.015 C 
HETATM    2  C2  UNL     1     -15.013  23.007  22.885  1.00  0.00    -0.040 C 
HETATM    3  C3  UNL     1     -14.941  21.505  22.839  1.00  0.00     0.009 C 
HETATM    4  C4  UNL     1     -16.065  21.133  21.879  1.00  0.00     0.001 C 
HETATM    5  C5  UNL     1     -16.432  22.364  21.116  1.00  0.00     0.006 C 
HETATM    6  C6  UNL     1     -15.316  23.301  21.427  1.00  0.00    -0.002 C 
HETATM    7  C7  UNL     1     -15.707  24.749  21.337  1.00  0.00    -0.005 C 
HETATM    8  C8  UNL     1     -16.208  25.156  20.001  1.00  0.00     0.006 C 
HETATM    9  C9  UNL     1     -15.613  26.518  19.545  1.00  0.00     0.013 C 
HETATM   10  C10 UNL     1     -14.180  26.307  19.327  1.00  0.00    -0.009 C 
HETATM   11  C11 UNL     1     -14.029  25.256  18.298  1.00  0.00     0.018 C 
HETATM   12  C12 UNL     1     -13.281  27.451  18.926  1.00  0.00     0.167 C 
HETATM   13  O4  UNL     1     -11.997  27.254  19.261  1.00  0.00    -0.380 OA
HETATM   14  C18 UNL     1     -11.509  26.022  19.510  1.00  0.00     0.169 C 
HETATM   15  C19 UNL     1     -12.365  25.189  20.463  1.00  0.00     0.032 C 
HETATM   16  C20 UNL     1     -13.599  25.966  20.690  1.00  0.00     0.003 C 
HETATM   17  C21 UNL     1     -14.551  25.607  21.749  1.00  0.00    -0.005 C 
HETATM   18  C22 UNL     1     -13.857  25.162  23.013  1.00  0.00     0.006 C 
HETATM   19  C23 UNL     1     -13.694  23.682  23.167  1.00  0.00     0.010 C 
ENDROOT
BRANCH  12  20
HETATM   20  C13 UNL     1     -13.715  28.782  19.484  1.00  0.00     0.025 A 
HETATM   21  C14 UNL     1     -13.916  29.049  20.796  1.00  0.00     0.055 A 
HETATM   22  C15 UNL     1     -14.342  30.311  21.199  1.00  0.00     0.159 A 
HETATM   23  C16 UNL     1     -14.561  31.289  20.282  1.00  0.00     0.223 A 
HETATM   24  F1  UNL     1     -14.950  32.552  20.662  1.00  0.00    -0.183 F 
HETATM   25  N2  UNL     1     -14.378  31.056  18.968  1.00  0.00    -0.311 N 
HETATM   26  C17 UNL     1     -13.968  29.836  18.603  1.00  0.00     0.151 A 
ATOM     27  H2  UNL     1     -14.547  31.786  18.276  1.00  0.00     0.170 HD
BRANCH  22  28
HETATM   28  N1  UNL     1     -14.563  30.545  22.587  1.00  0.00    -0.111 N 
HETATM   29  O1  UNL     1     -13.811  30.073  23.436  1.00  0.00    -0.532 OA
HETATM   30  O2  UNL     1     -15.654  31.296  23.005  1.00  0.00    -0.532 OA
ENDBRANCH  22  28
BRANCH  26  31
HETATM   31  O3  UNL     1     -13.796  29.643  17.215  1.00  0.00    -0.346 OA
ATOM     32  H3  UNL     1     -13.751  30.396  16.637  1.00  0.00     0.219 HD
ENDBRANCH  26  31
ENDBRANCH  12  20
TORSDOF 3
ENDMDL
MODEL 4
REMARK VINA RESULT: -8.177913695      3.542      5.361
REMARK  3 active torsions:
REMARK  status: ('A' for Active; 'I' for Inactive)
REMARK    1  A    between atoms: C12_12  and  C13_13 
REMARK    2  A    between atoms: C15_15  and  N1_16 
REMARK    3  A    between atoms: C17_23  and  O3_24 
ROOT
HETATM    1  C1  UNL     1     -14.458  24.255  14.789  1.00  0.00     0.015 C 
HETATM    2  C2  UNL     1     -14.963  23.403  15.914  1.00  0.00    -0.040 C 
HETATM    3  C3  UNL     1     -14.954  21.964  15.480  1.00  0.00     0.009 C 
HETATM    4  C4  UNL     1     -13.493  21.561  15.651  1.00  0.00     0.001 C 
HETATM    5  C5  UNL     1     -12.846  22.576  16.534  1.00  0.00     0.006 C 
HETATM    6  C6  UNL     1     -14.005  23.332  17.087  1.00  0.00    -0.002 C 
HETATM    7  C7  UNL     1     -13.669  24.744  17.475  1.00  0.00    -0.005 C 
HETATM    8  C8  UNL     1     -12.599  24.850  18.498  1.00  0.00     0.006 C 
HETATM    9  C9  UNL     1     -12.946  25.892  19.599  1.00  0.00     0.013 C 
HETATM   10  C10 UNL     1     -14.087  25.358  20.347  1.00  0.00    -0.009 C 
HETATM   11  C11 UNL     1     -13.686  24.053  20.915  1.00  0.00     0.018 C 
HETATM   12  C12 UNL     1     -14.720  26.152  21.464  1.00  0.00     0.167 C 
HETATM   13  O4  UNL     1     -15.998  25.816  21.691  1.00  0.00    -0.380 OA
HETATM   14  C18 UNL     1     -16.503  24.632  21.287  1.00  0.00     0.169 C 
HETATM   15  C19 UNL     1     -16.185  24.277  19.836  1.00  0.00     0.032 C 
HETATM   16  C20 UNL     1     -15.242  25.307  19.359  1.00  0.00     0.003 C 
HETATM   17  C21 UNL     1     -14.909  25.445  17.936  1.00  0.00    -0.005 C 
HETATM   18  C22 UNL     1     -16.111  25.247  17.046  1.00  0.00     0.006 C 
HETATM   19  C23 UNL     1     -16.277  23.867  16.493  1.00  0.00     0.010 C 
ENDROOT
BRANCH  12  20
HETATM   20  C13 UNL     1     -14.655  27.643  21.256  1.00  0.00     0.025 A 
HETATM   21  C14 UNL     1     -14.570  28.258  20.053  1.00  0.00     0.055 A 
HETATM   22  C15 UNL     1     -14.490  29.646  19.978  1.00  0.00     0.159 A 
HETATM   23  C16 UNL     1     -14.497  30.398  21.108  1.00  0.00     0.223 A 
HETATM   24  F1  UNL     1     -14.453  31.772  21.055  1.00  0.00    -0.183 F 
HETATM   25  N2  UNL     1     -14.573  29.819  22.321  1.00  0.00    -0.311 N 
HETATM   26  C17 UNL     1     -14.649  28.484  22.371  1.00  0.00     0.151 A 
ATOM     27  H2  UNL     1     -14.572  30.380  23.174  1.00  0.00     0.170 HD
BRANCH  22  28
HETATM   28  N1  UNL     1     -14.380  30.254  18.694  1.00  0.00    -0.111 N 
HETATM   29  O1  UNL     1     -15.149  31.147  18.348  1.00  0.00    -0.532 OA
HETATM   30  O2  UNL     1     -13.408  29.827  17.798  1.00  0.00    -0.532 OA
ENDBRANCH  22  28
BRANCH  26  31
HETATM   31  O3  UNL     1     -14.722  27.927  23.666  1.00  0.00    -0.346 OA
ATOM     32  H3  UNL     1     -15.566  27.831  24.090  1.00  0.00     0.219 HD
ENDBRANCH  26  31
ENDBRANCH  12  20
TORSDOF 3
ENDMDL
MODEL 5
REMARK VINA RESULT: -8.132270565      4.132      6.150
REMARK  3 active torsions:
REMARK  status: ('A' for Active; 'I' for Inactive)
REMARK    1  A    between atoms: C12_12  and  C13_13 
REMARK    2  A    between atoms: C15_15  and  N1_16 
REMARK    3  A    between atoms: C17_23  and  O3_24 
ROOT
HETATM    1  C1  UNL     1     -14.552  25.509  16.545  1.00  0.00     0.015 C 
HETATM    2  C2  UNL     1     -15.771  24.705  16.884  1.00  0.00    -0.040 C 
HETATM    3  C3  UNL     1     -16.388  24.192  15.612  1.00  0.00     0.009 C 
HETATM    4  C4  UNL     1     -15.521  22.985  15.270  1.00  0.00     0.001 C 
HETATM    5  C5  UNL     1     -14.766  22.608  16.502  1.00  0.00     0.006 C 
HETATM    6  C6  UNL     1     -15.449  23.391  17.571  1.00  0.00    -0.002 C 
HETATM    7  C7  UNL     1     -14.562  23.706  18.742  1.00  0.00    -0.005 C 
HETATM    8  C8  UNL     1     -14.009  22.507  19.419  1.00  0.00     0.006 C 
HETATM    9  C9  UNL     1     -14.087  22.623  20.967  1.00  0.00     0.013 C 
HETATM   10  C10 UNL     1     -15.507  22.598  21.326  1.00  0.00    -0.009 C 
HETATM   11  C11 UNL     1     -16.077  21.328  20.829  1.00  0.00     0.018 C 
HETATM   12  C12 UNL     1     -15.945  22.748  22.763  1.00  0.00     0.167 C 
HETATM   13  O4  UNL     1     -17.195  23.218  22.886  1.00  0.00    -0.380 OA
HETATM   14  C18 UNL     1     -18.086  23.137  21.878  1.00  0.00     0.169 C 
HETATM   15  C19 UNL     1     -17.550  23.608  20.527  1.00  0.00     0.032 C 
HETATM   16  C20 UNL     1     -16.109  23.858  20.723  1.00  0.00     0.003 C 
HETATM   17  C21 UNL     1     -15.306  24.564  19.717  1.00  0.00    -0.005 C 
HETATM   18  C22 UNL     1     -16.056  25.717  19.096  1.00  0.00     0.006 C 
HETATM   19  C23 UNL     1     -16.739  25.412  17.800  1.00  0.00     0.010 C 
ENDROOT
BRANCH  12  20
HETATM   20  C13 UNL     1     -15.030  23.621  23.584  1.00  0.00     0.025 A 
HETATM   21  C14 UNL     1     -14.709  24.903  23.292  1.00  0.00     0.055 A 
HETATM   22  C15 UNL     1     -13.832  25.611  24.109  1.00  0.00     0.159 A 
HETATM   23  C16 UNL     1     -13.289  25.025  25.206  1.00  0.00     0.223 A 
HETATM   24  F1  UNL     1     -12.447  25.717  26.045  1.00  0.00    -0.183 F 
HETATM   25  N2  UNL     1     -13.581  23.749  25.523  1.00  0.00    -0.311 N 
HETATM   26  C17 UNL     1     -14.427  23.087  24.724  1.00  0.00     0.151 A 
ATOM     27  H2  UNL     1     -13.171  23.303  26.343  1.00  0.00     0.170 HD
BRANCH  22  28
HETATM   28  N1  UNL     1     -13.502  26.951  23.754  1.00  0.00    -0.111 N 
HETATM   29  O1  UNL     1     -14.376  27.759  23.449  1.00  0.00    -0.532 OA
HETATM   30  O2  UNL     1     -12.175  27.362  23.726  1.00  0.00    -0.532 OA
ENDBRANCH  22  28
BRANCH  26  31
HETATM   31  O3  UNL     1     -14.696  21.752  25.097  1.00  0.00    -0.346 OA
ATOM     32  H3  UNL     1     -14.063  21.273  25.619  1.00  0.00     0.219 HD
ENDBRANCH  26  31
ENDBRANCH  12  20
TORSDOF 3
ENDMDL
