MODEL 1
REMARK VINA RESULT: -8.068163209      0.000      0.000
REMARK  3 active torsions:
REMARK  status: ('A' for Active; 'I' for Inactive)
REMARK    1  A    between atoms: C2_2  and  O2_4 
REMARK    2  A    between atoms: O2_4  and  C3_5 
REMARK    3  A    between atoms: C15_20  and  O5_21 
ROOT
HETATM    1  C3  UNL     1     -14.670  25.715  21.922  1.00  0.00     0.161 C 
HETATM    2  C4  UNL     1     -13.546  25.024  21.181  1.00  0.00     0.058 C 
HETATM    3  C5  UNL     1     -12.691  25.955  20.408  1.00  0.00     0.096 C 
HETATM    4 CL1  UNL     1     -10.952  25.614  20.732  1.00  0.00    -0.124 Cl
HETATM    5  C6  UNL     1     -12.850  25.904  18.909  1.00  0.00     0.003 C 
HETATM    6  C7  UNL     1     -12.003  24.708  18.452  1.00  0.00     0.019 C 
HETATM    7  C8  UNL     1     -14.268  25.768  18.458  1.00  0.00     0.013 C 
HETATM    8  C9  UNL     1     -14.362  25.786  16.970  1.00  0.00     0.002 C 
HETATM    9  C10 UNL     1     -13.859  27.110  16.473  1.00  0.00     0.011 C 
HETATM   10  C11 UNL     1     -12.476  27.414  16.935  1.00  0.00    -0.018 C 
HETATM   11  C12 UNL     1     -12.171  28.863  16.593  1.00  0.00     0.018 C 
HETATM   12  C13 UNL     1     -11.520  26.582  16.071  1.00  0.00     0.018 C 
HETATM   13  C14 UNL     1     -12.236  27.214  18.388  1.00  0.00     0.178 C 
HETATM   14  O3  UNL     1     -12.574  28.295  19.183  1.00  0.00    -0.226 OA
HETATM   15  O4  UNL     1     -13.709  28.846  18.820  1.00  0.00    -0.171 OA
HETATM   16  C15 UNL     1     -14.253  30.040  19.174  1.00  0.00     0.214 C 
HETATM   17  C16 UNL     1     -14.368  30.529  20.401  1.00  0.00    -0.023 C 
HETATM   18  C17 UNL     1     -14.997  31.877  20.640  1.00  0.00     0.048 C 
HETATM   19  C18 UNL     1     -13.906  29.814  21.620  1.00  0.00     0.042 C 
HETATM   20  C19 UNL     1     -14.978  28.831  22.110  1.00  0.00     0.032 C 
HETATM   21  C20 UNL     1     -14.280  27.915  23.050  1.00  0.00    -0.021 C 
HETATM   22  C21 UNL     1     -14.153  26.625  22.970  1.00  0.00    -0.058 C 
HETATM   23  C22 UNL     1     -13.381  25.951  24.083  1.00  0.00     0.046 C 
ENDROOT
BRANCH   1  24
HETATM   24  O2  UNL     1     -15.612  24.793  22.430  1.00  0.00    -0.312 OA
BRANCH  24  25
HETATM   25  C2  UNL     1     -16.817  24.520  21.839  1.00  0.00     0.255 C 
HETATM   26  C1  UNL     1     -18.055  24.136  22.565  1.00  0.00     0.126 C 
HETATM   27  O1  UNL     1     -16.891  24.595  20.587  1.00  0.00    -0.266 OA
ENDBRANCH  24  25
ENDBRANCH   1  24
BRANCH  16  28
HETATM   28  O5  UNL     1     -14.762  30.885  18.159  1.00  0.00    -0.339 OA
ATOM     29  H5  UNL     1     -14.810  31.819  18.323  1.00  0.00     0.220 HD
ENDBRANCH  16  28
TORSDOF 3
ENDMDL
MODEL 2
REMARK VINA RESULT: -8.029399061      3.345      6.451
REMARK  3 active torsions:
REMARK  status: ('A' for Active; 'I' for Inactive)
REMARK    1  A    between atoms: C2_2  and  O2_4 
REMARK    2  A    between atoms: O2_4  and  C3_5 
REMARK    3  A    between atoms: C15_20  and  O5_21 
ROOT
HETATM    1  C3  UNL     1     -12.082  25.176  20.615  1.00  0.00     0.161 C 
HETATM    2  C4  UNL     1     -13.274  25.342  19.696  1.00  0.00     0.058 C 
HETATM    3  C5  UNL     1     -14.559  25.490  20.420  1.00  0.00     0.096 C 
HETATM    4 CL1  UNL     1     -15.489  26.882  19.754  1.00  0.00    -0.124 Cl
HETATM    5  C6  UNL     1     -15.488  24.305  20.359  1.00  0.00     0.003 C 
HETATM    6  C7  UNL     1     -16.208  24.422  19.008  1.00  0.00     0.019 C 
HETATM    7  C8  UNL     1     -14.794  22.987  20.490  1.00  0.00     0.013 C 
HETATM    8  C9  UNL     1     -15.774  21.862  20.484  1.00  0.00     0.002 C 
HETATM    9  C10 UNL     1     -16.682  22.010  21.670  1.00  0.00     0.011 C 
HETATM   10  C11 UNL     1     -17.370  23.330  21.711  1.00  0.00    -0.018 C 
HETATM   11  C12 UNL     1     -18.053  23.467  23.061  1.00  0.00     0.018 C 
HETATM   12  C13 UNL     1     -18.508  23.276  20.683  1.00  0.00     0.018 C 
HETATM   13  C14 UNL     1     -16.489  24.510  21.507  1.00  0.00     0.178 C 
HETATM   14  O3  UNL     1     -15.870  24.971  22.657  1.00  0.00    -0.226 OA
HETATM   15  O4  UNL     1     -15.420  23.993  23.408  1.00  0.00    -0.171 OA
HETATM   16  C15 UNL     1     -14.984  24.011  24.695  1.00  0.00     0.214 C 
HETATM   17  C16 UNL     1     -14.123  24.864  25.231  1.00  0.00    -0.023 C 
HETATM   18  C17 UNL     1     -13.732  24.759  26.683  1.00  0.00     0.048 C 
HETATM   19  C18 UNL     1     -13.478  25.969  24.475  1.00  0.00     0.042 C 
HETATM   20  C19 UNL     1     -12.232  25.463  23.735  1.00  0.00     0.032 C 
HETATM   21  C20 UNL     1     -11.915  26.509  22.726  1.00  0.00    -0.021 C 
HETATM   22  C21 UNL     1     -11.854  26.388  21.434  1.00  0.00    -0.058 C 
HETATM   23  C22 UNL     1     -11.506  27.637  20.654  1.00  0.00     0.046 C 
ENDROOT
BRANCH   1  24
HETATM   24  O2  UNL     1     -10.924  24.780  19.909  1.00  0.00    -0.312 OA
BRANCH  24  25
HETATM   25  C2  UNL     1      -9.753  24.398  20.506  1.00  0.00     0.255 C 
HETATM   26  C1  UNL     1      -9.582  23.188  21.351  1.00  0.00     0.126 C 
HETATM   27  O1  UNL     1      -8.738  25.120  20.333  1.00  0.00    -0.266 OA
ENDBRANCH  24  25
ENDBRANCH   1  24
BRANCH  16  28
HETATM   28  O5  UNL     1     -15.474  23.034  25.594  1.00  0.00    -0.339 OA
ATOM     29  H5  UNL     1     -14.913  22.741  26.303  1.00  0.00     0.220 HD
ENDBRANCH  16  28
TORSDOF 3
ENDMDL
MODEL 3
REMARK VINA RESULT: -7.729076571      2.407      6.337
REMARK  3 active torsions:
REMARK  status: ('A' for Active; 'I' for Inactive)
REMARK    1  A    between atoms: C2_2  and  O2_4 
REMARK    2  A    between atoms: O2_4  and  C3_5 
REMARK    3  A    between atoms: C15_20  and  O5_21 
ROOT
HETATM    1  C3  UNL     1     -13.219  27.589  21.683  1.00  0.00     0.161 C 
HETATM    2  C4  UNL     1     -12.230  26.644  22.331  1.00  0.00     0.058 C 
HETATM    3  C5  UNL     1     -12.534  25.215  22.085  1.00  0.00     0.096 C 
HETATM    4 CL1  UNL     1     -11.046  24.346  21.559  1.00  0.00    -0.124 Cl
HETATM    5  C6  UNL     1     -13.068  24.443  23.266  1.00  0.00     0.003 C 
HETATM    6  C7  UNL     1     -11.832  24.063  24.094  1.00  0.00     0.019 C 
HETATM    7  C8  UNL     1     -14.056  25.206  24.087  1.00  0.00     0.013 C 
HETATM    8  C9  UNL     1     -14.590  24.367  25.199  1.00  0.00     0.002 C 
HETATM    9  C10 UNL     1     -15.311  23.190  24.609  1.00  0.00     0.011 C 
HETATM   10  C11 UNL     1     -14.456  22.391  23.687  1.00  0.00    -0.018 C 
HETATM   11  C12 UNL     1     -15.345  21.393  22.964  1.00  0.00     0.018 C 
HETATM   12  C13 UNL     1     -13.521  21.545  24.561  1.00  0.00     0.018 C 
HETATM   13  C14 UNL     1     -13.712  23.180  22.672  1.00  0.00     0.178 C 
HETATM   14  O3  UNL     1     -14.427  23.458  21.520  1.00  0.00    -0.226 OA
HETATM   15  O4  UNL     1     -15.668  23.803  21.774  1.00  0.00    -0.171 OA
HETATM   16  C15 UNL     1     -16.733  23.912  20.936  1.00  0.00     0.214 C 
HETATM   17  C16 UNL     1     -16.764  24.534  19.766  1.00  0.00    -0.023 C 
HETATM   18  C17 UNL     1     -18.026  24.571  18.943  1.00  0.00     0.048 C 
HETATM   19  C18 UNL     1     -15.594  25.235  19.174  1.00  0.00     0.042 C 
HETATM   20  C19 UNL     1     -15.486  26.665  19.722  1.00  0.00     0.032 C 
HETATM   21  C20 UNL     1     -14.109  27.115  19.392  1.00  0.00    -0.021 C 
HETATM   22  C21 UNL     1     -13.171  27.498  20.206  1.00  0.00    -0.058 C 
HETATM   23  C22 UNL     1     -11.856  27.905  19.578  1.00  0.00     0.046 C 
ENDROOT
BRANCH   1  24
HETATM   24  O2  UNL     1     -13.060  28.916  22.143  1.00  0.00    -0.312 OA
BRANCH  24  25
HETATM   25  C2  UNL     1     -14.095  29.792  22.336  1.00  0.00     0.255 C 
HETATM   26  C1  UNL     1     -14.561  30.793  21.342  1.00  0.00     0.126 C 
HETATM   27  O1  UNL     1     -14.703  29.755  23.436  1.00  0.00    -0.266 OA
ENDBRANCH  24  25
ENDBRANCH   1  24
BRANCH  16  28
HETATM   28  O5  UNL     1     -17.959  23.313  21.311  1.00  0.00    -0.339 OA
ATOM     29  H5  UNL     1     -17.942  22.545  21.869  1.00  0.00     0.220 HD
ENDBRANCH  16  28
TORSDOF 3
ENDMDL
MODEL 4
REMARK VINA RESULT: -7.715699725      1.531      6.228
REMARK  3 active torsions:
REMARK  status: ('A' for Active; 'I' for Inactive)
REMARK    1  A    between atoms: C2_2  and  O2_4 
REMARK    2  A    between atoms: O2_4  and  C3_5 
REMARK    3  A    between atoms: C15_20  and  O5_21 
ROOT
HETATM    1  C3  UNL     1     -13.701  27.896  17.772  1.00  0.00     0.161 C 
HETATM    2  C4  UNL     1     -12.441  27.842  18.610  1.00  0.00     0.058 C 
HETATM    3  C5  UNL     1     -12.419  26.710  19.566  1.00  0.00     0.096 C 
HETATM    4 CL1  UNL     1     -10.841  25.846  19.468  1.00  0.00    -0.124 Cl
HETATM    5  C6  UNL     1     -12.602  27.073  21.018  1.00  0.00     0.003 C 
HETATM    6  C7  UNL     1     -11.220  27.536  21.498  1.00  0.00     0.019 C 
HETATM    7  C8  UNL     1     -13.637  28.125  21.251  1.00  0.00     0.013 C 
HETATM    8  C9  UNL     1     -13.813  28.392  22.708  1.00  0.00     0.002 C 
HETATM    9  C10 UNL     1     -14.295  27.135  23.372  1.00  0.00     0.011 C 
HETATM   10  C11 UNL     1     -13.393  25.974  23.136  1.00  0.00    -0.018 C 
HETATM   11  C12 UNL     1     -14.095  24.720  23.629  1.00  0.00     0.018 C 
HETATM   12  C13 UNL     1     -12.181  26.150  24.061  1.00  0.00     0.018 C 
HETATM   13  C14 UNL     1     -12.990  25.762  21.721  1.00  0.00     0.178 C 
HETATM   14  O3  UNL     1     -13.887  25.020  20.972  1.00  0.00    -0.226 OA
HETATM   15  O4  UNL     1     -15.134  25.354  21.211  1.00  0.00    -0.171 OA
HETATM   16  C15 UNL     1     -16.288  24.719  20.876  1.00  0.00     0.214 C 
HETATM   17  C16 UNL     1     -16.611  24.231  19.687  1.00  0.00    -0.023 C 
HETATM   18  C17 UNL     1     -17.936  23.547  19.465  1.00  0.00     0.048 C 
HETATM   19  C18 UNL     1     -15.726  24.311  18.495  1.00  0.00     0.042 C 
HETATM   20  C19 UNL     1     -15.901  25.660  17.783  1.00  0.00     0.032 C 
HETATM   21  C20 UNL     1     -14.723  25.792  16.884  1.00  0.00    -0.021 C 
HETATM   22  C21 UNL     1     -13.813  26.719  16.882  1.00  0.00    -0.058 C 
HETATM   23  C22 UNL     1     -12.722  26.591  15.841  1.00  0.00     0.046 C 
ENDROOT
BRANCH   1  24
HETATM   24  O2  UNL     1     -13.811  29.115  17.065  1.00  0.00    -0.312 OA
BRANCH  24  25
HETATM   25  C2  UNL     1     -13.787  30.351  17.655  1.00  0.00     0.255 C 
HETATM   26  C1  UNL     1     -14.560  30.733  18.864  1.00  0.00     0.126 C 
HETATM   27  O1  UNL     1     -13.059  31.237  17.140  1.00  0.00    -0.266 OA
ENDBRANCH  24  25
ENDBRANCH   1  24
BRANCH  16  28
HETATM   28  O5  UNL     1     -17.278  24.536  21.870  1.00  0.00    -0.339 OA
ATOM     29  H5  UNL     1     -18.067  25.065  21.834  1.00  0.00     0.220 HD
ENDBRANCH  16  28
TORSDOF 3
ENDMDL
MODEL 5
REMARK VINA RESULT: -7.691220582      2.750      4.614
REMARK  3 active torsions:
REMARK  status: ('A' for Active; 'I' for Inactive)
REMARK    1  A    between atoms: C2_2  and  O2_4 
REMARK    2  A    between atoms: O2_4  and  C3_5 
REMARK    3  A    between atoms: C15_20  and  O5_21 
ROOT
HETATM    1  C3  UNL     1     -15.656  22.935  22.158  1.00  0.00     0.161 C 
HETATM    2  C4  UNL     1     -14.699  23.992  22.666  1.00  0.00     0.058 C 
HETATM    3  C5  UNL     1     -14.665  25.210  21.823  1.00  0.00     0.096 C 
HETATM    4 CL1  UNL     1     -14.798  26.682  22.855  1.00  0.00    -0.124 Cl
HETATM    5  C6  UNL     1     -13.422  25.399  20.991  1.00  0.00     0.003 C 
HETATM    6  C7  UNL     1     -12.382  26.002  21.946  1.00  0.00     0.019 C 
HETATM    7  C8  UNL     1     -12.917  24.139  20.366  1.00  0.00     0.013 C 
HETATM    8  C9  UNL     1     -11.726  24.406  19.508  1.00  0.00     0.002 C 
HETATM    9  C10 UNL     1     -12.133  25.327  18.395  1.00  0.00     0.011 C 
HETATM   10  C11 UNL     1     -12.744  26.593  18.885  1.00  0.00    -0.018 C 
HETATM   11  C12 UNL     1     -13.340  27.323  17.694  1.00  0.00     0.018 C 
HETATM   12  C13 UNL     1     -11.597  27.485  19.377  1.00  0.00     0.018 C 
HETATM   13  C14 UNL     1     -13.804  26.427  19.913  1.00  0.00     0.178 C 
HETATM   14  O3  UNL     1     -15.070  26.194  19.403  1.00  0.00    -0.226 OA
HETATM   15  O4  UNL     1     -15.056  25.351  18.397  1.00  0.00    -0.171 OA
HETATM   16  C15 UNL     1     -16.024  25.057  17.491  1.00  0.00     0.214 C 
HETATM   17  C16 UNL     1     -17.296  24.783  17.746  1.00  0.00    -0.023 C 
HETATM   18  C17 UNL     1     -18.260  24.474  16.630  1.00  0.00     0.048 C 
HETATM   19  C18 UNL     1     -17.873  24.752  19.116  1.00  0.00     0.042 C 
HETATM   20  C19 UNL     1     -17.639  23.383  19.770  1.00  0.00     0.032 C 
HETATM   21  C20 UNL     1     -17.883  23.589  21.222  1.00  0.00    -0.021 C 
HETATM   22  C21 UNL     1     -17.059  23.403  22.210  1.00  0.00    -0.058 C 
HETATM   23  C22 UNL     1     -17.590  23.698  23.596  1.00  0.00     0.046 C 
ENDROOT
BRANCH   1  24
HETATM   24  O2  UNL     1     -15.478  21.700  22.821  1.00  0.00    -0.312 OA
BRANCH  24  25
HETATM   25  C2  UNL     1     -15.683  20.478  22.238  1.00  0.00     0.255 C 
HETATM   26  C1  UNL     1     -15.653  20.215  20.776  1.00  0.00     0.126 C 
HETATM   27  O1  UNL     1     -15.917  19.497  22.988  1.00  0.00    -0.266 OA
ENDBRANCH  24  25
ENDBRANCH   1  24
BRANCH  16  28
HETATM   28  O5  UNL     1     -15.687  25.029  16.117  1.00  0.00    -0.339 OA
ATOM     29  H5  UNL     1     -15.876  24.246  15.614  1.00  0.00     0.220 HD
ENDBRANCH  16  28
TORSDOF 3
ENDMDL
