MODEL 1
REMARK VINA RESULT: -8.265732627      0.000      0.000
REMARK  4 active torsions:
REMARK  status: ('A' for Active; 'I' for Inactive)
REMARK    1  A    between atoms: C2_2  and  O1_3 
REMARK    2  A    between atoms: O1_3  and  C3_4 
REMARK    3  A    between atoms: C5_7  and  C6_8 
REMARK    4  A    between atoms: C9_12  and  O3_13 
ROOT
HETATM    1  C3  UNL     1     -14.464  25.642  18.066  1.00  0.00     0.228 C 
HETATM    2  F1  UNL     1     -15.387  25.746  19.052  1.00  0.00    -0.178 F 
HETATM    3  C4  UNL     1     -13.215  25.603  18.318  1.00  0.00    -0.003 C 
HETATM    4  C5  UNL     1     -12.178  25.493  17.256  1.00  0.00     0.058 C 
HETATM    5  C10 UNL     1     -11.492  26.861  17.332  1.00  0.00     0.015 C 
HETATM    6  C11 UNL     1     -12.117  27.757  18.391  1.00  0.00     0.011 C 
HETATM    7  C12 UNL     1     -12.103  27.158  19.786  1.00  0.00    -0.032 C 
HETATM    8  C13 UNL     1     -10.639  27.133  20.196  1.00  0.00     0.016 C 
HETATM    9  C14 UNL     1     -12.580  25.742  19.680  1.00  0.00     0.029 C 
HETATM   10  C15 UNL     1     -13.266  25.139  20.818  1.00  0.00     0.011 C 
HETATM   11  C16 UNL     1     -13.869  26.006  21.840  1.00  0.00     0.021 C 
HETATM   12  C17 UNL     1     -13.576  27.441  21.828  1.00  0.00     0.055 C 
HETATM   13  C18 UNL     1     -14.913  28.149  22.146  1.00  0.00     0.058 C 
HETATM   14  C19 UNL     1     -14.338  29.548  22.383  1.00  0.00     0.068 C 
HETATM   15  C20 UNL     1     -15.207  30.389  23.259  1.00  0.00     0.047 C 
HETATM   16  C21 UNL     1     -14.152  30.111  21.003  1.00  0.00     0.039 C 
HETATM   17  C22 UNL     1     -13.820  29.014  19.980  1.00  0.00     0.009 C 
HETATM   18  C23 UNL     1     -12.878  28.047  20.688  1.00  0.00     0.013 C 
HETATM   19  O4  UNL     1     -13.108  29.281  23.049  1.00  0.00    -0.310 OA
HETATM   20  C24 UNL     1     -12.899  27.902  23.114  1.00  0.00     0.269 C 
HETATM   21  O5  UNL     1     -12.326  27.200  23.960  1.00  0.00    -0.264 OA
ENDROOT
BRANCH   4  22
HETATM   22  C6  UNL     1     -12.558  25.070  15.939  1.00  0.00     0.010 A 
HETATM   23  C7  UNL     1     -12.659  23.810  15.386  1.00  0.00     0.037 A 
HETATM   24  C8  UNL     1     -13.078  23.923  14.078  1.00  0.00     0.145 A 
HETATM   25  O2  UNL     1     -13.229  25.217  13.841  1.00  0.00    -0.300 OA
HETATM   26  C9  UNL     1     -12.936  25.925  14.899  1.00  0.00     0.189 A 
BRANCH  26  27
HETATM   27  O3  UNL     1     -13.005  27.315  14.937  1.00  0.00    -0.340 OA
ATOM     28  H3  UNL     1     -12.781  27.920  14.240  1.00  0.00     0.220 HD
ENDBRANCH  26  27
ENDBRANCH   4  22
BRANCH   1  29
HETATM   29  O1  UNL     1     -14.954  25.586  16.772  1.00  0.00    -0.327 OA
BRANCH  29  30
HETATM   30  C2  UNL     1     -16.331  25.362  16.496  1.00  0.00     0.173 C 
HETATM   31  C1  UNL     1     -16.365  24.152  15.565  1.00  0.00     0.034 C 
ENDBRANCH  29  30
ENDBRANCH   1  29
TORSDOF 4
ENDMDL
MODEL 2
REMARK VINA RESULT: -8.187586282      2.941      6.447
REMARK  4 active torsions:
REMARK  status: ('A' for Active; 'I' for Inactive)
REMARK    1  A    between atoms: C2_2  and  O1_3 
REMARK    2  A    between atoms: O1_3  and  C3_4 
REMARK    3  A    between atoms: C5_7  and  C6_8 
REMARK    4  A    between atoms: C9_12  and  O3_13 
ROOT
HETATM    1  C3  UNL     1     -14.138  24.311  20.382  1.00  0.00     0.228 C 
HETATM    2  F1  UNL     1     -12.855  24.661  20.124  1.00  0.00    -0.178 F 
HETATM    3  C4  UNL     1     -14.959  24.037  19.445  1.00  0.00    -0.003 C 
HETATM    4  C5  UNL     1     -16.375  23.654  19.698  1.00  0.00     0.058 C 
HETATM    5  C10 UNL     1     -17.140  24.857  19.138  1.00  0.00     0.015 C 
HETATM    6  C11 UNL     1     -16.205  25.926  18.592  1.00  0.00     0.011 C 
HETATM    7  C12 UNL     1     -15.274  25.427  17.501  1.00  0.00    -0.032 C 
HETATM    8  C13 UNL     1     -16.173  25.133  16.311  1.00  0.00     0.016 C 
HETATM    9  C14 UNL     1     -14.681  24.131  17.965  1.00  0.00     0.029 C 
HETATM   10  C15 UNL     1     -13.353  23.753  17.495  1.00  0.00     0.011 C 
HETATM   11  C16 UNL     1     -12.452  24.787  16.967  1.00  0.00     0.021 C 
HETATM   12  C17 UNL     1     -12.974  26.129  16.705  1.00  0.00     0.055 C 
HETATM   13  C18 UNL     1     -11.881  27.110  17.188  1.00  0.00     0.058 C 
HETATM   14  C19 UNL     1     -12.470  28.378  16.562  1.00  0.00     0.068 C 
HETATM   15  C20 UNL     1     -11.441  29.430  16.311  1.00  0.00     0.047 C 
HETATM   16  C21 UNL     1     -13.542  28.803  17.525  1.00  0.00     0.039 C 
HETATM   17  C22 UNL     1     -14.186  27.598  18.229  1.00  0.00     0.009 C 
HETATM   18  C23 UNL     1     -14.313  26.509  17.171  1.00  0.00     0.013 C 
HETATM   19  O4  UNL     1     -12.988  27.911  15.320  1.00  0.00    -0.310 OA
HETATM   20  C24 UNL     1     -12.838  26.525  15.239  1.00  0.00     0.269 C 
HETATM   21  O5  UNL     1     -12.647  25.778  14.269  1.00  0.00    -0.264 OA
ENDROOT
BRANCH   4  22
HETATM   22  C6  UNL     1     -16.770  23.232  21.011  1.00  0.00     0.010 A 
HETATM   23  C7  UNL     1     -17.532  23.861  21.973  1.00  0.00     0.037 A 
HETATM   24  C8  UNL     1     -17.641  23.036  23.073  1.00  0.00     0.145 A 
HETATM   25  O2  UNL     1     -16.962  21.936  22.787  1.00  0.00    -0.300 OA
HETATM   26  C9  UNL     1     -16.436  22.006  21.594  1.00  0.00     0.189 A 
BRANCH  26  27
HETATM   27  O3  UNL     1     -15.669  20.990  21.032  1.00  0.00    -0.340 OA
ATOM     28  H3  UNL     1     -15.984  20.222  20.569  1.00  0.00     0.220 HD
ENDBRANCH  26  27
ENDBRANCH   4  22
BRANCH   1  29
HETATM   29  O1  UNL     1     -14.507  24.272  21.716  1.00  0.00    -0.327 OA
BRANCH  29  30
HETATM   30  C2  UNL     1     -14.187  25.325  22.617  1.00  0.00     0.173 C 
HETATM   31  C1  UNL     1     -14.936  26.547  22.092  1.00  0.00     0.034 C 
ENDBRANCH  29  30
ENDBRANCH   1  29
TORSDOF 4
ENDMDL
MODEL 3
REMARK VINA RESULT: -8.015606863      1.737      2.047
REMARK  4 active torsions:
REMARK  status: ('A' for Active; 'I' for Inactive)
REMARK    1  A    between atoms: C2_2  and  O1_3 
REMARK    2  A    between atoms: O1_3  and  C3_4 
REMARK    3  A    between atoms: C5_7  and  C6_8 
REMARK    4  A    between atoms: C9_12  and  O3_13 
ROOT
HETATM    1  C3  UNL     1     -15.609  24.906  19.119  1.00  0.00     0.228 C 
HETATM    2  F1  UNL     1     -16.230  25.160  20.296  1.00  0.00    -0.178 F 
HETATM    3  C4  UNL     1     -14.338  24.919  19.015  1.00  0.00    -0.003 C 
HETATM    4  C5  UNL     1     -13.629  24.647  17.734  1.00  0.00     0.058 C 
HETATM    5  C10 UNL     1     -13.022  26.015  17.406  1.00  0.00     0.015 C 
HETATM    6  C11 UNL     1     -13.378  27.065  18.448  1.00  0.00     0.011 C 
HETATM    7  C12 UNL     1     -12.950  26.699  19.858  1.00  0.00    -0.032 C 
HETATM    8  C13 UNL     1     -11.431  26.753  19.841  1.00  0.00     0.016 C 
HETATM    9  C14 UNL     1     -13.362  25.280  20.107  1.00  0.00     0.029 C 
HETATM   10  C15 UNL     1     -13.677  24.864  21.469  1.00  0.00     0.011 C 
HETATM   11  C16 UNL     1     -14.020  25.879  22.474  1.00  0.00     0.021 C 
HETATM   12  C17 UNL     1     -13.818  27.296  22.162  1.00  0.00     0.055 C 
HETATM   13  C18 UNL     1     -15.053  28.034  22.729  1.00  0.00     0.058 C 
HETATM   14  C19 UNL     1     -14.510  29.458  22.580  1.00  0.00     0.068 C 
HETATM   15  C20 UNL     1     -15.148  30.423  23.524  1.00  0.00     0.047 C 
HETATM   16  C21 UNL     1     -14.740  29.793  21.133  1.00  0.00     0.039 C 
HETATM   17  C22 UNL     1     -14.644  28.548  20.238  1.00  0.00     0.009 C 
HETATM   18  C23 UNL     1     -13.494  27.716  20.793  1.00  0.00     0.013 C 
HETATM   19  O4  UNL     1     -13.131  29.313  22.907  1.00  0.00    -0.310 OA
HETATM   20  C24 UNL     1     -12.840  27.964  23.121  1.00  0.00     0.269 C 
HETATM   21  O5  UNL     1     -12.021  27.413  23.871  1.00  0.00    -0.264 OA
ENDROOT
BRANCH   4  22
HETATM   22  C6  UNL     1     -14.333  24.014  16.657  1.00  0.00     0.010 A 
HETATM   23  C7  UNL     1     -14.839  24.525  15.481  1.00  0.00     0.037 A 
HETATM   24  C8  UNL     1     -15.424  23.506  14.760  1.00  0.00     0.145 A 
HETATM   25  O2  UNL     1     -15.277  22.404  15.479  1.00  0.00    -0.300 OA
HETATM   26  C9  UNL     1     -14.645  22.652  16.595  1.00  0.00     0.189 A 
BRANCH  26  27
HETATM   27  O3  UNL     1     -14.352  21.678  17.545  1.00  0.00    -0.340 OA
ATOM     28  H3  UNL     1     -13.493  21.429  17.864  1.00  0.00     0.220 HD
ENDBRANCH  26  27
ENDBRANCH   4  22
BRANCH   1  29
HETATM   29  O1  UNL     1     -16.431  24.637  18.038  1.00  0.00    -0.327 OA
BRANCH  29  30
HETATM   30  C2  UNL     1     -17.839  24.838  18.092  1.00  0.00     0.173 C 
HETATM   31  C1  UNL     1     -18.353  24.470  16.702  1.00  0.00     0.034 C 
ENDBRANCH  29  30
ENDBRANCH   1  29
TORSDOF 4
ENDMDL
MODEL 4
REMARK VINA RESULT: -7.856934595      0.835      1.205
REMARK  4 active torsions:
REMARK  status: ('A' for Active; 'I' for Inactive)
REMARK    1  A    between atoms: C2_2  and  O1_3 
REMARK    2  A    between atoms: O1_3  and  C3_4 
REMARK    3  A    between atoms: C5_7  and  C6_8 
REMARK    4  A    between atoms: C9_12  and  O3_13 
ROOT
HETATM    1  C3  UNL     1     -14.649  25.477  18.238  1.00  0.00     0.228 C 
HETATM    2  F1  UNL     1     -15.550  25.647  19.236  1.00  0.00    -0.178 F 
HETATM    3  C4  UNL     1     -13.397  25.411  18.469  1.00  0.00    -0.003 C 
HETATM    4  C5  UNL     1     -12.384  25.229  17.394  1.00  0.00     0.058 C 
HETATM    5  C10 UNL     1     -11.658  26.577  17.404  1.00  0.00     0.015 C 
HETATM    6  C11 UNL     1     -12.236  27.532  18.437  1.00  0.00     0.011 C 
HETATM    7  C12 UNL     1     -12.212  26.988  19.855  1.00  0.00    -0.032 C 
HETATM    8  C13 UNL     1     -10.743  26.934  20.239  1.00  0.00     0.016 C 
HETATM    9  C14 UNL     1     -12.732  25.583  19.813  1.00  0.00     0.029 C 
HETATM   10  C15 UNL     1     -13.414  25.046  20.986  1.00  0.00     0.011 C 
HETATM   11  C16 UNL     1     -13.972  25.969  21.984  1.00  0.00     0.021 C 
HETATM   12  C17 UNL     1     -13.638  27.393  21.910  1.00  0.00     0.055 C 
HETATM   13  C18 UNL     1     -14.947  28.152  22.224  1.00  0.00     0.058 C 
HETATM   14  C19 UNL     1     -14.328  29.542  22.395  1.00  0.00     0.068 C 
HETATM   15  C20 UNL     1     -15.155  30.442  23.253  1.00  0.00     0.047 C 
HETATM   16  C21 UNL     1     -14.151  30.045  20.991  1.00  0.00     0.039 C 
HETATM   17  C22 UNL     1     -13.871  28.900  20.006  1.00  0.00     0.009 C 
HETATM   18  C23 UNL     1     -12.944  27.934  20.734  1.00  0.00     0.013 C 
HETATM   19  O4  UNL     1     -13.093  29.265  23.049  1.00  0.00    -0.310 OA
HETATM   20  C24 UNL     1     -12.923  27.883  23.165  1.00  0.00     0.269 C 
HETATM   21  O5  UNL     1     -12.355  27.198  24.028  1.00  0.00    -0.264 OA
ENDROOT
BRANCH   4  22
HETATM   22  C6  UNL     1     -12.801  24.766  16.101  1.00  0.00     0.010 A 
HETATM   23  C7  UNL     1     -13.008  25.445  14.919  1.00  0.00     0.037 A 
HETATM   24  C8  UNL     1     -13.395  24.549  13.945  1.00  0.00     0.145 A 
HETATM   25  O2  UNL     1     -13.423  23.357  14.520  1.00  0.00    -0.300 OA
HETATM   26  C9  UNL     1     -13.084  23.435  15.780  1.00  0.00     0.189 A 
BRANCH  26  27
HETATM   27  O3  UNL     1     -13.027  22.334  16.630  1.00  0.00    -0.340 OA
ATOM     28  H3  UNL     1     -13.721  21.711  16.808  1.00  0.00     0.220 HD
ENDBRANCH  26  27
ENDBRANCH   4  22
BRANCH   1  29
HETATM   29  O1  UNL     1     -15.164  25.385  16.956  1.00  0.00    -0.327 OA
BRANCH  29  30
HETATM   30  C2  UNL     1     -16.561  25.263  16.712  1.00  0.00     0.173 C 
HETATM   31  C1  UNL     1     -16.695  24.131  15.695  1.00  0.00     0.034 C 
ENDBRANCH  29  30
ENDBRANCH   1  29
TORSDOF 4
ENDMDL
MODEL 5
REMARK VINA RESULT: -7.781411391      3.079      7.482
REMARK  4 active torsions:
REMARK  status: ('A' for Active; 'I' for Inactive)
REMARK    1  A    between atoms: C2_2  and  O1_3 
REMARK    2  A    between atoms: O1_3  and  C3_4 
REMARK    3  A    between atoms: C5_7  and  C6_8 
REMARK    4  A    between atoms: C9_12  and  O3_13 
ROOT
HETATM    1  C3  UNL     1     -14.767  22.957  21.784  1.00  0.00     0.228 C 
HETATM    2  F1  UNL     1     -15.315  22.113  20.878  1.00  0.00    -0.178 F 
HETATM    3  C4  UNL     1     -15.154  24.167  21.892  1.00  0.00    -0.003 C 
HETATM    4  C5  UNL     1     -14.568  25.119  22.876  1.00  0.00     0.058 C 
HETATM    5  C10 UNL     1     -13.840  26.113  21.966  1.00  0.00     0.015 C 
HETATM    6  C11 UNL     1     -13.974  25.750  20.495  1.00  0.00     0.011 C 
HETATM    7  C12 UNL     1     -15.412  25.657  20.016  1.00  0.00    -0.032 C 
HETATM    8  C13 UNL     1     -15.939  27.082  20.053  1.00  0.00     0.016 C 
HETATM    9  C14 UNL     1     -16.178  24.853  21.021  1.00  0.00     0.029 C 
HETATM   10  C15 UNL     1     -17.328  24.073  20.576  1.00  0.00     0.011 C 
HETATM   11  C16 UNL     1     -17.456  23.722  19.155  1.00  0.00     0.021 C 
HETATM   12  C17 UNL     1     -16.565  24.349  18.177  1.00  0.00     0.055 C 
HETATM   13  C18 UNL     1     -16.164  23.229  17.190  1.00  0.00     0.058 C 
HETATM   14  C19 UNL     1     -15.521  24.128  16.129  1.00  0.00     0.068 C 
HETATM   15  C20 UNL     1     -15.519  23.509  14.771  1.00  0.00     0.047 C 
HETATM   16  C21 UNL     1     -14.145  24.407  16.665  1.00  0.00     0.039 C 
HETATM   17  C22 UNL     1     -14.127  24.439  18.201  1.00  0.00     0.009 C 
HETATM   18  C23 UNL     1     -15.412  25.141  18.624  1.00  0.00     0.013 C 
HETATM   19  O4  UNL     1     -16.364  25.276  16.128  1.00  0.00    -0.310 OA
HETATM   20  C24 UNL     1     -17.329  25.151  17.130  1.00  0.00     0.269 C 
HETATM   21  O5  UNL     1     -18.497  25.561  17.196  1.00  0.00    -0.264 OA
ENDROOT
BRANCH   4  22
HETATM   22  C6  UNL     1     -13.796  24.614  23.975  1.00  0.00     0.010 A 
HETATM   23  C7  UNL     1     -12.435  24.595  24.193  1.00  0.00     0.037 A 
HETATM   24  C8  UNL     1     -12.181  24.008  25.414  1.00  0.00     0.145 A 
HETATM   25  O2  UNL     1     -13.358  23.679  25.925  1.00  0.00    -0.300 OA
HETATM   26  C9  UNL     1     -14.330  24.013  25.119  1.00  0.00     0.189 A 
BRANCH  26  27
HETATM   27  O3  UNL     1     -15.674  23.786  25.401  1.00  0.00    -0.340 OA
ATOM     28  H3  UNL     1     -16.410  23.896  24.810  1.00  0.00     0.220 HD
ENDBRANCH  26  27
ENDBRANCH   4  22
BRANCH   1  29
HETATM   29  O1  UNL     1     -13.761  22.434  22.579  1.00  0.00    -0.327 OA
BRANCH  29  30
HETATM   30  C2  UNL     1     -13.563  21.032  22.720  1.00  0.00     0.173 C 
HETATM   31  C1  UNL     1     -14.511  20.602  23.838  1.00  0.00     0.034 C 
ENDBRANCH  29  30
ENDBRANCH   1  29
TORSDOF 4
ENDMDL
