MODEL 1
REMARK VINA RESULT: -5.975780073      0.000      0.000
REMARK  1 active torsions:
REMARK  status: ('A' for Active; 'I' for Inactive)
REMARK    1  A    between atoms: C4_4  and  N1_5 
ROOT
HETATM    1  C1  UNL     1     -45.108  10.414  -5.186  1.00  0.00     0.000 C 
HETATM    2  C2  UNL     1     -45.205  10.936  -3.783  1.00  0.00     0.002 C 
HETATM    3  C3  UNL     1     -46.567  10.848  -3.180  1.00  0.00     0.021 C 
HETATM    4  C4  UNL     1     -47.645  10.441  -4.140  1.00  0.00     0.076 C 
HETATM    5  C7  UNL     1     -47.514  11.082  -5.497  1.00  0.00     0.021 C 
HETATM    6  C8  UNL     1     -46.160  10.945  -6.108  1.00  0.00     0.002 C 
ENDROOT
BRANCH   4   7
HETATM    7  N1  UNL     1     -48.961  10.780  -3.665  1.00  0.00    -0.229 NA
HETATM    8  C5  UNL     1     -49.908   9.685  -3.734  1.00  0.00     0.127 A 
HETATM    9  C6  UNL     1     -50.050   9.928  -2.256  1.00  0.00     0.145 A 
HETATM   10  N2  UNL     1     -49.116  11.033  -2.322  1.00  0.00    -0.163 NA
ENDBRANCH   4   7
TORSDOF 1
ENDMDL
MODEL 2
REMARK VINA RESULT: -5.602997536      0.635      1.708
REMARK  1 active torsions:
REMARK  status: ('A' for Active; 'I' for Inactive)
REMARK    1  A    between atoms: C4_4  and  N1_5 
ROOT
HETATM    1  C1  UNL     1     -45.226  10.949  -4.797  1.00  0.00     0.000 C 
HETATM    2  C2  UNL     1     -46.265  10.445  -5.755  1.00  0.00     0.002 C 
HETATM    3  C3  UNL     1     -47.672  10.733  -5.354  1.00  0.00     0.021 C 
HETATM    4  C4  UNL     1     -47.820  11.299  -3.973  1.00  0.00     0.076 C 
HETATM    5  C7  UNL     1     -46.917  10.647  -2.958  1.00  0.00     0.021 C 
HETATM    6  C8  UNL     1     -45.484  10.582  -3.369  1.00  0.00     0.002 C 
ENDROOT
BRANCH   4   7
HETATM    7  N1  UNL     1     -49.158  11.159  -3.462  1.00  0.00    -0.229 NA
HETATM    8  C5  UNL     1     -49.984  10.242  -4.222  1.00  0.00     0.127 A 
HETATM    9  C6  UNL     1     -50.130   9.534  -2.903  1.00  0.00     0.145 A 
HETATM   10  N2  UNL     1     -49.322  10.539  -2.245  1.00  0.00    -0.163 NA
ENDBRANCH   4   7
TORSDOF 1
ENDMDL
MODEL 3
REMARK VINA RESULT: -5.592837314      5.991      7.844
REMARK  1 active torsions:
REMARK  status: ('A' for Active; 'I' for Inactive)
REMARK    1  A    between atoms: C4_4  and  N1_5 
ROOT
HETATM    1  C1  UNL     1     -49.012  10.539   2.100  1.00  0.00     0.000 C 
HETATM    2  C2  UNL     1     -49.071  11.284   0.799  1.00  0.00     0.002 C 
HETATM    3  C3  UNL     1     -49.310  12.750   0.933  1.00  0.00     0.021 C 
HETATM    4  C4  UNL     1     -49.647  13.199   2.323  1.00  0.00     0.076 C 
HETATM    5  C7  UNL     1     -50.581  12.264   3.046  1.00  0.00     0.021 C 
HETATM    6  C8  UNL     1     -50.151  10.835   3.024  1.00  0.00     0.002 C 
ENDROOT
BRANCH   4   7
HETATM    7  N1  UNL     1     -50.282  14.490   2.346  1.00  0.00    -0.229 NA
HETATM    8  C5  UNL     1     -50.943  14.797   3.598  1.00  0.00     0.127 A 
HETATM    9  C6  UNL     1     -50.034  15.995   3.600  1.00  0.00     0.145 A 
HETATM   10  N2  UNL     1     -49.477  15.606   2.321  1.00  0.00    -0.163 NA
ENDBRANCH   4   7
TORSDOF 1
ENDMDL
MODEL 4
REMARK VINA RESULT: -5.394743342      1.525      4.346
REMARK  1 active torsions:
REMARK  status: ('A' for Active; 'I' for Inactive)
REMARK    1  A    between atoms: C4_4  and  N1_5 
ROOT
HETATM    1  C1  UNL     1     -50.384   9.483  -2.495  1.00  0.00     0.000 C 
HETATM    2  C2  UNL     1     -50.311  10.046  -3.884  1.00  0.00     0.002 C 
HETATM    3  C3  UNL     1     -48.945  10.464  -4.315  1.00  0.00     0.021 C 
HETATM    4  C4  UNL     1     -47.916  10.437  -3.224  1.00  0.00     0.076 C 
HETATM    5  C7  UNL     1     -48.428  10.952  -1.904  1.00  0.00     0.021 C 
HETATM    6  C8  UNL     1     -49.708  10.326  -1.460  1.00  0.00     0.002 C 
ENDROOT
BRANCH   4   7
HETATM    7  N1  UNL     1     -46.760  11.234  -3.540  1.00  0.00    -0.229 NA
HETATM    8  C5  UNL     1     -45.507  10.640  -3.119  1.00  0.00     0.127 A 
HETATM    9  C6  UNL     1     -45.147  10.758  -4.575  1.00  0.00     0.145 A 
HETATM   10  N2  UNL     1     -46.421  11.382  -4.865  1.00  0.00    -0.163 NA
ENDBRANCH   4   7
TORSDOF 1
ENDMDL
MODEL 5
REMARK VINA RESULT: -5.095475071      0.946      1.953
REMARK  1 active torsions:
REMARK  status: ('A' for Active; 'I' for Inactive)
REMARK    1  A    between atoms: C4_4  and  N1_5 
ROOT
HETATM    1  C1  UNL     1     -45.443  11.289  -5.620  1.00  0.00     0.000 C 
HETATM    2  C2  UNL     1     -46.435  10.355  -6.247  1.00  0.00     0.002 C 
HETATM    3  C3  UNL     1     -47.626  10.051  -5.401  1.00  0.00     0.021 C 
HETATM    4  C4  UNL     1     -47.535  10.568  -3.996  1.00  0.00     0.076 C 
HETATM    5  C7  UNL     1     -46.171  10.399  -3.381  1.00  0.00     0.021 C 
HETATM    6  C8  UNL     1     -45.053  10.915  -4.224  1.00  0.00     0.002 C 
ENDROOT
BRANCH   4   7
HETATM    7  N1  UNL     1     -48.456   9.909  -3.108  1.00  0.00    -0.229 NA
HETATM    8  C5  UNL     1     -49.136  10.808  -2.196  1.00  0.00     0.127 A 
HETATM    9  C6  UNL     1     -50.382  10.239  -2.818  1.00  0.00     0.145 A 
HETATM   10  N2  UNL     1     -49.593   9.355  -3.651  1.00  0.00    -0.163 NA
ENDBRANCH   4   7
TORSDOF 1
ENDMDL
