MODEL 1
REMARK VINA RESULT: -5.560190240      0.000      0.000
REMARK  2 active torsions:
REMARK  status: ('A' for Active; 'I' for Inactive)
REMARK    1  A    between atoms: O1_1  and  C1_3 
REMARK    2  A    between atoms: C1_3  and  C2_4 
ROOT
HETATM    1  C2  UNL     1     -48.265  10.266  -4.131  1.00  0.00     0.145 C 
HETATM    2  C3  UNL     1     -47.567  10.805  -2.915  1.00  0.00     0.035 C 
HETATM    3  C4  UNL     1     -46.237  10.417  -2.477  1.00  0.00     0.014 C 
HETATM    4  C5  UNL     1     -45.034  10.927  -3.336  1.00  0.00     0.080 C 
HETATM    5  C6  UNL     1     -45.520  10.927  -4.655  1.00  0.00    -0.181 C 
HETATM    6  C7  UNL     1     -45.684  11.063  -6.046  1.00  0.00     0.106 C 
HETATM    7  C8  UNL     1     -47.199  10.650  -6.251  1.00  0.00     0.179 C 
HETATM    8  O2  UNL     1     -47.991  11.087  -5.254  1.00  0.00    -0.383 OA
ENDROOT
BRANCH   1   9
HETATM    9  C1  UNL     1     -49.755  10.468  -3.904  1.00  0.00     0.196 C 
BRANCH   9  10
HETATM   10  O1  UNL     1     -50.498   9.379  -4.364  1.00  0.00    -0.398 OA
ATOM     11  H1  UNL     1     -51.181   9.137  -3.749  1.00  0.00     0.209 HD
ENDBRANCH   9  10
ENDBRANCH   1   9
TORSDOF 2
ENDMDL
MODEL 2
REMARK VINA RESULT: -5.322454656      1.008      2.458
REMARK  2 active torsions:
REMARK  status: ('A' for Active; 'I' for Inactive)
REMARK    1  A    between atoms: O1_1  and  C1_3 
REMARK    2  A    between atoms: C1_3  and  C2_4 
ROOT
HETATM    1  C2  UNL     1     -48.453  10.801  -3.937  1.00  0.00     0.145 C 
HETATM    2  C3  UNL     1     -48.059  10.354  -5.316  1.00  0.00     0.035 C 
HETATM    3  C4  UNL     1     -47.073  11.011  -6.156  1.00  0.00     0.014 C 
HETATM    4  C5  UNL     1     -45.575  10.865  -5.731  1.00  0.00     0.080 C 
HETATM    5  C6  UNL     1     -45.608  10.847  -4.327  1.00  0.00    -0.181 C 
HETATM    6  C7  UNL     1     -45.290  10.780  -2.957  1.00  0.00     0.106 C 
HETATM    7  C8  UNL     1     -46.718  10.838  -2.274  1.00  0.00     0.179 C 
HETATM    8  O2  UNL     1     -47.647  10.153  -2.966  1.00  0.00    -0.383 OA
ENDROOT
BRANCH   1   9
HETATM    9  C1  UNL     1     -49.841  10.237  -3.674  1.00  0.00     0.196 C 
BRANCH   9  10
HETATM   10  O1  UNL     1     -50.610  10.201  -4.838  1.00  0.00    -0.398 OA
ATOM     11  H1  UNL     1     -51.498   9.910  -4.663  1.00  0.00     0.209 HD
ENDBRANCH   9  10
ENDBRANCH   1   9
TORSDOF 2
ENDMDL
MODEL 3
REMARK VINA RESULT: -4.810736852      1.938      4.198
REMARK  2 active torsions:
REMARK  status: ('A' for Active; 'I' for Inactive)
REMARK    1  A    between atoms: O1_1  and  C1_3 
REMARK    2  A    between atoms: C1_3  and  C2_4 
ROOT
HETATM    1  C2  UNL     1     -46.691  10.434  -4.272  1.00  0.00     0.145 C 
HETATM    2  C3  UNL     1     -47.953  10.709  -5.037  1.00  0.00     0.035 C 
HETATM    3  C4  UNL     1     -49.234  10.069  -4.791  1.00  0.00     0.014 C 
HETATM    4  C5  UNL     1     -49.990  10.482  -3.486  1.00  0.00     0.080 C 
HETATM    5  C6  UNL     1     -48.970  10.714  -2.548  1.00  0.00    -0.181 C 
HETATM    6  C7  UNL     1     -48.222  11.037  -1.400  1.00  0.00     0.106 C 
HETATM    7  C8  UNL     1     -46.731  10.893  -1.914  1.00  0.00     0.179 C 
HETATM    8  O2  UNL     1     -46.579  11.328  -3.178  1.00  0.00    -0.383 OA
ENDROOT
BRANCH   1   9
HETATM    9  C1  UNL     1     -45.536  10.838  -5.176  1.00  0.00     0.196 C 
BRANCH   9  10
HETATM   10  O1  UNL     1     -44.412  11.212  -4.438  1.00  0.00    -0.398 OA
ATOM     11  H1  UNL     1     -44.016  12.005  -4.780  1.00  0.00     0.209 HD
ENDBRANCH   9  10
ENDBRANCH   1   9
TORSDOF 2
ENDMDL
MODEL 4
REMARK VINA RESULT: -4.609355218      1.757      1.930
REMARK  2 active torsions:
REMARK  status: ('A' for Active; 'I' for Inactive)
REMARK    1  A    between atoms: O1_1  and  C1_3 
REMARK    2  A    between atoms: C1_3  and  C2_4 
ROOT
HETATM    1  C2  UNL     1     -48.096  10.420  -2.858  1.00  0.00     0.145 C 
HETATM    2  C3  UNL     1     -46.802  10.994  -2.356  1.00  0.00     0.035 C 
HETATM    3  C4  UNL     1     -45.480  10.543  -2.753  1.00  0.00     0.014 C 
HETATM    4  C5  UNL     1     -45.019  10.897  -4.205  1.00  0.00     0.080 C 
HETATM    5  C6  UNL     1     -46.196  10.834  -4.971  1.00  0.00    -0.181 C 
HETATM    6  C7  UNL     1     -47.156  10.878  -5.999  1.00  0.00     0.106 C 
HETATM    7  C8  UNL     1     -48.500  10.563  -5.223  1.00  0.00     0.179 C 
HETATM    8  O2  UNL     1     -48.534  11.132  -4.003  1.00  0.00    -0.383 OA
ENDROOT
BRANCH   1   9
HETATM    9  C1  UNL     1     -49.153  10.747  -1.815  1.00  0.00     0.196 C 
BRANCH   9  10
HETATM   10  O1  UNL     1     -48.588  11.309  -0.669  1.00  0.00    -0.398 OA
ATOM     11  H1  UNL     1     -49.253  11.661  -0.087  1.00  0.00     0.209 HD
ENDBRANCH   9  10
ENDBRANCH   1   9
TORSDOF 2
ENDMDL
MODEL 5
REMARK VINA RESULT: -4.580521038      6.600      7.634
REMARK  2 active torsions:
REMARK  status: ('A' for Active; 'I' for Inactive)
REMARK    1  A    between atoms: O1_1  and  C1_3 
REMARK    2  A    between atoms: C1_3  and  C2_4 
ROOT
HETATM    1  C2  UNL     1     -50.545  13.132   2.591  1.00  0.00     0.145 C 
HETATM    2  C3  UNL     1     -50.162  12.089   3.600  1.00  0.00     0.035 C 
HETATM    3  C4  UNL     1     -50.278  10.654   3.402  1.00  0.00     0.014 C 
HETATM    4  C5  UNL     1     -49.270   9.994   2.406  1.00  0.00     0.080 C 
HETATM    5  C6  UNL     1     -49.070  10.969   1.413  1.00  0.00    -0.181 C 
HETATM    6  C7  UNL     1     -48.640  11.703   0.291  1.00  0.00     0.106 C 
HETATM    7  C8  UNL     1     -49.377  13.090   0.491  1.00  0.00     0.179 C 
HETATM    8  O2  UNL     1     -49.428  13.463   1.783  1.00  0.00    -0.383 OA
ENDROOT
BRANCH   1   9
HETATM    9  C1  UNL     1     -50.811  14.413   3.366  1.00  0.00     0.196 C 
BRANCH   9  10
HETATM   10  O1  UNL     1     -50.141  15.502   2.805  1.00  0.00    -0.398 OA
ATOM     11  H1  UNL     1     -50.742  16.095   2.368  1.00  0.00     0.209 HD
ENDBRANCH   9  10
ENDBRANCH   1   9
TORSDOF 2
ENDMDL
