MODEL 1
REMARK VINA RESULT: -4.304539851      0.000      0.000
REMARK  2 active torsions:
REMARK  status: ('A' for Active; 'I' for Inactive)
REMARK    1  A    between atoms: N1_1  and  S1_4 
REMARK    2  A    between atoms: S1_4  and  C1_5 
ROOT
HETATM    1  C1  UNL     1     -47.410  10.840  -3.383  1.00  0.00     0.069 C 
HETATM    2  C2  UNL     1     -47.963   9.772  -4.303  1.00  0.00     0.021 C 
HETATM    3  C3  UNL     1     -49.463   9.716  -4.238  1.00  0.00    -0.013 C 
HETATM    4  C4  UNL     1     -49.988  11.088  -3.826  1.00  0.00     0.009 C 
HETATM    5  C5  UNL     1     -49.662  10.686  -2.415  1.00  0.00    -0.013 C 
HETATM    6  C6  UNL     1     -49.934   9.252  -2.863  1.00  0.00     0.009 C 
HETATM    7  C7  UNL     1     -48.189  10.783  -2.101  1.00  0.00     0.021 C 
ENDROOT
BRANCH   1   8
HETATM    8  S1  UNL     1     -45.628  10.549  -3.113  1.00  0.00    -0.058 SA
BRANCH   8   9
HETATM    9  N1  UNL     1     -44.718  11.057  -4.550  1.00  0.00    -0.374 N 
ATOM     10  H12 UNL     1     -44.874  11.931  -5.053  1.00  0.00     0.164 HD
ATOM     11  H11 UNL     1     -44.027  10.345  -4.787  1.00  0.00     0.164 HD
ENDBRANCH   8   9
ENDBRANCH   1   8
TORSDOF 2
ENDMDL
MODEL 2
REMARK VINA RESULT: -4.090758847      0.858      1.941
REMARK  2 active torsions:
REMARK  status: ('A' for Active; 'I' for Inactive)
REMARK    1  A    between atoms: N1_1  and  S1_4 
REMARK    2  A    between atoms: S1_4  and  C1_5 
ROOT
HETATM    1  C1  UNL     1     -47.077  10.198  -3.824  1.00  0.00     0.069 C 
HETATM    2  C2  UNL     1     -47.640  10.863  -2.586  1.00  0.00     0.021 C 
HETATM    3  C3  UNL     1     -49.122  10.646  -2.473  1.00  0.00    -0.013 C 
HETATM    4  C4  UNL     1     -49.487   9.356  -3.200  1.00  0.00     0.009 C 
HETATM    5  C5  UNL     1     -49.448  10.167  -4.465  1.00  0.00    -0.013 C 
HETATM    6  C6  UNL     1     -49.865  11.355  -3.601  1.00  0.00     0.009 C 
HETATM    7  C7  UNL     1     -48.044  10.438  -4.948  1.00  0.00     0.021 C 
ENDROOT
BRANCH   1   8
HETATM    8  S1  UNL     1     -45.425  10.883  -4.187  1.00  0.00    -0.058 SA
BRANCH   8   9
HETATM    9  N1  UNL     1     -45.195  10.985  -5.945  1.00  0.00    -0.374 N 
ATOM     10  H12 UNL     1     -44.383  11.406  -6.396  1.00  0.00     0.164 HD
ATOM     11  H11 UNL     1     -45.993  10.563  -6.419  1.00  0.00     0.164 HD
ENDBRANCH   8   9
ENDBRANCH   1   8
TORSDOF 2
ENDMDL
MODEL 3
REMARK VINA RESULT: -3.930455602      2.962      3.922
REMARK  2 active torsions:
REMARK  status: ('A' for Active; 'I' for Inactive)
REMARK    1  A    between atoms: N1_1  and  S1_4 
REMARK    2  A    between atoms: S1_4  and  C1_5 
ROOT
HETATM    1  C1  UNL     1     -48.083  10.140  -3.745  1.00  0.00     0.069 C 
HETATM    2  C2  UNL     1     -48.327  10.977  -4.982  1.00  0.00     0.021 C 
HETATM    3  C3  UNL     1     -47.153  10.927  -5.918  1.00  0.00    -0.013 C 
HETATM    4  C4  UNL     1     -46.404   9.616  -5.698  1.00  0.00     0.009 C 
HETATM    5  C5  UNL     1     -45.758  10.291  -4.521  1.00  0.00    -0.013 C 
HETATM    6  C6  UNL     1     -45.930  11.595  -5.298  1.00  0.00     0.009 C 
HETATM    7  C7  UNL     1     -46.663  10.367  -3.315  1.00  0.00     0.021 C 
ENDROOT
BRANCH   1   8
HETATM    8  S1  UNL     1     -49.274  10.612  -2.445  1.00  0.00    -0.058 SA
BRANCH   8   9
HETATM    9  N1  UNL     1     -50.774   9.684  -2.645  1.00  0.00    -0.374 N 
ATOM     10  H12 UNL     1     -50.828   8.665  -2.631  1.00  0.00     0.164 HD
ATOM     11  H11 UNL     1     -51.557  10.324  -2.775  1.00  0.00     0.164 HD
ENDBRANCH   8   9
ENDBRANCH   1   8
TORSDOF 2
ENDMDL
MODEL 4
REMARK VINA RESULT: -3.814681773      6.599      7.275
REMARK  2 active torsions:
REMARK  status: ('A' for Active; 'I' for Inactive)
REMARK    1  A    between atoms: N1_1  and  S1_4 
REMARK    2  A    between atoms: S1_4  and  C1_5 
ROOT
HETATM    1  C1  UNL     1     -50.118  13.930   2.277  1.00  0.00     0.069 C 
HETATM    2  C2  UNL     1     -49.392  12.841   1.516  1.00  0.00     0.021 C 
HETATM    3  C3  UNL     1     -50.078  11.514   1.672  1.00  0.00    -0.013 C 
HETATM    4  C4  UNL     1     -51.556  11.754   1.957  1.00  0.00     0.009 C 
HETATM    5  C5  UNL     1     -51.147  11.994   3.383  1.00  0.00    -0.013 C 
HETATM    6  C6  UNL     1     -49.999  11.024   3.114  1.00  0.00     0.009 C 
HETATM    7  C7  UNL     1     -50.537  13.358   3.600  1.00  0.00     0.021 C 
ENDROOT
BRANCH   1   8
HETATM    8  S1  UNL     1     -49.017  15.373   2.475  1.00  0.00    -0.058 SA
BRANCH   8   9
HETATM    9  N1  UNL     1     -49.881  16.667   3.330  1.00  0.00    -0.374 N 
ATOM     10  H12 UNL     1     -50.773  16.545   3.810  1.00  0.00     0.164 HD
ATOM     11  H11 UNL     1     -49.349  17.534   3.264  1.00  0.00     0.164 HD
ENDBRANCH   8   9
ENDBRANCH   1   8
TORSDOF 2
ENDMDL
MODEL 5
REMARK VINA RESULT: -3.777353887      6.200      6.961
REMARK  2 active torsions:
REMARK  status: ('A' for Active; 'I' for Inactive)
REMARK    1  A    between atoms: N1_1  and  S1_4 
REMARK    2  A    between atoms: S1_4  and  C1_5 
ROOT
HETATM    1  C1  UNL     1     -50.754  12.279   2.229  1.00  0.00     0.069 C 
HETATM    2  C2  UNL     1     -49.734  13.015   1.386  1.00  0.00     0.021 C 
HETATM    3  C3  UNL     1     -48.905  12.062   0.573  1.00  0.00    -0.013 C 
HETATM    4  C4  UNL     1     -49.712  10.792   0.329  1.00  0.00     0.009 C 
HETATM    5  C5  UNL     1     -49.295  10.372   1.710  1.00  0.00    -0.013 C 
HETATM    6  C6  UNL     1     -48.031  11.194   1.473  1.00  0.00     0.009 C 
HETATM    7  C7  UNL     1     -50.080  11.064   2.798  1.00  0.00     0.021 C 
ENDROOT
BRANCH   1   8
HETATM    8  S1  UNL     1     -51.379  13.388   3.536  1.00  0.00    -0.058 SA
BRANCH   8   9
HETATM    9  N1  UNL     1     -53.151  13.294   3.599  1.00  0.00    -0.374 N 
ATOM     10  H12 UNL     1     -53.696  13.253   4.461  1.00  0.00     0.164 HD
ATOM     11  H11 UNL     1     -53.527  13.286   2.652  1.00  0.00     0.164 HD
ENDBRANCH   8   9
ENDBRANCH   1   8
TORSDOF 2
ENDMDL
