MODEL 1
REMARK VINA RESULT: -6.322299875      0.000      0.000
REMARK  2 active torsions:
REMARK  status: ('A' for Active; 'I' for Inactive)
REMARK    1  A    between atoms: N1_1  and  N2_4 
REMARK    2  A    between atoms: C1_6  and  C2_7 
ROOT
HETATM    1  C2  UNL     1     -48.147  10.722  -3.896  1.00  0.00     0.025 C 
HETATM    2  C3  UNL     1     -47.107  10.964  -2.863  1.00  0.00     0.010 C 
HETATM    3  C4  UNL     1     -45.781  10.326  -3.153  1.00  0.00     0.001 C 
HETATM    4  C5  UNL     1     -45.059  10.937  -4.318  1.00  0.00     0.000 C 
HETATM    5  C6  UNL     1     -45.986  11.414  -5.407  1.00  0.00     0.000 C 
HETATM    6  C7  UNL     1     -46.756  10.228  -5.920  1.00  0.00     0.001 C 
HETATM    7  C8  UNL     1     -47.761   9.713  -4.933  1.00  0.00     0.010 C 
ENDROOT
BRANCH   1   8
HETATM    8  C1  UNL     1     -49.393  10.252  -3.238  1.00  0.00     0.084 C 
HETATM    9  N2  UNL     1     -50.122   9.402  -3.831  1.00  0.00    -0.322 N 
ATOM     10  H2  UNL     1     -49.817   9.072  -4.746  1.00  0.00     0.185 HD
BRANCH   9  11
HETATM   11  N1  UNL     1     -51.315   8.885  -3.319  1.00  0.00    -0.346 N 
ATOM     12  H12 UNL     1     -51.883   9.518  -2.756  1.00  0.00     0.176 HD
ATOM     13  H11 UNL     1     -51.645   7.932  -3.470  1.00  0.00     0.176 HD
ENDBRANCH   9  11
ENDBRANCH   1   8
TORSDOF 2
ENDMDL
MODEL 2
REMARK VINA RESULT: -5.276273346      1.804      1.836
REMARK  2 active torsions:
REMARK  status: ('A' for Active; 'I' for Inactive)
REMARK    1  A    between atoms: N1_1  and  N2_4 
REMARK    2  A    between atoms: C1_6  and  C2_7 
ROOT
HETATM    1  C2  UNL     1     -47.856  10.954  -3.394  1.00  0.00     0.025 C 
HETATM    2  C3  UNL     1     -46.533  11.240  -2.782  1.00  0.00     0.010 C 
HETATM    3  C4  UNL     1     -45.393  10.470  -3.377  1.00  0.00     0.001 C 
HETATM    4  C5  UNL     1     -45.060  10.875  -4.783  1.00  0.00     0.000 C 
HETATM    5  C6  UNL     1     -46.268  11.285  -5.585  1.00  0.00     0.000 C 
HETATM    6  C7  UNL     1     -47.202  10.109  -5.659  1.00  0.00     0.001 C 
HETATM    7  C8  UNL     1     -47.857   9.799  -4.346  1.00  0.00     0.010 C 
ENDROOT
BRANCH   1   8
HETATM    8  C1  UNL     1     -48.843  10.668  -2.321  1.00  0.00     0.084 C 
HETATM    9  N2  UNL     1     -48.626  11.103  -1.150  1.00  0.00    -0.322 N 
ATOM     10  H2  UNL     1     -47.772  11.637  -0.994  1.00  0.00     0.185 HD
BRANCH   9  11
HETATM   11  N1  UNL     1     -49.475  10.900  -0.060  1.00  0.00    -0.346 N 
ATOM     12  H12 UNL     1     -50.073  10.075  -0.093  1.00  0.00     0.176 HD
ATOM     13  H11 UNL     1     -49.533  11.515   0.752  1.00  0.00     0.176 HD
ENDBRANCH   9  11
ENDBRANCH   1   8
TORSDOF 2
ENDMDL
MODEL 3
REMARK VINA RESULT: -5.243453617      0.717      1.952
REMARK  2 active torsions:
REMARK  status: ('A' for Active; 'I' for Inactive)
REMARK    1  A    between atoms: N1_1  and  N2_4 
REMARK    2  A    between atoms: C1_6  and  C2_7 
ROOT
HETATM    1  C2  UNL     1     -47.650  10.003  -3.874  1.00  0.00     0.025 C 
HETATM    2  C3  UNL     1     -47.859  10.226  -5.329  1.00  0.00     0.010 C 
HETATM    3  C4  UNL     1     -47.088  11.379  -5.898  1.00  0.00     0.001 C 
HETATM    4  C5  UNL     1     -45.605  11.152  -5.938  1.00  0.00     0.000 C 
HETATM    5  C6  UNL     1     -45.099  10.331  -4.781  1.00  0.00     0.000 C 
HETATM    6  C7  UNL     1     -45.412  11.069  -3.509  1.00  0.00     0.001 C 
HETATM    7  C8  UNL     1     -46.878  11.088  -3.190  1.00  0.00     0.010 C 
ENDROOT
BRANCH   1   8
HETATM    8  C1  UNL     1     -48.967   9.879  -3.201  1.00  0.00     0.084 C 
HETATM    9  N2  UNL     1     -49.908   9.268  -3.791  1.00  0.00    -0.322 N 
ATOM     10  H2  UNL     1     -49.716   8.883  -4.715  1.00  0.00     0.185 HD
BRANCH   9  11
HETATM   11  N1  UNL     1     -51.189   9.086  -3.264  1.00  0.00    -0.346 N 
ATOM     12  H12 UNL     1     -51.245   8.830  -2.278  1.00  0.00     0.176 HD
ATOM     13  H11 UNL     1     -52.054   9.191  -3.794  1.00  0.00     0.176 HD
ENDBRANCH   9  11
ENDBRANCH   1   8
TORSDOF 2
ENDMDL
MODEL 4
REMARK VINA RESULT: -4.768147703      4.666      6.344
REMARK  2 active torsions:
REMARK  status: ('A' for Active; 'I' for Inactive)
REMARK    1  A    between atoms: N1_1  and  N2_4 
REMARK    2  A    between atoms: C1_6  and  C2_7 
ROOT
HETATM    1  C2  UNL     1     -49.476  11.384   0.212  1.00  0.00     0.025 C 
HETATM    2  C3  UNL     1     -49.376  10.156   1.042  1.00  0.00     0.010 C 
HETATM    3  C4  UNL     1     -49.099  10.408   2.494  1.00  0.00     0.001 C 
HETATM    4  C5  UNL     1     -50.240  11.055   3.223  1.00  0.00     0.000 C 
HETATM    5  C6  UNL     1     -51.020  12.019   2.367  1.00  0.00     0.000 C 
HETATM    6  C7  UNL     1     -50.088  13.111   1.921  1.00  0.00     0.001 C 
HETATM    7  C8  UNL     1     -49.074  12.640   0.920  1.00  0.00     0.010 C 
ENDROOT
BRANCH   1   8
HETATM    8  C1  UNL     1     -48.616  11.237  -0.990  1.00  0.00     0.084 C 
HETATM    9  N2  UNL     1     -49.131  10.823  -2.072  1.00  0.00    -0.322 N 
ATOM     10  H2  UNL     1     -50.127  10.606  -2.070  1.00  0.00     0.185 HD
BRANCH   9  11
HETATM   11  N1  UNL     1     -48.429  10.642  -3.266  1.00  0.00    -0.346 N 
ATOM     12  H12 UNL     1     -47.508  11.077  -3.325  1.00  0.00     0.176 HD
ATOM     13  H11 UNL     1     -48.774  10.113  -4.067  1.00  0.00     0.176 HD
ENDBRANCH   9  11
ENDBRANCH   1   8
TORSDOF 2
ENDMDL
MODEL 5
REMARK VINA RESULT: -4.730071980      2.691      4.290
REMARK  2 active torsions:
REMARK  status: ('A' for Active; 'I' for Inactive)
REMARK    1  A    between atoms: N1_1  and  N2_4 
REMARK    2  A    between atoms: C1_6  and  C2_7 
ROOT
HETATM    1  C2  UNL     1     -47.988  10.203  -3.733  1.00  0.00     0.025 C 
HETATM    2  C3  UNL     1     -47.715  10.467  -2.297  1.00  0.00     0.010 C 
HETATM    3  C4  UNL     1     -48.846  11.119  -1.559  1.00  0.00     0.001 C 
HETATM    4  C5  UNL     1     -50.041  10.229  -1.379  1.00  0.00     0.000 C 
HETATM    5  C6  UNL     1     -50.263   9.292  -2.537  1.00  0.00     0.000 C 
HETATM    6  C7  UNL     1     -50.492  10.118  -3.773  1.00  0.00     0.001 C 
HETATM    7  C8  UNL     1     -49.253  10.821  -4.243  1.00  0.00     0.010 C 
ENDROOT
BRANCH   1   8
HETATM    8  C1  UNL     1     -46.861  10.718  -4.551  1.00  0.00     0.084 C 
HETATM    9  N2  UNL     1     -45.692  10.721  -4.061  1.00  0.00    -0.322 N 
ATOM     10  H2  UNL     1     -45.575  10.364  -3.113  1.00  0.00     0.185 HD
BRANCH   9  11
HETATM   11  N1  UNL     1     -44.553  11.179  -4.727  1.00  0.00    -0.346 N 
ATOM     12  H12 UNL     1     -43.793  10.509  -4.845  1.00  0.00     0.176 HD
ATOM     13  H11 UNL     1     -44.438  12.123  -5.096  1.00  0.00     0.176 HD
ENDBRANCH   9  11
ENDBRANCH   1   8
TORSDOF 2
ENDMDL
