MODEL 1
REMARK VINA RESULT: -5.711866023      0.000      0.000
REMARK  2 active torsions:
REMARK  status: ('A' for Active; 'I' for Inactive)
REMARK    1  A    between atoms: O1_1  and  C1_3 
REMARK    2  A    between atoms: C1_3  and  C2_4 
ROOT
HETATM    1  C2  UNL     1     -48.200  10.158  -4.024  1.00  0.00     0.009 C 
HETATM    2  C3  UNL     1     -48.063  10.902  -5.323  1.00  0.00     0.007 C 
HETATM    3  C4  UNL     1     -47.051  10.573  -6.333  1.00  0.00     0.012 C 
HETATM    4  C5  UNL     1     -45.592  11.055  -6.036  1.00  0.00     0.080 C 
HETATM    5  C6  UNL     1     -45.464  10.908  -4.648  1.00  0.00    -0.183 C 
HETATM    6  C7  UNL     1     -44.958  10.972  -3.339  1.00  0.00     0.080 C 
HETATM    7  C8  UNL     1     -46.135  10.444  -2.455  1.00  0.00     0.012 C 
HETATM    8  C9  UNL     1     -47.485  10.828  -2.872  1.00  0.00     0.007 C 
ENDROOT
BRANCH   1   9
HETATM    9  C1  UNL     1     -49.683  10.180  -3.663  1.00  0.00     0.168 C 
BRANCH   9  10
HETATM   10  O1  UNL     1     -50.480  10.157  -4.800  1.00  0.00    -0.400 OA
ATOM     11  H1  UNL     1     -50.962   9.341  -4.869  1.00  0.00     0.209 HD
ENDBRANCH   9  10
ENDBRANCH   1   9
TORSDOF 2
ENDMDL
MODEL 2
REMARK VINA RESULT: -5.374328258      0.430      2.483
REMARK  2 active torsions:
REMARK  status: ('A' for Active; 'I' for Inactive)
REMARK    1  A    between atoms: O1_1  and  C1_3 
REMARK    2  A    between atoms: C1_3  and  C2_4 
ROOT
HETATM    1  C2  UNL     1     -48.406  10.781  -3.956  1.00  0.00     0.009 C 
HETATM    2  C3  UNL     1     -47.532  10.234  -2.861  1.00  0.00     0.007 C 
HETATM    3  C4  UNL     1     -46.351  10.938  -2.349  1.00  0.00     0.012 C 
HETATM    4  C5  UNL     1     -45.068  10.882  -3.243  1.00  0.00     0.080 C 
HETATM    5  C6  UNL     1     -45.566  10.931  -4.552  1.00  0.00    -0.183 C 
HETATM    6  C7  UNL     1     -45.643  10.899  -5.955  1.00  0.00     0.080 C 
HETATM    7  C8  UNL     1     -47.177  10.974  -6.249  1.00  0.00     0.012 C 
HETATM    8  C9  UNL     1     -48.052  10.249  -5.326  1.00  0.00     0.007 C 
ENDROOT
BRANCH   1   9
HETATM    9  C1  UNL     1     -49.822  10.290  -3.670  1.00  0.00     0.168 C 
BRANCH   9  10
HETATM   10  O1  UNL     1     -50.597  10.284  -4.823  1.00  0.00    -0.400 OA
ATOM     11  H1  UNL     1     -51.084   9.473  -4.909  1.00  0.00     0.209 HD
ENDBRANCH   9  10
ENDBRANCH   1   9
TORSDOF 2
ENDMDL
MODEL 3
REMARK VINA RESULT: -4.875711598      2.011      3.806
REMARK  2 active torsions:
REMARK  status: ('A' for Active; 'I' for Inactive)
REMARK    1  A    between atoms: O1_1  and  C1_3 
REMARK    2  A    between atoms: C1_3  and  C2_4 
ROOT
HETATM    1  C2  UNL     1     -46.702  10.248  -5.108  1.00  0.00     0.009 C 
HETATM    2  C3  UNL     1     -45.754  10.982  -4.200  1.00  0.00     0.007 C 
HETATM    3  C4  UNL     1     -45.487  10.569  -2.818  1.00  0.00     0.012 C 
HETATM    4  C5  UNL     1     -46.588  10.922  -1.763  1.00  0.00     0.080 C 
HETATM    5  C6  UNL     1     -47.791  10.761  -2.464  1.00  0.00    -0.183 C 
HETATM    6  C7  UNL     1     -49.156  10.776  -2.796  1.00  0.00     0.080 C 
HETATM    7  C8  UNL     1     -49.181  10.348  -4.300  1.00  0.00     0.012 C 
HETATM    8  C9  UNL     1     -48.089  10.849  -5.137  1.00  0.00     0.007 C 
ENDROOT
BRANCH   1   9
HETATM    9  C1  UNL     1     -46.153  10.397  -6.524  1.00  0.00     0.168 C 
BRANCH   9  10
HETATM   10  O1  UNL     1     -45.058  11.250  -6.555  1.00  0.00    -0.400 OA
ATOM     11  H1  UNL     1     -44.647  11.256  -7.411  1.00  0.00     0.209 HD
ENDBRANCH   9  10
ENDBRANCH   1   9
TORSDOF 2
ENDMDL
MODEL 4
REMARK VINA RESULT: -4.716328836      6.454      7.929
REMARK  2 active torsions:
REMARK  status: ('A' for Active; 'I' for Inactive)
REMARK    1  A    between atoms: O1_1  and  C1_3 
REMARK    2  A    between atoms: C1_3  and  C2_4 
ROOT
HETATM    1  C2  UNL     1     -50.660  13.106   2.941  1.00  0.00     0.009 C 
HETATM    2  C3  UNL     1     -51.045  11.693   3.282  1.00  0.00     0.007 C 
HETATM    3  C4  UNL     1     -50.064  10.649   3.600  1.00  0.00     0.012 C 
HETATM    4  C5  UNL     1     -49.298  10.024   2.387  1.00  0.00     0.080 C 
HETATM    5  C6  UNL     1     -49.114  11.104   1.512  1.00  0.00    -0.183 C 
HETATM    6  C7  UNL     1     -48.787  11.861   0.374  1.00  0.00     0.080 C 
HETATM    7  C8  UNL     1     -49.319  13.293   0.710  1.00  0.00     0.012 C 
HETATM    8  C9  UNL     1     -50.579  13.361   1.452  1.00  0.00     0.007 C 
ENDROOT
BRANCH   1   9
HETATM    9  C1  UNL     1     -51.783  14.001   3.456  1.00  0.00     0.168 C 
BRANCH   9  10
HETATM   10  O1  UNL     1     -52.883  13.972   2.608  1.00  0.00    -0.400 OA
ATOM     11  H1  UNL     1     -52.800  13.286   1.956  1.00  0.00     0.209 HD
ENDBRANCH   9  10
ENDBRANCH   1   9
TORSDOF 2
ENDMDL
MODEL 5
REMARK VINA RESULT: -4.640172460      2.231      3.686
REMARK  2 active torsions:
REMARK  status: ('A' for Active; 'I' for Inactive)
REMARK    1  A    between atoms: O1_1  and  C1_3 
REMARK    2  A    between atoms: C1_3  and  C2_4 
ROOT
HETATM    1  C2  UNL     1     -46.851  10.857  -4.134  1.00  0.00     0.009 C 
HETATM    2  C3  UNL     1     -47.890   9.925  -4.694  1.00  0.00     0.007 C 
HETATM    3  C4  UNL     1     -49.315  10.265  -4.769  1.00  0.00     0.012 C 
HETATM    4  C5  UNL     1     -50.122  10.174  -3.432  1.00  0.00     0.080 C 
HETATM    5  C6  UNL     1     -49.211  10.608  -2.458  1.00  0.00    -0.183 C 
HETATM    6  C7  UNL     1     -48.623  10.906  -1.218  1.00  0.00     0.080 C 
HETATM    7  C8  UNL     1     -47.163  11.328  -1.587  1.00  0.00     0.012 C 
HETATM    8  C9  UNL     1     -46.529  10.590  -2.681  1.00  0.00     0.007 C 
ENDROOT
BRANCH   1   9
HETATM    9  C1  UNL     1     -45.561  10.586  -4.903  1.00  0.00     0.168 C 
BRANCH   9  10
HETATM   10  O1  UNL     1     -44.502  11.324  -4.390  1.00  0.00    -0.400 OA
ATOM     11  H1  UNL     1     -44.271  12.044  -4.965  1.00  0.00     0.209 HD
ENDBRANCH   9  10
ENDBRANCH   1   9
TORSDOF 2
ENDMDL
