MODEL 1
REMARK VINA RESULT: -5.915115517      0.000      0.000
REMARK  2 active torsions:
REMARK  status: ('A' for Active; 'I' for Inactive)
REMARK    1  A    between atoms: O1_1  and  N1_3 
REMARK    2  A    between atoms: C1_5  and  C2_6 
ROOT
HETATM    1  C2  UNL     1     -47.920  10.224  -4.080  1.00  0.00     0.030 C 
HETATM    2  C3  UNL     1     -46.732  10.401  -3.199  1.00  0.00     0.010 C 
HETATM    3  C4  UNL     1     -45.501  10.883  -3.882  1.00  0.00     0.005 C 
HETATM    4  C5  UNL     1     -45.607  10.898  -5.376  1.00  0.00    -0.014 C 
HETATM    5  C6  UNL     1     -46.412   9.728  -5.919  1.00  0.00     0.010 C 
HETATM    6  C7  UNL     1     -47.653  10.540  -5.527  1.00  0.00    -0.005 C 
HETATM    7  C8  UNL     1     -46.818  11.772  -5.723  1.00  0.00     0.010 C 
ENDROOT
BRANCH   1   8
HETATM    8  C1  UNL     1     -49.079  10.943  -3.532  1.00  0.00     0.091 C 
HETATM    9  N1  UNL     1     -50.246  10.427  -3.669  1.00  0.00    -0.284 N 
ATOM     10  H1  UNL     1     -51.046  10.932  -3.285  1.00  0.00     0.192 HD
BRANCH   9  11
HETATM   11  O1  UNL     1     -50.478   9.232  -4.304  1.00  0.00    -0.291 OA
ATOM     12  H1  UNL     1     -51.284   9.030  -4.766  1.00  0.00     0.244 HD
ENDBRANCH   9  11
ENDBRANCH   1   8
TORSDOF 2
ENDMDL
MODEL 2
REMARK VINA RESULT: -4.540734793      0.962      2.150
REMARK  2 active torsions:
REMARK  status: ('A' for Active; 'I' for Inactive)
REMARK    1  A    between atoms: O1_1  and  N1_3 
REMARK    2  A    between atoms: C1_5  and  C2_6 
ROOT
HETATM    1  C2  UNL     1     -47.918  10.606  -4.099  1.00  0.00     0.030 C 
HETATM    2  C3  UNL     1     -47.349  10.772  -5.466  1.00  0.00     0.010 C 
HETATM    3  C4  UNL     1     -45.863  10.826  -5.532  1.00  0.00     0.005 C 
HETATM    4  C5  UNL     1     -45.203  10.923  -4.192  1.00  0.00    -0.014 C 
HETATM    5  C6  UNL     1     -45.986  11.782  -3.213  1.00  0.00     0.010 C 
HETATM    6  C7  UNL     1     -46.878  10.550  -3.013  1.00  0.00    -0.005 C 
HETATM    7  C8  UNL     1     -45.682   9.718  -3.375  1.00  0.00     0.010 C 
ENDROOT
BRANCH   1   8
HETATM    8  C1  UNL     1     -48.855   9.474  -4.067  1.00  0.00     0.091 C 
HETATM    9  N1  UNL     1     -50.115   9.714  -4.118  1.00  0.00    -0.284 N 
ATOM     10  H1  UNL     1     -50.759   8.923  -4.095  1.00  0.00     0.192 HD
BRANCH   9  11
HETATM   11  O1  UNL     1     -50.644  10.979  -4.201  1.00  0.00    -0.291 OA
ATOM     12  H1  UNL     1     -51.538  11.157  -4.469  1.00  0.00     0.244 HD
ENDBRANCH   9  11
ENDBRANCH   1   8
TORSDOF 2
ENDMDL
MODEL 3
REMARK VINA RESULT: -4.405219746      2.917      4.066
REMARK  2 active torsions:
REMARK  status: ('A' for Active; 'I' for Inactive)
REMARK    1  A    between atoms: O1_1  and  N1_3 
REMARK    2  A    between atoms: C1_5  and  C2_6 
ROOT
HETATM    1  C2  UNL     1     -47.749  10.651  -3.350  1.00  0.00     0.030 C 
HETATM    2  C3  UNL     1     -48.096  10.893  -1.921  1.00  0.00     0.010 C 
HETATM    3  C4  UNL     1     -49.472  10.487  -1.526  1.00  0.00     0.005 C 
HETATM    4  C5  UNL     1     -50.345  10.107  -2.682  1.00  0.00    -0.014 C 
HETATM    5  C6  UNL     1     -50.091  10.960  -3.914  1.00  0.00     0.010 C 
HETATM    6  C7  UNL     1     -48.874  10.058  -4.155  1.00  0.00    -0.005 C 
HETATM    7  C8  UNL     1     -49.623   8.979  -3.428  1.00  0.00     0.010 C 
ENDROOT
BRANCH   1   8
HETATM    8  C1  UNL     1     -46.497   9.888  -3.452  1.00  0.00     0.091 C 
HETATM    9  N1  UNL     1     -45.395  10.529  -3.612  1.00  0.00    -0.284 N 
ATOM     10  H1  UNL     1     -44.530   9.992  -3.682  1.00  0.00     0.192 HD
BRANCH   9  11
HETATM   11  O1  UNL     1     -45.319  11.898  -3.694  1.00  0.00    -0.291 OA
ATOM     12  H1  UNL     1     -44.735  12.424  -3.160  1.00  0.00     0.244 HD
ENDBRANCH   9  11
ENDBRANCH   1   8
TORSDOF 2
ENDMDL
MODEL 4
REMARK VINA RESULT: -4.379900589      6.487      7.503
REMARK  2 active torsions:
REMARK  status: ('A' for Active; 'I' for Inactive)
REMARK    1  A    between atoms: O1_1  and  N1_3 
REMARK    2  A    between atoms: C1_5  and  C2_6 
ROOT
HETATM    1  C2  UNL     1     -50.738  12.134   2.386  1.00  0.00     0.030 C 
HETATM    2  C3  UNL     1     -50.280  10.881   3.051  1.00  0.00     0.010 C 
HETATM    3  C4  UNL     1     -49.077  10.247   2.448  1.00  0.00     0.005 C 
HETATM    4  C5  UNL     1     -48.662  10.856   1.145  1.00  0.00    -0.014 C 
HETATM    5  C6  UNL     1     -49.847  11.281   0.293  1.00  0.00     0.010 C 
HETATM    6  C7  UNL     1     -49.909  12.523   1.192  1.00  0.00    -0.005 C 
HETATM    7  C8  UNL     1     -48.433  12.349   1.408  1.00  0.00     0.010 C 
ENDROOT
BRANCH   1   8
HETATM    8  C1  UNL     1     -50.882  13.215   3.371  1.00  0.00     0.091 C 
HETATM    9  N1  UNL     1     -51.922  13.967   3.313  1.00  0.00    -0.284 N 
ATOM     10  H1  UNL     1     -52.016  14.715   4.000  1.00  0.00     0.192 HD
BRANCH   9  11
HETATM   11  O1  UNL     1     -52.916  13.817   2.376  1.00  0.00    -0.291 OA
ATOM     12  H1  UNL     1     -52.955  13.091   1.764  1.00  0.00     0.244 HD
ENDBRANCH   9  11
ENDBRANCH   1   8
TORSDOF 2
ENDMDL
MODEL 5
REMARK VINA RESULT: -4.332994747      5.923      7.671
REMARK  2 active torsions:
REMARK  status: ('A' for Active; 'I' for Inactive)
REMARK    1  A    between atoms: O1_1  and  N1_3 
REMARK    2  A    between atoms: C1_5  and  C2_6 
ROOT
HETATM    1  C2  UNL     1     -49.828  12.182   1.186  1.00  0.00     0.030 C 
HETATM    2  C3  UNL     1     -49.302  13.536   1.518  1.00  0.00     0.010 C 
HETATM    3  C4  UNL     1     -49.845  14.140   2.764  1.00  0.00     0.005 C 
HETATM    4  C5  UNL     1     -50.988  13.376   3.356  1.00  0.00    -0.014 C 
HETATM    5  C6  UNL     1     -51.903  12.778   2.300  1.00  0.00     0.010 C 
HETATM    6  C7  UNL     1     -50.848  11.672   2.168  1.00  0.00    -0.005 C 
HETATM    7  C8  UNL     1     -50.487  11.948   3.599  1.00  0.00     0.010 C 
ENDROOT
BRANCH   1   8
HETATM    8  C1  UNL     1     -48.722  11.242   0.956  1.00  0.00     0.091 C 
HETATM    9  N1  UNL     1     -48.405  10.946  -0.252  1.00  0.00    -0.284 N 
ATOM     10  H1  UNL     1     -47.635  10.294  -0.404  1.00  0.00     0.192 HD
BRANCH   9  11
HETATM   11  O1  UNL     1     -49.046  11.461  -1.353  1.00  0.00    -0.291 OA
ATOM     12  H1  UNL     1     -49.859  11.951  -1.305  1.00  0.00     0.244 HD
ENDBRANCH   9  11
ENDBRANCH   1   8
TORSDOF 2
ENDMDL
