MODEL 1
REMARK VINA RESULT: -4.282843841      0.000      0.000
REMARK  2 active torsions:
REMARK  status: ('A' for Active; 'I' for Inactive)
REMARK    1  A    between atoms: O1_1  and  C1_3 
REMARK    2  A    between atoms: C2_4  and  O2_5 
ROOT
HETATM    1  C1  UNL     1       2.328   0.079 -53.774  1.00  0.00     0.164 C 
HETATM    2  C2  UNL     1       0.805   0.182 -53.593  1.00  0.00     0.164 C 
HETATM    3  C3  UNL     1       0.717   1.513 -52.897  1.00  0.00     0.112 C 
HETATM    4  C4  UNL     1       1.963   1.648 -52.070  1.00  0.00     0.040 C 
HETATM    5  C5  UNL     1       2.757   1.444 -53.368  1.00  0.00     0.112 C 
HETATM    6  S1  UNL     1       1.549   2.714 -54.234  1.00  0.00     0.029 S 
HETATM    7  O3  UNL     1       1.789   4.538 -53.538  1.00  0.00    -0.257 OA
ENDROOT
BRANCH   1   8
HETATM    8  O1  UNL     1       2.865  -0.826 -52.833  1.00  0.00    -0.392 OA
ATOM      9  H1  UNL     1       3.149  -0.358 -52.057  1.00  0.00     0.210 HD
ENDBRANCH   1   8
BRANCH   2  10
HETATM   10  O2  UNL     1       0.288  -0.864 -52.885  1.00  0.00    -0.392 OA
ATOM     11  H2  UNL     1       0.309  -0.715 -51.946  1.00  0.00     0.210 HD
ENDBRANCH   2  10
TORSDOF 2
ENDMDL
MODEL 2
REMARK VINA RESULT: -4.020004118      2.220      3.843
REMARK  2 active torsions:
REMARK  status: ('A' for Active; 'I' for Inactive)
REMARK    1  A    between atoms: O1_1  and  C1_3 
REMARK    2  A    between atoms: C2_4  and  O2_5 
ROOT
HETATM    1  C1  UNL     1       2.635   3.056 -52.042  1.00  0.00     0.164 C 
HETATM    2  C2  UNL     1       1.724   3.200 -53.272  1.00  0.00     0.164 C 
HETATM    3  C3  UNL     1       2.494   2.373 -54.264  1.00  0.00     0.112 C 
HETATM    4  C4  UNL     1       3.946   2.523 -53.912  1.00  0.00     0.040 C 
HETATM    5  C5  UNL     1       3.583   2.010 -52.512  1.00  0.00     0.112 C 
HETATM    6  S1  UNL     1       2.524   0.607 -53.368  1.00  0.00     0.029 S 
HETATM    7  O3  UNL     1       3.661  -0.683 -54.322  1.00  0.00    -0.257 OA
ENDROOT
BRANCH   1   8
HETATM    8  O1  UNL     1       3.378   4.240 -51.851  1.00  0.00    -0.392 OA
ATOM      9  H1  UNL     1       3.023   4.731 -51.119  1.00  0.00     0.210 HD
ENDBRANCH   1   8
BRANCH   2  10
HETATM   10  O2  UNL     1       1.540   4.502 -53.639  1.00  0.00    -0.392 OA
ATOM     11  H2  UNL     1       0.704   4.848 -53.350  1.00  0.00     0.210 HD
ENDBRANCH   2  10
TORSDOF 2
ENDMDL
MODEL 3
REMARK VINA RESULT: -3.950938572      1.850      3.788
REMARK  2 active torsions:
REMARK  status: ('A' for Active; 'I' for Inactive)
REMARK    1  A    between atoms: O1_1  and  C1_3 
REMARK    2  A    between atoms: C2_4  and  O2_5 
ROOT
HETATM    1  C1  UNL     1       3.242   2.888 -54.091  1.00  0.00     0.164 C 
HETATM    2  C2  UNL     1       3.223   2.967 -52.556  1.00  0.00     0.164 C 
HETATM    3  C3  UNL     1       1.858   2.395 -52.285  1.00  0.00     0.112 C 
HETATM    4  C4  UNL     1       0.990   2.788 -53.446  1.00  0.00     0.040 C 
HETATM    5  C5  UNL     1       2.015   2.090 -54.351  1.00  0.00     0.112 C 
HETATM    6  S1  UNL     1       2.015   0.594 -53.092  1.00  0.00     0.029 S 
HETATM    7  O3  UNL     1       0.298  -0.364 -53.097  1.00  0.00    -0.257 OA
ENDROOT
BRANCH   1   8
HETATM    8  O1  UNL     1       3.034   4.170 -54.643  1.00  0.00    -0.392 OA
ATOM      9  H1  UNL     1       2.258   4.165 -55.191  1.00  0.00     0.210 HD
ENDBRANCH   1   8
BRANCH   2  10
HETATM   10  O2  UNL     1       3.409   4.237 -52.093  1.00  0.00    -0.392 OA
ATOM     11  H2  UNL     1       2.599   4.731 -52.048  1.00  0.00     0.210 HD
ENDBRANCH   2  10
TORSDOF 2
ENDMDL
MODEL 4
REMARK VINA RESULT: -3.950880655      2.122      3.500
REMARK  2 active torsions:
REMARK  status: ('A' for Active; 'I' for Inactive)
REMARK    1  A    between atoms: O1_1  and  C1_3 
REMARK    2  A    between atoms: C2_4  and  O2_5 
ROOT
HETATM    1  C1  UNL     1       3.577   2.860 -52.234  1.00  0.00     0.164 C 
HETATM    2  C2  UNL     1       2.680   2.132 -51.220  1.00  0.00     0.164 C 
HETATM    3  C3  UNL     1       1.535   1.748 -52.117  1.00  0.00     0.112 C 
HETATM    4  C4  UNL     1       1.420   2.829 -53.152  1.00  0.00     0.040 C 
HETATM    5  C5  UNL     1       2.884   2.539 -53.510  1.00  0.00     0.112 C 
HETATM    6  S1  UNL     1       2.450   0.633 -53.473  1.00  0.00     0.029 S 
HETATM    7  O3  UNL     1       1.249   0.130 -54.946  1.00  0.00    -0.257 OA
ENDROOT
BRANCH   1   8
HETATM    8  O1  UNL     1       3.484   4.256 -52.046  1.00  0.00    -0.392 OA
ATOM      9  H1  UNL     1       3.273   4.681 -52.869  1.00  0.00     0.210 HD
ENDBRANCH   1   8
BRANCH   2  10
HETATM   10  O2  UNL     1       2.334   2.922 -50.163  1.00  0.00    -0.392 OA
ATOM     11  H2  UNL     1       1.441   2.774 -49.874  1.00  0.00     0.210 HD
ENDBRANCH   2  10
TORSDOF 2
ENDMDL
MODEL 5
REMARK VINA RESULT: -3.941977233      2.250      3.799
REMARK  2 active torsions:
REMARK  status: ('A' for Active; 'I' for Inactive)
REMARK    1  A    between atoms: O1_1  and  C1_3 
REMARK    2  A    between atoms: C2_4  and  O2_5 
ROOT
HETATM    1  C1  UNL     1       4.399   2.585 -53.129  1.00  0.00     0.164 C 
HETATM    2  C2  UNL     1       3.166   2.945 -52.283  1.00  0.00     0.164 C 
HETATM    3  C3  UNL     1       2.075   2.627 -53.268  1.00  0.00     0.112 C 
HETATM    4  C4  UNL     1       2.630   2.917 -54.632  1.00  0.00     0.040 C 
HETATM    5  C5  UNL     1       3.758   1.930 -54.301  1.00  0.00     0.112 C 
HETATM    6  S1  UNL     1       2.400   0.705 -53.613  1.00  0.00     0.029 S 
HETATM    7  O3  UNL     1       1.251   0.009 -55.049  1.00  0.00    -0.257 OA
ENDROOT
BRANCH   1   8
HETATM    8  O1  UNL     1       5.024   3.761 -53.595  1.00  0.00    -0.392 OA
ATOM      9  H1  UNL     1       4.698   3.981 -54.460  1.00  0.00     0.210 HD
ENDBRANCH   1   8
BRANCH   2  10
HETATM   10  O2  UNL     1       3.185   4.240 -51.854  1.00  0.00    -0.392 OA
ATOM     11  H2  UNL     1       2.949   4.324 -50.937  1.00  0.00     0.210 HD
ENDBRANCH   2  10
TORSDOF 2
ENDMDL
