MODEL 1
REMARK VINA RESULT: -4.564299752      0.000      0.000
REMARK  2 active torsions:
REMARK  status: ('A' for Active; 'I' for Inactive)
REMARK    1  A    between atoms: C2_3  and  O1_4 
REMARK    2  A    between atoms: C4_7  and  O2_8 
ROOT
HETATM    1  C1  UNL     1       1.161   1.489 -55.049  1.00  0.00     0.316 C 
HETATM    2  N1  UNL     1       2.035   2.148 -54.078  1.00  0.00     0.142 N 
HETATM    3  C2  UNL     1       1.377   3.133 -53.252  1.00  0.00     0.370 C 
HETATM    4  C3  UNL     1       2.018   2.510 -52.046  1.00  0.00     0.135 C 
HETATM    5  C4  UNL     1       3.396   2.956 -51.716  1.00  0.00     0.154 C 
HETATM    6  C5  UNL     1       4.300   1.985 -52.412  1.00  0.00     0.203 C 
HETATM    7  O3  UNL     1       3.533   0.892 -52.770  1.00  0.00    -0.354 OA
HETATM    8  C6  UNL     1       2.230   1.315 -52.929  1.00  0.00     0.372 C 
ENDROOT
BRANCH   3   9
HETATM    9  O1  UNL     1       1.696   4.450 -53.505  1.00  0.00    -0.367 OA
ATOM     10  H1  UNL     1       2.502   4.769 -53.116  1.00  0.00     0.212 HD
ENDBRANCH   3   9
BRANCH   5  11
HETATM   11  O2  UNL     1       3.657   4.284 -52.048  1.00  0.00    -0.393 OA
ATOM     12  H2  UNL     1       3.006   4.898 -51.728  1.00  0.00     0.210 HD
ENDBRANCH   5  11
TORSDOF 2
ENDMDL
MODEL 2
REMARK VINA RESULT: -4.352962109      1.692      3.028
REMARK  2 active torsions:
REMARK  status: ('A' for Active; 'I' for Inactive)
REMARK    1  A    between atoms: C2_3  and  O1_4 
REMARK    2  A    between atoms: C4_7  and  O2_8 
ROOT
HETATM    1  C1  UNL     1       2.266   2.622 -49.834  1.00  0.00     0.316 C 
HETATM    2  N1  UNL     1       2.290   2.913 -51.269  1.00  0.00     0.142 N 
HETATM    3  C2  UNL     1       3.603   2.861 -51.867  1.00  0.00     0.370 C 
HETATM    4  C3  UNL     1       3.037   2.015 -52.971  1.00  0.00     0.135 C 
HETATM    5  C4  UNL     1       2.401   2.733 -54.103  1.00  0.00     0.154 C 
HETATM    6  C5  UNL     1       0.949   2.827 -53.744  1.00  0.00     0.203 C 
HETATM    7  O3  UNL     1       0.721   1.929 -52.716  1.00  0.00    -0.354 OA
HETATM    8  C6  UNL     1       1.900   1.760 -52.024  1.00  0.00     0.372 C 
ENDROOT
BRANCH   3   9
HETATM    9  O1  UNL     1       4.150   4.071 -52.240  1.00  0.00    -0.367 OA
ATOM     10  H1  UNL     1       3.739   4.507 -52.978  1.00  0.00     0.212 HD
ENDBRANCH   3   9
BRANCH   5  11
HETATM   11  O2  UNL     1       2.977   3.970 -54.387  1.00  0.00    -0.393 OA
ATOM     12  H2  UNL     1       2.482   4.495 -55.005  1.00  0.00     0.210 HD
ENDBRANCH   5  11
TORSDOF 2
ENDMDL
MODEL 3
REMARK VINA RESULT: -4.270677111      1.582      2.480
REMARK  2 active torsions:
REMARK  status: ('A' for Active; 'I' for Inactive)
REMARK    1  A    between atoms: C2_3  and  O1_4 
REMARK    2  A    between atoms: C4_7  and  O2_8 
ROOT
HETATM    1  C1  UNL     1       4.888   0.196 -53.657  1.00  0.00     0.316 C 
HETATM    2  N1  UNL     1       4.137   1.327 -53.108  1.00  0.00     0.142 N 
HETATM    3  C2  UNL     1       4.309   2.565 -53.831  1.00  0.00     0.370 C 
HETATM    4  C3  UNL     1       2.818   2.743 -53.825  1.00  0.00     0.135 C 
HETATM    5  C4  UNL     1       2.225   3.372 -52.618  1.00  0.00     0.154 C 
HETATM    6  C5  UNL     1       1.860   2.230 -51.719  1.00  0.00     0.203 C 
HETATM    7  O3  UNL     1       1.883   1.079 -52.486  1.00  0.00    -0.354 OA
HETATM    8  C6  UNL     1       2.768   1.273 -53.525  1.00  0.00     0.372 C 
ENDROOT
BRANCH   3   9
HETATM    9  O1  UNL     1       5.046   3.543 -53.195  1.00  0.00    -0.367 OA
ATOM     10  H1  UNL     1       5.684   4.001 -53.730  1.00  0.00     0.212 HD
ENDBRANCH   3   9
BRANCH   5  11
HETATM   11  O2  UNL     1       3.050   4.312 -52.004  1.00  0.00    -0.393 OA
ATOM     12  H2  UNL     1       3.978   4.134 -52.101  1.00  0.00     0.210 HD
ENDBRANCH   5  11
TORSDOF 2
ENDMDL
MODEL 4
REMARK VINA RESULT: -4.220254142      1.345      1.935
REMARK  2 active torsions:
REMARK  status: ('A' for Active; 'I' for Inactive)
REMARK    1  A    between atoms: C2_3  and  O1_4 
REMARK    2  A    between atoms: C4_7  and  O2_8 
ROOT
HETATM    1  C1  UNL     1       0.798   1.886 -52.686  1.00  0.00     0.316 C 
HETATM    2  N1  UNL     1       2.154   2.308 -53.041  1.00  0.00     0.142 N 
HETATM    3  C2  UNL     1       2.902   2.894 -51.953  1.00  0.00     0.370 C 
HETATM    4  C3  UNL     1       4.061   2.008 -52.309  1.00  0.00     0.135 C 
HETATM    5  C4  UNL     1       4.971   2.494 -53.376  1.00  0.00     0.154 C 
HETATM    6  C5  UNL     1       4.433   1.911 -54.648  1.00  0.00     0.203 C 
HETATM    7  O3  UNL     1       3.556   0.900 -54.298  1.00  0.00    -0.354 OA
HETATM    8  C6  UNL     1       3.046   1.187 -53.050  1.00  0.00     0.372 C 
ENDROOT
BRANCH   3   9
HETATM    9  O1  UNL     1       3.123   4.253 -52.030  1.00  0.00    -0.367 OA
ATOM     10  H1  UNL     1       3.432   4.673 -51.235  1.00  0.00     0.212 HD
ENDBRANCH   3   9
BRANCH   5  11
HETATM   11  O2  UNL     1       5.103   3.880 -53.421  1.00  0.00    -0.393 OA
ATOM     12  H2  UNL     1       5.062   4.301 -52.571  1.00  0.00     0.210 HD
ENDBRANCH   5  11
TORSDOF 2
ENDMDL
MODEL 5
REMARK VINA RESULT: -4.152685474      2.018      3.133
REMARK  2 active torsions:
REMARK  status: ('A' for Active; 'I' for Inactive)
REMARK    1  A    between atoms: C2_3  and  O1_4 
REMARK    2  A    between atoms: C4_7  and  O2_8 
ROOT
HETATM    1  C1  UNL     1       5.112   0.885 -53.749  1.00  0.00     0.316 C 
HETATM    2  N1  UNL     1       4.235   1.370 -52.682  1.00  0.00     0.142 N 
HETATM    3  C2  UNL     1       4.893   2.198 -51.698  1.00  0.00     0.370 C 
HETATM    4  C3  UNL     1       3.776   3.192 -51.828  1.00  0.00     0.135 C 
HETATM    5  C4  UNL     1       2.563   2.946 -51.009  1.00  0.00     0.154 C 
HETATM    6  C5  UNL     1       1.648   2.150 -51.889  1.00  0.00     0.203 C 
HETATM    7  O3  UNL     1       2.120   2.266 -53.185  1.00  0.00    -0.354 OA
HETATM    8  C6  UNL     1       3.477   2.501 -53.127  1.00  0.00     0.372 C 
ENDROOT
BRANCH   3   9
HETATM    9  O1  UNL     1       5.072   1.636 -50.451  1.00  0.00    -0.367 OA
ATOM     10  H1  UNL     1       4.631   2.069 -49.729  1.00  0.00     0.212 HD
ENDBRANCH   3   9
BRANCH   5  11
HETATM   11  O2  UNL     1       2.820   2.330 -49.786  1.00  0.00    -0.393 OA
ATOM     12  H2  UNL     1       3.730   2.090 -49.657  1.00  0.00     0.210 HD
ENDBRANCH   5  11
TORSDOF 2
ENDMDL
