MODEL 1
REMARK VINA RESULT: -3.901331410      0.000      0.000
REMARK  6 active torsions:
REMARK  status: ('A' for Active; 'I' for Inactive)
REMARK    1  A    between atoms: N1_1  and  C1_5 
REMARK    2  A    between atoms: C3_10  and  C4_11 
REMARK    3  A    between atoms: C4_11  and  C5_12 
REMARK    4  A    between atoms: C5_12  and  N3_13 
REMARK    5  A    between atoms: N3_13  and  C6_16 
REMARK    6  A    between atoms: C6_16  and  C7_17 
ROOT
HETATM    1  C5  UNL     1       8.310   9.872  -0.560  1.00  0.00     0.235 C 
ENDROOT
BRANCH   1   2
HETATM    2  C4  UNL     1       8.286  11.235  -1.153  1.00  0.00     0.062 C 
BRANCH   2   3
HETATM    3  C3  UNL     1       9.363  11.464  -2.181  1.00  0.00     0.219 C 
HETATM    4  C1  UNL     1      10.492  12.359  -1.707  1.00  0.00     0.239 C 
HETATM    5  C2  UNL     1      11.318  11.448  -2.612  1.00  0.00     0.267 C 
HETATM    6  N2  UNL     1      10.365  10.390  -2.236  1.00  0.00    -0.067 N 
ATOM      7  H22 UNL     1      10.231   9.557  -2.810  1.00  0.00     0.277 HD
ATOM      8  H21 UNL     1      10.533   9.769  -1.445  1.00  0.00     0.277 HD
BRANCH   4   9
HETATM    9  N1  UNL     1      10.367  13.708  -2.140  1.00  0.00    -0.071 N 
ATOM     10  H13 UNL     1      10.879  14.324  -1.509  1.00  0.00     0.274 HD
ATOM     11  H12 UNL     1      10.895  13.848  -3.001  1.00  0.00     0.274 HD
ATOM     12  H11 UNL     1       9.412  14.047  -2.259  1.00  0.00     0.274 HD
ENDBRANCH   4   9
ENDBRANCH   2   3
ENDBRANCH   1   2
BRANCH   1  13
HETATM   13  N3  UNL     1       8.611   9.966   0.850  1.00  0.00    -0.070 N 
ATOM     14  H32 UNL     1       8.135  10.766   1.268  1.00  0.00     0.277 HD
ATOM     15  H31 UNL     1       8.160   9.211   1.367  1.00  0.00     0.277 HD
BRANCH  13  16
HETATM   16  C6  UNL     1      10.023  10.008   1.138  1.00  0.00     0.290 C 
BRANCH  16  17
HETATM   17  C7  UNL     1      10.556   8.636   0.956  1.00  0.00     0.051 A 
HETATM   18  C8  UNL     1      10.111   7.509   1.597  1.00  0.00     0.115 A 
HETATM   19  N4  UNL     1      10.861   6.473   1.139  1.00  0.00    -0.360 N 
HETATM   20  C9  UNL     1      11.744   6.926   0.247  1.00  0.00     0.180 A 
ATOM     21  H4  UNL     1      10.765   5.500   1.432  1.00  0.00     0.166 HD
HETATM   22  N5  UNL     1      11.541   8.266   0.145  1.00  0.00    -0.353 N 
ATOM     23  H5  UNL     1      12.067   8.894  -0.464  1.00  0.00     0.166 HD
ENDBRANCH  16  17
ENDBRANCH  13  16
ENDBRANCH   1  13
TORSDOF 6
ENDMDL
MODEL 2
REMARK VINA RESULT: -3.788707308      1.037      1.601
REMARK  6 active torsions:
REMARK  status: ('A' for Active; 'I' for Inactive)
REMARK    1  A    between atoms: N1_1  and  C1_5 
REMARK    2  A    between atoms: C3_10  and  C4_11 
REMARK    3  A    between atoms: C4_11  and  C5_12 
REMARK    4  A    between atoms: C5_12  and  N3_13 
REMARK    5  A    between atoms: N3_13  and  C6_16 
REMARK    6  A    between atoms: C6_16  and  C7_17 
ROOT
HETATM    1  C5  UNL     1       8.250  11.272  -0.757  1.00  0.00     0.235 C 
ENDROOT
BRANCH   1   2
HETATM    2  C4  UNL     1       9.021  11.748  -1.936  1.00  0.00     0.062 C 
BRANCH   2   3
HETATM    3  C3  UNL     1      10.176  12.647  -1.579  1.00  0.00     0.219 C 
HETATM    4  C1  UNL     1      11.539  12.055  -1.883  1.00  0.00     0.239 C 
HETATM    5  C2  UNL     1      11.883  13.516  -2.163  1.00  0.00     0.267 C 
HETATM    6  N2  UNL     1      10.486  13.646  -2.612  1.00  0.00    -0.067 N 
ATOM      7  H22 UNL     1      10.013  14.550  -2.646  1.00  0.00     0.277 HD
ATOM      8  H21 UNL     1      10.218  13.514  -3.587  1.00  0.00     0.277 HD
BRANCH   4   9
HETATM    9  N1  UNL     1      12.173  11.480  -0.748  1.00  0.00    -0.071 N 
ATOM     10  H13 UNL     1      11.491  11.340  -0.002  1.00  0.00     0.274 HD
ATOM     11  H12 UNL     1      12.428  10.511  -0.944  1.00  0.00     0.274 HD
ATOM     12  H11 UNL     1      12.982  11.987  -0.389  1.00  0.00     0.274 HD
ENDBRANCH   4   9
ENDBRANCH   2   3
ENDBRANCH   1   2
BRANCH   1  13
HETATM   13  N3  UNL     1       8.625   9.909  -0.457  1.00  0.00    -0.070 N 
ATOM     14  H32 UNL     1       7.811   9.296  -0.492  1.00  0.00     0.277 HD
ATOM     15  H31 UNL     1       9.173   9.509  -1.219  1.00  0.00     0.277 HD
BRANCH  13  16
HETATM   16  C6  UNL     1       9.318   9.763   0.799  1.00  0.00     0.290 C 
BRANCH  16  17
HETATM   17  C7  UNL     1      10.149   8.539   0.711  1.00  0.00     0.051 A 
HETATM   18  C8  UNL     1      10.115   7.479   1.579  1.00  0.00     0.115 A 
HETATM   19  N4  UNL     1      11.025   6.574   1.133  1.00  0.00    -0.360 N 
HETATM   20  C9  UNL     1      11.611   7.042   0.029  1.00  0.00     0.180 A 
ATOM     21  H4  UNL     1      11.228   5.676   1.574  1.00  0.00     0.166 HD
HETATM   22  N5  UNL     1      11.057   8.259  -0.218  1.00  0.00    -0.353 N 
ATOM     23  H5  UNL     1      11.302   8.866  -1.001  1.00  0.00     0.166 HD
ENDBRANCH  16  17
ENDBRANCH  13  16
ENDBRANCH   1  13
TORSDOF 6
ENDMDL
MODEL 3
REMARK VINA RESULT: -3.739969660      1.267      1.827
REMARK  6 active torsions:
REMARK  status: ('A' for Active; 'I' for Inactive)
REMARK    1  A    between atoms: N1_1  and  C1_5 
REMARK    2  A    between atoms: C3_10  and  C4_11 
REMARK    3  A    between atoms: C4_11  and  C5_12 
REMARK    4  A    between atoms: C5_12  and  N3_13 
REMARK    5  A    between atoms: N3_13  and  C6_16 
REMARK    6  A    between atoms: C6_16  and  C7_17 
ROOT
HETATM    1  C5  UNL     1       8.445  10.388   0.337  1.00  0.00     0.235 C 
ENDROOT
BRANCH   1   2
HETATM    2  C4  UNL     1       8.314  11.846   0.080  1.00  0.00     0.062 C 
BRANCH   2   3
HETATM    3  C3  UNL     1       9.558  12.472  -0.496  1.00  0.00     0.219 C 
HETATM    4  C1  UNL     1       9.612  12.463  -2.011  1.00  0.00     0.239 C 
HETATM    5  C2  UNL     1      10.347  13.783  -1.788  1.00  0.00     0.267 C 
HETATM    6  N2  UNL     1       9.486  13.936  -0.602  1.00  0.00    -0.067 N 
ATOM      7  H22 UNL     1       9.743  14.546   0.174  1.00  0.00     0.277 HD
ATOM      8  H21 UNL     1       8.595  14.430  -0.643  1.00  0.00     0.277 HD
BRANCH   4   9
HETATM    9  N1  UNL     1      10.397  11.404  -2.544  1.00  0.00    -0.071 N 
ATOM     10  H13 UNL     1      10.932  10.958  -1.798  1.00  0.00     0.274 HD
ATOM     11  H12 UNL     1       9.794  10.630  -2.823  1.00  0.00     0.274 HD
ATOM     12  H11 UNL     1      11.017  11.657  -3.314  1.00  0.00     0.274 HD
ENDBRANCH   4   9
ENDBRANCH   2   3
ENDBRANCH   1   2
BRANCH   1  13
HETATM   13  N3  UNL     1       9.711  10.126   0.984  1.00  0.00    -0.070 N 
ATOM     14  H32 UNL     1      10.485  10.293   0.341  1.00  0.00     0.277 HD
ATOM     15  H31 UNL     1       9.913  10.841   1.684  1.00  0.00     0.277 HD
BRANCH  13  16
HETATM   16  C6  UNL     1       9.803   8.808   1.561  1.00  0.00     0.290 C 
BRANCH  16  17
HETATM   17  C7  UNL     1      10.704   8.006   0.699  1.00  0.00     0.051 A 
HETATM   18  C8  UNL     1      11.174   6.749   0.976  1.00  0.00     0.115 A 
HETATM   19  N4  UNL     1      11.956   6.379  -0.071  1.00  0.00    -0.360 N 
HETATM   20  C9  UNL     1      11.980   7.362  -0.974  1.00  0.00     0.180 A 
ATOM     21  H4  UNL     1      12.449   5.489  -0.155  1.00  0.00     0.166 HD
HETATM   22  N5  UNL     1      11.199   8.360  -0.483  1.00  0.00    -0.353 N 
ATOM     23  H5  UNL     1      11.021   9.249  -0.951  1.00  0.00     0.166 HD
ENDBRANCH  16  17
ENDBRANCH  13  16
ENDBRANCH   1  13
TORSDOF 6
ENDMDL
MODEL 4
REMARK VINA RESULT: -3.697609759      1.416      2.524
REMARK  6 active torsions:
REMARK  status: ('A' for Active; 'I' for Inactive)
REMARK    1  A    between atoms: N1_1  and  C1_5 
REMARK    2  A    between atoms: C3_10  and  C4_11 
REMARK    3  A    between atoms: C4_11  and  C5_12 
REMARK    4  A    between atoms: C5_12  and  N3_13 
REMARK    5  A    between atoms: N3_13  and  C6_16 
REMARK    6  A    between atoms: C6_16  and  C7_17 
ROOT
HETATM    1  C5  UNL     1      11.117  10.423  -2.531  1.00  0.00     0.235 C 
ENDROOT
BRANCH   1   2
HETATM    2  C4  UNL     1       9.681  10.492  -2.155  1.00  0.00     0.062 C 
BRANCH   2   3
HETATM    3  C3  UNL     1       9.251  11.847  -1.657  1.00  0.00     0.219 C 
HETATM    4  C1  UNL     1       9.899  12.262  -0.351  1.00  0.00     0.239 C 
HETATM    5  C2  UNL     1       9.800  13.650  -0.980  1.00  0.00     0.267 C 
HETATM    6  N2  UNL     1       9.991  12.961  -2.268  1.00  0.00    -0.067 N 
ATOM      7  H22 UNL     1       9.701  13.381  -3.151  1.00  0.00     0.277 HD
ATOM      8  H21 UNL     1      10.916  12.833  -2.678  1.00  0.00     0.277 HD
BRANCH   4   9
HETATM    9  N1  UNL     1       9.074  12.041   0.786  1.00  0.00    -0.071 N 
ATOM     10  H13 UNL     1       9.650  11.793   1.591  1.00  0.00     0.274 HD
ATOM     11  H12 UNL     1       8.682  12.926   1.110  1.00  0.00     0.274 HD
ATOM     12  H11 UNL     1       8.330  11.353   0.666  1.00  0.00     0.274 HD
ENDBRANCH   4   9
ENDBRANCH   2   3
ENDBRANCH   1   2
BRANCH   1  13
HETATM   13  N3  UNL     1      11.670   9.163  -2.092  1.00  0.00    -0.070 N 
ATOM     14  H32 UNL     1      10.959   8.431  -2.112  1.00  0.00     0.277 HD
ATOM     15  H31 UNL     1      12.316   8.791  -2.788  1.00  0.00     0.277 HD
BRANCH  13  16
HETATM   16  C6  UNL     1      12.298   9.227  -0.796  1.00  0.00     0.290 C 
BRANCH  16  17
HETATM   17  C7  UNL     1      11.565   8.303   0.102  1.00  0.00     0.051 A 
HETATM   18  C8  UNL     1      11.782   6.954   0.219  1.00  0.00     0.115 A 
HETATM   19  N4  UNL     1      10.906   6.493   1.149  1.00  0.00    -0.360 N 
HETATM   20  C9  UNL     1      10.166   7.507   1.602  1.00  0.00     0.180 A 
ATOM     21  H4  UNL     1      10.826   5.522   1.454  1.00  0.00     0.166 HD
HETATM   22  N5  UNL     1      10.587   8.620   0.944  1.00  0.00    -0.353 N 
ATOM     23  H5  UNL     1      10.209   9.558   1.078  1.00  0.00     0.166 HD
ENDBRANCH  16  17
ENDBRANCH  13  16
ENDBRANCH   1  13
TORSDOF 6
ENDMDL
MODEL 5
REMARK VINA RESULT: -3.687650372      1.548      2.584
REMARK  6 active torsions:
REMARK  status: ('A' for Active; 'I' for Inactive)
REMARK    1  A    between atoms: N1_1  and  C1_5 
REMARK    2  A    between atoms: C3_10  and  C4_11 
REMARK    3  A    between atoms: C4_11  and  C5_12 
REMARK    4  A    between atoms: C5_12  and  N3_13 
REMARK    5  A    between atoms: N3_13  and  C6_16 
REMARK    6  A    between atoms: C6_16  and  C7_17 
ROOT
HETATM    1  C5  UNL     1      10.012  10.951  -2.247  1.00  0.00     0.235 C 
ENDROOT
BRANCH   1   2
HETATM    2  C4  UNL     1       8.837  11.363  -1.434  1.00  0.00     0.062 C 
BRANCH   2   3
HETATM    3  C3  UNL     1       9.129  12.492  -0.480  1.00  0.00     0.219 C 
HETATM    4  C1  UNL     1      10.480  12.394   0.202  1.00  0.00     0.239 C 
HETATM    5  C2  UNL     1      10.406  13.916   0.111  1.00  0.00     0.267 C 
HETATM    6  N2  UNL     1       9.655  13.697  -1.137  1.00  0.00    -0.067 N 
ATOM      7  H22 UNL     1       9.039  14.411  -1.527  1.00  0.00     0.277 HD
ATOM      8  H21 UNL     1      10.118  13.658  -2.045  1.00  0.00     0.277 HD
BRANCH   4   9
HETATM    9  N1  UNL     1      10.413  11.851   1.515  1.00  0.00    -0.071 N 
ATOM     10  H13 UNL     1      11.029  11.040   1.588  1.00  0.00     0.274 HD
ATOM     11  H12 UNL     1      10.865  12.483   2.176  1.00  0.00     0.274 HD
ATOM     12  H11 UNL     1       9.479  11.610   1.847  1.00  0.00     0.274 HD
ENDBRANCH   4   9
ENDBRANCH   2   3
ENDBRANCH   1   2
BRANCH   1  13
HETATM   13  N3  UNL     1      10.226   9.530  -2.096  1.00  0.00    -0.070 N 
ATOM     14  H32 UNL     1       9.438   9.096  -1.617  1.00  0.00     0.277 HD
ATOM     15  H31 UNL     1      10.159   9.058  -2.998  1.00  0.00     0.277 HD
BRANCH  13  16
HETATM   16  C6  UNL     1      11.467   9.199  -1.440  1.00  0.00     0.290 C 
BRANCH  16  17
HETATM   17  C7  UNL     1      11.150   8.271  -0.329  1.00  0.00     0.051 A 
HETATM   18  C8  UNL     1      11.712   7.037  -0.125  1.00  0.00     0.115 A 
HETATM   19  N4  UNL     1      11.149   6.527   1.000  1.00  0.00    -0.360 N 
HETATM   20  C9  UNL     1      10.267   7.401   1.489  1.00  0.00     0.180 A 
ATOM     21  H4  UNL     1      11.367   5.617   1.409  1.00  0.00     0.166 HD
HETATM   22  N5  UNL     1      10.280   8.474   0.655  1.00  0.00    -0.353 N 
ATOM     23  H5  UNL     1       9.707   9.311   0.768  1.00  0.00     0.166 HD
ENDBRANCH  16  17
ENDBRANCH  13  16
ENDBRANCH   1  13
TORSDOF 6
ENDMDL
