MODEL 1
REMARK VINA RESULT: -3.609567158      0.000      0.000
REMARK  6 active torsions:
REMARK  status: ('A' for Active; 'I' for Inactive)
REMARK    1  A    between atoms: C1_4  and  C2_5 
REMARK    2  A    between atoms: C2_5  and  N2_6 
REMARK    3  A    between atoms: N2_6  and  C3_9 
REMARK    4  A    between atoms: N3_12  and  C6_13 
REMARK    5  A    between atoms: C6_13  and  C7_14 
REMARK    6  A    between atoms: C7_14  and  N4_15 
ROOT
HETATM    1  C3  UNL     1       9.886  10.106  -0.416  1.00  0.00     0.195 C 
HETATM    2  C4  UNL     1       8.557  10.464   0.225  1.00  0.00     0.078 C 
HETATM    3  C5  UNL     1       8.511  11.980   0.272  1.00  0.00     0.070 C 
HETATM    4  N3  UNL     1       8.989  12.553  -0.908  1.00  0.00    -0.353 N 
HETATM    5  C8  UNL     1       9.226  11.786  -2.058  1.00  0.00     0.070 C 
HETATM    6  C9  UNL     1       9.784  10.400  -1.864  1.00  0.00     0.078 C 
ENDROOT
BRANCH   1   7
HETATM    7  N2  UNL     1      10.324   8.783  -0.067  1.00  0.00    -0.066 N 
ATOM      8  H22 UNL     1      11.329   8.682  -0.215  1.00  0.00     0.278 HD
ATOM      9  H21 UNL     1       9.985   8.098  -0.742  1.00  0.00     0.278 HD
BRANCH   7  10
HETATM   10  C2  UNL     1       9.965   8.402   1.273  1.00  0.00     0.276 C 
BRANCH  10  11
HETATM   11  C1  UNL     1      10.535   7.100   1.642  1.00  0.00     0.080 C 
HETATM   12  N1  UNL     1      11.209   6.341   0.872  1.00  0.00    -0.410 N 
ATOM     13  H12 UNL     1      11.355   6.681  -0.078  1.00  0.00     0.155 HD
ATOM     14  H11 UNL     1      11.606   5.437   1.128  1.00  0.00     0.155 HD
ENDBRANCH  10  11
ENDBRANCH   7  10
ENDBRANCH   1   7
BRANCH   4  15
HETATM   15  C6  UNL     1       9.651  13.792  -0.886  1.00  0.00     0.095 C 
BRANCH  15  16
HETATM   16  C7  UNL     1      10.484  14.091  -2.110  1.00  0.00     0.274 C 
BRANCH  16  17
HETATM   17  N4  UNL     1      10.526  15.523  -2.338  1.00  0.00    -0.075 N 
ATOM     18  H43 UNL     1      10.253  15.768  -3.290  1.00  0.00     0.274 HD
ATOM     19  H42 UNL     1       9.781  16.013  -1.841  1.00  0.00     0.274 HD
ATOM     20  H41 UNL     1      11.449  15.885  -2.098  1.00  0.00     0.274 HD
ENDBRANCH  16  17
ENDBRANCH  15  16
ENDBRANCH   4  15
TORSDOF 6
ENDMDL
MODEL 2
REMARK VINA RESULT: -3.559757081      1.048      5.948
REMARK  6 active torsions:
REMARK  status: ('A' for Active; 'I' for Inactive)
REMARK    1  A    between atoms: C1_4  and  C2_5 
REMARK    2  A    between atoms: C2_5  and  N2_6 
REMARK    3  A    between atoms: N2_6  and  C3_9 
REMARK    4  A    between atoms: N3_12  and  C6_13 
REMARK    5  A    between atoms: C6_13  and  C7_14 
REMARK    6  A    between atoms: C7_14  and  N4_15 
ROOT
HETATM    1  C3  UNL     1       9.784  11.448  -1.488  1.00  0.00     0.195 C 
HETATM    2  C4  UNL     1      10.241  10.240  -2.287  1.00  0.00     0.078 C 
HETATM    3  C5  UNL     1      10.744   9.233  -1.271  1.00  0.00     0.070 C 
HETATM    4  N3  UNL     1       9.910   9.160  -0.152  1.00  0.00    -0.353 N 
HETATM    5  C8  UNL     1       8.646   9.767  -0.134  1.00  0.00     0.070 C 
HETATM    6  C9  UNL     1       8.505  11.096  -0.829  1.00  0.00     0.078 C 
ENDROOT
BRANCH   1   7
HETATM    7  N2  UNL     1       9.784  12.654  -2.269  1.00  0.00    -0.066 N 
ATOM      8  H22 UNL     1       8.983  13.240  -2.033  1.00  0.00     0.278 HD
ATOM      9  H21 UNL     1       9.566  12.455  -3.245  1.00  0.00     0.278 HD
BRANCH   7  10
HETATM   10  C2  UNL     1      11.011  13.399  -2.161  1.00  0.00     0.276 C 
BRANCH  10  11
HETATM   11  C1  UNL     1      10.805  14.828  -2.424  1.00  0.00     0.080 C 
HETATM   12  N1  UNL     1      10.004  15.591  -1.792  1.00  0.00    -0.410 N 
ATOM     13  H12 UNL     1       9.467  15.156  -1.043  1.00  0.00     0.155 HD
ATOM     14  H11 UNL     1       9.861  16.585  -1.975  1.00  0.00     0.155 HD
ENDBRANCH  10  11
ENDBRANCH   7  10
ENDBRANCH   1   7
BRANCH   4  15
HETATM   15  C6  UNL     1      10.438   8.869   1.117  1.00  0.00     0.095 C 
BRANCH  15  16
HETATM   16  C7  UNL     1      10.067   7.512   1.666  1.00  0.00     0.274 C 
BRANCH  16  17
HETATM   17  N4  UNL     1      10.952   6.501   1.118  1.00  0.00    -0.075 N 
ATOM     18  H43 UNL     1      11.414   6.817   0.266  1.00  0.00     0.274 HD
ATOM     19  H42 UNL     1      11.784   6.367   1.695  1.00  0.00     0.274 HD
ATOM     20  H41 UNL     1      10.439   5.632   0.976  1.00  0.00     0.274 HD
ENDBRANCH  16  17
ENDBRANCH  15  16
ENDBRANCH   4  15
TORSDOF 6
ENDMDL
MODEL 3
REMARK VINA RESULT: -3.556322087      2.407      5.377
REMARK  6 active torsions:
REMARK  status: ('A' for Active; 'I' for Inactive)
REMARK    1  A    between atoms: C1_4  and  C2_5 
REMARK    2  A    between atoms: C2_5  and  N2_6 
REMARK    3  A    between atoms: N2_6  and  C3_9 
REMARK    4  A    between atoms: N3_12  and  C6_13 
REMARK    5  A    between atoms: C6_13  and  C7_14 
REMARK    6  A    between atoms: C7_14  and  N4_15 
ROOT
HETATM    1  C3  UNL     1      10.077   9.123   0.965  1.00  0.00     0.195 C 
HETATM    2  C4  UNL     1      10.103   7.801   1.712  1.00  0.00     0.078 C 
HETATM    3  C5  UNL     1      11.113   6.932   0.988  1.00  0.00     0.070 C 
HETATM    4  N3  UNL     1      12.257   7.650   0.629  1.00  0.00    -0.353 N 
HETATM    5  C8  UNL     1      12.504   8.938   1.125  1.00  0.00     0.070 C 
HETATM    6  C9  UNL     1      11.322   9.854   1.297  1.00  0.00     0.078 C 
ENDROOT
BRANCH   1   7
HETATM    7  N2  UNL     1       8.847   9.841   1.163  1.00  0.00    -0.066 N 
ATOM      8  H22 UNL     1       8.921  10.476   1.958  1.00  0.00     0.278 HD
ATOM      9  H21 UNL     1       8.117   9.220   1.511  1.00  0.00     0.278 HD
BRANCH   7  10
HETATM   10  C2  UNL     1       8.405  10.542  -0.013  1.00  0.00     0.276 C 
BRANCH  10  11
HETATM   11  C1  UNL     1       8.426  11.997   0.181  1.00  0.00     0.080 C 
HETATM   12  N1  UNL     1       7.927  12.621   1.172  1.00  0.00    -0.410 N 
ATOM     13  H12 UNL     1       7.477  12.045   1.884  1.00  0.00     0.155 HD
ATOM     14  H11 UNL     1       7.941  13.632   1.307  1.00  0.00     0.155 HD
ENDBRANCH  10  11
ENDBRANCH   7  10
ENDBRANCH   1   7
BRANCH   4  15
HETATM   15  C6  UNL     1      12.970   7.325  -0.536  1.00  0.00     0.095 C 
BRANCH  15  16
HETATM   16  C7  UNL     1      12.123   7.152  -1.775  1.00  0.00     0.274 C 
BRANCH  16  17
HETATM   17  N4  UNL     1      11.752   8.452  -2.302  1.00  0.00    -0.075 N 
ATOM     18  H43 UNL     1      10.867   8.783  -1.919  1.00  0.00     0.274 HD
ATOM     19  H42 UNL     1      12.354   9.196  -1.947  1.00  0.00     0.274 HD
ATOM     20  H41 UNL     1      11.741   8.421  -3.321  1.00  0.00     0.274 HD
ENDBRANCH  16  17
ENDBRANCH  15  16
ENDBRANCH   4  15
TORSDOF 6
ENDMDL
MODEL 4
REMARK VINA RESULT: -3.538732822      2.146      5.425
REMARK  6 active torsions:
REMARK  status: ('A' for Active; 'I' for Inactive)
REMARK    1  A    between atoms: C1_4  and  C2_5 
REMARK    2  A    between atoms: C2_5  and  N2_6 
REMARK    3  A    between atoms: N2_6  and  C3_9 
REMARK    4  A    between atoms: N3_12  and  C6_13 
REMARK    5  A    between atoms: C6_13  and  C7_14 
REMARK    6  A    between atoms: C7_14  and  N4_15 
ROOT
HETATM    1  C3  UNL     1       9.836   9.127   0.895  1.00  0.00     0.195 C 
HETATM    2  C4  UNL     1       9.806   7.964   1.871  1.00  0.00     0.078 C 
HETATM    3  C5  UNL     1      10.724   6.906   1.289  1.00  0.00     0.070 C 
HETATM    4  N3  UNL     1      11.896   7.461   0.770  1.00  0.00    -0.353 N 
HETATM    5  C8  UNL     1      12.251   8.796   1.014  1.00  0.00     0.070 C 
HETATM    6  C9  UNL     1      11.140   9.813   1.049  1.00  0.00     0.078 C 
ENDROOT
BRANCH   1   7
HETATM    7  N2  UNL     1       8.667   9.957   0.995  1.00  0.00    -0.066 N 
ATOM      8  H22 UNL     1       8.399  10.091   1.970  1.00  0.00     0.278 HD
ATOM      9  H21 UNL     1       7.841   9.462   0.659  1.00  0.00     0.278 HD
BRANCH   7  10
HETATM   10  C2  UNL     1       8.812  11.222   0.325  1.00  0.00     0.276 C 
BRANCH  10  11
HETATM   11  C1  UNL     1       8.367  11.153  -1.072  1.00  0.00     0.080 C 
HETATM   12  N1  UNL     1       8.987  11.639  -2.073  1.00  0.00    -0.410 N 
ATOM     13  H12 UNL     1       9.866  12.114  -1.869  1.00  0.00     0.155 HD
ATOM     14  H11 UNL     1       8.678  11.591  -3.044  1.00  0.00     0.155 HD
ENDBRANCH  10  11
ENDBRANCH   7  10
ENDBRANCH   1   7
BRANCH   4  15
HETATM   15  C6  UNL     1      12.536   6.879  -0.336  1.00  0.00     0.095 C 
BRANCH  15  16
HETATM   16  C7  UNL     1      12.041   7.355  -1.682  1.00  0.00     0.274 C 
BRANCH  16  17
HETATM   17  N4  UNL     1      13.151   7.443  -2.611  1.00  0.00    -0.075 N 
ATOM     18  H43 UNL     1      13.279   6.580  -3.139  1.00  0.00     0.274 HD
ATOM     19  H42 UNL     1      12.948   8.066  -3.394  1.00  0.00     0.274 HD
ATOM     20  H41 UNL     1      13.998   7.717  -2.113  1.00  0.00     0.274 HD
ENDBRANCH  16  17
ENDBRANCH  15  16
ENDBRANCH   4  15
TORSDOF 6
ENDMDL
MODEL 5
REMARK VINA RESULT: -3.522977768      1.398      1.519
REMARK  6 active torsions:
REMARK  status: ('A' for Active; 'I' for Inactive)
REMARK    1  A    between atoms: C1_4  and  C2_5 
REMARK    2  A    between atoms: C2_5  and  N2_6 
REMARK    3  A    between atoms: N2_6  and  C3_9 
REMARK    4  A    between atoms: N3_12  and  C6_13 
REMARK    5  A    between atoms: C6_13  and  C7_14 
REMARK    6  A    between atoms: C7_14  and  N4_15 
ROOT
HETATM    1  C3  UNL     1       9.658   9.781  -0.084  1.00  0.00     0.195 C 
HETATM    2  C4  UNL     1       8.250   9.967  -0.622  1.00  0.00     0.078 C 
HETATM    3  C5  UNL     1       8.208  11.366  -1.209  1.00  0.00     0.070 C 
HETATM    4  N3  UNL     1       9.366  11.663  -1.932  1.00  0.00    -0.353 N 
HETATM    5  C8  UNL     1      10.303  10.673  -2.262  1.00  0.00     0.070 C 
HETATM    6  C9  UNL     1      10.563   9.595  -1.243  1.00  0.00     0.078 C 
ENDROOT
BRANCH   1   7
HETATM    7  N2  UNL     1       9.726   8.777   0.941  1.00  0.00    -0.066 N 
ATOM      8  H22 UNL     1       9.109   7.995   0.724  1.00  0.00     0.278 HD
ATOM      9  H21 UNL     1       9.285   9.106   1.800  1.00  0.00     0.278 HD
BRANCH   7  10
HETATM   10  C2  UNL     1      11.065   8.317   1.196  1.00  0.00     0.276 C 
BRANCH  10  11
HETATM   11  C1  UNL     1      11.179   6.862   1.046  1.00  0.00     0.080 C 
HETATM   12  N1  UNL     1      11.829   6.259   0.131  1.00  0.00    -0.410 N 
ATOM     13  H12 UNL     1      12.306   6.854  -0.547  1.00  0.00     0.155 HD
ATOM     14  H11 UNL     1      11.909   5.247   0.026  1.00  0.00     0.155 HD
ENDBRANCH  10  11
ENDBRANCH   7  10
ENDBRANCH   1   7
BRANCH   4  15
HETATM   15  C6  UNL     1       9.860  12.976  -1.985  1.00  0.00     0.095 C 
BRANCH  15  16
HETATM   16  C7  UNL     1       9.784  13.739  -0.683  1.00  0.00     0.274 C 
BRANCH  16  17
HETATM   17  N4  UNL     1      10.902  13.375   0.166  1.00  0.00    -0.075 N 
ATOM     18  H43 UNL     1      10.779  13.703   1.124  1.00  0.00     0.274 HD
ATOM     19  H42 UNL     1      10.929  12.373   0.356  1.00  0.00     0.274 HD
ATOM     20  H41 UNL     1      11.772  13.711  -0.246  1.00  0.00     0.274 HD
ENDBRANCH  16  17
ENDBRANCH  15  16
ENDBRANCH   4  15
TORSDOF 6
ENDMDL
