MODEL 1
REMARK VINA RESULT: -5.948931174      0.000      0.000
REMARK  3 active torsions:
REMARK  status: ('A' for Active; 'I' for Inactive)
REMARK       I    between atoms: C1_4  and  N3_6 
REMARK    1  A    between atoms: N3_6  and  O1_8 
REMARK    2  A    between atoms: O1_8  and  C2_9 
REMARK    3  A    between atoms: C2_9  and  C3_10 
ROOT
HETATM    1  C3  UNL     1       5.510 -72.275 -14.029  1.00  0.00     0.020 C 
HETATM    2  C4  UNL     1       4.318 -72.754 -13.266  1.00  0.00    -0.007 C 
HETATM    3  C5  UNL     1       4.630 -72.888 -11.785  1.00  0.00     0.010 C 
HETATM    4  C6  UNL     1       5.788 -73.845 -11.608  1.00  0.00    -0.013 C 
HETATM    5  C7  UNL     1       5.356 -75.194 -12.145  1.00  0.00     0.009 C 
HETATM    6  C8  UNL     1       4.975 -75.095 -13.604  1.00  0.00    -0.013 C 
HETATM    7  C9  UNL     1       3.857 -74.110 -13.742  1.00  0.00     0.010 C 
HETATM    8  C10 UNL     1       6.189 -74.643 -14.364  1.00  0.00     0.010 C 
HETATM    9  C11 UNL     1       6.630 -73.274 -13.868  1.00  0.00    -0.007 C 
HETATM   10  C12 UNL     1       6.996 -73.412 -12.426  1.00  0.00     0.010 C 
ENDROOT
BRANCH   1  11
HETATM   11  C2  UNL     1       5.121 -72.157 -15.484  1.00  0.00     0.206 C 
BRANCH  11  12
HETATM   12  O1  UNL     1       5.292 -70.843 -15.863  1.00  0.00    -0.278 OA
BRANCH  12  13
HETATM   13  N3  UNL     1       4.159 -70.135 -15.870  1.00  0.00    -0.239 N 
HETATM   14  C1  UNL     1       4.202 -68.751 -16.128  1.00  0.00     0.205 C 
HETATM   15  N1  UNL     1       3.661 -68.250 -17.186  1.00  0.00    -0.372 N 
HETATM   16  N2  UNL     1       4.844 -67.837 -15.238  1.00  0.00    -0.062 NA
ATOM     17  H12 UNL     1       3.692 -67.247 -17.373  1.00  0.00     0.158 HD
ATOM     18  H11 UNL     1       3.202 -68.902 -17.822  1.00  0.00     0.158 HD
ATOM     19  H3  UNL     1       3.267 -70.594 -15.689  1.00  0.00     0.197 HD
ENDBRANCH  12  13
ENDBRANCH  11  12
ENDBRANCH   1  11
TORSDOF 3
ENDMDL
MODEL 2
REMARK VINA RESULT: -5.890839623      0.956      1.631
REMARK  3 active torsions:
REMARK  status: ('A' for Active; 'I' for Inactive)
REMARK       I    between atoms: C1_4  and  N3_6 
REMARK    1  A    between atoms: N3_6  and  O1_8 
REMARK    2  A    between atoms: O1_8  and  C2_9 
REMARK    3  A    between atoms: C2_9  and  C3_10 
ROOT
HETATM    1  C3  UNL     1       4.810 -72.847 -14.301  1.00  0.00     0.020 C 
HETATM    2  C4  UNL     1       4.599 -74.326 -14.266  1.00  0.00    -0.007 C 
HETATM    3  C5  UNL     1       3.687 -74.725 -13.118  1.00  0.00     0.010 C 
HETATM    4  C6  UNL     1       4.291 -74.248 -11.816  1.00  0.00    -0.013 C 
HETATM    5  C7  UNL     1       5.626 -74.942 -11.648  1.00  0.00     0.009 C 
HETATM    6  C8  UNL     1       6.548 -74.623 -12.802  1.00  0.00    -0.013 C 
HETATM    7  C9  UNL     1       5.897 -75.072 -14.073  1.00  0.00     0.010 C 
HETATM    8  C10 UNL     1       6.777 -73.139 -12.808  1.00  0.00     0.010 C 
HETATM    9  C11 UNL     1       5.455 -72.412 -13.007  1.00  0.00    -0.007 C 
HETATM   10  C12 UNL     1       4.573 -72.753 -11.850  1.00  0.00     0.010 C 
ENDROOT
BRANCH   1  11
HETATM   11  C2  UNL     1       5.715 -72.529 -15.468  1.00  0.00     0.206 C 
BRANCH  11  12
HETATM   12  O1  UNL     1       4.957 -71.896 -16.431  1.00  0.00    -0.278 OA
BRANCH  12  13
HETATM   13  N3  UNL     1       4.131 -70.968 -15.939  1.00  0.00    -0.239 N 
HETATM   14  C1  UNL     1       4.483 -69.607 -16.017  1.00  0.00     0.205 C 
HETATM   15  N1  UNL     1       3.804 -68.780 -16.737  1.00  0.00    -0.372 N 
HETATM   16  N2  UNL     1       5.604 -69.077 -15.310  1.00  0.00    -0.062 NA
ATOM     17  H12 UNL     1       4.059 -67.794 -16.794  1.00  0.00     0.158 HD
ATOM     18  H11 UNL     1       3.003 -69.158 -17.242  1.00  0.00     0.158 HD
ATOM     19  H3  UNL     1       3.248 -71.245 -15.509  1.00  0.00     0.197 HD
ENDBRANCH  12  13
ENDBRANCH  11  12
ENDBRANCH   1  11
TORSDOF 3
ENDMDL
MODEL 3
REMARK VINA RESULT: -5.846659568      0.834      2.208
REMARK  3 active torsions:
REMARK  status: ('A' for Active; 'I' for Inactive)
REMARK       I    between atoms: C1_4  and  N3_6 
REMARK    1  A    between atoms: N3_6  and  O1_8 
REMARK    2  A    between atoms: O1_8  and  C2_9 
REMARK    3  A    between atoms: C2_9  and  C3_10 
ROOT
HETATM    1  C3  UNL     1       5.535 -73.484 -14.665  1.00  0.00     0.020 C 
HETATM    2  C4  UNL     1       6.659 -74.023 -13.841  1.00  0.00    -0.007 C 
HETATM    3  C5  UNL     1       6.478 -75.507 -13.567  1.00  0.00     0.010 C 
HETATM    4  C6  UNL     1       5.157 -75.723 -12.862  1.00  0.00    -0.013 C 
HETATM    5  C7  UNL     1       5.214 -74.981 -11.543  1.00  0.00     0.009 C 
HETATM    6  C8  UNL     1       5.455 -73.506 -11.764  1.00  0.00    -0.013 C 
HETATM    7  C9  UNL     1       6.748 -73.337 -12.499  1.00  0.00     0.010 C 
HETATM    8  C10 UNL     1       4.305 -72.969 -12.567  1.00  0.00     0.010 C 
HETATM    9  C11 UNL     1       4.240 -73.674 -13.913  1.00  0.00    -0.007 C 
HETATM   10  C12 UNL     1       4.002 -75.126 -13.654  1.00  0.00     0.010 C 
ENDROOT
BRANCH   1  11
HETATM   11  C2  UNL     1       5.790 -72.014 -14.902  1.00  0.00     0.206 C 
BRANCH  11  12
HETATM   12  O1  UNL     1       4.955 -71.598 -15.917  1.00  0.00    -0.278 OA
BRANCH  12  13
HETATM   13  N3  UNL     1       4.161 -70.579 -15.575  1.00  0.00    -0.239 N 
HETATM   14  C1  UNL     1       4.511 -69.266 -15.944  1.00  0.00     0.205 C 
HETATM   15  N1  UNL     1       3.793 -68.589 -16.774  1.00  0.00    -0.372 N 
HETATM   16  N2  UNL     1       5.672 -68.620 -15.421  1.00  0.00    -0.062 NA
ATOM     17  H12 UNL     1       4.047 -67.638 -17.042  1.00  0.00     0.158 HD
ATOM     18  H11 UNL     1       2.963 -69.050 -17.148  1.00  0.00     0.158 HD
ATOM     19  H3  UNL     1       3.304 -70.752 -15.049  1.00  0.00     0.197 HD
ENDBRANCH  12  13
ENDBRANCH  11  12
ENDBRANCH   1  11
TORSDOF 3
ENDMDL
MODEL 4
REMARK VINA RESULT: -5.641677592      1.501      1.684
REMARK  3 active torsions:
REMARK  status: ('A' for Active; 'I' for Inactive)
REMARK       I    between atoms: C1_4  and  N3_6 
REMARK    1  A    between atoms: N3_6  and  O1_8 
REMARK    2  A    between atoms: O1_8  and  C2_9 
REMARK    3  A    between atoms: C2_9  and  C3_10 
ROOT
HETATM    1  C3  UNL     1       5.650 -72.052 -13.655  1.00  0.00     0.020 C 
HETATM    2  C4  UNL     1       4.440 -72.637 -13.001  1.00  0.00    -0.007 C 
HETATM    3  C5  UNL     1       4.747 -73.097 -11.586  1.00  0.00     0.010 C 
HETATM    4  C6  UNL     1       5.867 -74.113 -11.627  1.00  0.00    -0.013 C 
HETATM    5  C7  UNL     1       5.382 -75.298 -12.436  1.00  0.00     0.009 C 
HETATM    6  C8  UNL     1       5.005 -74.876 -13.837  1.00  0.00    -0.013 C 
HETATM    7  C9  UNL     1       3.926 -73.841 -13.752  1.00  0.00     0.010 C 
HETATM    8  C10 UNL     1       6.235 -74.318 -14.494  1.00  0.00     0.010 C 
HETATM    9  C11 UNL     1       6.730 -73.105 -13.721  1.00  0.00    -0.007 C 
HETATM   10  C12 UNL     1       7.091 -73.561 -12.345  1.00  0.00     0.010 C 
ENDROOT
BRANCH   1  11
HETATM   11  C2  UNL     1       5.264 -71.612 -15.048  1.00  0.00     0.206 C 
BRANCH  11  12
HETATM   12  O1  UNL     1       6.175 -70.662 -15.459  1.00  0.00    -0.278 OA
BRANCH  12  13
HETATM   13  N3  UNL     1       6.480 -69.767 -14.514  1.00  0.00    -0.239 N 
HETATM   14  C1  UNL     1       6.991 -68.508 -14.885  1.00  0.00     0.205 C 
HETATM   15  N1  UNL     1       6.327 -67.424 -14.665  1.00  0.00    -0.372 N 
HETATM   16  N2  UNL     1       8.262 -68.367 -15.519  1.00  0.00    -0.062 NA
ATOM     17  H12 UNL     1       6.697 -66.512 -14.934  1.00  0.00     0.158 HD
ATOM     18  H11 UNL     1       5.418 -67.524 -14.212  1.00  0.00     0.158 HD
ATOM     19  H3  UNL     1       6.342 -69.994 -13.530  1.00  0.00     0.197 HD
ENDBRANCH  12  13
ENDBRANCH  11  12
ENDBRANCH   1  11
TORSDOF 3
ENDMDL
MODEL 5
REMARK VINA RESULT: -5.526259167      1.510      2.428
REMARK  3 active torsions:
REMARK  status: ('A' for Active; 'I' for Inactive)
REMARK       I    between atoms: C1_4  and  N3_6 
REMARK    1  A    between atoms: N3_6  and  O1_8 
REMARK    2  A    between atoms: O1_8  and  C2_9 
REMARK    3  A    between atoms: C2_9  and  C3_10 
ROOT
HETATM    1  C3  UNL     1       5.548 -72.784 -14.269  1.00  0.00     0.020 C 
HETATM    2  C4  UNL     1       5.403 -74.261 -14.444  1.00  0.00    -0.007 C 
HETATM    3  C5  UNL     1       4.068 -74.750 -13.906  1.00  0.00     0.010 C 
HETATM    4  C6  UNL     1       3.958 -74.379 -12.444  1.00  0.00    -0.013 C 
HETATM    5  C7  UNL     1       5.075 -75.086 -11.706  1.00  0.00     0.009 C 
HETATM    6  C8  UNL     1       6.424 -74.676 -12.250  1.00  0.00    -0.013 C 
HETATM    7  C9  UNL     1       6.478 -75.020 -13.706  1.00  0.00     0.010 C 
HETATM    8  C10 UNL     1       6.572 -73.196 -12.041  1.00  0.00     0.010 C 
HETATM    9  C11 UNL     1       5.479 -72.455 -12.797  1.00  0.00    -0.007 C 
HETATM   10  C12 UNL     1       4.165 -72.886 -12.233  1.00  0.00     0.010 C 
ENDROOT
BRANCH   1  11
HETATM   11  C2  UNL     1       6.889 -72.374 -14.833  1.00  0.00     0.206 C 
BRANCH  11  12
HETATM   12  O1  UNL     1       6.710 -71.204 -15.540  1.00  0.00    -0.278 OA
BRANCH  12  13
HETATM   13  N3  UNL     1       7.189 -70.123 -14.917  1.00  0.00    -0.239 N 
HETATM   14  C1  UNL     1       6.310 -69.092 -14.532  1.00  0.00     0.205 C 
HETATM   15  N1  UNL     1       6.105 -68.815 -13.289  1.00  0.00    -0.372 N 
HETATM   16  N2  UNL     1       5.604 -68.306 -15.492  1.00  0.00    -0.062 NA
ATOM     17  H12 UNL     1       5.468 -68.069 -13.010  1.00  0.00     0.158 HD
ATOM     18  H11 UNL     1       6.609 -69.377 -12.603  1.00  0.00     0.158 HD
ATOM     19  H3  UNL     1       8.187 -70.045 -14.721  1.00  0.00     0.197 HD
ENDBRANCH  12  13
ENDBRANCH  11  12
ENDBRANCH   1  11
TORSDOF 3
ENDMDL
