MODEL 1
REMARK VINA RESULT: -6.908895604      0.000      0.000
REMARK  3 active torsions:
REMARK  status: ('A' for Active; 'I' for Inactive)
REMARK       I    between atoms: C1_4  and  N2_5 
REMARK       I    between atoms: C1_4  and  N3_13 
REMARK    1  A    between atoms: N2_5  and  C2_7 
REMARK    2  A    between atoms: C2_7  and  C3_8 
REMARK    3  A    between atoms: N3_13  and  C7_15 
ROOT
HETATM    1  N1  UNL     1       7.795 -71.743 -15.794  1.00  0.00    -0.235 N 
ATOM      2  H11 UNL     1       8.451 -70.984 -15.979  1.00  0.00     0.174 HD
ATOM      3  H12 UNL     1       7.866 -72.652 -16.251  1.00  0.00     0.174 HD
HETATM    4  C1  UNL     1       6.852 -71.513 -14.945  1.00  0.00     0.667 C 
HETATM    5  N2  UNL     1       5.939 -72.569 -14.688  1.00  0.00    -0.224 N 
ATOM      6  H2  UNL     1       4.999 -72.350 -14.360  1.00  0.00     0.177 HD
HETATM    7  N3  UNL     1       6.753 -70.251 -14.310  1.00  0.00    -0.222 N 
ATOM      8  H3  UNL     1       7.128 -70.151 -13.367  1.00  0.00     0.178 HD
ENDROOT
BRANCH   5   9
HETATM    9  C2  UNL     1       6.327 -73.972 -14.886  1.00  0.00     0.170 C 
BRANCH   9  10
HETATM   10  C3  UNL     1       5.672 -74.816 -13.817  1.00  0.00     0.139 C 
HETATM   11  C4  UNL     1       4.964 -73.915 -12.863  1.00  0.00     0.035 C 
HETATM   12  C5  UNL     1       3.501 -74.131 -13.248  1.00  0.00     0.029 C 
HETATM   13  C6  UNL     1       3.562 -75.562 -13.767  1.00  0.00     0.168 C 
HETATM   14  O1  UNL     1       4.764 -75.643 -14.419  1.00  0.00    -0.384 OA
ENDBRANCH   9  10
ENDBRANCH   5   9
BRANCH   7  15
HETATM   15  C7  UNL     1       6.147 -69.099 -14.937  1.00  0.00     0.099 C 
HETATM   16  C8  UNL     1       6.051 -67.954 -13.976  1.00  0.00     0.026 C 
HETATM   17  C9  UNL     1       5.208 -66.836 -14.471  1.00  0.00     0.002 C 
HETATM   18  C10 UNL     1       4.698 -66.967 -15.851  1.00  0.00     0.000 C 
HETATM   19  C11 UNL     1       4.233 -68.336 -16.234  1.00  0.00     0.002 C 
HETATM   20  C12 UNL     1       4.703 -69.427 -15.340  1.00  0.00     0.026 C 
ENDBRANCH   7  15
TORSDOF 3
ENDMDL
MODEL 2
REMARK VINA RESULT: -6.724522405      1.141      1.619
REMARK  3 active torsions:
REMARK  status: ('A' for Active; 'I' for Inactive)
REMARK       I    between atoms: C1_4  and  N2_5 
REMARK       I    between atoms: C1_4  and  N3_13 
REMARK    1  A    between atoms: N2_5  and  C2_7 
REMARK    2  A    between atoms: C2_7  and  C3_8 
REMARK    3  A    between atoms: N3_13  and  C7_15 
ROOT
HETATM    1  N1  UNL     1       7.762 -71.753 -15.796  1.00  0.00    -0.235 N 
ATOM      2  H11 UNL     1       8.420 -71.002 -16.003  1.00  0.00     0.174 HD
ATOM      3  H12 UNL     1       7.825 -72.672 -16.234  1.00  0.00     0.174 HD
HETATM    4  C1  UNL     1       6.826 -71.499 -14.946  1.00  0.00     0.667 C 
HETATM    5  N2  UNL     1       5.910 -72.544 -14.658  1.00  0.00    -0.224 N 
ATOM      6  H2  UNL     1       4.974 -72.314 -14.329  1.00  0.00     0.177 HD
HETATM    7  N3  UNL     1       6.738 -70.222 -14.339  1.00  0.00    -0.222 N 
ATOM      8  H3  UNL     1       7.120 -70.103 -13.401  1.00  0.00     0.178 HD
ENDROOT
BRANCH   5   9
HETATM    9  C2  UNL     1       6.289 -73.954 -14.827  1.00  0.00     0.170 C 
BRANCH   9  10
HETATM   10  C3  UNL     1       5.901 -74.717 -13.584  1.00  0.00     0.139 C 
HETATM   11  C4  UNL     1       7.141 -75.207 -12.916  1.00  0.00     0.035 C 
HETATM   12  C5  UNL     1       7.250 -74.265 -11.718  1.00  0.00     0.029 C 
HETATM   13  C6  UNL     1       5.779 -73.943 -11.486  1.00  0.00     0.168 C 
HETATM   14  O1  UNL     1       5.240 -73.863 -12.743  1.00  0.00    -0.384 OA
ENDBRANCH   9  10
ENDBRANCH   5   9
BRANCH   7  15
HETATM   15  C7  UNL     1       6.132 -69.082 -14.988  1.00  0.00     0.099 C 
HETATM   16  C8  UNL     1       6.071 -67.907 -14.061  1.00  0.00     0.026 C 
HETATM   17  C9  UNL     1       5.232 -66.794 -14.571  1.00  0.00     0.002 C 
HETATM   18  C10 UNL     1       4.691 -66.960 -15.936  1.00  0.00     0.000 C 
HETATM   19  C11 UNL     1       4.201 -68.334 -16.267  1.00  0.00     0.002 C 
HETATM   20  C12 UNL     1       4.676 -69.403 -15.351  1.00  0.00     0.026 C 
ENDBRANCH   7  15
TORSDOF 3
ENDMDL
MODEL 3
REMARK VINA RESULT: -6.610512809      0.512      1.304
REMARK  3 active torsions:
REMARK  status: ('A' for Active; 'I' for Inactive)
REMARK       I    between atoms: C1_4  and  N2_5 
REMARK       I    between atoms: C1_4  and  N3_13 
REMARK    1  A    between atoms: N2_5  and  C2_7 
REMARK    2  A    between atoms: C2_7  and  C3_8 
REMARK    3  A    between atoms: N3_13  and  C7_15 
ROOT
HETATM    1  N1  UNL     1       7.450 -71.492 -15.403  1.00  0.00    -0.235 N 
ATOM      2  H11 UNL     1       8.036 -70.659 -15.469  1.00  0.00     0.174 HD
ATOM      3  H12 UNL     1       7.626 -72.331 -15.956  1.00  0.00     0.174 HD
HETATM    4  C1  UNL     1       6.457 -71.450 -14.581  1.00  0.00     0.667 C 
HETATM    5  N2  UNL     1       5.642 -72.608 -14.489  1.00  0.00    -0.224 N 
ATOM      6  H2  UNL     1       4.673 -72.517 -14.185  1.00  0.00     0.177 HD
HETATM    7  N3  UNL     1       6.212 -70.285 -13.813  1.00  0.00    -0.222 N 
ATOM      8  H3  UNL     1       6.539 -70.261 -12.848  1.00  0.00     0.178 HD
ENDROOT
BRANCH   5   9
HETATM    9  C2  UNL     1       6.171 -73.937 -14.824  1.00  0.00     0.170 C 
BRANCH   9  10
HETATM   10  C3  UNL     1       5.624 -74.944 -13.841  1.00  0.00     0.139 C 
HETATM   11  C4  UNL     1       5.004 -74.211 -12.700  1.00  0.00     0.035 C 
HETATM   12  C5  UNL     1       3.513 -74.394 -12.977  1.00  0.00     0.029 C 
HETATM   13  C6  UNL     1       3.532 -75.729 -13.710  1.00  0.00     0.168 C 
HETATM   14  O1  UNL     1       4.667 -75.689 -14.475  1.00  0.00    -0.384 OA
ENDBRANCH   9  10
ENDBRANCH   5   9
BRANCH   7  15
HETATM   15  C7  UNL     1       5.521 -69.129 -14.336  1.00  0.00     0.099 C 
HETATM   16  C8  UNL     1       4.715 -69.487 -15.546  1.00  0.00     0.026 C 
HETATM   17  C9  UNL     1       4.193 -68.307 -16.280  1.00  0.00     0.002 C 
HETATM   18  C10 UNL     1       4.443 -66.990 -15.657  1.00  0.00     0.000 C 
HETATM   19  C11 UNL     1       5.799 -66.818 -15.050  1.00  0.00     0.002 C 
HETATM   20  C12 UNL     1       6.540 -68.083 -14.809  1.00  0.00     0.026 C 
ENDBRANCH   7  15
TORSDOF 3
ENDMDL
MODEL 4
REMARK VINA RESULT: -6.526532081      1.372      1.947
REMARK  3 active torsions:
REMARK  status: ('A' for Active; 'I' for Inactive)
REMARK       I    between atoms: C1_4  and  N2_5 
REMARK       I    between atoms: C1_4  and  N3_13 
REMARK    1  A    between atoms: N2_5  and  C2_7 
REMARK    2  A    between atoms: C2_7  and  C3_8 
REMARK    3  A    between atoms: N3_13  and  C7_15 
ROOT
HETATM    1  N1  UNL     1       5.929 -72.289 -15.821  1.00  0.00    -0.235 N 
ATOM      2  H11 UNL     1       6.673 -71.881 -16.386  1.00  0.00     0.174 HD
ATOM      3  H12 UNL     1       5.429 -73.132 -16.100  1.00  0.00     0.174 HD
HETATM    4  C1  UNL     1       5.633 -71.691 -14.717  1.00  0.00     0.667 C 
HETATM    5  N2  UNL     1       4.597 -72.259 -13.930  1.00  0.00    -0.224 N 
ATOM      6  H2  UNL     1       4.068 -71.665 -13.293  1.00  0.00     0.177 HD
HETATM    7  N3  UNL     1       6.327 -70.519 -14.329  1.00  0.00    -0.222 N 
ATOM      8  H3  UNL     1       7.085 -70.605 -13.653  1.00  0.00     0.178 HD
ENDROOT
BRANCH   5   9
HETATM    9  C2  UNL     1       4.274 -73.690 -14.019  1.00  0.00     0.170 C 
BRANCH   9  10
HETATM   10  C3  UNL     1       4.828 -74.393 -12.803  1.00  0.00     0.139 C 
HETATM   11  C4  UNL     1       5.774 -75.453 -13.253  1.00  0.00     0.035 C 
HETATM   12  C5  UNL     1       7.130 -74.835 -12.914  1.00  0.00     0.029 C 
HETATM   13  C6  UNL     1       6.744 -73.960 -11.729  1.00  0.00     0.168 C 
HETATM   14  O1  UNL     1       5.503 -73.474 -12.045  1.00  0.00    -0.384 OA
ENDBRANCH   9  10
ENDBRANCH   5   9
BRANCH   7  15
HETATM   15  C7  UNL     1       6.010 -69.208 -14.847  1.00  0.00     0.099 C 
HETATM   16  C8  UNL     1       6.135 -68.165 -13.779  1.00  0.00     0.026 C 
HETATM   17  C9  UNL     1       5.576 -66.847 -14.172  1.00  0.00     0.002 C 
HETATM   18  C10 UNL     1       5.098 -66.732 -15.565  1.00  0.00     0.000 C 
HETATM   19  C11 UNL     1       4.357 -67.922 -16.087  1.00  0.00     0.002 C 
HETATM   20  C12 UNL     1       4.544 -69.168 -15.299  1.00  0.00     0.026 C 
ENDBRANCH   7  15
TORSDOF 3
ENDMDL
MODEL 5
REMARK VINA RESULT: -6.489260432      1.616      1.978
REMARK  3 active torsions:
REMARK  status: ('A' for Active; 'I' for Inactive)
REMARK       I    between atoms: C1_4  and  N2_5 
REMARK       I    between atoms: C1_4  and  N3_13 
REMARK    1  A    between atoms: N2_5  and  C2_7 
REMARK    2  A    between atoms: C2_7  and  C3_8 
REMARK    3  A    between atoms: N3_13  and  C7_15 
ROOT
HETATM    1  N1  UNL     1       6.104 -72.114 -15.597  1.00  0.00    -0.235 N 
ATOM      2  H11 UNL     1       6.355 -71.758 -16.520  1.00  0.00     0.174 HD
ATOM      3  H12 UNL     1       5.611 -72.997 -15.467  1.00  0.00     0.174 HD
HETATM    4  C1  UNL     1       6.435 -71.395 -14.579  1.00  0.00     0.667 C 
HETATM    5  N2  UNL     1       6.084 -71.890 -13.296  1.00  0.00    -0.224 N 
ATOM      6  H2  UNL     1       5.960 -71.237 -12.523  1.00  0.00     0.177 HD
HETATM    7  N3  UNL     1       7.118 -70.168 -14.760  1.00  0.00    -0.222 N 
ATOM      8  H3  UNL     1       8.131 -70.154 -14.637  1.00  0.00     0.178 HD
ENDROOT
BRANCH   5   9
HETATM    9  C2  UNL     1       5.897 -73.329 -13.062  1.00  0.00     0.170 C 
BRANCH   9  10
HETATM   10  C3  UNL     1       4.491 -73.565 -12.565  1.00  0.00     0.139 C 
HETATM   11  C4  UNL     1       4.550 -74.439 -11.359  1.00  0.00     0.035 C 
HETATM   12  C5  UNL     1       4.263 -73.447 -10.233  1.00  0.00     0.029 C 
HETATM   13  C6  UNL     1       3.396 -72.436 -10.972  1.00  0.00     0.168 C 
HETATM   14  O1  UNL     1       3.946 -72.357 -12.224  1.00  0.00    -0.384 OA
ENDBRANCH   9  10
ENDBRANCH   5   9
BRANCH   7  15
HETATM   15  C7  UNL     1       6.448 -68.938 -15.111  1.00  0.00     0.099 C 
HETATM   16  C8  UNL     1       6.530 -67.945 -13.992  1.00  0.00     0.026 C 
HETATM   17  C9  UNL     1       5.647 -66.766 -14.181  1.00  0.00     0.002 C 
HETATM   18  C10 UNL     1       4.924 -66.694 -15.468  1.00  0.00     0.000 C 
HETATM   19  C11 UNL     1       4.373 -67.993 -15.965  1.00  0.00     0.002 C 
HETATM   20  C12 UNL     1       4.952 -69.203 -15.323  1.00  0.00     0.026 C 
ENDBRANCH   7  15
TORSDOF 3
ENDMDL
