MODEL 1
REMARK VINA RESULT: -6.755154597      0.000      0.000
REMARK  3 active torsions:
REMARK  status: ('A' for Active; 'I' for Inactive)
REMARK       I    between atoms: C1_2  and  N3_10 
REMARK    1  A    between atoms: N2_3  and  C2_5 
REMARK    2  A    between atoms: N3_10  and  N4_12 
REMARK    3  A    between atoms: N4_12  and  C7_14 
ROOT
HETATM    1  N1  UNL     1       8.289 -70.054 -15.810  1.00  0.00    -0.062 NA
HETATM    2  C1  UNL     1       7.382 -70.716 -14.954  1.00  0.00     0.203 C 
HETATM    3  N2  UNL     1       6.288 -70.104 -14.666  1.00  0.00    -0.359 N 
ATOM      4  H2  UNL     1       5.628 -70.576 -14.048  1.00  0.00     0.162 HD
HETATM    5  N3  UNL     1       7.621 -72.000 -14.409  1.00  0.00    -0.278 N 
ATOM      6  H3  UNL     1       8.326 -72.117 -13.681  1.00  0.00     0.189 HD
ENDROOT
BRANCH   3   7
HETATM    7  C2  UNL     1       5.933 -68.804 -15.154  1.00  0.00     0.084 C 
HETATM    8  C3  UNL     1       5.863 -67.757 -14.070  1.00  0.00     0.025 C 
HETATM    9  C4  UNL     1       5.182 -66.613 -14.794  1.00  0.00     0.002 C 
HETATM   10  C5  UNL     1       4.363 -67.247 -15.902  1.00  0.00     0.002 C 
HETATM   11  C6  UNL     1       4.532 -68.742 -15.714  1.00  0.00     0.025 C 
ENDBRANCH   3   7
BRANCH   5  12
HETATM   12  N4  UNL     1       6.913 -73.087 -14.849  1.00  0.00    -0.329 N 
ATOM     13  H4  UNL     1       6.989 -73.437 -15.804  1.00  0.00     0.180 HD
BRANCH  12  14
HETATM   14  C7  UNL     1       6.063 -73.697 -13.879  1.00  0.00     0.099 C 
HETATM   15  C8  UNL     1       4.601 -73.450 -14.083  1.00  0.00     0.026 C 
HETATM   16  C9  UNL     1       3.866 -74.713 -13.706  1.00  0.00     0.002 C 
HETATM   17  C10 UNL     1       4.924 -75.504 -12.967  1.00  0.00     0.002 C 
HETATM   18  C11 UNL     1       6.137 -75.209 -13.863  1.00  0.00     0.026 C 
ENDBRANCH  12  14
ENDBRANCH   5  12
TORSDOF 3
ENDMDL
MODEL 2
REMARK VINA RESULT: -6.711163121      0.791      1.229
REMARK  3 active torsions:
REMARK  status: ('A' for Active; 'I' for Inactive)
REMARK       I    between atoms: C1_2  and  N3_10 
REMARK    1  A    between atoms: N2_3  and  C2_5 
REMARK    2  A    between atoms: N3_10  and  N4_12 
REMARK    3  A    between atoms: N4_12  and  C7_14 
ROOT
HETATM    1  N1  UNL     1       8.304 -70.069 -15.790  1.00  0.00    -0.062 NA
HETATM    2  C1  UNL     1       7.390 -70.726 -14.938  1.00  0.00     0.203 C 
HETATM    3  N2  UNL     1       6.299 -70.107 -14.654  1.00  0.00    -0.359 N 
ATOM      4  H2  UNL     1       5.634 -70.575 -14.038  1.00  0.00     0.162 HD
HETATM    5  N3  UNL     1       7.618 -72.012 -14.393  1.00  0.00    -0.278 N 
ATOM      6  H3  UNL     1       8.319 -72.134 -13.663  1.00  0.00     0.189 HD
ENDROOT
BRANCH   3   7
HETATM    7  C2  UNL     1       5.954 -68.804 -15.142  1.00  0.00     0.084 C 
HETATM    8  C3  UNL     1       5.880 -67.759 -14.058  1.00  0.00     0.025 C 
HETATM    9  C4  UNL     1       5.210 -66.610 -14.785  1.00  0.00     0.002 C 
HETATM   10  C5  UNL     1       4.398 -67.238 -15.901  1.00  0.00     0.002 C 
HETATM   11  C6  UNL     1       4.558 -68.735 -15.715  1.00  0.00     0.025 C 
ENDBRANCH   3   7
BRANCH   5  12
HETATM   12  N4  UNL     1       6.905 -73.094 -14.836  1.00  0.00    -0.329 N 
ATOM     13  H4  UNL     1       7.005 -73.463 -15.782  1.00  0.00     0.180 HD
BRANCH  12  14
HETATM   14  C7  UNL     1       6.013 -73.671 -13.884  1.00  0.00     0.099 C 
HETATM   15  C8  UNL     1       6.251 -73.249 -12.467  1.00  0.00     0.026 C 
HETATM   16  C9  UNL     1       4.905 -73.114 -11.798  1.00  0.00     0.002 C 
HETATM   17  C10 UNL     1       3.979 -73.810 -12.771  1.00  0.00     0.002 C 
HETATM   18  C11 UNL     1       4.562 -73.292 -14.095  1.00  0.00     0.026 C 
ENDBRANCH  12  14
ENDBRANCH   5  12
TORSDOF 3
ENDMDL
MODEL 3
REMARK VINA RESULT: -6.585102584      1.520      6.257
REMARK  3 active torsions:
REMARK  status: ('A' for Active; 'I' for Inactive)
REMARK       I    between atoms: C1_2  and  N3_10 
REMARK    1  A    between atoms: N2_3  and  C2_5 
REMARK    2  A    between atoms: N3_10  and  N4_12 
REMARK    3  A    between atoms: N4_12  and  C7_14 
ROOT
HETATM    1  N1  UNL     1       6.851 -72.251 -16.253  1.00  0.00    -0.062 NA
HETATM    2  C1  UNL     1       5.544 -72.162 -15.725  1.00  0.00     0.203 C 
HETATM    3  N2  UNL     1       5.243 -72.958 -14.760  1.00  0.00    -0.359 N 
ATOM      4  H2  UNL     1       4.301 -72.901 -14.373  1.00  0.00     0.162 HD
HETATM    5  N3  UNL     1       4.569 -71.254 -16.202  1.00  0.00    -0.278 N 
ATOM      6  H3  UNL     1       4.143 -71.405 -17.116  1.00  0.00     0.189 HD
ENDROOT
BRANCH   3   7
HETATM    7  C2  UNL     1       6.140 -73.920 -14.191  1.00  0.00     0.084 C 
HETATM    8  C3  UNL     1       5.489 -75.250 -13.905  1.00  0.00     0.025 C 
HETATM    9  C4  UNL     1       6.540 -75.928 -13.050  1.00  0.00     0.002 C 
HETATM   10  C5  UNL     1       7.325 -74.812 -12.388  1.00  0.00     0.002 C 
HETATM   11  C6  UNL     1       6.633 -73.532 -12.817  1.00  0.00     0.025 C 
ENDBRANCH   3   7
BRANCH   5  12
HETATM   12  N4  UNL     1       4.194 -70.174 -15.448  1.00  0.00    -0.329 N 
ATOM     13  H4  UNL     1       3.374 -70.191 -14.841  1.00  0.00     0.180 HD
BRANCH  12  14
HETATM   14  C7  UNL     1       5.028 -69.023 -15.571  1.00  0.00     0.099 C 
HETATM   15  C8  UNL     1       4.303 -67.757 -15.906  1.00  0.00     0.026 C 
HETATM   16  C9  UNL     1       4.974 -66.633 -15.155  1.00  0.00     0.002 C 
HETATM   17  C10 UNL     1       6.271 -67.265 -14.701  1.00  0.00     0.002 C 
HETATM   18  C11 UNL     1       5.753 -68.652 -14.294  1.00  0.00     0.026 C 
ENDBRANCH  12  14
ENDBRANCH   5  12
TORSDOF 3
ENDMDL
MODEL 4
REMARK VINA RESULT: -6.567036843      0.989      1.465
REMARK  3 active torsions:
REMARK  status: ('A' for Active; 'I' for Inactive)
REMARK       I    between atoms: C1_2  and  N3_10 
REMARK    1  A    between atoms: N2_3  and  C2_5 
REMARK    2  A    between atoms: N3_10  and  N4_12 
REMARK    3  A    between atoms: N4_12  and  C7_14 
ROOT
HETATM    1  N1  UNL     1       8.305 -70.122 -15.835  1.00  0.00    -0.062 NA
HETATM    2  C1  UNL     1       7.452 -70.738 -14.893  1.00  0.00     0.203 C 
HETATM    3  N2  UNL     1       6.366 -70.119 -14.587  1.00  0.00    -0.359 N 
ATOM      4  H2  UNL     1       5.746 -70.557 -13.907  1.00  0.00     0.162 HD
HETATM    5  N3  UNL     1       7.734 -71.983 -14.282  1.00  0.00    -0.278 N 
ATOM      6  H3  UNL     1       8.477 -72.047 -13.587  1.00  0.00     0.189 HD
ENDROOT
BRANCH   3   7
HETATM    7  C2  UNL     1       5.970 -68.856 -15.136  1.00  0.00     0.084 C 
HETATM    8  C3  UNL     1       5.887 -67.756 -14.107  1.00  0.00     0.025 C 
HETATM    9  C4  UNL     1       5.165 -66.669 -14.879  1.00  0.00     0.002 C 
HETATM   10  C5  UNL     1       4.349 -67.381 -15.940  1.00  0.00     0.002 C 
HETATM   11  C6  UNL     1       4.560 -68.860 -15.678  1.00  0.00     0.025 C 
ENDBRANCH   3   7
BRANCH   5  12
HETATM   12  N4  UNL     1       7.019 -73.102 -14.616  1.00  0.00    -0.329 N 
ATOM     13  H4  UNL     1       6.945 -73.436 -15.577  1.00  0.00     0.180 HD
BRANCH  12  14
HETATM   14  C7  UNL     1       6.385 -73.769 -13.526  1.00  0.00     0.099 C 
HETATM   15  C8  UNL     1       6.576 -75.254 -13.504  1.00  0.00     0.026 C 
HETATM   16  C9  UNL     1       6.720 -75.675 -12.061  1.00  0.00     0.002 C 
HETATM   17  C10 UNL     1       6.251 -74.449 -11.309  1.00  0.00     0.002 C 
HETATM   18  C11 UNL     1       6.907 -73.356 -12.166  1.00  0.00     0.026 C 
ENDBRANCH  12  14
ENDBRANCH   5  12
TORSDOF 3
ENDMDL
MODEL 5
REMARK VINA RESULT: -6.185072255      1.411      6.584
REMARK  3 active torsions:
REMARK  status: ('A' for Active; 'I' for Inactive)
REMARK       I    between atoms: C1_2  and  N3_10 
REMARK    1  A    between atoms: N2_3  and  C2_5 
REMARK    2  A    between atoms: N3_10  and  N4_12 
REMARK    3  A    between atoms: N4_12  and  C7_14 
ROOT
HETATM    1  N1  UNL     1       6.040 -72.822 -15.820  1.00  0.00    -0.062 NA
HETATM    2  C1  UNL     1       5.750 -72.231 -14.570  1.00  0.00     0.203 C 
HETATM    3  N2  UNL     1       6.043 -72.908 -13.516  1.00  0.00    -0.359 N 
ATOM      4  H2  UNL     1       5.836 -72.489 -12.610  1.00  0.00     0.162 HD
HETATM    5  N3  UNL     1       5.162 -70.951 -14.430  1.00  0.00    -0.278 N 
ATOM      6  H3  UNL     1       4.181 -70.817 -14.672  1.00  0.00     0.189 HD
ENDROOT
BRANCH   3   7
HETATM    7  C2  UNL     1       6.639 -74.211 -13.528  1.00  0.00     0.084 C 
HETATM    8  C3  UNL     1       5.631 -75.331 -13.457  1.00  0.00     0.025 C 
HETATM    9  C4  UNL     1       6.520 -76.525 -13.171  1.00  0.00     0.002 C 
HETATM   10  C5  UNL     1       7.749 -75.974 -12.475  1.00  0.00     0.002 C 
HETATM   11  C6  UNL     1       7.478 -74.492 -12.304  1.00  0.00     0.025 C 
ENDBRANCH   3   7
BRANCH   5  12
HETATM   12  N4  UNL     1       5.899 -69.892 -13.971  1.00  0.00    -0.329 N 
ATOM     13  H4  UNL     1       6.450 -69.941 -13.114  1.00  0.00     0.180 HD
BRANCH  12  14
HETATM   14  C7  UNL     1       5.842 -68.714 -14.775  1.00  0.00     0.099 C 
HETATM   15  C8  UNL     1       4.704 -68.674 -15.747  1.00  0.00     0.026 C 
HETATM   16  C9  UNL     1       4.211 -67.249 -15.816  1.00  0.00     0.002 C 
HETATM   17  C10 UNL     1       5.325 -66.480 -15.142  1.00  0.00     0.002 C 
HETATM   18  C11 UNL     1       5.636 -67.441 -13.984  1.00  0.00     0.026 C 
ENDBRANCH  12  14
ENDBRANCH   5  12
TORSDOF 3
ENDMDL
