MODEL 1
REMARK VINA RESULT: -3.962151469      0.000      0.000
REMARK  2 active torsions:
REMARK  status: ('A' for Active; 'I' for Inactive)
REMARK    1  A    between atoms: N1_1  and  C1_4 
REMARK    2  A    between atoms: N4_10  and  N5_12 
ROOT
HETATM    1  C1  UNL     1      19.395  22.443  22.207  1.00  0.00     0.705 A 
HETATM    2  N2  UNL     1      19.856  22.187  23.445  1.00  0.00    -0.117 N 
ATOM      3  H2  UNL     1      20.078  22.884  24.156  1.00  0.00     0.206 HD
HETATM    4  N3  UNL     1      19.970  20.875  23.581  1.00  0.00    -0.116 N 
ATOM      5  H3  UNL     1      20.297  20.402  24.423  1.00  0.00     0.206 HD
HETATM    6  C2  UNL     1      19.596  20.264  22.461  1.00  0.00     0.727 A 
HETATM    7  N4  UNL     1      19.546  19.015  22.152  1.00  0.00    -0.109 N 
ATOM      8  H4  UNL     1      19.220  18.764  21.218  1.00  0.00     0.207 HD
HETATM    9  N9  UNL     1      19.238  21.241  21.606  1.00  0.00    -0.019 N 
ATOM     10  H9  UNL     1      18.902  21.098  20.654  1.00  0.00     0.203 HD
ENDROOT
BRANCH   7  11
HETATM   11  N5  UNL     1      19.910  17.990  23.017  1.00  0.00    -0.153 N 
HETATM   12  N6  UNL     1      21.190  17.798  23.514  1.00  0.00    -0.095 NA
HETATM   13  C3  UNL     1      21.128  16.631  24.374  1.00  0.00     0.261 A 
HETATM   14  N7  UNL     1      19.748  16.189  24.316  1.00  0.00    -0.347 N 
HETATM   15  C4  UNL     1      19.063  16.985  23.531  1.00  0.00     0.224 A 
ATOM     16  H7  UNL     1      19.367  15.382  24.811  1.00  0.00     0.163 HD
HETATM   17  N8  UNL     1      17.686  16.880  23.222  1.00  0.00    -0.061 NA
ENDBRANCH   7  11
BRANCH   1  18
HETATM   18  N1  UNL     1      19.150  23.622  21.691  1.00  0.00    -0.233 N 
ATOM     19  H12 UNL     1      19.600  24.043  20.878  1.00  0.00     0.174 HD
ATOM     20  H11 UNL     1      18.467  24.304  22.023  1.00  0.00     0.174 HD
ENDBRANCH   1  18
TORSDOF 2
ENDMDL
MODEL 2
REMARK VINA RESULT: -3.687935690      1.520      2.522
REMARK  2 active torsions:
REMARK  status: ('A' for Active; 'I' for Inactive)
REMARK    1  A    between atoms: N1_1  and  C1_4 
REMARK    2  A    between atoms: N4_10  and  N5_12 
ROOT
HETATM    1  C1  UNL     1      19.611  21.350  21.746  1.00  0.00     0.705 A 
HETATM    2  N2  UNL     1      18.822  20.297  21.466  1.00  0.00    -0.117 N 
ATOM      3  H2  UNL     1      17.932  20.333  20.969  1.00  0.00     0.206 HD
HETATM    4  N3  UNL     1      19.400  19.207  21.947  1.00  0.00    -0.116 N 
ATOM      5  H3  UNL     1      19.019  18.264  21.875  1.00  0.00     0.206 HD
HETATM    6  C2  UNL     1      20.550  19.521  22.536  1.00  0.00     0.727 A 
HETATM    7  N4  UNL     1      21.426  18.788  23.129  1.00  0.00    -0.109 N 
ATOM      8  H4  UNL     1      22.252  19.245  23.516  1.00  0.00     0.207 HD
HETATM    9  N9  UNL     1      20.680  20.855  22.410  1.00  0.00    -0.019 N 
ATOM     10  H9  UNL     1      21.463  21.406  22.761  1.00  0.00     0.203 HD
ENDROOT
BRANCH   7  11
HETATM   11  N5  UNL     1      21.313  17.410  23.271  1.00  0.00    -0.153 N 
HETATM   12  N6  UNL     1      20.324  16.774  24.006  1.00  0.00    -0.095 NA
HETATM   13  C3  UNL     1      20.572  15.349  23.886  1.00  0.00     0.261 A 
HETATM   14  N7  UNL     1      21.753  15.238  23.051  1.00  0.00    -0.347 N 
HETATM   15  C4  UNL     1      22.164  16.434  22.707  1.00  0.00     0.224 A 
ATOM     16  H7  UNL     1      22.197  14.362  22.773  1.00  0.00     0.163 HD
HETATM   17  N8  UNL     1      23.284  16.738  21.897  1.00  0.00    -0.061 NA
ENDBRANCH   7  11
BRANCH   1  18
HETATM   18  N1  UNL     1      19.386  22.603  21.435  1.00  0.00    -0.233 N 
ATOM     19  H12 UNL     1      19.955  23.199  20.834  1.00  0.00     0.174 HD
ATOM     20  H11 UNL     1      18.603  23.178  21.748  1.00  0.00     0.174 HD
ENDBRANCH   1  18
TORSDOF 2
ENDMDL
MODEL 3
REMARK VINA RESULT: -3.659250970      1.269      1.460
REMARK  2 active torsions:
REMARK  status: ('A' for Active; 'I' for Inactive)
REMARK    1  A    between atoms: N1_1  and  C1_4 
REMARK    2  A    between atoms: N4_10  and  N5_12 
ROOT
HETATM    1  C1  UNL     1      19.385  21.888  24.134  1.00  0.00     0.705 A 
HETATM    2  N2  UNL     1      19.133  21.083  25.181  1.00  0.00    -0.117 N 
ATOM      3  H2  UNL     1      18.732  21.370  26.074  1.00  0.00     0.206 HD
HETATM    4  N3  UNL     1      19.494  19.852  24.853  1.00  0.00    -0.116 N 
ATOM      5  H3  UNL     1      19.412  19.037  25.461  1.00  0.00     0.206 HD
HETATM    6  C2  UNL     1      19.978  19.832  23.614  1.00  0.00     0.727 A 
HETATM    7  N4  UNL     1      20.438  18.865  22.900  1.00  0.00    -0.109 N 
ATOM      8  H4  UNL     1      20.762  19.078  21.956  1.00  0.00     0.207 HD
HETATM    9  N9  UNL     1      19.910  21.100  23.168  1.00  0.00    -0.019 N 
ATOM     10  H9  UNL     1      20.208  21.418  22.246  1.00  0.00     0.203 HD
ENDROOT
BRANCH   7  11
HETATM   11  N5  UNL     1      20.518  17.549  23.338  1.00  0.00    -0.153 N 
HETATM   12  N6  UNL     1      21.704  16.865  23.558  1.00  0.00    -0.095 NA
HETATM   13  C3  UNL     1      21.336  15.536  24.010  1.00  0.00     0.261 A 
HETATM   14  N7  UNL     1      19.885  15.526  24.021  1.00  0.00    -0.347 N 
HETATM   15  C4  UNL     1      19.434  16.694  23.632  1.00  0.00     0.224 A 
ATOM     16  H7  UNL     1      19.304  14.732  24.290  1.00  0.00     0.163 HD
HETATM   17  N8  UNL     1      18.076  17.073  23.511  1.00  0.00    -0.061 NA
ENDBRANCH   7  11
BRANCH   1  18
HETATM   18  N1  UNL     1      19.166  23.179  24.068  1.00  0.00    -0.233 N 
ATOM     19  H12 UNL     1      18.280  23.642  23.865  1.00  0.00     0.174 HD
ATOM     20  H11 UNL     1      19.851  23.922  24.208  1.00  0.00     0.174 HD
ENDBRANCH   1  18
TORSDOF 2
ENDMDL
MODEL 4
REMARK VINA RESULT: -3.644825581      2.625      6.585
REMARK  2 active torsions:
REMARK  status: ('A' for Active; 'I' for Inactive)
REMARK    1  A    between atoms: N1_1  and  C1_4 
REMARK    2  A    between atoms: N4_10  and  N5_12 
ROOT
HETATM    1  C1  UNL     1      21.351  12.454  24.614  1.00  0.00     0.705 A 
HETATM    2  N2  UNL     1      21.916  12.997  23.520  1.00  0.00    -0.117 N 
ATOM      3  H2  UNL     1      22.542  12.521  22.872  1.00  0.00     0.206 HD
HETATM    4  N3  UNL     1      21.517  14.257  23.431  1.00  0.00    -0.116 N 
ATOM      5  H3  UNL     1      21.793  14.906  22.695  1.00  0.00     0.206 HD
HETATM    6  C2  UNL     1      20.705  14.553  24.442  1.00  0.00     0.727 A 
HETATM    7  N4  UNL     1      20.094  15.644  24.747  1.00  0.00    -0.109 N 
ATOM      8  H4  UNL     1      19.508  15.649  25.582  1.00  0.00     0.207 HD
HETATM    9  N9  UNL     1      20.602  13.430  25.177  1.00  0.00    -0.019 N 
ATOM     10  H9  UNL     1      20.047  13.330  26.026  1.00  0.00     0.203 HD
ENDROOT
BRANCH   7  11
HETATM   11  N5  UNL     1      20.185  16.815  24.004  1.00  0.00    -0.153 N 
HETATM   12  N6  UNL     1      21.351  17.544  23.826  1.00  0.00    -0.095 NA
HETATM   13  C3  UNL     1      21.005  18.678  22.989  1.00  0.00     0.261 A 
HETATM   14  N7  UNL     1      19.586  18.534  22.722  1.00  0.00    -0.347 N 
HETATM   15  C4  UNL     1      19.134  17.456  23.314  1.00  0.00     0.224 A 
ATOM     16  H7  UNL     1      19.026  19.175  22.160  1.00  0.00     0.163 HD
HETATM   17  N8  UNL     1      17.801  16.979  23.289  1.00  0.00    -0.061 NA
ENDBRANCH   7  11
BRANCH   1  18
HETATM   18  N1  UNL     1      21.499  11.225  25.044  1.00  0.00    -0.233 N 
ATOM     19  H12 UNL     1      22.224  10.877  25.672  1.00  0.00     0.174 HD
ATOM     20  H11 UNL     1      20.911  10.423  24.815  1.00  0.00     0.174 HD
ENDBRANCH   1  18
TORSDOF 2
ENDMDL
MODEL 5
REMARK VINA RESULT: -3.626316814      2.051      2.204
REMARK  2 active torsions:
REMARK  status: ('A' for Active; 'I' for Inactive)
REMARK    1  A    between atoms: N1_1  and  C1_4 
REMARK    2  A    between atoms: N4_10  and  N5_12 
ROOT
HETATM    1  C1  UNL     1      19.559  23.071  23.370  1.00  0.00     0.705 A 
HETATM    2  N2  UNL     1      18.736  22.957  24.428  1.00  0.00    -0.117 N 
ATOM      3  H2  UNL     1      18.163  23.703  24.822  1.00  0.00     0.206 HD
HETATM    4  N3  UNL     1      18.800  21.711  24.870  1.00  0.00    -0.116 N 
ATOM      5  H3  UNL     1      18.276  21.346  25.665  1.00  0.00     0.206 HD
HETATM    6  C2  UNL     1      19.646  21.004  24.126  1.00  0.00     0.727 A 
HETATM    7  N4  UNL     1      20.008  19.771  24.195  1.00  0.00    -0.109 N 
ATOM      8  H4  UNL     1      20.682  19.429  23.509  1.00  0.00     0.207 HD
HETATM    9  N9  UNL     1      20.118  21.852  23.193  1.00  0.00    -0.019 N 
ATOM     10  H9  UNL     1      20.791  21.612  22.466  1.00  0.00     0.203 HD
ENDROOT
BRANCH   7  11
HETATM   11  N5  UNL     1      19.536  18.878  25.150  1.00  0.00    -0.153 N 
HETATM   12  N6  UNL     1      19.583  19.092  26.519  1.00  0.00    -0.095 NA
HETATM   13  C3  UNL     1      18.985  17.925  27.140  1.00  0.00     0.261 A 
HETATM   14  N7  UNL     1      18.613  17.057  26.039  1.00  0.00    -0.347 N 
HETATM   15  C4  UNL     1      18.937  17.624  24.902  1.00  0.00     0.224 A 
ATOM     16  H7  UNL     1      18.167  16.144  26.135  1.00  0.00     0.163 HD
HETATM   17  N8  UNL     1      18.735  17.087  23.608  1.00  0.00    -0.061 NA
ENDBRANCH   7  11
BRANCH   1  18
HETATM   18  N1  UNL     1      19.774  24.148  22.656  1.00  0.00    -0.233 N 
ATOM     19  H12 UNL     1      19.076  24.716  22.174  1.00  0.00     0.174 HD
ATOM     20  H11 UNL     1      20.676  24.588  22.471  1.00  0.00     0.174 HD
ENDBRANCH   1  18
TORSDOF 2
ENDMDL
