MODEL 1
REMARK VINA RESULT: -3.847954159      0.000      0.000
REMARK  2 active torsions:
REMARK  status: ('A' for Active; 'I' for Inactive)
REMARK    1  A    between atoms: N1_1  and  N2_4 
REMARK    2  A    between atoms: N2_4  and  C1_6 
ROOT
HETATM    1  C1  UNL     1      20.081  17.817  22.967  1.00  0.00     0.192 C 
HETATM    2  N3  UNL     1      21.288  17.633  22.404  1.00  0.00    -0.304 N 
ATOM      3  H3  UNL     1      21.656  18.433  21.889  1.00  0.00     0.171 HD
HETATM    4  C2  UNL     1      22.091  16.530  22.421  1.00  0.00     0.250 C 
HETATM    5  O1  UNL     1      23.085  16.529  21.644  1.00  0.00    -0.268 OA
HETATM    6  C3  UNL     1      21.943  15.387  23.206  1.00  0.00     0.119 C 
HETATM    7  C4  UNL     1      20.860  15.051  23.991  1.00  0.00     0.124 C 
HETATM    8  N4  UNL     1      21.082  13.974  24.893  1.00  0.00    -0.083 NA
HETATM    9  N5  UNL     1      19.619  15.619  24.004  1.00  0.00    -0.308 N 
ATOM     10  H5  UNL     1      18.860  15.050  24.379  1.00  0.00     0.170 HD
HETATM   11  C5  UNL     1      19.293  16.859  23.570  1.00  0.00     0.292 C 
HETATM   12  O2  UNL     1      18.091  17.194  23.738  1.00  0.00    -0.264 OA
ENDROOT
BRANCH   1  13
HETATM   13  N2  UNL     1      19.642  19.039  22.922  1.00  0.00    -0.287 N 
ATOM     14  H2  UNL     1      19.761  19.625  23.748  1.00  0.00     0.188 HD
BRANCH  13  15
HETATM   15  N1  UNL     1      19.026  19.588  21.819  1.00  0.00    -0.343 N 
ATOM     16  H12 UNL     1      18.388  20.368  21.982  1.00  0.00     0.176 HD
ATOM     17  H11 UNL     1      19.174  19.258  20.865  1.00  0.00     0.176 HD
ENDBRANCH  13  15
ENDBRANCH   1  13
TORSDOF 2
ENDMDL
MODEL 2
REMARK VINA RESULT: -3.784503023      2.206      2.970
REMARK  2 active torsions:
REMARK  status: ('A' for Active; 'I' for Inactive)
REMARK    1  A    between atoms: N1_1  and  N2_4 
REMARK    2  A    between atoms: N2_4  and  C1_6 
ROOT
HETATM    1  C1  UNL     1      19.815  16.534  23.754  1.00  0.00     0.192 C 
HETATM    2  N3  UNL     1      19.937  15.314  24.307  1.00  0.00    -0.304 N 
ATOM      3  H3  UNL     1      19.157  15.022  24.897  1.00  0.00     0.171 HD
HETATM    4  C2  UNL     1      20.951  14.409  24.191  1.00  0.00     0.250 C 
HETATM    5  O1  UNL     1      20.932  13.418  24.971  1.00  0.00    -0.268 OA
HETATM    6  C3  UNL     1      22.024  14.449  23.300  1.00  0.00     0.119 C 
HETATM    7  C4  UNL     1      22.386  15.497  22.480  1.00  0.00     0.124 C 
HETATM    8  N4  UNL     1      23.347  15.176  21.482  1.00  0.00    -0.083 NA
HETATM    9  N5  UNL     1      21.940  16.786  22.512  1.00  0.00    -0.308 N 
ATOM     10  H5  UNL     1      22.540  17.489  22.079  1.00  0.00     0.170 HD
HETATM   11  C5  UNL     1      20.783  17.229  23.058  1.00  0.00     0.292 C 
HETATM   12  O2  UNL     1      20.549  18.457  22.914  1.00  0.00    -0.264 OA
ENDROOT
BRANCH   1  13
HETATM   13  N2  UNL     1      18.651  17.087  23.912  1.00  0.00    -0.287 N 
ATOM     14  H2  UNL     1      18.422  17.476  24.826  1.00  0.00     0.188 HD
BRANCH  13  15
HETATM   15  N1  UNL     1      17.707  17.177  22.912  1.00  0.00    -0.343 N 
ATOM     16  H12 UNL     1      17.830  16.570  22.100  1.00  0.00     0.176 HD
ATOM     17  H11 UNL     1      16.908  17.810  22.944  1.00  0.00     0.176 HD
ENDBRANCH  13  15
ENDBRANCH   1  13
TORSDOF 2
ENDMDL
MODEL 3
REMARK VINA RESULT: -3.704071409      2.221      2.573
REMARK  2 active torsions:
REMARK  status: ('A' for Active; 'I' for Inactive)
REMARK    1  A    between atoms: N1_1  and  N2_4 
REMARK    2  A    between atoms: N2_4  and  C1_6 
ROOT
HETATM    1  C1  UNL     1      19.327  19.143  24.966  1.00  0.00     0.192 C 
HETATM    2  N3  UNL     1      19.907  19.393  23.778  1.00  0.00    -0.304 N 
ATOM      3  H3  UNL     1      19.968  20.378  23.521  1.00  0.00     0.171 HD
HETATM    4  C2  UNL     1      20.426  18.519  22.868  1.00  0.00     0.250 C 
HETATM    5  O1  UNL     1      20.728  18.979  21.734  1.00  0.00    -0.268 OA
HETATM    6  C3  UNL     1      20.666  17.156  23.045  1.00  0.00     0.119 C 
HETATM    7  C4  UNL     1      20.261  16.370  24.103  1.00  0.00     0.124 C 
HETATM    8  N4  UNL     1      20.869  15.086  24.166  1.00  0.00    -0.083 NA
HETATM    9  N5  UNL     1      19.360  16.672  25.082  1.00  0.00    -0.308 N 
ATOM     10  H5  UNL     1      18.933  15.884  25.570  1.00  0.00     0.170 HD
HETATM   11  C5  UNL     1      18.974  17.910  25.473  1.00  0.00     0.292 C 
HETATM   12  O2  UNL     1      18.173  17.948  26.443  1.00  0.00    -0.264 OA
ENDROOT
BRANCH   1  13
HETATM   13  N2  UNL     1      19.090  20.198  25.685  1.00  0.00    -0.287 N 
ATOM     14  H2  UNL     1      18.997  20.082  26.694  1.00  0.00     0.188 HD
BRANCH  13  15
HETATM   15  N1  UNL     1      18.957  21.465  25.161  1.00  0.00    -0.343 N 
ATOM     16  H12 UNL     1      19.751  21.838  24.639  1.00  0.00     0.176 HD
ATOM     17  H11 UNL     1      18.119  22.037  25.269  1.00  0.00     0.176 HD
ENDBRANCH  13  15
ENDBRANCH   1  13
TORSDOF 2
ENDMDL
MODEL 4
REMARK VINA RESULT: -3.692273321      1.471      3.037
REMARK  2 active torsions:
REMARK  status: ('A' for Active; 'I' for Inactive)
REMARK    1  A    between atoms: N1_1  and  N2_4 
REMARK    2  A    between atoms: N2_4  and  C1_6 
ROOT
HETATM    1  C1  UNL     1      20.325  18.811  22.198  1.00  0.00     0.192 C 
HETATM    2  N3  UNL     1      19.337  18.454  23.037  1.00  0.00    -0.304 N 
ATOM      3  H3  UNL     1      18.551  19.102  23.087  1.00  0.00     0.171 HD
HETATM    4  C2  UNL     1      19.234  17.349  23.831  1.00  0.00     0.250 C 
HETATM    5  O1  UNL     1      18.307  17.338  24.687  1.00  0.00    -0.268 OA
HETATM    6  C3  UNL     1      20.042  16.213  23.810  1.00  0.00     0.119 C 
HETATM    7  C4  UNL     1      21.222  16.043  23.116  1.00  0.00     0.124 C 
HETATM    8  N4  UNL     1      21.696  14.704  23.053  1.00  0.00    -0.083 NA
HETATM    9  N5  UNL     1      21.977  16.993  22.491  1.00  0.00    -0.308 N 
ATOM     10  H5  UNL     1      22.958  16.763  22.329  1.00  0.00     0.170 HD
HETATM   11  C5  UNL     1      21.559  18.208  22.066  1.00  0.00     0.292 C 
HETATM   12  O2  UNL     1      22.420  18.896  21.457  1.00  0.00    -0.264 OA
ENDROOT
BRANCH   1  13
HETATM   13  N2  UNL     1      20.054  19.835  21.447  1.00  0.00    -0.287 N 
ATOM     14  H2  UNL     1      20.787  20.189  20.832  1.00  0.00     0.188 HD
BRANCH  13  15
HETATM   15  N1  UNL     1      18.832  20.471  21.435  1.00  0.00    -0.343 N 
ATOM     16  H12 UNL     1      18.116  20.091  20.816  1.00  0.00     0.176 HD
ATOM     17  H11 UNL     1      18.614  21.288  22.006  1.00  0.00     0.176 HD
ENDBRANCH  13  15
ENDBRANCH   1  13
TORSDOF 2
ENDMDL
MODEL 5
REMARK VINA RESULT: -3.549724132      1.404      4.503
REMARK  2 active torsions:
REMARK  status: ('A' for Active; 'I' for Inactive)
REMARK    1  A    between atoms: N1_1  and  N2_4 
REMARK    2  A    between atoms: N2_4  and  C1_6 
ROOT
HETATM    1  C1  UNL     1      20.990  15.043  23.671  1.00  0.00     0.192 C 
HETATM    2  N3  UNL     1      19.869  15.689  24.043  1.00  0.00    -0.304 N 
ATOM      3  H3  UNL     1      19.278  15.190  24.708  1.00  0.00     0.171 HD
HETATM    4  C2  UNL     1      19.409  16.914  23.657  1.00  0.00     0.250 C 
HETATM    5  O1  UNL     1      18.228  17.214  23.983  1.00  0.00    -0.268 OA
HETATM    6  C3  UNL     1      20.097  17.889  22.935  1.00  0.00     0.119 C 
HETATM    7  C4  UNL     1      21.315  17.751  22.302  1.00  0.00     0.124 C 
HETATM    8  N4  UNL     1      21.912  18.968  21.876  1.00  0.00    -0.083 NA
HETATM    9  N5  UNL     1      22.003  16.602  22.039  1.00  0.00    -0.308 N 
ATOM     10  H5  UNL     1      22.692  16.644  21.287  1.00  0.00     0.170 HD
HETATM   11  C5  UNL     1      21.867  15.414  22.673  1.00  0.00     0.292 C 
HETATM   12  O2  UNL     1      22.656  14.506  22.301  1.00  0.00    -0.264 OA
ENDROOT
BRANCH   1  13
HETATM   13  N2  UNL     1      21.241  13.963  24.346  1.00  0.00    -0.287 N 
ATOM     14  H2  UNL     1      22.204  13.628  24.378  1.00  0.00     0.188 HD
BRANCH  13  15
HETATM   15  N1  UNL     1      20.279  13.243  25.020  1.00  0.00    -0.343 N 
ATOM     16  H12 UNL     1      19.311  13.550  24.918  1.00  0.00     0.176 HD
ATOM     17  H11 UNL     1      20.486  12.434  25.606  1.00  0.00     0.176 HD
ENDBRANCH  13  15
ENDBRANCH   1  13
TORSDOF 2
ENDMDL
