MODEL 1
REMARK VINA RESULT: -3.743736585      0.000      0.000
REMARK  2 active torsions:
REMARK  status: ('A' for Active; 'I' for Inactive)
REMARK    1  A    between atoms: C1_4  and  C2_5 
REMARK       I    between atoms: C2_5  and  N2_7 
REMARK    2  A    between atoms: C3_8  and  N3_9 
ROOT
HETATM    1  C2  UNL     1      20.819  19.003  22.237  1.00  0.00     0.285 C 
HETATM    2  O1  UNL     1      21.840  19.271  21.491  1.00  0.00    -0.265 OA
HETATM    3  N2  UNL     1      20.778  17.714  22.774  1.00  0.00    -0.058 N 
HETATM    4  C3  UNL     1      19.829  17.207  23.570  1.00  0.00     0.693 A 
HETATM    5  N4  UNL     1      19.834  15.941  24.069  1.00  0.00    -0.141 N 
ATOM      6  H4  UNL     1      19.082  15.606  24.672  1.00  0.00     0.189 HD
HETATM    7  C4  UNL     1      20.862  15.150  23.738  1.00  0.00     0.342 A 
HETATM    8  O2  UNL     1      20.920  13.962  24.174  1.00  0.00    -0.246 OA
HETATM    9  N5  UNL     1      21.838  15.613  22.943  1.00  0.00    -0.259 N 
ATOM     10  H5  UNL     1      22.618  15.005  22.694  1.00  0.00     0.175 HD
HETATM   11  C5  UNL     1      21.797  16.850  22.478  1.00  0.00     0.352 A 
HETATM   12  O3  UNL     1      22.749  17.231  21.729  1.00  0.00    -0.245 OA
ENDROOT
BRANCH   1  13
HETATM   13  C1  UNL     1      19.862  20.042  22.425  1.00  0.00     0.157 C 
HETATM   14  N1  UNL     1      19.050  20.330  21.435  1.00  0.00    -0.404 N 
ATOM     15  H12 UNL     1      19.116  19.814  20.558  1.00  0.00     0.155 HD
ATOM     16  H11 UNL     1      18.365  21.074  21.570  1.00  0.00     0.155 HD
ENDBRANCH   1  13
BRANCH   4  17
HETATM   17  N3  UNL     1      18.832  17.917  23.914  1.00  0.00    -0.234 N 
ATOM     18  H32 UNL     1      18.002  17.806  23.331  1.00  0.00     0.174 HD
ATOM     19  H31 UNL     1      18.896  18.539  24.719  1.00  0.00     0.174 HD
ENDBRANCH   4  17
TORSDOF 2
ENDMDL
MODEL 2
REMARK VINA RESULT: -3.559553763      2.450      3.618
REMARK  2 active torsions:
REMARK  status: ('A' for Active; 'I' for Inactive)
REMARK    1  A    between atoms: C1_4  and  C2_5 
REMARK       I    between atoms: C2_5  and  N2_7 
REMARK    2  A    between atoms: C3_8  and  N3_9 
ROOT
HETATM    1  C2  UNL     1      19.940  21.721  23.896  1.00  0.00     0.285 C 
HETATM    2  O1  UNL     1      20.479  22.010  25.035  1.00  0.00    -0.265 OA
HETATM    3  N2  UNL     1      20.376  20.536  23.298  1.00  0.00    -0.058 N 
HETATM    4  C3  UNL     1      19.968  20.031  22.129  1.00  0.00     0.693 A 
HETATM    5  N4  UNL     1      20.424  18.869  21.587  1.00  0.00    -0.141 N 
ATOM      6  H4  UNL     1      20.077  18.531  20.689  1.00  0.00     0.189 HD
HETATM    7  C4  UNL     1      21.346  18.186  22.277  1.00  0.00     0.342 A 
HETATM    8  O2  UNL     1      21.807  17.098  21.822  1.00  0.00    -0.246 OA
HETATM    9  N5  UNL     1      21.787  18.652  23.455  1.00  0.00    -0.259 N 
ATOM     10  H5  UNL     1      22.491  18.127  23.975  1.00  0.00     0.175 HD
HETATM   11  C5  UNL     1      21.318  19.786  23.947  1.00  0.00     0.352 A 
HETATM   12  O3  UNL     1      21.775  20.176  25.067  1.00  0.00    -0.245 OA
ENDROOT
BRANCH   1  13
HETATM   13  C1  UNL     1      18.973  22.635  23.385  1.00  0.00     0.157 C 
HETATM   14  N1  UNL     1      17.756  22.595  23.875  1.00  0.00    -0.404 N 
ATOM     15  H12 UNL     1      17.524  21.920  24.603  1.00  0.00     0.155 HD
ATOM     16  H11 UNL     1      17.064  23.249  23.510  1.00  0.00     0.155 HD
ENDBRANCH   1  13
BRANCH   4  17
HETATM   17  N3  UNL     1      19.094  20.641  21.436  1.00  0.00    -0.234 N 
ATOM     18  H32 UNL     1      18.300  21.004  21.964  1.00  0.00     0.174 HD
ATOM     19  H31 UNL     1      19.213  20.739  20.427  1.00  0.00     0.174 HD
ENDBRANCH   4  17
TORSDOF 2
ENDMDL
MODEL 3
REMARK VINA RESULT: -3.551228682      2.053      3.657
REMARK  2 active torsions:
REMARK  status: ('A' for Active; 'I' for Inactive)
REMARK    1  A    between atoms: C1_4  and  C2_5 
REMARK       I    between atoms: C2_5  and  N2_7 
REMARK    2  A    between atoms: C3_8  and  N3_9 
ROOT
HETATM    1  C2  UNL     1      21.780  16.662  22.494  1.00  0.00     0.285 C 
HETATM    2  O1  UNL     1      21.833  17.514  21.522  1.00  0.00    -0.265 OA
HETATM    3  N2  UNL     1      20.850  16.940  23.499  1.00  0.00    -0.058 N 
HETATM    4  C3  UNL     1      20.614  16.212  24.595  1.00  0.00     0.693 A 
HETATM    5  N4  UNL     1      19.695  16.525  25.549  1.00  0.00    -0.141 N 
ATOM      6  H4  UNL     1      19.557  15.932  26.367  1.00  0.00     0.189 HD
HETATM    7  C4  UNL     1      18.978  17.642  25.372  1.00  0.00     0.342 A 
HETATM    8  O2  UNL     1      18.108  17.983  26.227  1.00  0.00    -0.246 OA
HETATM    9  N5  UNL     1      19.179  18.406  24.288  1.00  0.00    -0.259 N 
ATOM     10  H5  UNL     1      18.630  19.256  24.160  1.00  0.00     0.175 HD
HETATM   11  C5  UNL     1      20.082  18.066  23.384  1.00  0.00     0.352 A 
HETATM   12  O3  UNL     1      20.227  18.829  22.379  1.00  0.00    -0.245 OA
ENDROOT
BRANCH   1  13
HETATM   13  C1  UNL     1      22.666  15.548  22.428  1.00  0.00     0.157 C 
HETATM   14  N1  UNL     1      23.522  15.487  21.435  1.00  0.00    -0.404 N 
ATOM     15  H12 UNL     1      23.539  16.228  20.734  1.00  0.00     0.155 HD
ATOM     16  H11 UNL     1      24.157  14.690  21.389  1.00  0.00     0.155 HD
ENDBRANCH   1  13
BRANCH   4  17
HETATM   17  N3  UNL     1      21.267  15.142  24.810  1.00  0.00    -0.234 N 
ATOM     18  H32 UNL     1      21.550  14.633  23.971  1.00  0.00     0.174 HD
ATOM     19  H31 UNL     1      21.475  14.847  25.764  1.00  0.00     0.174 HD
ENDBRANCH   4  17
TORSDOF 2
ENDMDL
MODEL 4
REMARK VINA RESULT: -3.524879817      1.082      1.107
REMARK  2 active torsions:
REMARK  status: ('A' for Active; 'I' for Inactive)
REMARK    1  A    between atoms: C1_4  and  C2_5 
REMARK       I    between atoms: C2_5  and  N2_7 
REMARK    2  A    between atoms: C3_8  and  N3_9 
ROOT
HETATM    1  C2  UNL     1      21.046  18.013  22.498  1.00  0.00     0.285 C 
HETATM    2  O1  UNL     1      22.014  18.375  21.721  1.00  0.00    -0.265 OA
HETATM    3  N2  UNL     1      21.100  16.699  22.968  1.00  0.00    -0.058 N 
HETATM    4  C3  UNL     1      20.220  16.100  23.778  1.00  0.00     0.693 A 
HETATM    5  N4  UNL     1      20.317  14.813  24.210  1.00  0.00    -0.141 N 
ATOM      6  H4  UNL     1      19.614  14.407  24.828  1.00  0.00     0.189 HD
HETATM    7  C4  UNL     1      21.369  14.099  23.792  1.00  0.00     0.342 A 
HETATM    8  O2  UNL     1      21.512  12.896  24.162  1.00  0.00    -0.246 OA
HETATM    9  N5  UNL     1      22.280  14.655  22.979  1.00  0.00    -0.259 N 
ATOM     10  H5  UNL     1      23.079  14.105  22.663  1.00  0.00     0.175 HD
HETATM   11  C5  UNL     1      22.149  15.910  22.582  1.00  0.00     0.352 A 
HETATM   12  O3  UNL     1      23.043  16.380  21.812  1.00  0.00    -0.245 OA
ENDROOT
BRANCH   1  13
HETATM   13  C1  UNL     1      20.044  18.986  22.783  1.00  0.00     0.157 C 
HETATM   14  N1  UNL     1      19.235  19.350  21.817  1.00  0.00    -0.404 N 
ATOM     15  H12 UNL     1      19.333  18.938  20.889  1.00  0.00     0.155 HD
ATOM     16  H11 UNL     1      18.517  20.046  22.021  1.00  0.00     0.155 HD
ENDBRANCH   1  13
BRANCH   4  17
HETATM   17  N3  UNL     1      19.204  16.735  24.203  1.00  0.00    -0.234 N 
ATOM     18  H32 UNL     1      19.126  17.697  23.872  1.00  0.00     0.174 HD
ATOM     19  H31 UNL     1      18.537  16.281  24.828  1.00  0.00     0.174 HD
ENDBRANCH   4  17
TORSDOF 2
ENDMDL
MODEL 5
REMARK VINA RESULT: -3.511893199      1.906      2.160
REMARK  2 active torsions:
REMARK  status: ('A' for Active; 'I' for Inactive)
REMARK    1  A    between atoms: C1_4  and  C2_5 
REMARK       I    between atoms: C2_5  and  N2_7 
REMARK    2  A    between atoms: C3_8  and  N3_9 
ROOT
HETATM    1  C2  UNL     1      20.246  20.487  24.019  1.00  0.00     0.285 C 
HETATM    2  O1  UNL     1      20.970  21.025  23.093  1.00  0.00    -0.265 OA
HETATM    3  N2  UNL     1      20.208  19.090  24.029  1.00  0.00    -0.058 N 
HETATM    4  C3  UNL     1      19.534  18.312  24.883  1.00  0.00     0.693 A 
HETATM    5  N4  UNL     1      19.529  16.952  24.852  1.00  0.00    -0.141 N 
ATOM      6  H4  UNL     1      18.994  16.409  25.531  1.00  0.00     0.189 HD
HETATM    7  C4  UNL     1      20.251  16.354  23.898  1.00  0.00     0.342 A 
HETATM    8  O2  UNL     1      20.283  15.090  23.820  1.00  0.00    -0.246 OA
HETATM    9  N5  UNL     1      20.944  17.090  23.016  1.00  0.00    -0.259 N 
ATOM     10  H5  UNL     1      21.491  16.627  22.290  1.00  0.00     0.175 HD
HETATM   11  C5  UNL     1      20.923  18.411  23.081  1.00  0.00     0.352 A 
HETATM   12  O3  UNL     1      21.599  19.054  22.219  1.00  0.00    -0.245 OA
ENDROOT
BRANCH   1  13
HETATM   13  C1  UNL     1      19.577  21.370  24.915  1.00  0.00     0.157 C 
HETATM   14  N1  UNL     1      18.578  22.087  24.455  1.00  0.00    -0.404 N 
ATOM     15  H12 UNL     1      18.300  22.002  23.477  1.00  0.00     0.155 HD
ATOM     16  H11 UNL     1      18.098  22.719  25.096  1.00  0.00     0.155 HD
ENDBRANCH   1  13
BRANCH   4  17
HETATM   17  N3  UNL     1      18.834  18.832  25.809  1.00  0.00    -0.234 N 
ATOM     18  H32 UNL     1      19.317  19.528  26.378  1.00  0.00     0.174 HD
ATOM     19  H31 UNL     1      17.863  18.548  25.942  1.00  0.00     0.174 HD
ENDBRANCH   4  17
TORSDOF 2
ENDMDL
