MODEL 1
REMARK VINA RESULT: -4.018160708      0.000      0.000
REMARK  4 active torsions:
REMARK  status: ('A' for Active; 'I' for Inactive)
REMARK    1  A    between atoms: N1_1  and  N2_4 
REMARK       I    between atoms: N2_4  and  C1_6 
REMARK    2  A    between atoms: C1_6  and  C2_8 
REMARK    3  A    between atoms: C3_15  and  C4_16 
REMARK       I    between atoms: C4_16  and  N6_18 
REMARK    4  A    between atoms: N6_18  and  N7_20 
ROOT
HETATM    1  C2  UNL     1      19.005  18.509  25.687  1.00  0.00     0.152 A 
HETATM    2  N3  UNL     1      19.249  19.822  25.339  1.00  0.00    -0.279 N 
ATOM      3  H3  UNL     1      19.430  20.142  24.388  1.00  0.00     0.189 HD
HETATM    4  N4  UNL     1      19.217  20.597  26.384  1.00  0.00    -0.241 N 
ATOM      5  H4  UNL     1      19.366  21.606  26.396  1.00  0.00     0.208 HD
HETATM    6  N5  UNL     1      18.958  19.837  27.413  1.00  0.00    -0.279 N 
ATOM      7  H5  UNL     1      18.872  20.173  28.372  1.00  0.00     0.189 HD
HETATM    8  C3  UNL     1      18.818  18.526  27.032  1.00  0.00     0.152 A 
ENDROOT
BRANCH   1   9
HETATM    9  C1  UNL     1      18.973  17.402  24.753  1.00  0.00     0.290 C 
HETATM   10  N2  UNL     1      20.000  16.409  24.849  1.00  0.00    -0.271 N 
ATOM     11  H2  UNL     1      20.717  16.507  25.568  1.00  0.00     0.189 HD
HETATM   12  O1  UNL     1      18.136  17.218  23.860  1.00  0.00    -0.264 OA
BRANCH  10  13
HETATM   13  N1  UNL     1      20.046  15.315  23.994  1.00  0.00    -0.342 N 
ATOM     14  H12 UNL     1      20.260  14.402  24.394  1.00  0.00     0.176 HD
ATOM     15  H11 UNL     1      19.872  15.406  22.993  1.00  0.00     0.176 HD
ENDBRANCH  10  13
ENDBRANCH   1   9
BRANCH   8  16
HETATM   16  C4  UNL     1      18.527  17.458  27.967  1.00  0.00     0.290 C 
HETATM   17  O2  UNL     1      19.174  17.264  29.002  1.00  0.00    -0.264 OA
HETATM   18  N6  UNL     1      17.440  16.551  27.724  1.00  0.00    -0.271 N 
ATOM     19  H6  UNL     1      16.861  16.648  26.890  1.00  0.00     0.189 HD
BRANCH  18  20
HETATM   20  N7  UNL     1      17.192  15.541  28.640  1.00  0.00    -0.342 N 
ATOM     21  H72 UNL     1      16.365  14.954  28.532  1.00  0.00     0.176 HD
ATOM     22  H71 UNL     1      17.847  15.403  29.411  1.00  0.00     0.176 HD
ENDBRANCH  18  20
ENDBRANCH   8  16
TORSDOF 4
ENDMDL
MODEL 2
REMARK VINA RESULT: -4.012672026      0.074      3.688
REMARK  4 active torsions:
REMARK  status: ('A' for Active; 'I' for Inactive)
REMARK    1  A    between atoms: N1_1  and  N2_4 
REMARK       I    between atoms: N2_4  and  C1_6 
REMARK    2  A    between atoms: C1_6  and  C2_8 
REMARK    3  A    between atoms: C3_15  and  C4_16 
REMARK       I    between atoms: C4_16  and  N6_18 
REMARK    4  A    between atoms: N6_18  and  N7_20 
ROOT
HETATM    1  C2  UNL     1      18.843  18.585  27.062  1.00  0.00     0.152 A 
HETATM    2  N3  UNL     1      18.972  19.920  27.387  1.00  0.00    -0.279 N 
ATOM      3  H3  UNL     1      18.885  20.294  28.332  1.00  0.00     0.189 HD
HETATM    4  N4  UNL     1      19.221  20.637  26.330  1.00  0.00    -0.241 N 
ATOM      5  H4  UNL     1      19.358  21.648  26.301  1.00  0.00     0.208 HD
HETATM    6  N5  UNL     1      19.260  19.818  25.315  1.00  0.00    -0.279 N 
ATOM      7  H5  UNL     1      19.438  20.100  24.352  1.00  0.00     0.189 HD
HETATM    8  C3  UNL     1      19.030  18.526  25.718  1.00  0.00     0.152 A 
ENDROOT
BRANCH   1   9
HETATM    9  C1  UNL     1      18.564  17.529  28.014  1.00  0.00     0.290 C 
HETATM   10  N2  UNL     1      17.508  16.610  27.712  1.00  0.00    -0.271 N 
ATOM     11  H2  UNL     1      16.988  16.723  26.842  1.00  0.00     0.189 HD
HETATM   12  O1  UNL     1      19.152  17.330  29.085  1.00  0.00    -0.264 OA
BRANCH  10  13
HETATM   13  N1  UNL     1      17.173  15.569  28.569  1.00  0.00    -0.342 N 
ATOM     14  H12 UNL     1      16.395  15.709  29.212  1.00  0.00     0.176 HD
ATOM     15  H11 UNL     1      17.681  14.685  28.567  1.00  0.00     0.176 HD
ENDBRANCH  10  13
ENDBRANCH   1   9
BRANCH   8  16
HETATM   16  C4  UNL     1      19.015  17.403  24.803  1.00  0.00     0.290 C 
HETATM   17  O2  UNL     1      18.152  17.246  23.932  1.00  0.00    -0.264 OA
HETATM   18  N6  UNL     1      20.034  16.393  24.870  1.00  0.00    -0.271 N 
ATOM     19  H6  UNL     1      20.780  16.454  25.563  1.00  0.00     0.189 HD
BRANCH  18  20
HETATM   20  N7  UNL     1      19.987  15.333  23.978  1.00  0.00    -0.342 N 
ATOM     21  H72 UNL     1      20.302  15.469  23.017  1.00  0.00     0.176 HD
ATOM     22  H71 UNL     1      19.635  14.432  24.301  1.00  0.00     0.176 HD
ENDBRANCH  18  20
ENDBRANCH   8  16
TORSDOF 4
ENDMDL
MODEL 3
REMARK VINA RESULT: -4.009437511      3.991      5.592
REMARK  4 active torsions:
REMARK  status: ('A' for Active; 'I' for Inactive)
REMARK    1  A    between atoms: N1_1  and  N2_4 
REMARK       I    between atoms: N2_4  and  C1_6 
REMARK    2  A    between atoms: C1_6  and  C2_8 
REMARK    3  A    between atoms: C3_15  and  C4_16 
REMARK       I    between atoms: C4_16  and  N6_18 
REMARK    4  A    between atoms: N6_18  and  N7_20 
ROOT
HETATM    1  C2  UNL     1      20.547  16.985  23.255  1.00  0.00     0.152 A 
HETATM    2  N3  UNL     1      19.688  16.140  23.927  1.00  0.00    -0.279 N 
ATOM      3  H3  UNL     1      19.962  15.252  24.346  1.00  0.00     0.189 HD
HETATM    4  N4  UNL     1      18.481  16.627  23.956  1.00  0.00    -0.241 N 
ATOM      5  H4  UNL     1      17.663  16.197  24.390  1.00  0.00     0.208 HD
HETATM    6  N5  UNL     1      18.516  17.768  23.325  1.00  0.00    -0.279 N 
ATOM      7  H5  UNL     1      17.710  18.378  23.189  1.00  0.00     0.189 HD
HETATM    8  C3  UNL     1      19.782  18.037  22.867  1.00  0.00     0.152 A 
ENDROOT
BRANCH   1   9
HETATM    9  C1  UNL     1      21.959  16.729  23.049  1.00  0.00     0.290 C 
HETATM   10  N2  UNL     1      22.401  16.423  21.723  1.00  0.00    -0.271 N 
ATOM     11  H2  UNL     1      21.717  16.394  20.967  1.00  0.00     0.189 HD
HETATM   12  O1  UNL     1      22.843  16.747  23.914  1.00  0.00    -0.264 OA
BRANCH  10  13
HETATM   13  N1  UNL     1      23.736  16.163  21.435  1.00  0.00    -0.342 N 
ATOM     14  H12 UNL     1      24.445  16.563  22.049  1.00  0.00     0.176 HD
ATOM     15  H11 UNL     1      24.014  15.592  20.638  1.00  0.00     0.176 HD
ENDBRANCH  10  13
ENDBRANCH   1   9
BRANCH   8  16
HETATM   16  C4  UNL     1      20.117  19.238  22.129  1.00  0.00     0.290 C 
HETATM   17  O2  UNL     1      21.133  19.350  21.435  1.00  0.00    -0.264 OA
HETATM   18  N6  UNL     1      19.255  20.387  22.175  1.00  0.00    -0.271 N 
ATOM     19  H6  UNL     1      18.398  20.370  22.728  1.00  0.00     0.189 HD
BRANCH  18  20
HETATM   20  N7  UNL     1      19.609  21.518  21.457  1.00  0.00    -0.342 N 
ATOM     21  H72 UNL     1      20.461  22.024  21.700  1.00  0.00     0.176 HD
ATOM     22  H71 UNL     1      19.006  21.826  20.693  1.00  0.00     0.176 HD
ENDBRANCH  18  20
ENDBRANCH   8  16
TORSDOF 4
ENDMDL
MODEL 4
REMARK VINA RESULT: -3.965785247      1.583      1.683
REMARK  4 active torsions:
REMARK  status: ('A' for Active; 'I' for Inactive)
REMARK    1  A    between atoms: N1_1  and  N2_4 
REMARK       I    between atoms: N2_4  and  C1_6 
REMARK    2  A    between atoms: C1_6  and  C2_8 
REMARK    3  A    between atoms: C3_15  and  C4_16 
REMARK       I    between atoms: C4_16  and  N6_18 
REMARK    4  A    between atoms: N6_18  and  N7_20 
ROOT
HETATM    1  C2  UNL     1      19.068  18.834  26.655  1.00  0.00     0.152 A 
HETATM    2  N3  UNL     1      19.545  20.111  26.870  1.00  0.00    -0.279 N 
ATOM      3  H3  UNL     1      20.186  20.600  26.245  1.00  0.00     0.189 HD
HETATM    4  N4  UNL     1      19.070  20.609  27.974  1.00  0.00    -0.241 N 
ATOM      5  H4  UNL     1      19.268  21.533  28.358  1.00  0.00     0.208 HD
HETATM    6  N5  UNL     1      18.292  19.701  28.497  1.00  0.00    -0.279 N 
ATOM      7  H5  UNL     1      17.779  19.813  29.371  1.00  0.00     0.189 HD
HETATM    8  C3  UNL     1      18.257  18.574  27.712  1.00  0.00     0.152 A 
ENDROOT
BRANCH   1   9
HETATM    9  C1  UNL     1      19.410  18.009  25.514  1.00  0.00     0.290 C 
HETATM   10  N2  UNL     1      18.342  17.482  24.720  1.00  0.00    -0.271 N 
ATOM     11  H2  UNL     1      17.380  17.701  24.976  1.00  0.00     0.189 HD
HETATM   12  O1  UNL     1      20.551  17.703  25.144  1.00  0.00    -0.264 OA
BRANCH  10  13
HETATM   13  N1  UNL     1      18.580  16.681  23.609  1.00  0.00    -0.342 N 
ATOM     14  H12 UNL     1      19.141  15.839  23.736  1.00  0.00     0.176 HD
ATOM     15  H11 UNL     1      18.211  16.914  22.688  1.00  0.00     0.176 HD
ENDBRANCH  10  13
ENDBRANCH   1   9
BRANCH   8  16
HETATM   16  C4  UNL     1      17.474  17.402  28.047  1.00  0.00     0.290 C 
HETATM   17  O2  UNL     1      16.255  17.433  28.249  1.00  0.00    -0.264 OA
HETATM   18  N6  UNL     1      18.100  16.115  28.164  1.00  0.00    -0.271 N 
ATOM     19  H6  UNL     1      19.103  16.011  28.013  1.00  0.00     0.189 HD
BRANCH  18  20
HETATM   20  N7  UNL     1      17.319  15.017  28.487  1.00  0.00    -0.342 N 
ATOM     21  H72 UNL     1      17.766  14.158  28.808  1.00  0.00     0.176 HD
ATOM     22  H71 UNL     1      16.305  15.089  28.396  1.00  0.00     0.176 HD
ENDBRANCH  18  20
ENDBRANCH   8  16
TORSDOF 4
ENDMDL
MODEL 5
REMARK VINA RESULT: -3.961373060      2.762      5.497
REMARK  4 active torsions:
REMARK  status: ('A' for Active; 'I' for Inactive)
REMARK    1  A    between atoms: N1_1  and  N2_4 
REMARK       I    between atoms: N2_4  and  C1_6 
REMARK    2  A    between atoms: C1_6  and  C2_8 
REMARK    3  A    between atoms: C3_15  and  C4_16 
REMARK       I    between atoms: C4_16  and  N6_18 
REMARK    4  A    between atoms: N6_18  and  N7_20 
ROOT
HETATM    1  C2  UNL     1      20.409  16.914  23.470  1.00  0.00     0.152 A 
HETATM    2  N3  UNL     1      21.190  15.778  23.415  1.00  0.00    -0.279 N 
ATOM      3  H3  UNL     1      21.040  14.947  23.986  1.00  0.00     0.189 HD
HETATM    4  N4  UNL     1      22.144  15.908  22.539  1.00  0.00    -0.241 N 
ATOM      5  H4  UNL     1      22.855  15.214  22.308  1.00  0.00     0.208 HD
HETATM    6  N5  UNL     1      22.017  17.095  22.012  1.00  0.00    -0.279 N 
ATOM      7  H5  UNL     1      22.629  17.475  21.290  1.00  0.00     0.189 HD
HETATM    8  C3  UNL     1      20.950  17.763  22.558  1.00  0.00     0.152 A 
ENDROOT
BRANCH   1   9
HETATM    9  C1  UNL     1      19.267  17.086  24.345  1.00  0.00     0.290 C 
HETATM   10  N2  UNL     1      19.473  16.954  25.755  1.00  0.00    -0.271 N 
ATOM     11  H2  UNL     1      20.410  16.745  26.101  1.00  0.00     0.189 HD
HETATM   12  O1  UNL     1      18.107  17.341  23.998  1.00  0.00    -0.264 OA
BRANCH  10  13
HETATM   13  N1  UNL     1      18.435  17.102  26.666  1.00  0.00    -0.342 N 
ATOM     14  H12 UNL     1      17.503  16.800  26.384  1.00  0.00     0.176 HD
ATOM     15  H11 UNL     1      18.584  17.500  27.593  1.00  0.00     0.176 HD
ENDBRANCH  10  13
ENDBRANCH   1   9
BRANCH   8  16
HETATM   16  C4  UNL     1      20.571  19.104  22.163  1.00  0.00     0.290 C 
HETATM   17  O2  UNL     1      21.366  20.048  22.107  1.00  0.00    -0.264 OA
HETATM   18  N6  UNL     1      19.211  19.404  21.808  1.00  0.00    -0.271 N 
ATOM     19  H6  UNL     1      18.497  18.676  21.831  1.00  0.00     0.189 HD
BRANCH  18  20
HETATM   20  N7  UNL     1      18.886  20.698  21.435  1.00  0.00    -0.342 N 
ATOM     21  H72 UNL     1      18.440  20.866  20.533  1.00  0.00     0.176 HD
ATOM     22  H71 UNL     1      19.099  21.464  22.075  1.00  0.00     0.176 HD
ENDBRANCH  18  20
ENDBRANCH   8  16
TORSDOF 4
ENDMDL
