MODEL 1
REMARK VINA RESULT: -6.925556543      0.000      0.000
REMARK  11 active torsions:
REMARK  status: ('A' for Active; 'I' for Inactive)
REMARK    1  A    between atoms: C1_2  and  C2_3 
REMARK    2  A    between atoms: C1_2  and  O9_31 
REMARK    3  A    between atoms: N1_4  and  N2_6 
REMARK    4  A    between atoms: N2_6  and  C3_8 
REMARK    5  A    between atoms: C3_8  and  N3_10 
REMARK    6  A    between atoms: N3_10  and  N4_12 
REMARK    7  A    between atoms: N4_12  and  C4_14 
REMARK    8  A    between atoms: C5_15  and  O2_16 
REMARK    9  A    between atoms: C6_18  and  N5_19 
REMARK   10  A    between atoms: C8_23  and  S2_24 
REMARK   11  A    between atoms: C9_28  and  O8_29 
ROOT
HETATM    1  C4  UNL     1      -7.078  23.756  44.301  1.00  0.00     0.118 A 
HETATM    2  C5  UNL     1      -8.230  23.850  43.548  1.00  0.00     0.130 A 
HETATM    3  C6  UNL     1      -8.276  24.710  42.451  1.00  0.00     0.140 A 
HETATM    4  C7  UNL     1      -7.196  25.478  42.091  1.00  0.00     0.068 A 
HETATM    5  C8  UNL     1      -6.044  25.383  42.845  1.00  0.00     0.118 A 
HETATM    6  C9  UNL     1      -5.995  24.521  43.946  1.00  0.00     0.121 A 
ENDROOT
BRANCH   1   7
HETATM    7  N4  UNL     1      -6.966  22.910  45.418  1.00  0.00    -0.293 N 
ATOM      8  H4  UNL     1      -6.740  21.930  45.249  1.00  0.00     0.187 HD
BRANCH   7   9
HETATM    9  N3  UNL     1      -7.141  23.310  46.732  1.00  0.00    -0.274 N 
ATOM     10  H3  UNL     1      -6.368  23.747  47.235  1.00  0.00     0.189 HD
BRANCH   9  11
HETATM   11  C3  UNL     1      -8.394  23.116  47.391  1.00  0.00     0.205 C 
HETATM   12  S1  UNL     1      -9.119  21.657  47.305  1.00  0.00    -0.038 SA
BRANCH  11  13
HETATM   13  N2  UNL     1      -9.018  24.168  48.116  1.00  0.00    -0.275 N 
ATOM     14  H2  UNL     1      -9.231  25.036  47.623  1.00  0.00     0.189 HD
BRANCH  13  15
HETATM   15  N1  UNL     1      -9.353  24.076  49.464  1.00  0.00    -0.304 N 
HETATM   16  C2  UNL     1      -9.713  25.123  50.095  1.00  0.00     0.190 C 
ATOM     17  H1  UNL     1      -9.311  23.177  49.943  1.00  0.00     0.186 HD
BRANCH  16  18
HETATM   18  C1  UNL     1      -9.778  26.405  49.434  1.00  0.00     0.312 C 
HETATM   19  O1  UNL     1      -8.847  26.893  48.756  1.00  0.00    -0.258 OA
BRANCH  18  20
HETATM   20  O9  UNL     1     -10.943  27.184  49.534  1.00  0.00    -0.226 OA
HETATM   21  S3  UNL     1     -12.093  26.823  50.728  1.00  0.00     0.103 SA
ENDBRANCH  18  20
ENDBRANCH  16  18
ENDBRANCH  13  15
ENDBRANCH  11  13
ENDBRANCH   9  11
ENDBRANCH   7   9
ENDBRANCH   1   7
BRANCH   2  22
HETATM   22  O2  UNL     1      -9.329  23.088  43.889  1.00  0.00    -0.356 OA
ATOM     23  H2  UNL     1     -10.059  23.024  43.285  1.00  0.00     0.218 HD
ENDBRANCH   2  22
BRANCH   6  24
HETATM   24  O8  UNL     1      -4.831  24.438  44.692  1.00  0.00    -0.357 OA
ATOM     25  H8  UNL     1      -4.106  25.020  44.492  1.00  0.00     0.218 HD
ENDBRANCH   6  24
BRANCH   3  26
HETATM   26  N5  UNL     1      -9.461  24.814  41.667  1.00  0.00    -0.113 N 
HETATM   27  O3  UNL     1     -10.415  25.445  42.109  1.00  0.00    -0.532 OA
HETATM   28  O4  UNL     1      -9.485  24.197  40.440  1.00  0.00    -0.532 OA
ENDBRANCH   3  26
BRANCH   5  29
HETATM   29  S2  UNL     1      -4.644  26.337  42.433  1.00  0.00     0.140 S 
HETATM   30  O5  UNL     1      -5.082  27.416  41.467  1.00  0.00    -0.591 OA
HETATM   31  O6  UNL     1      -3.983  26.922  43.630  1.00  0.00    -0.591 OA
HETATM   32  O7  UNL     1      -3.545  25.379  41.606  1.00  0.00    -0.591 OA
ENDBRANCH   5  29
TORSDOF 11
ENDMDL
MODEL 2
REMARK VINA RESULT: -6.884362292      1.329      1.473
REMARK  11 active torsions:
REMARK  status: ('A' for Active; 'I' for Inactive)
REMARK    1  A    between atoms: C1_2  and  C2_3 
REMARK    2  A    between atoms: C1_2  and  O9_31 
REMARK    3  A    between atoms: N1_4  and  N2_6 
REMARK    4  A    between atoms: N2_6  and  C3_8 
REMARK    5  A    between atoms: C3_8  and  N3_10 
REMARK    6  A    between atoms: N3_10  and  N4_12 
REMARK    7  A    between atoms: N4_12  and  C4_14 
REMARK    8  A    between atoms: C5_15  and  O2_16 
REMARK    9  A    between atoms: C6_18  and  N5_19 
REMARK   10  A    between atoms: C8_23  and  S2_24 
REMARK   11  A    between atoms: C9_28  and  O8_29 
ROOT
HETATM    1  C4  UNL     1      -7.031  23.745  44.390  1.00  0.00     0.118 A 
HETATM    2  C5  UNL     1      -8.180  23.796  43.629  1.00  0.00     0.130 A 
HETATM    3  C6  UNL     1      -8.229  24.612  42.499  1.00  0.00     0.140 A 
HETATM    4  C7  UNL     1      -7.156  25.377  42.114  1.00  0.00     0.068 A 
HETATM    5  C8  UNL     1      -6.007  25.324  42.877  1.00  0.00     0.118 A 
HETATM    6  C9  UNL     1      -5.954  24.507  44.012  1.00  0.00     0.121 A 
ENDROOT
BRANCH   1   7
HETATM    7  N4  UNL     1      -6.916  22.945  45.541  1.00  0.00    -0.293 N 
ATOM      8  H4  UNL     1      -6.521  23.375  46.378  1.00  0.00     0.187 HD
BRANCH   7   9
HETATM    9  N3  UNL     1      -7.297  21.616  45.621  1.00  0.00    -0.274 N 
ATOM     10  H3  UNL     1      -7.122  20.991  44.834  1.00  0.00     0.189 HD
BRANCH   9  11
HETATM   11  C3  UNL     1      -7.935  21.113  46.796  1.00  0.00     0.205 C 
HETATM   12  S1  UNL     1      -8.030  19.500  47.019  1.00  0.00    -0.038 SA
BRANCH  11  13
HETATM   13  N2  UNL     1      -8.488  21.989  47.771  1.00  0.00    -0.275 N 
ATOM     14  H2  UNL     1      -7.862  22.393  48.468  1.00  0.00     0.189 HD
BRANCH  13  15
HETATM   15  N1  UNL     1      -9.837  22.325  47.822  1.00  0.00    -0.304 N 
HETATM   16  C2  UNL     1     -10.177  23.537  48.017  1.00  0.00     0.190 C 
ATOM     17  H1  UNL     1     -10.550  21.605  47.705  1.00  0.00     0.186 HD
BRANCH  16  18
HETATM   18  C1  UNL     1      -9.182  24.570  48.186  1.00  0.00     0.312 C 
HETATM   19  O1  UNL     1      -8.382  24.928  47.292  1.00  0.00    -0.258 OA
BRANCH  18  20
HETATM   20  O9  UNL     1      -9.072  25.241  49.416  1.00  0.00    -0.226 OA
HETATM   21  S3  UNL     1     -10.191  26.454  49.811  1.00  0.00     0.103 SA
ENDBRANCH  18  20
ENDBRANCH  16  18
ENDBRANCH  13  15
ENDBRANCH  11  13
ENDBRANCH   9  11
ENDBRANCH   7   9
ENDBRANCH   1   7
BRANCH   2  22
HETATM   22  O2  UNL     1      -9.272  23.036  43.994  1.00  0.00    -0.356 OA
ATOM     23  H2  UNL     1     -10.085  23.468  44.227  1.00  0.00     0.218 HD
ENDBRANCH   2  22
BRANCH   6  24
HETATM   24  O8  UNL     1      -4.793  24.467  44.765  1.00  0.00    -0.357 OA
ATOM     25  H8  UNL     1      -4.379  23.630  44.941  1.00  0.00     0.218 HD
ENDBRANCH   6  24
BRANCH   3  26
HETATM   26  N5  UNL     1      -9.411  24.671  41.706  1.00  0.00    -0.113 N 
HETATM   27  O3  UNL     1     -10.346  25.373  42.079  1.00  0.00    -0.532 OA
HETATM   28  O4  UNL     1      -9.454  23.935  40.547  1.00  0.00    -0.532 OA
ENDBRANCH   3  26
BRANCH   5  29
HETATM   29  S2  UNL     1      -4.615  26.277  42.434  1.00  0.00     0.140 S 
HETATM   30  O5  UNL     1      -5.078  27.377  41.504  1.00  0.00    -0.591 OA
HETATM   31  O6  UNL     1      -3.909  26.836  43.618  1.00  0.00    -0.591 OA
HETATM   32  O7  UNL     1      -3.552  25.328  41.553  1.00  0.00    -0.591 OA
ENDBRANCH   5  29
TORSDOF 11
ENDMDL
MODEL 3
REMARK VINA RESULT: -6.867848376      2.875      8.293
REMARK  11 active torsions:
REMARK  status: ('A' for Active; 'I' for Inactive)
REMARK    1  A    between atoms: C1_2  and  C2_3 
REMARK    2  A    between atoms: C1_2  and  O9_31 
REMARK    3  A    between atoms: N1_4  and  N2_6 
REMARK    4  A    between atoms: N2_6  and  C3_8 
REMARK    5  A    between atoms: C3_8  and  N3_10 
REMARK    6  A    between atoms: N3_10  and  N4_12 
REMARK    7  A    between atoms: N4_12  and  C4_14 
REMARK    8  A    between atoms: C5_15  and  O2_16 
REMARK    9  A    between atoms: C6_18  and  N5_19 
REMARK   10  A    between atoms: C8_23  and  S2_24 
REMARK   11  A    between atoms: C9_28  and  O8_29 
ROOT
HETATM    1  C4  UNL     1      -8.877  24.520  48.393  1.00  0.00     0.118 A 
HETATM    2  C5  UNL     1      -9.435  25.683  48.881  1.00  0.00     0.130 A 
HETATM    3  C6  UNL     1     -10.292  25.634  49.980  1.00  0.00     0.140 A 
HETATM    4  C7  UNL     1     -10.604  24.450  50.601  1.00  0.00     0.068 A 
HETATM    5  C8  UNL     1     -10.044  23.287  50.111  1.00  0.00     0.118 A 
HETATM    6  C9  UNL     1      -9.184  23.332  49.008  1.00  0.00     0.121 A 
ENDROOT
BRANCH   1   7
HETATM    7  N4  UNL     1      -8.008  24.499  47.288  1.00  0.00    -0.293 N 
ATOM      8  H4  UNL     1      -7.084  24.915  47.406  1.00  0.00     0.187 HD
BRANCH   7   9
HETATM    9  N3  UNL     1      -8.314  23.956  46.052  1.00  0.00    -0.274 N 
ATOM     10  H3  UNL     1      -9.283  23.940  45.733  1.00  0.00     0.189 HD
BRANCH   9  11
HETATM   11  C3  UNL     1      -7.286  23.418  45.219  1.00  0.00     0.205 C 
HETATM   12  S1  UNL     1      -6.904  21.838  45.348  1.00  0.00    -0.038 SA
BRANCH  11  13
HETATM   13  N2  UNL     1      -6.590  24.234  44.283  1.00  0.00    -0.275 N 
ATOM     14  H2  UNL     1      -5.579  24.123  44.203  1.00  0.00     0.189 HD
BRANCH  13  15
HETATM   15  N1  UNL     1      -7.217  25.175  43.472  1.00  0.00    -0.304 N 
HETATM   16  C2  UNL     1      -6.512  25.956  42.755  1.00  0.00     0.190 C 
ATOM     17  H1  UNL     1      -8.235  25.240  43.453  1.00  0.00     0.186 HD
BRANCH  16  18
HETATM   18  C1  UNL     1      -5.070  25.881  42.769  1.00  0.00     0.312 C 
HETATM   19  O1  UNL     1      -4.332  26.660  43.413  1.00  0.00    -0.258 OA
BRANCH  18  20
HETATM   20  O9  UNL     1      -4.415  24.883  42.027  1.00  0.00    -0.226 OA
HETATM   21  S3  UNL     1      -3.439  25.324  40.710  1.00  0.00     0.103 SA
ENDBRANCH  18  20
ENDBRANCH  16  18
ENDBRANCH  13  15
ENDBRANCH  11  13
ENDBRANCH   9  11
ENDBRANCH   7   9
ENDBRANCH   1   7
BRANCH   2  22
HETATM   22  O2  UNL     1      -9.139  26.886  48.276  1.00  0.00    -0.356 OA
ATOM     23  H2  UNL     1      -9.734  27.243  47.627  1.00  0.00     0.218 HD
ENDBRANCH   2  22
BRANCH   6  24
HETATM   24  O8  UNL     1      -8.632  22.156  48.530  1.00  0.00    -0.357 OA
ATOM     25  H8  UNL     1      -9.173  21.555  48.030  1.00  0.00     0.218 HD
ENDBRANCH   6  24
BRANCH   3  26
HETATM   26  N5  UNL     1     -10.873  26.829  50.493  1.00  0.00    -0.113 N 
HETATM   27  O3  UNL     1     -10.613  27.175  51.641  1.00  0.00    -0.532 OA
HETATM   28  O4  UNL     1     -11.707  27.551  49.674  1.00  0.00    -0.532 OA
ENDBRANCH   3  26
BRANCH   5  29
HETATM   29  S2  UNL     1     -10.407  21.755  50.861  1.00  0.00     0.140 S 
HETATM   30  O5  UNL     1     -11.156  20.908  49.855  1.00  0.00    -0.591 OA
HETATM   31  O6  UNL     1      -9.186  21.057  51.347  1.00  0.00    -0.591 OA
HETATM   32  O7  UNL     1     -11.453  22.001  52.147  1.00  0.00    -0.591 OA
ENDBRANCH   5  29
TORSDOF 11
ENDMDL
MODEL 4
REMARK VINA RESULT: -6.833702440      2.698      4.429
REMARK  11 active torsions:
REMARK  status: ('A' for Active; 'I' for Inactive)
REMARK    1  A    between atoms: C1_2  and  C2_3 
REMARK    2  A    between atoms: C1_2  and  O9_31 
REMARK    3  A    between atoms: N1_4  and  N2_6 
REMARK    4  A    between atoms: N2_6  and  C3_8 
REMARK    5  A    between atoms: C3_8  and  N3_10 
REMARK    6  A    between atoms: N3_10  and  N4_12 
REMARK    7  A    between atoms: N4_12  and  C4_14 
REMARK    8  A    between atoms: C5_15  and  O2_16 
REMARK    9  A    between atoms: C6_18  and  N5_19 
REMARK   10  A    between atoms: C8_23  and  S2_24 
REMARK   11  A    between atoms: C9_28  and  O8_29 
ROOT
HETATM    1  C4  UNL     1      -7.086  23.783  44.349  1.00  0.00     0.118 A 
HETATM    2  C5  UNL     1      -8.232  23.868  43.587  1.00  0.00     0.130 A 
HETATM    3  C6  UNL     1      -8.263  24.700  42.468  1.00  0.00     0.140 A 
HETATM    4  C7  UNL     1      -7.175  25.448  42.095  1.00  0.00     0.068 A 
HETATM    5  C8  UNL     1      -6.028  25.362  42.858  1.00  0.00     0.118 A 
HETATM    6  C9  UNL     1      -5.993  24.528  43.982  1.00  0.00     0.121 A 
ENDROOT
BRANCH   1   7
HETATM    7  N4  UNL     1      -6.988  22.965  45.488  1.00  0.00    -0.293 N 
ATOM      8  H4  UNL     1      -6.306  22.207  45.469  1.00  0.00     0.187 HD
BRANCH   7   9
HETATM    9  N3  UNL     1      -7.751  23.113  46.634  1.00  0.00    -0.274 N 
ATOM     10  H3  UNL     1      -8.064  24.042  46.917  1.00  0.00     0.189 HD
BRANCH   9  11
HETATM   11  C3  UNL     1      -8.104  21.977  47.424  1.00  0.00     0.205 C 
HETATM   12  S1  UNL     1      -9.085  22.177  48.712  1.00  0.00    -0.038 SA
BRANCH  11  13
HETATM   13  N2  UNL     1      -7.614  20.678  47.111  1.00  0.00    -0.275 N 
ATOM     14  H2  UNL     1      -6.629  20.579  46.865  1.00  0.00     0.189 HD
BRANCH  13  15
HETATM   15  N1  UNL     1      -8.409  19.535  47.123  1.00  0.00    -0.304 N 
HETATM   16  C2  UNL     1      -8.664  18.936  46.029  1.00  0.00     0.190 C 
ATOM     17  H1  UNL     1      -8.786  19.182  48.002  1.00  0.00     0.186 HD
BRANCH  16  18
HETATM   18  C1  UNL     1      -8.140  19.422  44.774  1.00  0.00     0.312 C 
HETATM   19  O1  UNL     1      -8.501  20.488  44.229  1.00  0.00    -0.258 OA
BRANCH  18  20
HETATM   20  O9  UNL     1      -7.161  18.681  44.091  1.00  0.00    -0.226 OA
HETATM   21  S3  UNL     1      -6.484  17.309  44.827  1.00  0.00     0.103 SA
ENDBRANCH  18  20
ENDBRANCH  16  18
ENDBRANCH  13  15
ENDBRANCH  11  13
ENDBRANCH   9  11
ENDBRANCH   7   9
ENDBRANCH   1   7
BRANCH   2  22
HETATM   22  O2  UNL     1      -9.340  23.126  43.940  1.00  0.00    -0.356 OA
ATOM     23  H2  UNL     1      -9.967  23.485  44.557  1.00  0.00     0.218 HD
ENDBRANCH   2  22
BRANCH   6  24
HETATM   24  O8  UNL     1      -4.835  24.455  44.736  1.00  0.00    -0.357 OA
ATOM     25  H8  UNL     1      -4.648  25.134  45.374  1.00  0.00     0.218 HD
ENDBRANCH   6  24
BRANCH   3  26
HETATM   26  N5  UNL     1      -9.443  24.794  41.674  1.00  0.00    -0.113 N 
HETATM   27  O3  UNL     1     -10.407  25.416  42.109  1.00  0.00    -0.532 OA
HETATM   28  O4  UNL     1      -9.451  24.180  40.446  1.00  0.00    -0.532 OA
ENDBRANCH   3  26
BRANCH   5  29
HETATM   29  S2  UNL     1      -4.617  26.293  42.430  1.00  0.00     0.140 S 
HETATM   30  O5  UNL     1      -5.055  27.410  41.508  1.00  0.00    -0.591 OA
HETATM   31  O6  UNL     1      -3.906  26.827  43.622  1.00  0.00    -0.591 OA
HETATM   32  O7  UNL     1      -3.568  25.331  41.544  1.00  0.00    -0.591 OA
ENDBRANCH   5  29
TORSDOF 11
ENDMDL
MODEL 5
REMARK VINA RESULT: -6.806999231      2.587      4.090
REMARK  11 active torsions:
REMARK  status: ('A' for Active; 'I' for Inactive)
REMARK    1  A    between atoms: C1_2  and  C2_3 
REMARK    2  A    between atoms: C1_2  and  O9_31 
REMARK    3  A    between atoms: N1_4  and  N2_6 
REMARK    4  A    between atoms: N2_6  and  C3_8 
REMARK    5  A    between atoms: C3_8  and  N3_10 
REMARK    6  A    between atoms: N3_10  and  N4_12 
REMARK    7  A    between atoms: N4_12  and  C4_14 
REMARK    8  A    between atoms: C5_15  and  O2_16 
REMARK    9  A    between atoms: C6_18  and  N5_19 
REMARK   10  A    between atoms: C8_23  and  S2_24 
REMARK   11  A    between atoms: C9_28  and  O8_29 
ROOT
HETATM    1  C4  UNL     1      -7.094  23.743  44.291  1.00  0.00     0.118 A 
HETATM    2  C5  UNL     1      -8.242  23.848  43.535  1.00  0.00     0.130 A 
HETATM    3  C6  UNL     1      -8.273  24.704  42.434  1.00  0.00     0.140 A 
HETATM    4  C7  UNL     1      -7.183  25.456  42.074  1.00  0.00     0.068 A 
HETATM    5  C8  UNL     1      -6.035  25.349  42.831  1.00  0.00     0.118 A 
HETATM    6  C9  UNL     1      -6.000  24.492  43.937  1.00  0.00     0.121 A 
ENDROOT
BRANCH   1   7
HETATM    7  N4  UNL     1      -6.996  22.901  45.413  1.00  0.00    -0.293 N 
ATOM      8  H4  UNL     1      -6.602  21.970  45.273  1.00  0.00     0.187 HD
BRANCH   7   9
HETATM    9  N3  UNL     1      -7.397  23.242  46.694  1.00  0.00    -0.274 N 
ATOM     10  H3  UNL     1      -6.835  23.892  47.243  1.00  0.00     0.189 HD
BRANCH   9  11
HETATM   11  C3  UNL     1      -8.590  22.691  47.254  1.00  0.00     0.205 C 
HETATM   12  S1  UNL     1      -9.043  23.138  48.756  1.00  0.00    -0.038 SA
BRANCH  11  13
HETATM   13  N2  UNL     1      -9.386  21.762  46.528  1.00  0.00    -0.275 N 
ATOM     14  H2  UNL     1      -9.903  22.100  45.715  1.00  0.00     0.189 HD
BRANCH  13  15
HETATM   15  N1  UNL     1      -9.498  20.417  46.868  1.00  0.00    -0.304 N 
HETATM   16  C2  UNL     1      -9.140  19.525  46.033  1.00  0.00     0.190 C 
ATOM     17  H1  UNL     1      -9.865  20.148  47.781  1.00  0.00     0.186 HD
BRANCH  16  18
HETATM   18  C1  UNL     1      -8.619  19.887  44.735  1.00  0.00     0.312 C 
HETATM   19  O1  UNL     1      -7.400  19.977  44.469  1.00  0.00    -0.258 OA
BRANCH  18  20
HETATM   20  O9  UNL     1      -9.503  20.163  43.679  1.00  0.00    -0.226 OA
HETATM   21  S3  UNL     1      -9.884  18.942  42.564  1.00  0.00     0.103 SA
ENDBRANCH  18  20
ENDBRANCH  16  18
ENDBRANCH  13  15
ENDBRANCH  11  13
ENDBRANCH   9  11
ENDBRANCH   7   9
ENDBRANCH   1   7
BRANCH   2  22
HETATM   22  O2  UNL     1      -9.351  23.103  43.875  1.00  0.00    -0.356 OA
ATOM     23  H2  UNL     1      -9.856  22.675  43.193  1.00  0.00     0.218 HD
ENDBRANCH   2  22
BRANCH   6  24
HETATM   24  O8  UNL     1      -4.839  24.398  44.687  1.00  0.00    -0.357 OA
ATOM     25  H8  UNL     1      -4.095  24.946  44.466  1.00  0.00     0.218 HD
ENDBRANCH   6  24
BRANCH   3  26
HETATM   26  N5  UNL     1      -9.454  24.819  41.646  1.00  0.00    -0.113 N 
HETATM   27  O3  UNL     1     -10.412  25.441  42.093  1.00  0.00    -0.532 OA
HETATM   28  O4  UNL     1      -9.471  24.223  40.408  1.00  0.00    -0.532 OA
ENDBRANCH   3  26
BRANCH   5  29
HETATM   29  S2  UNL     1      -4.621  26.284  42.419  1.00  0.00     0.140 S 
HETATM   30  O5  UNL     1      -5.052  27.400  41.494  1.00  0.00    -0.591 OA
HETATM   31  O6  UNL     1      -3.924  26.819  43.619  1.00  0.00    -0.591 OA
HETATM   32  O7  UNL     1      -3.560  25.326  41.544  1.00  0.00    -0.591 OA
ENDBRANCH   5  29
TORSDOF 11
ENDMDL
