MODEL 1
REMARK VINA RESULT: -6.767360953      0.000      0.000
REMARK  9 active torsions:
REMARK  status: ('A' for Active; 'I' for Inactive)
REMARK    1  A    between atoms: C2_3  and  C3_5 
REMARK    2  A    between atoms: C3_5  and  C4_6 
REMARK    3  A    between atoms: C3_5  and  N5_26 
REMARK       I    between atoms: C4_6  and  N2_8 
REMARK    4  A    between atoms: N2_8  and  N3_10 
REMARK    5  A    between atoms: C5_12  and  C6_13 
REMARK    6  A    between atoms: C8_15  and  N4_16 
REMARK    7  A    between atoms: C10_20  and  O5_21 
REMARK    8  A    between atoms: C11_23  and  O6_24 
REMARK    9  A    between atoms: C15_30  and  C16_31 
ROOT
HETATM    1  N1  UNL     1      -6.393  24.306  43.325  1.00  0.00    -0.188 NA
HETATM    2  C1  UNL     1      -6.618  23.803  44.345  1.00  0.00     0.141 C 
HETATM    3  C2  UNL     1      -6.900  23.195  45.609  1.00  0.00     0.260 C 
HETATM    4  O1  UNL     1      -6.046  23.334  46.549  1.00  0.00    -0.278 OA
ENDROOT
BRANCH   3   5
HETATM    5  C3  UNL     1      -8.160  22.425  45.806  1.00  0.00     0.271 C 
BRANCH   5   6
HETATM    6  C4  UNL     1      -9.132  23.203  46.588  1.00  0.00     0.268 C 
HETATM    7  O2  UNL     1     -10.386  23.133  46.386  1.00  0.00    -0.269 OA
HETATM    8  N2  UNL     1      -8.663  24.070  47.609  1.00  0.00    -0.268 N 
ATOM      9  H2  UNL     1      -7.662  24.142  47.788  1.00  0.00     0.190 HD
BRANCH   8  10
HETATM   10  N3  UNL     1      -9.550  24.820  48.369  1.00  0.00    -0.308 N 
HETATM   11  C5  UNL     1      -9.883  24.447  49.549  1.00  0.00     0.121 C 
ATOM     12  H3  UNL     1      -9.942  25.680  47.983  1.00  0.00     0.186 HD
BRANCH  11  13
HETATM   13  C6  UNL     1     -10.783  25.108  50.457  1.00  0.00     0.019 A 
HETATM   14  C7  UNL     1     -10.999  24.530  51.711  1.00  0.00     0.052 A 
HETATM   15  C8  UNL     1     -11.828  25.063  52.654  1.00  0.00     0.106 A 
HETATM   16  C9  UNL     1     -12.471  26.239  52.316  1.00  0.00     0.075 A 
HETATM   17  C10 UNL     1     -12.306  26.851  51.122  1.00  0.00     0.102 A 
HETATM   18  C11 UNL     1     -11.451  26.283  50.173  1.00  0.00     0.110 A 
BRANCH  15  19
HETATM   19  N4  UNL     1     -12.029  24.450  53.925  1.00  0.00    -0.116 N 
HETATM   20  O3  UNL     1     -13.142  24.324  54.423  1.00  0.00    -0.532 OA
HETATM   21  O4  UNL     1     -10.938  23.985  54.616  1.00  0.00    -0.532 OA
ENDBRANCH  15  19
BRANCH  17  22
HETATM   22  O5  UNL     1     -12.980  28.030  50.842  1.00  0.00    -0.358 OA
ATOM     23  H5  UNL     1     -12.501  28.800  50.560  1.00  0.00     0.217 HD
ENDBRANCH  17  22
BRANCH  18  24
HETATM   24  O6  UNL     1     -11.332  26.944  49.005  1.00  0.00    -0.357 OA
ATOM     25  H6  UNL     1     -10.852  27.758  48.908  1.00  0.00     0.217 HD
ENDBRANCH  18  24
ENDBRANCH  11  13
ENDBRANCH   8  10
ENDBRANCH   5   6
BRANCH   5  26
HETATM   26  N5  UNL     1      -7.922  21.110  46.349  1.00  0.00    -0.302 N 
HETATM   27  C12 UNL     1      -7.969  20.931  47.683  1.00  0.00     0.096 A 
HETATM   28  C13 UNL     1      -7.752  19.702  48.272  1.00  0.00     0.018 A 
HETATM   29  C14 UNL     1      -7.475  18.596  47.500  1.00  0.00     0.022 A 
HETATM   30  C15 UNL     1      -7.424  18.765  46.135  1.00  0.00     0.073 A 
HETATM   31  C17 UNL     1      -7.653  20.037  45.596  1.00  0.00     0.262 A 
HETATM   32  O7  UNL     1      -7.600  20.165  44.343  1.00  0.00    -0.267 OA
BRANCH  30  33
HETATM   33  C16 UNL     1      -7.136  17.624  45.300  1.00  0.00     0.125 C 
HETATM   34  N6  UNL     1      -5.971  17.493  44.791  1.00  0.00    -0.387 N 
ATOM     35  H62 UNL     1      -5.249  18.190  44.973  1.00  0.00     0.157 HD
ATOM     36  H61 UNL     1      -5.767  16.687  44.200  1.00  0.00     0.157 HD
HETATM   37  N7  UNL     1      -8.132  16.663  45.049  1.00  0.00    -0.082 NA
ENDBRANCH  30  33
ENDBRANCH   5  26
ENDBRANCH   3   5
TORSDOF 9
ENDMDL
MODEL 2
REMARK VINA RESULT: -6.724136699      1.765      4.463
REMARK  9 active torsions:
REMARK  status: ('A' for Active; 'I' for Inactive)
REMARK    1  A    between atoms: C2_3  and  C3_5 
REMARK    2  A    between atoms: C3_5  and  C4_6 
REMARK    3  A    between atoms: C3_5  and  N5_26 
REMARK       I    between atoms: C4_6  and  N2_8 
REMARK    4  A    between atoms: N2_8  and  N3_10 
REMARK    5  A    between atoms: C5_12  and  C6_13 
REMARK    6  A    between atoms: C8_15  and  N4_16 
REMARK    7  A    between atoms: C10_20  and  O5_21 
REMARK    8  A    between atoms: C11_23  and  O6_24 
REMARK    9  A    between atoms: C15_30  and  C16_31 
ROOT
HETATM    1  N1  UNL     1      -8.655  20.363  47.706  1.00  0.00    -0.188 NA
HETATM    2  C1  UNL     1      -8.207  20.983  46.834  1.00  0.00     0.141 C 
HETATM    3  C2  UNL     1      -7.666  21.747  45.752  1.00  0.00     0.260 C 
HETATM    4  O1  UNL     1      -7.306  21.125  44.696  1.00  0.00    -0.278 OA
ENDROOT
BRANCH   3   5
HETATM    5  C3  UNL     1      -7.534  23.225  45.871  1.00  0.00     0.271 C 
BRANCH   5   6
HETATM    6  C4  UNL     1      -8.647  23.788  46.649  1.00  0.00     0.268 C 
HETATM    7  O2  UNL     1      -9.857  23.437  46.468  1.00  0.00    -0.269 OA
HETATM    8  N2  UNL     1      -8.373  24.764  47.642  1.00  0.00    -0.268 N 
ATOM      9  H2  UNL     1      -7.411  25.062  47.804  1.00  0.00     0.190 HD
BRANCH   8  10
HETATM   10  N3  UNL     1      -9.397  25.319  48.397  1.00  0.00    -0.308 N 
HETATM   11  C5  UNL     1      -9.597  24.946  49.608  1.00  0.00     0.121 C 
ATOM     12  H3  UNL     1      -9.999  26.032  47.984  1.00  0.00     0.186 HD
BRANCH  11  13
HETATM   13  C6  UNL     1     -10.608  25.421  50.516  1.00  0.00     0.019 A 
HETATM   14  C7  UNL     1     -10.826  24.704  51.695  1.00  0.00     0.052 A 
HETATM   15  C8  UNL     1     -11.754  25.055  52.631  1.00  0.00     0.106 A 
HETATM   16  C9  UNL     1     -12.501  26.186  52.364  1.00  0.00     0.075 A 
HETATM   17  C10 UNL     1     -12.341  26.926  51.244  1.00  0.00     0.102 A 
HETATM   18  C11 UNL     1     -11.382  26.544  50.301  1.00  0.00     0.110 A 
BRANCH  15  19
HETATM   19  N4  UNL     1     -11.954  24.302  53.825  1.00  0.00    -0.116 N 
HETATM   20  O3  UNL     1     -11.286  23.310  54.092  1.00  0.00    -0.532 OA
HETATM   21  O4  UNL     1     -12.927  24.702  54.706  1.00  0.00    -0.532 OA
ENDBRANCH  15  19
BRANCH  17  22
HETATM   22  O5  UNL     1     -13.122  28.053  51.033  1.00  0.00    -0.358 OA
ATOM     23  H5  UNL     1     -13.057  28.797  51.620  1.00  0.00     0.217 HD
ENDBRANCH  17  22
BRANCH  18  24
HETATM   24  O6  UNL     1     -11.275  27.325  49.208  1.00  0.00    -0.357 OA
ATOM     25  H6  UNL     1     -11.075  28.253  49.243  1.00  0.00     0.217 HD
ENDBRANCH  18  24
ENDBRANCH  11  13
ENDBRANCH   8  10
ENDBRANCH   5   6
BRANCH   5  26
HETATM   26  N5  UNL     1      -7.359  23.868  44.591  1.00  0.00    -0.302 N 
HETATM   27  C12 UNL     1      -8.386  23.890  43.721  1.00  0.00     0.096 A 
HETATM   28  C13 UNL     1      -8.290  24.485  42.479  1.00  0.00     0.018 A 
HETATM   29  C14 UNL     1      -7.117  25.089  42.082  1.00  0.00     0.022 A 
HETATM   30  C15 UNL     1      -6.060  25.073  42.963  1.00  0.00     0.073 A 
HETATM   31  C17 UNL     1      -6.217  24.453  44.208  1.00  0.00     0.262 A 
HETATM   32  O7  UNL     1      -5.234  24.452  44.997  1.00  0.00    -0.267 OA
BRANCH  30  33
HETATM   33  C16 UNL     1      -4.818  25.697  42.575  1.00  0.00     0.125 C 
HETATM   34  N6  UNL     1      -4.147  25.215  41.601  1.00  0.00    -0.387 N 
ATOM     35  H62 UNL     1      -4.486  24.394  41.100  1.00  0.00     0.157 HD
ATOM     36  H61 UNL     1      -3.269  25.656  41.327  1.00  0.00     0.157 HD
HETATM   37  N7  UNL     1      -4.351  26.830  43.266  1.00  0.00    -0.082 NA
ENDBRANCH  30  33
ENDBRANCH   5  26
ENDBRANCH   3   5
TORSDOF 9
ENDMDL
MODEL 3
REMARK VINA RESULT: -6.703508162      1.841      2.478
REMARK  9 active torsions:
REMARK  status: ('A' for Active; 'I' for Inactive)
REMARK    1  A    between atoms: C2_3  and  C3_5 
REMARK    2  A    between atoms: C3_5  and  C4_6 
REMARK    3  A    between atoms: C3_5  and  N5_26 
REMARK       I    between atoms: C4_6  and  N2_8 
REMARK    4  A    between atoms: N2_8  and  N3_10 
REMARK    5  A    between atoms: C5_12  and  C6_13 
REMARK    6  A    between atoms: C8_15  and  N4_16 
REMARK    7  A    between atoms: C10_20  and  O5_21 
REMARK    8  A    between atoms: C11_23  and  O6_24 
REMARK    9  A    between atoms: C15_30  and  C16_31 
ROOT
HETATM    1  N1  UNL     1      -5.696  23.561  44.099  1.00  0.00    -0.188 NA
HETATM    2  C1  UNL     1      -6.488  23.543  44.945  1.00  0.00     0.141 C 
HETATM    3  C2  UNL     1      -7.473  23.532  45.983  1.00  0.00     0.260 C 
HETATM    4  O1  UNL     1      -7.360  24.382  46.930  1.00  0.00    -0.278 OA
ENDROOT
BRANCH   3   5
HETATM    5  C3  UNL     1      -8.591  22.549  45.945  1.00  0.00     0.271 C 
BRANCH   5   6
HETATM    6  C4  UNL     1      -9.797  23.105  46.575  1.00  0.00     0.268 C 
HETATM    7  O2  UNL     1     -10.908  23.202  45.962  1.00  0.00    -0.269 OA
HETATM    8  N2  UNL     1      -9.731  23.555  47.920  1.00  0.00    -0.268 N 
ATOM      9  H2  UNL     1      -8.851  23.488  48.430  1.00  0.00     0.190 HD
BRANCH   8  10
HETATM   10  N3  UNL     1     -10.849  24.085  48.549  1.00  0.00    -0.308 N 
HETATM   11  C5  UNL     1     -10.752  25.121  49.298  1.00  0.00     0.121 C 
ATOM     12  H3  UNL     1     -11.760  23.644  48.414  1.00  0.00     0.186 HD
BRANCH  11  13
HETATM   13  C6  UNL     1     -11.807  25.787  50.015  1.00  0.00     0.019 A 
HETATM   14  C7  UNL     1     -13.126  25.552  49.618  1.00  0.00     0.052 A 
HETATM   15  C8  UNL     1     -14.208  26.124  50.220  1.00  0.00     0.106 A 
HETATM   16  C9  UNL     1     -13.947  26.978  51.275  1.00  0.00     0.075 A 
HETATM   17  C10 UNL     1     -12.696  27.248  51.710  1.00  0.00     0.102 A 
HETATM   18  C11 UNL     1     -11.605  26.648  51.076  1.00  0.00     0.110 A 
BRANCH  15  19
HETATM   19  N4  UNL     1     -15.543  25.865  49.793  1.00  0.00    -0.116 N 
HETATM   20  O3  UNL     1     -16.210  24.945  50.253  1.00  0.00    -0.532 OA
HETATM   21  O4  UNL     1     -16.100  26.671  48.831  1.00  0.00    -0.532 OA
ENDBRANCH  15  19
BRANCH  17  22
HETATM   22  O5  UNL     1     -12.498  28.114  52.775  1.00  0.00    -0.358 OA
ATOM     23  H5  UNL     1     -11.623  28.269  53.111  1.00  0.00     0.217 HD
ENDBRANCH  17  22
BRANCH  18  24
HETATM   24  O6  UNL     1     -10.386  26.961  51.559  1.00  0.00    -0.357 OA
ATOM     25  H6  UNL     1      -9.973  27.807  51.433  1.00  0.00     0.217 HD
ENDBRANCH  18  24
ENDBRANCH  11  13
ENDBRANCH   8  10
ENDBRANCH   5   6
BRANCH   5  26
HETATM   26  N5  UNL     1      -8.214  21.265  46.483  1.00  0.00    -0.302 N 
HETATM   27  C12 UNL     1      -8.080  21.124  47.816  1.00  0.00     0.096 A 
HETATM   28  C13 UNL     1      -7.722  19.926  48.400  1.00  0.00     0.018 A 
HETATM   29  C14 UNL     1      -7.485  18.813  47.624  1.00  0.00     0.022 A 
HETATM   30  C15 UNL     1      -7.619  18.944  46.261  1.00  0.00     0.073 A 
HETATM   31  C17 UNL     1      -7.984  20.185  45.726  1.00  0.00     0.262 A 
HETATM   32  O7  UNL     1      -8.100  20.279  44.474  1.00  0.00    -0.267 OA
BRANCH  30  33
HETATM   33  C16 UNL     1      -7.377  17.795  45.422  1.00  0.00     0.125 C 
HETATM   34  N6  UNL     1      -8.358  17.217  44.844  1.00  0.00    -0.387 N 
ATOM     35  H62 UNL     1      -9.308  17.565  44.974  1.00  0.00     0.157 HD
ATOM     36  H61 UNL     1      -8.188  16.404  44.252  1.00  0.00     0.157 HD
HETATM   37  N7  UNL     1      -6.066  17.315  45.244  1.00  0.00    -0.082 NA
ENDBRANCH  30  33
ENDBRANCH   5  26
ENDBRANCH   3   5
TORSDOF 9
ENDMDL
MODEL 4
REMARK VINA RESULT: -6.671958289      2.046      4.993
REMARK  9 active torsions:
REMARK  status: ('A' for Active; 'I' for Inactive)
REMARK    1  A    between atoms: C2_3  and  C3_5 
REMARK    2  A    between atoms: C3_5  and  C4_6 
REMARK    3  A    between atoms: C3_5  and  N5_26 
REMARK       I    between atoms: C4_6  and  N2_8 
REMARK    4  A    between atoms: N2_8  and  N3_10 
REMARK    5  A    between atoms: C5_12  and  C6_13 
REMARK    6  A    between atoms: C8_15  and  N4_16 
REMARK    7  A    between atoms: C10_20  and  O5_21 
REMARK    8  A    between atoms: C11_23  and  O6_24 
REMARK    9  A    between atoms: C15_30  and  C16_31 
ROOT
HETATM    1  N1  UNL     1      -7.396  19.423  44.376  1.00  0.00    -0.188 NA
HETATM    2  C1  UNL     1      -7.859  20.415  44.756  1.00  0.00     0.141 C 
HETATM    3  C2  UNL     1      -8.432  21.634  45.239  1.00  0.00     0.260 C 
HETATM    4  O1  UNL     1      -9.697  21.682  45.408  1.00  0.00    -0.278 OA
ENDROOT
BRANCH   3   5
HETATM    5  C3  UNL     1      -7.561  22.806  45.532  1.00  0.00     0.271 C 
BRANCH   5   6
HETATM    6  C4  UNL     1      -8.037  23.529  46.720  1.00  0.00     0.268 C 
HETATM    7  O2  UNL     1      -8.001  24.797  46.811  1.00  0.00    -0.269 OA
HETATM    8  N2  UNL     1      -8.558  22.792  47.815  1.00  0.00    -0.268 N 
ATOM      9  H2  UNL     1      -8.595  21.774  47.765  1.00  0.00     0.190 HD
BRANCH   8  10
HETATM   10  N3  UNL     1      -9.018  23.438  48.954  1.00  0.00    -0.308 N 
HETATM   11  C5  UNL     1     -10.274  23.535  49.193  1.00  0.00     0.121 C 
ATOM     12  H3  UNL     1      -8.348  23.841  49.610  1.00  0.00     0.186 HD
BRANCH  11  13
HETATM   13  C6  UNL     1     -10.906  24.168  50.320  1.00  0.00     0.019 A 
HETATM   14  C7  UNL     1     -11.894  25.124  50.072  1.00  0.00     0.052 A 
HETATM   15  C8  UNL     1     -12.563  25.790  51.057  1.00  0.00     0.106 A 
HETATM   16  C9  UNL     1     -12.218  25.477  52.358  1.00  0.00     0.075 A 
HETATM   17  C10 UNL     1     -11.272  24.562  52.668  1.00  0.00     0.102 A 
HETATM   18  C11 UNL     1     -10.602  23.893  51.639  1.00  0.00     0.110 A 
BRANCH  15  19
HETATM   19  N4  UNL     1     -13.567  26.761  50.773  1.00  0.00    -0.116 N 
HETATM   20  O3  UNL     1     -14.602  26.478  50.180  1.00  0.00    -0.532 OA
HETATM   21  O4  UNL     1     -13.368  28.058  51.175  1.00  0.00    -0.532 OA
ENDBRANCH  15  19
BRANCH  17  22
HETATM   22  O5  UNL     1     -10.970  24.290  53.994  1.00  0.00    -0.358 OA
ATOM     23  H5  UNL     1     -10.089  24.428  54.322  1.00  0.00     0.217 HD
ENDBRANCH  17  22
BRANCH  18  24
HETATM   24  O6  UNL     1      -9.671  22.995  52.018  1.00  0.00    -0.357 OA
ATOM     25  H6  UNL     1      -9.600  22.653  52.901  1.00  0.00     0.217 HD
ENDBRANCH  18  24
ENDBRANCH  11  13
ENDBRANCH   8  10
ENDBRANCH   5   6
BRANCH   5  26
HETATM   26  N5  UNL     1      -7.386  23.663  44.383  1.00  0.00    -0.302 N 
HETATM   27  C12 UNL     1      -8.430  23.882  43.562  1.00  0.00     0.096 A 
HETATM   28  C13 UNL     1      -8.335  24.688  42.446  1.00  0.00     0.018 A 
HETATM   29  C14 UNL     1      -7.146  25.308  42.130  1.00  0.00     0.022 A 
HETATM   30  C15 UNL     1      -6.072  25.092  42.962  1.00  0.00     0.073 A 
HETATM   31  C17 UNL     1      -6.228  24.263  44.079  1.00  0.00     0.262 A 
HETATM   32  O7  UNL     1      -5.229  24.081  44.825  1.00  0.00    -0.267 OA
BRANCH  30  33
HETATM   33  C16 UNL     1      -4.813  25.728  42.656  1.00  0.00     0.125 C 
HETATM   34  N6  UNL     1      -4.025  25.191  41.805  1.00  0.00    -0.387 N 
ATOM     35  H62 UNL     1      -4.284  24.319  41.344  1.00  0.00     0.157 HD
ATOM     36  H61 UNL     1      -3.135  25.640  41.589  1.00  0.00     0.157 HD
HETATM   37  N7  UNL     1      -4.456  26.931  43.292  1.00  0.00    -0.082 NA
ENDBRANCH  30  33
ENDBRANCH   5  26
ENDBRANCH   3   5
TORSDOF 9
ENDMDL
MODEL 5
REMARK VINA RESULT: -6.581972041      1.097      2.386
REMARK  9 active torsions:
REMARK  status: ('A' for Active; 'I' for Inactive)
REMARK    1  A    between atoms: C2_3  and  C3_5 
REMARK    2  A    between atoms: C3_5  and  C4_6 
REMARK    3  A    between atoms: C3_5  and  N5_26 
REMARK       I    between atoms: C4_6  and  N2_8 
REMARK    4  A    between atoms: N2_8  and  N3_10 
REMARK    5  A    between atoms: C5_12  and  C6_13 
REMARK    6  A    between atoms: C8_15  and  N4_16 
REMARK    7  A    between atoms: C10_20  and  O5_21 
REMARK    8  A    between atoms: C11_23  and  O6_24 
REMARK    9  A    between atoms: C15_30  and  C16_31 
ROOT
HETATM    1  N1  UNL     1      -6.722  24.239  43.468  1.00  0.00    -0.188 NA
HETATM    2  C1  UNL     1      -6.794  23.587  44.424  1.00  0.00     0.141 C 
HETATM    3  C2  UNL     1      -6.885  22.794  45.612  1.00  0.00     0.260 C 
HETATM    4  O1  UNL     1      -5.881  22.771  46.400  1.00  0.00    -0.278 OA
ENDROOT
BRANCH   3   5
HETATM    5  C3  UNL     1      -8.126  22.023  45.904  1.00  0.00     0.271 C 
BRANCH   5   6
HETATM    6  C4  UNL     1      -8.982  22.749  46.852  1.00  0.00     0.268 C 
HETATM    7  O2  UNL     1     -10.245  22.820  46.720  1.00  0.00    -0.269 OA
HETATM    8  N2  UNL     1      -8.386  23.401  47.963  1.00  0.00    -0.268 N 
ATOM      9  H2  UNL     1      -7.375  23.358  48.089  1.00  0.00     0.190 HD
BRANCH   8  10
HETATM   10  N3  UNL     1      -9.162  24.096  48.881  1.00  0.00    -0.308 N 
HETATM   11  C5  UNL     1      -9.495  23.562  49.997  1.00  0.00     0.121 C 
ATOM     12  H3  UNL     1      -9.470  25.045  48.664  1.00  0.00     0.186 HD
BRANCH  11  13
HETATM   13  C6  UNL     1     -10.289  24.146  51.047  1.00  0.00     0.019 A 
HETATM   14  C7  UNL     1     -10.938  25.356  50.789  1.00  0.00     0.052 A 
HETATM   15  C8  UNL     1     -11.716  26.004  51.703  1.00  0.00     0.106 A 
HETATM   16  C9  UNL     1     -11.846  25.402  52.940  1.00  0.00     0.075 A 
HETATM   17  C10 UNL     1     -11.247  24.232  53.255  1.00  0.00     0.102 A 
HETATM   18  C11 UNL     1     -10.455  23.588  52.300  1.00  0.00     0.110 A 
BRANCH  15  19
HETATM   19  N4  UNL     1     -12.366  27.238  51.410  1.00  0.00    -0.116 N 
HETATM   20  O3  UNL     1     -12.550  27.625  50.261  1.00  0.00    -0.532 OA
HETATM   21  O4  UNL     1     -12.800  28.022  52.450  1.00  0.00    -0.532 OA
ENDBRANCH  15  19
BRANCH  17  22
HETATM   22  O5  UNL     1     -11.416  23.677  54.514  1.00  0.00    -0.358 OA
ATOM     23  H5  UNL     1     -11.934  22.888  54.625  1.00  0.00     0.217 HD
ENDBRANCH  17  22
BRANCH  18  24
HETATM   24  O6  UNL     1      -9.886  22.427  52.679  1.00  0.00    -0.357 OA
ATOM     25  H6  UNL     1      -8.975  22.347  52.935  1.00  0.00     0.217 HD
ENDBRANCH  18  24
ENDBRANCH  11  13
ENDBRANCH   8  10
ENDBRANCH   5   6
BRANCH   5  26
HETATM   26  N5  UNL     1      -7.848  20.669  46.317  1.00  0.00    -0.302 N 
HETATM   27  C12 UNL     1      -7.870  20.364  47.628  1.00  0.00     0.096 A 
HETATM   28  C13 UNL     1      -7.614  19.091  48.096  1.00  0.00     0.018 A 
HETATM   29  C14 UNL     1      -7.322  18.070  47.218  1.00  0.00     0.022 A 
HETATM   30  C15 UNL     1      -7.296  18.369  45.875  1.00  0.00     0.073 A 
HETATM   31  C17 UNL     1      -7.564  19.679  45.462  1.00  0.00     0.262 A 
HETATM   32  O7  UNL     1      -7.534  19.926  44.226  1.00  0.00    -0.267 OA
BRANCH  30  33
HETATM   33  C16 UNL     1      -6.993  17.319  44.932  1.00  0.00     0.125 C 
HETATM   34  N6  UNL     1      -5.802  17.196  44.487  1.00  0.00    -0.387 N 
ATOM     35  H62 UNL     1      -5.069  17.835  44.795  1.00  0.00     0.157 HD
ATOM     36  H61 UNL     1      -5.587  16.455  43.820  1.00  0.00     0.157 HD
HETATM   37  N7  UNL     1      -8.004  16.438  44.507  1.00  0.00    -0.082 NA
ENDBRANCH  30  33
ENDBRANCH   5  26
ENDBRANCH   3   5
TORSDOF 9
ENDMDL
