MODEL 1
REMARK VINA RESULT: -6.527152162      0.000      0.000
REMARK  9 active torsions:
REMARK  status: ('A' for Active; 'I' for Inactive)
REMARK    1  A    between atoms: N1_2  and  C2_4 
REMARK    2  A    between atoms: C3_7  and  C4_8 
REMARK    3  A    between atoms: C6_10  and  N3_11 
REMARK    4  A    between atoms: C8_23  and  S1_24 
REMARK    5  A    between atoms: S1_24  and  C9_25 
REMARK    6  A    between atoms: C9_25  and  C10_26 
REMARK    7  A    between atoms: C10_26  and  S2_27 
REMARK    8  A    between atoms: S2_27  and  C11_28 
REMARK    9  A    between atoms: C12_35  and  N12_36 
ROOT
HETATM    1  C4  UNL     1      -9.235  23.265  49.146  1.00  0.00     0.083 A 
HETATM    2  C5  UNL     1      -8.798  23.727  47.934  1.00  0.00     0.084 A 
HETATM    3  C6  UNL     1      -8.151  22.861  47.043  1.00  0.00     0.150 A 
HETATM    4  N8  UNL     1      -7.982  21.586  47.423  1.00  0.00    -0.321 N 
ATOM      5  H8  UNL     1      -7.512  20.943  46.786  1.00  0.00     0.169 HD
HETATM    6  C8  UNL     1      -8.400  21.131  48.591  1.00  0.00     0.146 A 
HETATM    7  N10 UNL     1      -9.030  21.984  49.450  1.00  0.00    -0.334 N 
ATOM      8  H10 UNL     1      -9.352  21.631  50.351  1.00  0.00     0.168 HD
ENDROOT
BRANCH   1   9
HETATM    9  C3  UNL     1      -9.909  24.148  50.086  1.00  0.00     0.163 A 
HETATM   10  N2  UNL     1      -9.935  23.839  51.418  1.00  0.00    -0.173 N 
HETATM   11  C2  UNL     1     -10.532  24.600  52.339  1.00  0.00     0.694 A 
ATOM     12  H2  UNL     1      -9.473  22.982  51.724  1.00  0.00     0.186 HD
HETATM   13  N13 UNL     1     -11.138  25.725  51.945  1.00  0.00    -0.023 N 
HETATM   14  C12 UNL     1     -11.147  26.079  50.652  1.00  0.00     0.692 A 
ATOM     15  H13 UNL     1     -11.598  26.318  52.634  1.00  0.00     0.203 HD
HETATM   16  N11 UNL     1     -10.527  25.282  49.729  1.00  0.00    -0.174 N 
ATOM     17  H11 UNL     1     -10.537  25.557  48.747  1.00  0.00     0.186 HD
BRANCH  11  18
HETATM   18  N1  UNL     1     -10.498  24.218  53.573  1.00  0.00    -0.230 N 
HETATM   19  C1  UNL     1      -9.711  23.094  54.024  1.00  0.00     0.165 C 
ATOM     20  H1  UNL     1     -11.050  24.733  54.258  1.00  0.00     0.177 HD
ENDBRANCH  11  18
BRANCH  14  21
HETATM   21  N12 UNL     1     -11.728  27.164  50.254  1.00  0.00    -0.234 N 
ATOM     22 2H12 UNL     1     -12.433  27.630  50.827  1.00  0.00     0.174 HD
ATOM     23 1H12 UNL     1     -11.472  27.561  49.350  1.00  0.00     0.174 HD
ENDBRANCH  14  21
ENDBRANCH   1   9
BRANCH   3  24
HETATM   24  N3  UNL     1      -7.680  23.305  45.770  1.00  0.00    -0.056 N 
HETATM   25  N4  UNL     1      -8.382  23.514  44.678  1.00  0.00    -0.203 N 
HETATM   26  N5  UNL     1      -7.563  23.919  43.725  1.00  0.00     0.009 NA
ATOM     27  H4  UNL     1      -9.389  23.385  44.584  1.00  0.00     0.207 HD
HETATM   28  N6  UNL     1      -6.333  23.970  44.206  1.00  0.00    -0.113 N 
HETATM   29  C7  UNL     1      -6.404  23.587  45.486  1.00  0.00     0.713 A 
ATOM     30  H6  UNL     1      -5.493  24.248  43.700  1.00  0.00     0.203 HD
HETATM   31  N7  UNL     1      -5.373  23.514  46.286  1.00  0.00    -0.232 N 
ATOM     32  H72 UNL     1      -5.427  23.222  47.262  1.00  0.00     0.174 HD
ATOM     33  H71 UNL     1      -4.400  23.729  46.071  1.00  0.00     0.174 HD
ENDBRANCH   3  24
BRANCH   6  34
HETATM   34  S1  UNL     1      -8.199  19.445  49.138  1.00  0.00    -0.093 SA
BRANCH  34  35
HETATM   35  C9  UNL     1      -8.431  18.363  47.684  1.00  0.00     0.093 C 
BRANCH  35  36
HETATM   36  C10 UNL     1      -7.103  18.128  46.995  1.00  0.00     0.094 C 
BRANCH  36  37
HETATM   37  S2  UNL     1      -7.302  17.636  45.271  1.00  0.00    -0.072 SA
BRANCH  37  38
HETATM   38  C11 UNL     1      -7.848  19.044  44.332  1.00  0.00     0.292 C 
HETATM   39  N9  UNL     1      -8.541  18.870  43.107  1.00  0.00    -0.051 NA
HETATM   40  O1  UNL     1      -7.634  20.205  44.729  1.00  0.00    -0.264 OA
ENDBRANCH  37  38
ENDBRANCH  36  37
ENDBRANCH  35  36
ENDBRANCH  34  35
ENDBRANCH   6  34
TORSDOF 9
ENDMDL
MODEL 2
REMARK VINA RESULT: -6.433220508      1.253      2.227
REMARK  9 active torsions:
REMARK  status: ('A' for Active; 'I' for Inactive)
REMARK    1  A    between atoms: N1_2  and  C2_4 
REMARK    2  A    between atoms: C3_7  and  C4_8 
REMARK    3  A    between atoms: C6_10  and  N3_11 
REMARK    4  A    between atoms: C8_23  and  S1_24 
REMARK    5  A    between atoms: S1_24  and  C9_25 
REMARK    6  A    between atoms: C9_25  and  C10_26 
REMARK    7  A    between atoms: C10_26  and  S2_27 
REMARK    8  A    between atoms: S2_27  and  C11_28 
REMARK    9  A    between atoms: C12_35  and  N12_36 
ROOT
HETATM    1  C4  UNL     1      -8.928  22.428  48.884  1.00  0.00     0.083 A 
HETATM    2  C5  UNL     1      -8.557  23.137  47.774  1.00  0.00     0.084 A 
HETATM    3  C6  UNL     1      -8.040  22.470  46.655  1.00  0.00     0.150 A 
HETATM    4  N8  UNL     1      -7.926  21.136  46.720  1.00  0.00    -0.321 N 
ATOM      5  H8  UNL     1      -7.551  20.636  45.913  1.00  0.00     0.169 HD
HETATM    6  C8  UNL     1      -8.281  20.444  47.787  1.00  0.00     0.146 A 
HETATM    7  N10 UNL     1      -8.784  21.103  48.871  1.00  0.00    -0.334 N 
ATOM      8  H10 UNL     1      -9.057  20.567  49.694  1.00  0.00     0.168 HD
ENDROOT
BRANCH   1   9
HETATM    9  C3  UNL     1      -9.466  23.100  50.057  1.00  0.00     0.163 A 
HETATM   10  N2  UNL     1      -9.724  24.443  50.019  1.00  0.00    -0.173 N 
HETATM   11  C2  UNL     1     -10.219  25.127  51.054  1.00  0.00     0.694 A 
ATOM     12  H2  UNL     1      -9.529  24.948  49.154  1.00  0.00     0.186 HD
HETATM   13  N13 UNL     1     -10.477  24.472  52.190  1.00  0.00    -0.023 N 
HETATM   14  C12 UNL     1     -10.243  23.155  52.287  1.00  0.00     0.692 A 
ATOM     15  H13 UNL     1     -10.856  24.978  52.990  1.00  0.00     0.203 HD
HETATM   16  N11 UNL     1      -9.737  22.478  51.212  1.00  0.00    -0.174 N 
ATOM     17  H11 UNL     1      -9.562  21.476  51.292  1.00  0.00     0.186 HD
BRANCH  11  18
HETATM   18  N1  UNL     1     -10.428  26.395  50.913  1.00  0.00    -0.230 N 
HETATM   19  C1  UNL     1     -11.394  26.932  49.984  1.00  0.00     0.165 C 
ATOM     20  H1  UNL     1      -9.887  27.044  51.484  1.00  0.00     0.177 HD
ENDBRANCH  11  18
BRANCH  14  21
HETATM   21  N12 UNL     1     -10.489  22.506  53.379  1.00  0.00    -0.234 N 
ATOM     22 2H12 UNL     1      -9.805  22.459  54.135  1.00  0.00     0.174 HD
ATOM     23 1H12 UNL     1     -11.387  22.034  53.484  1.00  0.00     0.174 HD
ENDBRANCH  14  21
ENDBRANCH   1   9
BRANCH   3  24
HETATM   24  N3  UNL     1      -7.642  23.174  45.477  1.00  0.00    -0.056 N 
HETATM   25  N4  UNL     1      -8.392  23.526  44.456  1.00  0.00    -0.203 N 
HETATM   26  N5  UNL     1      -7.633  24.159  43.580  1.00  0.00     0.009 NA
ATOM     27  H4  UNL     1      -9.389  23.342  44.357  1.00  0.00     0.207 HD
HETATM   28  N6  UNL     1      -6.396  24.214  44.039  1.00  0.00    -0.113 N 
HETATM   29  C7  UNL     1      -6.399  23.598  45.227  1.00  0.00     0.713 A 
ATOM     30  H6  UNL     1      -5.593  24.642  43.578  1.00  0.00     0.203 HD
HETATM   31  N7  UNL     1      -5.341  23.457  45.981  1.00  0.00    -0.232 N 
ATOM     32  H72 UNL     1      -5.343  22.988  46.887  1.00  0.00     0.174 HD
ATOM     33  H71 UNL     1      -4.392  23.780  45.792  1.00  0.00     0.174 HD
ENDBRANCH   3  24
BRANCH   6  34
HETATM   34  S1  UNL     1      -8.149  18.670  47.919  1.00  0.00    -0.093 SA
BRANCH  34  35
HETATM   35  C9  UNL     1      -7.037  18.100  46.586  1.00  0.00     0.093 C 
BRANCH  35  36
HETATM   36  C10 UNL     1      -7.764  17.122  45.686  1.00  0.00     0.094 C 
BRANCH  36  37
HETATM   37  S2  UNL     1      -9.306  17.801  45.040  1.00  0.00    -0.072 SA
BRANCH  37  38
HETATM   38  C11 UNL     1      -8.922  19.012  43.796  1.00  0.00     0.292 C 
HETATM   39  N9  UNL     1      -9.215  20.383  44.010  1.00  0.00    -0.051 NA
HETATM   40  O1  UNL     1      -8.393  18.683  42.718  1.00  0.00    -0.264 OA
ENDBRANCH  37  38
ENDBRANCH  36  37
ENDBRANCH  35  36
ENDBRANCH  34  35
ENDBRANCH   6  34
TORSDOF 9
ENDMDL
MODEL 3
REMARK VINA RESULT: -6.379055918      2.431      3.456
REMARK  9 active torsions:
REMARK  status: ('A' for Active; 'I' for Inactive)
REMARK    1  A    between atoms: N1_2  and  C2_4 
REMARK    2  A    between atoms: C3_7  and  C4_8 
REMARK    3  A    between atoms: C6_10  and  N3_11 
REMARK    4  A    between atoms: C8_23  and  S1_24 
REMARK    5  A    between atoms: S1_24  and  C9_25 
REMARK    6  A    between atoms: C9_25  and  C10_26 
REMARK    7  A    between atoms: C10_26  and  S2_27 
REMARK    8  A    between atoms: S2_27  and  C11_28 
REMARK    9  A    between atoms: C12_35  and  N12_36 
ROOT
HETATM    1  C4  UNL     1      -9.046  22.818  49.185  1.00  0.00     0.083 A 
HETATM    2  C5  UNL     1      -8.682  23.396  48.000  1.00  0.00     0.084 A 
HETATM    3  C6  UNL     1      -8.138  22.612  46.974  1.00  0.00     0.150 A 
HETATM    4  N8  UNL     1      -7.994  21.299  47.201  1.00  0.00    -0.321 N 
ATOM      5  H8  UNL     1      -7.600  20.714  46.464  1.00  0.00     0.169 HD
HETATM    6  C8  UNL     1      -8.343  20.732  48.343  1.00  0.00     0.146 A 
HETATM    7  N10 UNL     1      -8.871  21.506  49.334  1.00  0.00    -0.334 N 
ATOM      8  H10 UNL     1      -9.140  21.067  50.215  1.00  0.00     0.168 HD
ENDROOT
BRANCH   1   9
HETATM    9  C3  UNL     1      -9.612  23.615  50.264  1.00  0.00     0.163 A 
HETATM   10  N2  UNL     1      -9.853  23.044  51.484  1.00  0.00    -0.173 N 
HETATM   11  C2  UNL     1     -10.369  23.711  52.520  1.00  0.00     0.694 A 
ATOM     12  H2  UNL     1      -9.627  22.057  51.608  1.00  0.00     0.186 HD
HETATM   13  N13 UNL     1     -10.667  25.005  52.364  1.00  0.00    -0.023 N 
HETATM   14  C12 UNL     1     -10.453  25.618  51.191  1.00  0.00     0.692 A 
ATOM     15  H13 UNL     1     -11.061  25.529  53.144  1.00  0.00     0.203 HD
HETATM   16  N11 UNL     1      -9.924  24.913  50.146  1.00  0.00    -0.174 N 
ATOM     17  H11 UNL     1      -9.763  25.385  49.256  1.00  0.00     0.186 HD
BRANCH  11  18
HETATM   18  N1  UNL     1     -10.557  23.077  53.630  1.00  0.00    -0.230 N 
HETATM   19  C1  UNL     1     -10.385  23.695  54.925  1.00  0.00     0.165 C 
ATOM     20  H1  UNL     1     -10.839  22.098  53.591  1.00  0.00     0.177 HD
ENDBRANCH  11  18
BRANCH  14  21
HETATM   21  N12 UNL     1     -10.736  26.870  51.024  1.00  0.00    -0.234 N 
ATOM     22 2H12 UNL     1     -10.032  27.536  50.704  1.00  0.00     0.174 HD
ATOM     23 1H12 UNL     1     -11.685  27.193  51.215  1.00  0.00     0.174 HD
ENDBRANCH  14  21
ENDBRANCH   1   9
BRANCH   3  24
HETATM   24  N3  UNL     1      -7.746  23.177  45.722  1.00  0.00    -0.056 N 
HETATM   25  N4  UNL     1      -8.506  23.439  44.682  1.00  0.00    -0.203 N 
HETATM   26  N5  UNL     1      -7.749  23.957  43.731  1.00  0.00     0.009 NA
ATOM     27  H4  UNL     1      -9.510  23.272  44.619  1.00  0.00     0.207 HD
HETATM   28  N6  UNL     1      -6.502  24.026  44.162  1.00  0.00    -0.113 N 
HETATM   29  C7  UNL     1      -6.498  23.540  45.409  1.00  0.00     0.713 A 
ATOM     30  H6  UNL     1      -5.698  24.382  43.645  1.00  0.00     0.203 HD
HETATM   31  N7  UNL     1      -5.429  23.451  46.156  1.00  0.00    -0.232 N 
ATOM     32  H72 UNL     1      -5.426  23.080  47.106  1.00  0.00     0.174 HD
ATOM     33  H71 UNL     1      -4.477  23.728  45.918  1.00  0.00     0.174 HD
ENDBRANCH   3  24
BRANCH   6  34
HETATM   34  S1  UNL     1      -8.170  18.991  48.690  1.00  0.00    -0.093 SA
BRANCH  34  35
HETATM   35  C9  UNL     1      -6.916  18.814  50.006  1.00  0.00     0.093 C 
BRANCH  35  36
HETATM   36  C10 UNL     1      -7.489  18.026  51.167  1.00  0.00     0.094 C 
BRANCH  36  37
HETATM   37  S2  UNL     1      -7.267  18.871  52.746  1.00  0.00    -0.072 SA
BRANCH  37  38
HETATM   38  C11 UNL     1      -8.517  20.126  52.904  1.00  0.00     0.292 C 
HETATM   39  N9  UNL     1      -9.654  20.121  52.056  1.00  0.00    -0.051 NA
HETATM   40  O1  UNL     1      -8.421  21.027  53.757  1.00  0.00    -0.264 OA
ENDBRANCH  37  38
ENDBRANCH  36  37
ENDBRANCH  35  36
ENDBRANCH  34  35
ENDBRANCH   6  34
TORSDOF 9
ENDMDL
MODEL 4
REMARK VINA RESULT: -6.376197284      3.796      5.401
REMARK  9 active torsions:
REMARK  status: ('A' for Active; 'I' for Inactive)
REMARK    1  A    between atoms: N1_2  and  C2_4 
REMARK    2  A    between atoms: C3_7  and  C4_8 
REMARK    3  A    between atoms: C6_10  and  N3_11 
REMARK    4  A    between atoms: C8_23  and  S1_24 
REMARK    5  A    between atoms: S1_24  and  C9_25 
REMARK    6  A    between atoms: C9_25  and  C10_26 
REMARK    7  A    between atoms: C10_26  and  S2_27 
REMARK    8  A    between atoms: S2_27  and  C11_28 
REMARK    9  A    between atoms: C12_35  and  N12_36 
ROOT
HETATM    1  C4  UNL     1      -9.243  23.224  47.478  1.00  0.00     0.083 A 
HETATM    2  C5  UNL     1     -10.199  22.663  46.675  1.00  0.00     0.084 A 
HETATM    3  C6  UNL     1      -9.926  22.420  45.322  1.00  0.00     0.150 A 
HETATM    4  N8  UNL     1      -8.713  22.755  44.860  1.00  0.00    -0.321 N 
ATOM      5  H8  UNL     1      -8.499  22.584  43.877  1.00  0.00     0.169 HD
HETATM    6  C8  UNL     1      -7.785  23.297  45.627  1.00  0.00     0.146 A 
HETATM    7  N10 UNL     1      -8.062  23.529  46.943  1.00  0.00    -0.334 N 
ATOM      8  H10 UNL     1      -7.343  23.948  47.534  1.00  0.00     0.168 HD
ENDROOT
BRANCH   1   9
HETATM    9  C3  UNL     1      -9.506  23.486  48.885  1.00  0.00     0.163 A 
HETATM   10  N2  UNL     1      -9.739  24.765  49.312  1.00  0.00    -0.173 N 
HETATM   11  C2  UNL     1      -9.988  25.081  50.586  1.00  0.00     0.694 A 
ATOM     12  H2  UNL     1      -9.721  25.516  48.622  1.00  0.00     0.186 HD
HETATM   13  N13 UNL     1     -10.013  24.103  51.496  1.00  0.00    -0.023 N 
HETATM   14  C12 UNL     1      -9.791  22.830  51.136  1.00  0.00     0.692 A 
ATOM     15  H13 UNL     1     -10.202  24.326  52.473  1.00  0.00     0.203 HD
HETATM   16  N11 UNL     1      -9.539  22.532  49.826  1.00  0.00    -0.174 N 
ATOM     17  H11 UNL     1      -9.372  21.562  49.558  1.00  0.00     0.186 HD
BRANCH  11  18
HETATM   18  N1  UNL     1     -10.195  26.322  50.885  1.00  0.00    -0.230 N 
HETATM   19  C1  UNL     1     -11.500  26.838  51.227  1.00  0.00     0.165 C 
ATOM     20  H1  UNL     1      -9.402  26.963  50.879  1.00  0.00     0.177 HD
ENDBRANCH  11  18
BRANCH  14  21
HETATM   21  N12 UNL     1      -9.813  21.871  52.005  1.00  0.00    -0.234 N 
ATOM     22 2H12 UNL     1      -9.001  21.662  52.587  1.00  0.00     0.174 HD
ATOM     23 1H12 UNL     1     -10.662  21.315  52.108  1.00  0.00     0.174 HD
ENDBRANCH  14  21
ENDBRANCH   1   9
BRANCH   3  24
HETATM   24  N3  UNL     1     -10.897  21.836  44.452  1.00  0.00    -0.056 N 
HETATM   25  N4  UNL     1     -11.113  20.559  44.226  1.00  0.00    -0.203 N 
HETATM   26  N5  UNL     1     -12.100  20.450  43.355  1.00  0.00     0.009 NA
ATOM     27  H4  UNL     1     -10.605  19.784  44.651  1.00  0.00     0.207 HD
HETATM   28  N6  UNL     1     -12.518  21.658  43.023  1.00  0.00    -0.113 N 
HETATM   29  C7  UNL     1     -11.767  22.528  43.709  1.00  0.00     0.713 A 
ATOM     30  H6  UNL     1     -13.268  21.885  42.370  1.00  0.00     0.203 HD
HETATM   31  N7  UNL     1     -11.896  23.826  43.633  1.00  0.00    -0.232 N 
ATOM     32  H72 UNL     1     -11.324  24.489  44.155  1.00  0.00     0.174 HD
ATOM     33  H71 UNL     1     -12.559  24.355  43.066  1.00  0.00     0.174 HD
ENDBRANCH   3  24
BRANCH   6  34
HETATM   34  S1  UNL     1      -6.159  23.757  45.057  1.00  0.00    -0.093 SA
BRANCH  34  35
HETATM   35  C9  UNL     1      -6.365  24.688  43.499  1.00  0.00     0.093 C 
BRANCH  35  36
HETATM   36  C10 UNL     1      -5.065  25.372  43.126  1.00  0.00     0.094 C 
BRANCH  36  37
HETATM   37  S2  UNL     1      -4.953  25.716  41.359  1.00  0.00    -0.072 SA
BRANCH  37  38
HETATM   38  C11 UNL     1      -3.325  25.279  40.792  1.00  0.00     0.292 C 
HETATM   39  N9  UNL     1      -3.116  24.086  40.053  1.00  0.00    -0.051 NA
HETATM   40  O1  UNL     1      -2.343  26.005  41.031  1.00  0.00    -0.264 OA
ENDBRANCH  37  38
ENDBRANCH  36  37
ENDBRANCH  35  36
ENDBRANCH  34  35
ENDBRANCH   6  34
TORSDOF 9
ENDMDL
MODEL 5
REMARK VINA RESULT: -6.360115700      3.635      7.405
REMARK  9 active torsions:
REMARK  status: ('A' for Active; 'I' for Inactive)
REMARK    1  A    between atoms: N1_2  and  C2_4 
REMARK    2  A    between atoms: C3_7  and  C4_8 
REMARK    3  A    between atoms: C6_10  and  N3_11 
REMARK    4  A    between atoms: C8_23  and  S1_24 
REMARK    5  A    between atoms: S1_24  and  C9_25 
REMARK    6  A    between atoms: C9_25  and  C10_26 
REMARK    7  A    between atoms: C10_26  and  S2_27 
REMARK    8  A    between atoms: S2_27  and  C11_28 
REMARK    9  A    between atoms: C12_35  and  N12_36 
ROOT
HETATM    1  C4  UNL     1      -7.568  21.525  46.024  1.00  0.00     0.083 A 
HETATM    2  C5  UNL     1      -8.207  22.210  47.022  1.00  0.00     0.084 A 
HETATM    3  C6  UNL     1      -8.091  23.605  47.102  1.00  0.00     0.150 A 
HETATM    4  N8  UNL     1      -7.343  24.224  46.178  1.00  0.00    -0.321 N 
ATOM      5  H8  UNL     1      -7.249  25.239  46.223  1.00  0.00     0.169 HD
HETATM    6  C8  UNL     1      -6.723  23.570  45.211  1.00  0.00     0.146 A 
HETATM    7  N10 UNL     1      -6.843  22.213  45.143  1.00  0.00    -0.334 N 
ATOM      8  H10 UNL     1      -6.363  21.711  44.396  1.00  0.00     0.168 HD
ENDROOT
BRANCH   1   9
HETATM    9  C3  UNL     1      -7.674  20.077  45.923  1.00  0.00     0.163 A 
HETATM   10  N2  UNL     1      -7.722  19.313  47.057  1.00  0.00    -0.173 N 
HETATM   11  C2  UNL     1      -7.820  17.981  47.042  1.00  0.00     0.694 A 
ATOM     12  H2  UNL     1      -7.680  19.786  47.960  1.00  0.00     0.186 HD
HETATM   13  N13 UNL     1      -7.875  17.355  45.862  1.00  0.00    -0.023 N 
HETATM   14  C12 UNL     1      -7.831  18.052  44.718  1.00  0.00     0.692 A 
ATOM     15  H13 UNL     1      -7.950  16.339  45.833  1.00  0.00     0.203 HD
HETATM   16  N11 UNL     1      -7.732  19.415  44.759  1.00  0.00    -0.174 N 
ATOM     17  H11 UNL     1      -7.700  19.940  43.885  1.00  0.00     0.186 HD
BRANCH  11  18
HETATM   18  N1  UNL     1      -7.858  17.353  48.171  1.00  0.00    -0.230 N 
HETATM   19  C1  UNL     1      -7.375  16.001  48.333  1.00  0.00     0.165 C 
ATOM     20  H1  UNL     1      -8.246  17.832  48.983  1.00  0.00     0.177 HD
ENDBRANCH  11  18
BRANCH  14  21
HETATM   21  N12 UNL     1      -7.884  17.461  43.567  1.00  0.00    -0.234 N 
ATOM     22 2H12 UNL     1      -7.760  17.980  42.697  1.00  0.00     0.174 HD
ATOM     23 1H12 UNL     1      -8.052  16.456  43.534  1.00  0.00     0.174 HD
ENDBRANCH  14  21
ENDBRANCH   1   9
BRANCH   3  24
HETATM   24  N3  UNL     1      -8.742  24.356  48.128  1.00  0.00    -0.056 N 
HETATM   25  N4  UNL     1      -8.991  25.646  48.149  1.00  0.00    -0.203 N 
HETATM   26  N5  UNL     1      -9.609  25.934  49.280  1.00  0.00     0.009 NA
ATOM     27  H4  UNL     1      -8.748  26.312  47.416  1.00  0.00     0.207 HD
HETATM   28  N6  UNL     1      -9.756  24.828  49.986  1.00  0.00    -0.113 N 
HETATM   29  C7  UNL     1      -9.215  23.837  49.266  1.00  0.00     0.713 A 
ATOM     30  H6  UNL     1     -10.198  24.744  50.901  1.00  0.00     0.203 HD
HETATM   31  N7  UNL     1      -9.176  22.589  49.652  1.00  0.00    -0.232 N 
ATOM     32  H72 UNL     1      -8.764  21.834  49.104  1.00  0.00     0.174 HD
ATOM     33  H71 UNL     1      -9.538  22.193  50.520  1.00  0.00     0.174 HD
ENDBRANCH   3  24
BRANCH   6  34
HETATM   34  S1  UNL     1      -5.719  24.350  43.960  1.00  0.00    -0.093 SA
BRANCH  34  35
HETATM   35  C9  UNL     1      -6.849  25.116  42.746  1.00  0.00     0.093 C 
BRANCH  35  36
HETATM   36  C10 UNL     1      -6.132  25.320  41.427  1.00  0.00     0.094 C 
BRANCH  36  37
HETATM   37  S2  UNL     1      -4.527  26.118  41.635  1.00  0.00    -0.072 SA
BRANCH  37  38
HETATM   38  C11 UNL     1      -3.312  25.208  40.709  1.00  0.00     0.292 C 
HETATM   39  N9  UNL     1      -2.772  25.741  39.510  1.00  0.00    -0.051 NA
HETATM   40  O1  UNL     1      -2.913  24.093  41.091  1.00  0.00    -0.264 OA
ENDBRANCH  37  38
ENDBRANCH  36  37
ENDBRANCH  35  36
ENDBRANCH  34  35
ENDBRANCH   6  34
TORSDOF 9
ENDMDL
