MODEL 1
REMARK VINA RESULT: -7.192996510      0.000      0.000
REMARK  14 active torsions:
REMARK  status: ('A' for Active; 'I' for Inactive)
REMARK    1  A    between atoms: O1_2  and  C2_3 
REMARK    2  A    between atoms: C2_3  and  C3_5 
REMARK    3  A    between atoms: C3_5  and  O3_6 
REMARK    4  A    between atoms: C3_5  and  C9_25 
REMARK    5  A    between atoms: O3_6  and  C4_7 
REMARK    6  A    between atoms: C4_7  and  C5_9 
REMARK    7  A    between atoms: C6_12  and  N2_13 
REMARK    8  A    between atoms: N2_13  and  N3_15 
REMARK    9  A    between atoms: C8_22  and  O6_23 
REMARK   10  A    between atoms: C9_25  and  O7_26 
REMARK   11  A    between atoms: C9_25  and  C10_28 
REMARK   12  A    between atoms: C13_31  and  O8_32 
REMARK   13  A    between atoms: C15_35  and  O9_36 
REMARK   14  A    between atoms: C17_38  and  O10_39 
ROOT
HETATM    1  C3  UNL     1      -7.758  23.860  44.737  1.00  0.00     0.288 C 
ENDROOT
BRANCH   1   2
HETATM    2  C2  UNL     1      -8.777  22.896  44.092  1.00  0.00     0.294 C 
HETATM    3  O2  UNL     1      -9.617  23.414  43.335  1.00  0.00    -0.262 OA
BRANCH   2   4
HETATM    4  O1  UNL     1      -8.765  21.552  44.332  1.00  0.00    -0.324 OA
HETATM    5  C1  UNL     1      -9.968  20.810  44.276  1.00  0.00     0.213 C 
ENDBRANCH   2   4
ENDBRANCH   1   2
BRANCH   1   6
HETATM    6  O3  UNL     1      -6.843  24.093  43.750  1.00  0.00    -0.294 OA
BRANCH   6   7
HETATM    7  C4  UNL     1      -6.786  25.278  43.021  1.00  0.00     0.314 C 
HETATM    8  O4  UNL     1      -7.645  26.152  43.329  1.00  0.00    -0.257 OA
BRANCH   7   9
HETATM    9  C5  UNL     1      -5.823  25.522  41.981  1.00  0.00     0.163 A 
HETATM   10  N1  UNL     1      -6.226  25.564  40.666  1.00  0.00    -0.181 N 
HETATM   11  C6  UNL     1      -5.373  25.818  39.673  1.00  0.00     0.700 A 
ATOM     12  H1  UNL     1      -7.207  25.397  40.445  1.00  0.00     0.184 HD
HETATM   13  N4  UNL     1      -4.065  26.052  39.861  1.00  0.00    -0.152 N 
HETATM   14  C7  UNL     1      -3.603  26.026  41.115  1.00  0.00     0.295 A 
ATOM     15  H4  UNL     1      -3.445  26.245  39.073  1.00  0.00     0.187 HD
HETATM   16  O5  UNL     1      -2.386  26.241  41.318  1.00  0.00    -0.264 OA
HETATM   17  C8  UNL     1      -4.486  25.762  42.162  1.00  0.00     0.168 A 
BRANCH  11  18
HETATM   18  N2  UNL     1      -5.810  25.844  38.456  1.00  0.00    -0.138 N 
ATOM     19  H2  UNL     1      -6.173  24.981  38.053  1.00  0.00     0.205 HD
BRANCH  18  20
HETATM   20  N3  UNL     1      -5.808  26.983  37.675  1.00  0.00    -0.331 N 
ATOM     21  H32 UNL     1      -5.600  27.868  38.138  1.00  0.00     0.177 HD
ATOM     22  H31 UNL     1      -6.002  26.976  36.674  1.00  0.00     0.177 HD
ENDBRANCH  18  20
ENDBRANCH  11  18
BRANCH  17  23
HETATM   23  O6  UNL     1      -3.971  25.738  43.439  1.00  0.00    -0.354 OA
ATOM     24  H6  UNL     1      -4.317  26.341  44.086  1.00  0.00     0.218 HD
ENDBRANCH  17  23
ENDBRANCH   7   9
ENDBRANCH   6   7
ENDBRANCH   1   6
BRANCH   1  25
HETATM   25  C9  UNL     1      -7.517  23.376  46.024  1.00  0.00     0.096 C 
BRANCH  25  26
HETATM   26  O7  UNL     1      -6.113  23.349  46.144  1.00  0.00    -0.361 OA
ATOM     27  H7  UNL     1      -5.792  23.815  45.382  1.00  0.00     0.217 HD
ENDBRANCH  25  26
BRANCH  25  28
HETATM   28  C10 UNL     1      -8.054  22.903  47.259  1.00  0.00     0.041 A 
HETATM   29  C11 UNL     1      -8.656  23.654  48.226  1.00  0.00    -0.013 A 
HETATM   30  C12 UNL     1      -8.811  25.116  48.061  1.00  0.00     0.052 C 
HETATM   31  C13 UNL     1      -9.177  23.140  49.416  1.00  0.00     0.075 A 
HETATM   32  C14 UNL     1      -9.096  21.796  49.660  1.00  0.00     0.076 A 
HETATM   33  C15 UNL     1      -8.502  20.977  48.726  1.00  0.00     0.104 A 
HETATM   34  C17 UNL     1      -8.000  21.516  47.568  1.00  0.00     0.112 A 
BRANCH  31  35
HETATM   35  O8  UNL     1      -9.772  23.969  50.350  1.00  0.00    -0.360 OA
ATOM     36  H8  UNL     1      -9.516  24.881  50.430  1.00  0.00     0.217 HD
ENDBRANCH  31  35
BRANCH  33  37
HETATM   37  O9  UNL     1      -8.420  19.604  48.979  1.00  0.00    -0.353 OA
HETATM   38  C16 UNL     1      -7.551  19.154  49.993  1.00  0.00     0.210 C 
ENDBRANCH  33  37
BRANCH  34  39
HETATM   39  O10 UNL     1      -7.415  20.670  46.662  1.00  0.00    -0.357 OA
ATOM     40  H10 UNL     1      -7.742  20.669  45.769  1.00  0.00     0.217 HD
ENDBRANCH  34  39
ENDBRANCH  25  28
ENDBRANCH   1  25
TORSDOF 14
ENDMDL
MODEL 2
REMARK VINA RESULT: -7.074032222      2.160      4.565
REMARK  14 active torsions:
REMARK  status: ('A' for Active; 'I' for Inactive)
REMARK    1  A    between atoms: O1_2  and  C2_3 
REMARK    2  A    between atoms: C2_3  and  C3_5 
REMARK    3  A    between atoms: C3_5  and  O3_6 
REMARK    4  A    between atoms: C3_5  and  C9_25 
REMARK    5  A    between atoms: O3_6  and  C4_7 
REMARK    6  A    between atoms: C4_7  and  C5_9 
REMARK    7  A    between atoms: C6_12  and  N2_13 
REMARK    8  A    between atoms: N2_13  and  N3_15 
REMARK    9  A    between atoms: C8_22  and  O6_23 
REMARK   10  A    between atoms: C9_25  and  O7_26 
REMARK   11  A    between atoms: C9_25  and  C10_28 
REMARK   12  A    between atoms: C13_31  and  O8_32 
REMARK   13  A    between atoms: C15_35  and  O9_36 
REMARK   14  A    between atoms: C17_38  and  O10_39 
ROOT
HETATM    1  C3  UNL     1      -7.728  23.000  47.218  1.00  0.00     0.288 C 
ENDROOT
BRANCH   1   2
HETATM    2  C2  UNL     1      -8.763  23.614  48.184  1.00  0.00     0.294 C 
HETATM    3  O2  UNL     1      -8.942  23.007  49.255  1.00  0.00    -0.262 OA
BRANCH   2   4
HETATM    4  O1  UNL     1      -9.449  24.758  47.889  1.00  0.00    -0.324 OA
HETATM    5  C1  UNL     1      -9.393  25.866  48.767  1.00  0.00     0.213 C 
ENDBRANCH   2   4
ENDBRANCH   1   2
BRANCH   1   6
HETATM    6  O3  UNL     1      -7.447  24.007  46.340  1.00  0.00    -0.294 OA
BRANCH   6   7
HETATM    7  C4  UNL     1      -6.580  23.863  45.260  1.00  0.00     0.314 C 
HETATM    8  O4  UNL     1      -5.459  23.340  45.521  1.00  0.00    -0.257 OA
BRANCH   7   9
HETATM    9  C5  UNL     1      -6.910  24.271  43.920  1.00  0.00     0.163 A 
HETATM   10  N1  UNL     1      -5.994  24.970  43.168  1.00  0.00    -0.181 N 
HETATM   11  C6  UNL     1      -6.246  25.341  41.913  1.00  0.00     0.700 A 
ATOM     12  H1  UNL     1      -5.095  25.211  43.584  1.00  0.00     0.184 HD
HETATM   13  N4  UNL     1      -7.396  25.071  41.276  1.00  0.00    -0.152 N 
HETATM   14  C7  UNL     1      -8.334  24.395  41.949  1.00  0.00     0.295 A 
ATOM     15  H4  UNL     1      -7.550  25.371  40.313  1.00  0.00     0.187 HD
HETATM   16  O5  UNL     1      -9.417  24.131  41.378  1.00  0.00    -0.264 OA
HETATM   17  C8  UNL     1      -8.082  24.001  43.262  1.00  0.00     0.168 A 
BRANCH  11  18
HETATM   18  N2  UNL     1      -5.346  25.997  41.255  1.00  0.00    -0.138 N 
ATOM     19  H2  UNL     1      -4.767  26.667  41.762  1.00  0.00     0.205 HD
BRANCH  18  20
HETATM   20  N3  UNL     1      -5.129  25.835  39.900  1.00  0.00    -0.331 N 
ATOM     21  H32 UNL     1      -4.195  25.551  39.606  1.00  0.00     0.177 HD
ATOM     22  H31 UNL     1      -5.851  25.986  39.196  1.00  0.00     0.177 HD
ENDBRANCH  18  20
ENDBRANCH  11  18
BRANCH  17  23
HETATM   23  O6  UNL     1      -9.073  23.311  43.922  1.00  0.00    -0.354 OA
ATOM     24  H6  UNL     1      -9.437  22.532  43.520  1.00  0.00     0.218 HD
ENDBRANCH  17  23
ENDBRANCH   7   9
ENDBRANCH   6   7
ENDBRANCH   1   6
BRANCH   1  25
HETATM   25  C9  UNL     1      -8.180  21.713  46.921  1.00  0.00     0.096 C 
BRANCH  25  26
HETATM   26  O7  UNL     1      -9.566  21.853  46.713  1.00  0.00    -0.361 OA
ATOM     27  H7  UNL     1      -9.663  22.679  46.253  1.00  0.00     0.217 HD
ENDBRANCH  25  26
BRANCH  25  28
HETATM   28  C10 UNL     1      -7.865  20.333  46.735  1.00  0.00     0.041 A 
HETATM   29  C11 UNL     1      -7.658  19.406  47.714  1.00  0.00    -0.013 A 
HETATM   30  C12 UNL     1      -7.751  19.781  49.143  1.00  0.00     0.052 C 
HETATM   31  C13 UNL     1      -7.362  18.061  47.480  1.00  0.00     0.075 A 
HETATM   32  C14 UNL     1      -7.267  17.609  46.192  1.00  0.00     0.076 A 
HETATM   33  C15 UNL     1      -7.465  18.489  45.153  1.00  0.00     0.104 A 
HETATM   34  C17 UNL     1      -7.754  19.804  45.420  1.00  0.00     0.112 A 
BRANCH  31  35
HETATM   35  O8  UNL     1      -7.164  17.181  48.529  1.00  0.00    -0.360 OA
ATOM     36  H8  UNL     1      -6.301  17.051  48.903  1.00  0.00     0.217 HD
ENDBRANCH  31  35
BRANCH  33  37
HETATM   37  O9  UNL     1      -7.366  18.024  43.838  1.00  0.00    -0.353 OA
HETATM   38  C16 UNL     1      -7.755  16.698  43.559  1.00  0.00     0.210 C 
ENDBRANCH  33  37
BRANCH  34  39
HETATM   39  O10 UNL     1      -7.944  20.652  44.360  1.00  0.00    -0.357 OA
ATOM     40  H10 UNL     1      -7.603  20.396  43.510  1.00  0.00     0.217 HD
ENDBRANCH  34  39
ENDBRANCH  25  28
ENDBRANCH   1  25
TORSDOF 14
ENDMDL
MODEL 3
REMARK VINA RESULT: -7.041622557      2.343      5.218
REMARK  14 active torsions:
REMARK  status: ('A' for Active; 'I' for Inactive)
REMARK    1  A    between atoms: O1_2  and  C2_3 
REMARK    2  A    between atoms: C2_3  and  C3_5 
REMARK    3  A    between atoms: C3_5  and  O3_6 
REMARK    4  A    between atoms: C3_5  and  C9_25 
REMARK    5  A    between atoms: O3_6  and  C4_7 
REMARK    6  A    between atoms: C4_7  and  C5_9 
REMARK    7  A    between atoms: C6_12  and  N2_13 
REMARK    8  A    between atoms: N2_13  and  N3_15 
REMARK    9  A    between atoms: C8_22  and  O6_23 
REMARK   10  A    between atoms: C9_25  and  O7_26 
REMARK   11  A    between atoms: C9_25  and  C10_28 
REMARK   12  A    between atoms: C13_31  and  O8_32 
REMARK   13  A    between atoms: C15_35  and  O9_36 
REMARK   14  A    between atoms: C17_38  and  O10_39 
ROOT
HETATM    1  C3  UNL     1      -8.498  23.071  46.614  1.00  0.00     0.288 C 
ENDROOT
BRANCH   1   2
HETATM    2  C2  UNL     1      -9.073  23.465  47.991  1.00  0.00     0.294 C 
HETATM    3  O2  UNL     1      -8.834  22.684  48.929  1.00  0.00    -0.262 OA
BRANCH   2   4
HETATM    4  O1  UNL     1      -9.803  24.604  48.180  1.00  0.00    -0.324 OA
HETATM    5  C1  UNL     1      -9.441  25.518  49.197  1.00  0.00     0.213 C 
ENDBRANCH   2   4
ENDBRANCH   1   2
BRANCH   1   6
HETATM    6  O3  UNL     1      -7.870  24.201  46.175  1.00  0.00    -0.294 OA
BRANCH   6   7
HETATM    7  C4  UNL     1      -6.795  24.186  45.290  1.00  0.00     0.314 C 
HETATM    8  O4  UNL     1      -5.681  23.855  45.786  1.00  0.00    -0.257 OA
BRANCH   7   9
HETATM    9  C5  UNL     1      -6.913  24.520  43.896  1.00  0.00     0.163 A 
HETATM   10  N1  UNL     1      -8.115  24.355  43.248  1.00  0.00    -0.181 N 
HETATM   11  C6  UNL     1      -8.278  24.680  41.966  1.00  0.00     0.700 A 
ATOM     12  H1  UNL     1      -8.906  23.972  43.765  1.00  0.00     0.184 HD
HETATM   13  N4  UNL     1      -7.301  25.192  41.200  1.00  0.00    -0.152 N 
HETATM   14  C7  UNL     1      -6.104  25.378  41.765  1.00  0.00     0.295 A 
ATOM     15  H4  UNL     1      -7.467  25.430  40.222  1.00  0.00     0.187 HD
HETATM   16  O5  UNL     1      -5.175  25.854  41.073  1.00  0.00    -0.264 OA
HETATM   17  C8  UNL     1      -5.921  25.042  43.106  1.00  0.00     0.168 A 
BRANCH  11  18
HETATM   18  N2  UNL     1      -9.432  24.502  41.410  1.00  0.00    -0.138 N 
ATOM     19  H2  UNL     1     -10.248  24.942  41.835  1.00  0.00     0.205 HD
BRANCH  18  20
HETATM   20  N3  UNL     1      -9.616  23.746  40.269  1.00  0.00    -0.331 N 
ATOM     21  H32 UNL     1      -9.122  22.855  40.213  1.00  0.00     0.177 HD
ATOM     22  H31 UNL     1     -10.213  24.036  39.494  1.00  0.00     0.177 HD
ENDBRANCH  18  20
ENDBRANCH  11  18
BRANCH  17  23
HETATM   23  O6  UNL     1      -4.673  25.244  43.650  1.00  0.00    -0.354 OA
ATOM     24  H6  UNL     1      -4.067  25.827  43.207  1.00  0.00     0.218 HD
ENDBRANCH  17  23
ENDBRANCH   7   9
ENDBRANCH   6   7
ENDBRANCH   1   6
BRANCH   1  25
HETATM   25  C9  UNL     1      -9.496  22.345  45.963  1.00  0.00     0.096 C 
BRANCH  25  26
HETATM   26  O7  UNL     1     -10.588  22.349  46.852  1.00  0.00    -0.361 OA
ATOM     27  H7  UNL     1     -11.304  22.731  46.359  1.00  0.00     0.217 HD
ENDBRANCH  25  26
BRANCH  25  28
HETATM   28  C10 UNL     1      -9.897  21.608  44.808  1.00  0.00     0.041 A 
HETATM   29  C11 UNL     1      -9.616  20.300  44.537  1.00  0.00    -0.013 A 
HETATM   30  C12 UNL     1      -8.821  19.487  45.484  1.00  0.00     0.052 C 
HETATM   31  C13 UNL     1     -10.043  19.620  43.395  1.00  0.00     0.075 A 
HETATM   32  C14 UNL     1     -10.797  20.279  42.462  1.00  0.00     0.076 A 
HETATM   33  C15 UNL     1     -11.119  21.601  42.670  1.00  0.00     0.104 A 
HETATM   34  C17 UNL     1     -10.683  22.239  43.805  1.00  0.00     0.112 A 
BRANCH  31  35
HETATM   35  O8  UNL     1      -9.714  18.291  43.192  1.00  0.00    -0.360 OA
ATOM     36  H8  UNL     1     -10.363  17.604  43.298  1.00  0.00     0.217 HD
ENDBRANCH  31  35
BRANCH  33  37
HETATM   37  O9  UNL     1     -11.889  22.272  41.715  1.00  0.00    -0.353 OA
HETATM   38  C16 UNL     1     -13.103  21.690  41.294  1.00  0.00     0.210 C 
ENDBRANCH  33  37
BRANCH  34  39
HETATM   39  O10 UNL     1     -11.024  23.555  43.977  1.00  0.00    -0.357 OA
ATOM     40  H10 UNL     1     -10.328  24.202  43.996  1.00  0.00     0.217 HD
ENDBRANCH  34  39
ENDBRANCH  25  28
ENDBRANCH   1  25
TORSDOF 14
ENDMDL
MODEL 4
REMARK VINA RESULT: -7.037034856      2.273      4.433
REMARK  14 active torsions:
REMARK  status: ('A' for Active; 'I' for Inactive)
REMARK    1  A    between atoms: O1_2  and  C2_3 
REMARK    2  A    between atoms: C2_3  and  C3_5 
REMARK    3  A    between atoms: C3_5  and  O3_6 
REMARK    4  A    between atoms: C3_5  and  C9_25 
REMARK    5  A    between atoms: O3_6  and  C4_7 
REMARK    6  A    between atoms: C4_7  and  C5_9 
REMARK    7  A    between atoms: C6_12  and  N2_13 
REMARK    8  A    between atoms: N2_13  and  N3_15 
REMARK    9  A    between atoms: C8_22  and  O6_23 
REMARK   10  A    between atoms: C9_25  and  O7_26 
REMARK   11  A    between atoms: C9_25  and  C10_28 
REMARK   12  A    between atoms: C13_31  and  O8_32 
REMARK   13  A    between atoms: C15_35  and  O9_36 
REMARK   14  A    between atoms: C17_38  and  O10_39 
ROOT
HETATM    1  C3  UNL     1      -8.037  23.183  47.235  1.00  0.00     0.288 C 
ENDROOT
BRANCH   1   2
HETATM    2  C2  UNL     1      -9.051  23.782  48.232  1.00  0.00     0.294 C 
HETATM    3  O2  UNL     1      -9.799  24.670  47.786  1.00  0.00    -0.262 OA
BRANCH   2   4
HETATM    4  O1  UNL     1      -9.131  23.368  49.531  1.00  0.00    -0.324 OA
HETATM    5  C1  UNL     1      -9.796  24.166  50.491  1.00  0.00     0.213 C 
ENDBRANCH   2   4
ENDBRANCH   1   2
BRANCH   1   6
HETATM    6  O3  UNL     1      -7.833  24.179  46.323  1.00  0.00    -0.294 OA
BRANCH   6   7
HETATM    7  C4  UNL     1      -6.775  24.184  45.417  1.00  0.00     0.314 C 
HETATM    8  O4  UNL     1      -5.640  23.908  45.898  1.00  0.00    -0.257 OA
BRANCH   7   9
HETATM    9  C5  UNL     1      -6.932  24.481  44.018  1.00  0.00     0.163 A 
HETATM   10  N1  UNL     1      -8.129  24.222  43.391  1.00  0.00    -0.181 N 
HETATM   11  C6  UNL     1      -8.330  24.509  42.104  1.00  0.00     0.700 A 
ATOM     12  H1  UNL     1      -8.886  23.798  43.926  1.00  0.00     0.184 HD
HETATM   13  N4  UNL     1      -7.398  25.068  41.315  1.00  0.00    -0.152 N 
HETATM   14  C7  UNL     1      -6.209  25.345  41.860  1.00  0.00     0.295 A 
ATOM     15  H4  UNL     1      -7.592  25.274  40.335  1.00  0.00     0.187 HD
HETATM   16  O5  UNL     1      -5.322  25.867  41.146  1.00  0.00    -0.264 OA
HETATM   17  C8  UNL     1      -5.988  25.050  43.205  1.00  0.00     0.168 A 
BRANCH  11  18
HETATM   18  N2  UNL     1      -9.476  24.243  41.568  1.00  0.00    -0.138 N 
ATOM     19  H2  UNL     1     -10.314  24.350  42.139  1.00  0.00     0.205 HD
BRANCH  18  20
HETATM   20  N3  UNL     1      -9.622  23.821  40.261  1.00  0.00    -0.331 N 
ATOM     21  H32 UNL     1      -8.894  24.088  39.598  1.00  0.00     0.177 HD
ATOM     22  H31 UNL     1     -10.412  23.264  39.937  1.00  0.00     0.177 HD
ENDBRANCH  18  20
ENDBRANCH  11  18
BRANCH  17  23
HETATM   23  O6  UNL     1      -4.749  25.346  43.727  1.00  0.00    -0.354 OA
ATOM     24  H6  UNL     1      -4.584  26.223  44.052  1.00  0.00     0.218 HD
ENDBRANCH  17  23
ENDBRANCH   7   9
ENDBRANCH   6   7
ENDBRANCH   1   6
BRANCH   1  25
HETATM   25  C9  UNL     1      -8.452  21.874  46.987  1.00  0.00     0.096 C 
BRANCH  25  26
HETATM   26  O7  UNL     1      -9.835  21.874  47.256  1.00  0.00    -0.361 OA
ATOM     27  H7  UNL     1     -10.242  22.165  46.448  1.00  0.00     0.217 HD
ENDBRANCH  25  26
BRANCH  25  28
HETATM   28  C10 UNL     1      -8.102  20.549  46.586  1.00  0.00     0.041 A 
HETATM   29  C11 UNL     1      -7.730  19.522  47.404  1.00  0.00    -0.013 A 
HETATM   30  C12 UNL     1      -7.655  19.712  48.870  1.00  0.00     0.052 C 
HETATM   31  C13 UNL     1      -7.407  18.237  46.962  1.00  0.00     0.075 A 
HETATM   32  C14 UNL     1      -7.457  17.954  45.624  1.00  0.00     0.076 A 
HETATM   33  C15 UNL     1      -7.826  18.942  44.741  1.00  0.00     0.104 A 
HETATM   34  C17 UNL     1      -8.137  20.195  45.209  1.00  0.00     0.112 A 
BRANCH  31  35
HETATM   35  O8  UNL     1      -7.036  17.248  47.856  1.00  0.00    -0.360 OA
ATOM     36  H8  UNL     1      -6.126  17.120  48.096  1.00  0.00     0.217 HD
ENDBRANCH  31  35
BRANCH  33  37
HETATM   37  O9  UNL     1      -7.876  18.650  43.374  1.00  0.00    -0.353 OA
HETATM   38  C16 UNL     1      -8.920  17.833  42.895  1.00  0.00     0.210 C 
ENDBRANCH  33  37
BRANCH  34  39
HETATM   39  O10 UNL     1      -8.500  21.154  44.300  1.00  0.00    -0.357 OA
ATOM     40  H10 UNL     1      -9.320  21.615  44.433  1.00  0.00     0.217 HD
ENDBRANCH  34  39
ENDBRANCH  25  28
ENDBRANCH   1  25
TORSDOF 14
ENDMDL
MODEL 5
REMARK VINA RESULT: -6.940230085      3.006      5.296
REMARK  14 active torsions:
REMARK  status: ('A' for Active; 'I' for Inactive)
REMARK    1  A    between atoms: O1_2  and  C2_3 
REMARK    2  A    between atoms: C2_3  and  C3_5 
REMARK    3  A    between atoms: C3_5  and  O3_6 
REMARK    4  A    between atoms: C3_5  and  C9_25 
REMARK    5  A    between atoms: O3_6  and  C4_7 
REMARK    6  A    between atoms: C4_7  and  C5_9 
REMARK    7  A    between atoms: C6_12  and  N2_13 
REMARK    8  A    between atoms: N2_13  and  N3_15 
REMARK    9  A    between atoms: C8_22  and  O6_23 
REMARK   10  A    between atoms: C9_25  and  O7_26 
REMARK   11  A    between atoms: C9_25  and  C10_28 
REMARK   12  A    between atoms: C13_31  and  O8_32 
REMARK   13  A    between atoms: C15_35  and  O9_36 
REMARK   14  A    between atoms: C17_38  and  O10_39 
ROOT
HETATM    1  C3  UNL     1      -6.061  25.167  42.115  1.00  0.00     0.288 C 
ENDROOT
BRANCH   1   2
HETATM    2  C2  UNL     1      -5.188  25.543  43.330  1.00  0.00     0.294 C 
HETATM    3  O2  UNL     1      -4.493  26.568  43.210  1.00  0.00    -0.262 OA
BRANCH   2   4
HETATM    4  O1  UNL     1      -5.172  24.801  44.477  1.00  0.00    -0.324 OA
HETATM    5  C1  UNL     1      -5.162  23.388  44.408  1.00  0.00     0.213 C 
ENDBRANCH   2   4
ENDBRANCH   1   2
BRANCH   1   6
HETATM    6  O3  UNL     1      -5.624  25.991  41.118  1.00  0.00    -0.294 OA
BRANCH   6   7
HETATM    7  C4  UNL     1      -4.628  25.636  40.211  1.00  0.00     0.314 C 
HETATM    8  O4  UNL     1      -4.164  24.468  40.336  1.00  0.00    -0.257 OA
BRANCH   7   9
HETATM    9  C5  UNL     1      -4.140  26.519  39.186  1.00  0.00     0.163 A 
HETATM   10  N1  UNL     1      -2.886  27.074  39.295  1.00  0.00    -0.181 N 
HETATM   11  C6  UNL     1      -2.381  27.873  38.355  1.00  0.00     0.700 A 
ATOM     12  H1  UNL     1      -2.325  26.867  40.121  1.00  0.00     0.184 HD
HETATM   13  N4  UNL     1      -3.038  28.205  37.233  1.00  0.00    -0.152 N 
HETATM   14  C7  UNL     1      -4.265  27.702  37.061  1.00  0.00     0.295 A 
ATOM     15  H4  UNL     1      -2.616  28.818  36.536  1.00  0.00     0.187 HD
HETATM   16  O5  UNL     1      -4.901  27.997  36.023  1.00  0.00    -0.264 OA
HETATM   17  C8  UNL     1      -4.804  26.865  38.038  1.00  0.00     0.168 A 
BRANCH  11  18
HETATM   18  N2  UNL     1      -1.195  28.365  38.513  1.00  0.00    -0.138 N 
ATOM     19  H2  UNL     1      -0.958  28.778  39.415  1.00  0.00     0.205 HD
BRANCH  18  20
HETATM   20  N3  UNL     1      -0.234  28.358  37.521  1.00  0.00    -0.331 N 
ATOM     21  H32 UNL     1      -0.427  28.899  36.679  1.00  0.00     0.177 HD
ATOM     22  H31 UNL     1       0.645  27.846  37.596  1.00  0.00     0.177 HD
ENDBRANCH  18  20
ENDBRANCH  11  18
BRANCH  17  23
HETATM   23  O6  UNL     1      -6.072  26.372  37.826  1.00  0.00    -0.354 OA
ATOM     24  H6  UNL     1      -6.689  26.890  37.323  1.00  0.00     0.218 HD
ENDBRANCH  17  23
ENDBRANCH   7   9
ENDBRANCH   6   7
ENDBRANCH   1   6
BRANCH   1  25
HETATM   25  C9  UNL     1      -7.365  25.028  42.593  1.00  0.00     0.096 C 
BRANCH  25  26
HETATM   26  O7  UNL     1      -7.658  26.258  43.214  1.00  0.00    -0.361 OA
ATOM     27  H7  UNL     1      -7.702  26.887  42.503  1.00  0.00     0.217 HD
ENDBRANCH  25  26
BRANCH  25  28
HETATM   28  C10 UNL     1      -8.521  24.202  42.731  1.00  0.00     0.041 A 
HETATM   29  C11 UNL     1      -9.434  23.910  41.760  1.00  0.00    -0.013 A 
HETATM   30  C12 UNL     1      -9.288  24.462  40.394  1.00  0.00     0.052 C 
HETATM   31  C13 UNL     1     -10.546  23.085  41.942  1.00  0.00     0.075 A 
HETATM   32  C14 UNL     1     -10.765  22.513  43.166  1.00  0.00     0.076 A 
HETATM   33  C15 UNL     1      -9.883  22.762  44.193  1.00  0.00     0.104 A 
HETATM   34  C17 UNL     1      -8.800  23.579  43.978  1.00  0.00     0.112 A 
BRANCH  31  35
HETATM   35  O8  UNL     1     -11.429  22.838  40.906  1.00  0.00    -0.360 OA
ATOM     36  H8  UNL     1     -12.002  23.521  40.577  1.00  0.00     0.217 HD
ENDBRANCH  31  35
BRANCH  33  37
HETATM   37  O9  UNL     1     -10.110  22.177  45.443  1.00  0.00    -0.353 OA
HETATM   38  C16 UNL     1     -11.197  22.632  46.215  1.00  0.00     0.210 C 
ENDBRANCH  33  37
BRANCH  34  39
HETATM   39  O10 UNL     1      -7.944  23.805  45.025  1.00  0.00    -0.357 OA
ATOM     40  H10 UNL     1      -8.204  23.514  45.891  1.00  0.00     0.217 HD
ENDBRANCH  34  39
ENDBRANCH  25  28
ENDBRANCH   1  25
TORSDOF 14
ENDMDL
