MODEL 1
REMARK VINA RESULT: -6.951163384      0.000      0.000
REMARK  11 active torsions:
REMARK  status: ('A' for Active; 'I' for Inactive)
REMARK    1  A    between atoms: O1_2  and  C2_3 
REMARK    2  A    between atoms: C2_3  and  C3_5 
REMARK    3  A    between atoms: C5_7  and  C6_8 
REMARK    4  A    between atoms: C7_9  and  O3_10 
REMARK    5  A    between atoms: C8_12  and  O4_13 
REMARK    6  A    between atoms: C10_16  and  O5_17 
REMARK    7  A    between atoms: C10_16  and  C11_19 
REMARK       I    between atoms: C11_19  and  N1_21 
REMARK    8  A    between atoms: N1_21  and  N2_23 
REMARK    9  A    between atoms: C16_33  and  C17_34 
REMARK   10  A    between atoms: C17_34  and  O8_35 
REMARK   11  A    between atoms: C17_34  and  O9_37 
ROOT
HETATM    1  N2  UNL     1      -5.063  26.315  40.103  1.00  0.00    -0.292 N 
ATOM      2  H2  UNL     1      -5.364  27.216  39.733  1.00  0.00     0.187 HD
HETATM    3  C12 UNL     1      -3.821  25.987  40.071  1.00  0.00     0.101 C 
HETATM    4  C13 UNL     1      -3.399  24.670  40.616  1.00  0.00     0.082 C 
HETATM    5  C14 UNL     1      -2.833  26.880  39.513  1.00  0.00     0.114 C 
HETATM    6  N3  UNL     1      -2.039  27.581  39.053  1.00  0.00    -0.190 NA
ENDROOT
BRANCH   1   7
HETATM    7  N1  UNL     1      -5.987  25.442  40.641  1.00  0.00    -0.263 N 
HETATM    8  C11 UNL     1      -6.485  25.707  41.988  1.00  0.00     0.295 C 
HETATM    9  O6  UNL     1      -6.010  26.713  42.506  1.00  0.00    -0.264 OA
ATOM     10  H1  UNL     1      -6.312  24.633  40.112  1.00  0.00     0.190 HD
BRANCH   8  11
HETATM   11  C10 UNL     1      -7.438  24.826  42.571  1.00  0.00     0.165 C 
HETATM   12  C9  UNL     1      -7.405  24.056  43.766  1.00  0.00     0.110 A 
HETATM   13  C8  UNL     1      -6.397  23.971  44.690  1.00  0.00     0.130 A 
HETATM   14  N4  UNL     1      -8.520  23.297  44.039  1.00  0.00    -0.318 N 
HETATM   15  C7  UNL     1      -6.496  23.172  45.827  1.00  0.00     0.118 A 
HETATM   16  C6  UNL     1      -7.633  22.435  46.050  1.00  0.00     0.081 A 
HETATM   17  C15 UNL     1      -8.632  22.535  45.110  1.00  0.00     0.260 A 
HETATM   18  O7  UNL     1      -9.682  21.866  45.299  1.00  0.00    -0.267 OA
ATOM     19  H4  UNL     1      -9.298  23.326  43.381  1.00  0.00     0.169 HD
BRANCH  13  20
HETATM   20  O4  UNL     1      -5.244  24.690  44.506  1.00  0.00    -0.356 OA
ATOM     21  H4  UNL     1      -4.480  24.230  44.178  1.00  0.00     0.218 HD
ENDBRANCH  13  20
BRANCH  15  22
HETATM   22  O3  UNL     1      -5.487  23.083  46.761  1.00  0.00    -0.357 OA
ATOM     23  H3  UNL     1      -4.595  23.022  46.440  1.00  0.00     0.217 HD
ENDBRANCH  15  22
BRANCH  16  24
HETATM   24  C5  UNL     1      -7.786  21.570  47.214  1.00  0.00     0.020 A 
HETATM   25  C4  UNL     1      -7.344  20.269  47.380  1.00  0.00     0.058 A 
HETATM   26  C3  UNL     1      -7.716  19.822  48.629  1.00  0.00     0.151 A 
HETATM   27  O10 UNL     1      -8.356  20.815  49.191  1.00  0.00    -0.303 OA
HETATM   28  C16 UNL     1      -8.425  21.870  48.401  1.00  0.00     0.119 A 
BRANCH  26  29
HETATM   29  C2  UNL     1      -7.447  18.495  49.208  1.00  0.00     0.317 C 
HETATM   30  O2  UNL     1      -8.025  18.153  50.267  1.00  0.00    -0.257 OA
BRANCH  29  31
HETATM   31  O1  UNL     1      -6.575  17.609  48.623  1.00  0.00    -0.321 OA
HETATM   32  C1  UNL     1      -7.007  16.461  47.900  1.00  0.00     0.213 C 
ENDBRANCH  29  31
ENDBRANCH  26  29
BRANCH  28  33
HETATM   33  C17 UNL     1      -9.093  23.133  48.792  1.00  0.00     0.313 C 
BRANCH  33  34
HETATM   34  O8  UNL     1     -10.279  23.286  48.119  1.00  0.00    -0.365 OA
ATOM     35  H8  UNL     1     -10.746  24.052  48.430  1.00  0.00     0.213 HD
ENDBRANCH  33  34
BRANCH  33  36
HETATM   36  O9  UNL     1      -9.362  23.117  50.164  1.00  0.00    -0.365 OA
ATOM     37  H9  UNL     1     -10.031  23.760  50.365  1.00  0.00     0.213 HD
ENDBRANCH  33  36
ENDBRANCH  28  33
ENDBRANCH  16  24
BRANCH  11  38
HETATM   38  O5  UNL     1      -8.532  24.724  41.861  1.00  0.00    -0.354 OA
ATOM     39  H5  UNL     1      -9.123  25.467  41.907  1.00  0.00     0.218 HD
ENDBRANCH  11  38
ENDBRANCH   8  11
ENDBRANCH   1   7
TORSDOF 11
ENDMDL
MODEL 2
REMARK VINA RESULT: -6.947648332      4.653      8.416
REMARK  11 active torsions:
REMARK  status: ('A' for Active; 'I' for Inactive)
REMARK    1  A    between atoms: O1_2  and  C2_3 
REMARK    2  A    between atoms: C2_3  and  C3_5 
REMARK    3  A    between atoms: C5_7  and  C6_8 
REMARK    4  A    between atoms: C7_9  and  O3_10 
REMARK    5  A    between atoms: C8_12  and  O4_13 
REMARK    6  A    between atoms: C10_16  and  O5_17 
REMARK    7  A    between atoms: C10_16  and  C11_19 
REMARK       I    between atoms: C11_19  and  N1_21 
REMARK    8  A    between atoms: N1_21  and  N2_23 
REMARK    9  A    between atoms: C16_33  and  C17_34 
REMARK   10  A    between atoms: C17_34  and  O8_35 
REMARK   11  A    between atoms: C17_34  and  O9_37 
ROOT
HETATM    1  N2  UNL     1     -11.828  26.914  52.207  1.00  0.00    -0.292 N 
ATOM      2  H2  UNL     1     -11.919  27.917  52.366  1.00  0.00     0.187 HD
HETATM    3  C12 UNL     1     -12.655  26.096  52.751  1.00  0.00     0.101 C 
HETATM    4  C13 UNL     1     -12.508  24.637  52.508  1.00  0.00     0.082 C 
HETATM    5  C14 UNL     1     -13.724  26.576  53.595  1.00  0.00     0.114 C 
HETATM    6  N3  UNL     1     -14.571  26.951  54.285  1.00  0.00    -0.190 NA
ENDROOT
BRANCH   1   7
HETATM    7  N1  UNL     1     -10.814  26.428  51.405  1.00  0.00    -0.263 N 
HETATM    8  C11 UNL     1     -10.767  26.863  50.012  1.00  0.00     0.295 C 
HETATM    9  O6  UNL     1     -11.664  27.641  49.702  1.00  0.00    -0.264 OA
ATOM     10  H1  UNL     1     -10.117  25.781  51.776  1.00  0.00     0.190 HD
BRANCH   8  11
HETATM   11  C10 UNL     1      -9.735  26.380  49.159  1.00  0.00     0.165 C 
HETATM   12  C9  UNL     1      -9.575  25.143  48.477  1.00  0.00     0.110 A 
HETATM   13  C8  UNL     1     -10.415  24.062  48.478  1.00  0.00     0.130 A 
HETATM   14  N4  UNL     1      -8.435  25.003  47.719  1.00  0.00    -0.318 N 
HETATM   15  C7  UNL     1     -10.136  22.901  47.759  1.00  0.00     0.118 A 
HETATM   16  C6  UNL     1      -8.983  22.816  47.018  1.00  0.00     0.081 A 
HETATM   17  C15 UNL     1      -8.153  23.912  47.031  1.00  0.00     0.260 A 
HETATM   18  O7  UNL     1      -7.091  23.851  46.357  1.00  0.00    -0.267 OA
ATOM     19  H4  UNL     1      -7.776  25.781  47.686  1.00  0.00     0.169 HD
BRANCH  13  20
HETATM   20  O4  UNL     1     -11.577  24.105  49.205  1.00  0.00    -0.356 OA
ATOM     21  H4  UNL     1     -12.203  24.791  49.005  1.00  0.00     0.218 HD
ENDBRANCH  13  20
BRANCH  15  22
HETATM   22  O3  UNL     1     -10.978  21.811  47.754  1.00  0.00    -0.357 OA
ATOM     23  H3  UNL     1     -11.158  21.392  48.586  1.00  0.00     0.217 HD
ENDBRANCH  15  22
BRANCH  16  24
HETATM   24  C5  UNL     1      -8.631  21.622  46.258  1.00  0.00     0.020 A 
HETATM   25  C4  UNL     1      -7.846  20.554  46.655  1.00  0.00     0.058 A 
HETATM   26  C3  UNL     1      -7.760  19.648  45.620  1.00  0.00     0.151 A 
HETATM   27  O10 UNL     1      -8.466  20.152  44.641  1.00  0.00    -0.303 OA
HETATM   28  C16 UNL     1      -9.002  21.314  44.964  1.00  0.00     0.119 A 
BRANCH  26  29
HETATM   29  C2  UNL     1      -7.022  18.374  45.621  1.00  0.00     0.317 C 
HETATM   30  O2  UNL     1      -6.698  17.847  46.711  1.00  0.00    -0.257 OA
BRANCH  29  31
HETATM   31  O1  UNL     1      -6.671  17.735  44.456  1.00  0.00    -0.321 OA
HETATM   32  C1  UNL     1      -7.407  16.638  43.924  1.00  0.00     0.213 C 
ENDBRANCH  29  31
ENDBRANCH  26  29
BRANCH  28  33
HETATM   33  C17 UNL     1      -9.852  22.100  44.040  1.00  0.00     0.313 C 
BRANCH  33  34
HETATM   34  O8  UNL     1      -9.179  23.202  43.578  1.00  0.00    -0.365 OA
ATOM     35  H8  UNL     1      -8.554  23.511  44.222  1.00  0.00     0.213 HD
ENDBRANCH  33  34
BRANCH  33  36
HETATM   36  O9  UNL     1     -10.209  21.309  42.944  1.00  0.00    -0.365 OA
ATOM     37  H9  UNL     1     -11.068  20.930  43.090  1.00  0.00     0.213 HD
ENDBRANCH  33  36
ENDBRANCH  28  33
ENDBRANCH  16  24
BRANCH  11  38
HETATM   38  O5  UNL     1      -8.773  27.251  48.987  1.00  0.00    -0.354 OA
ATOM     39  H5  UNL     1      -9.043  28.105  48.668  1.00  0.00     0.218 HD
ENDBRANCH  11  38
ENDBRANCH   8  11
ENDBRANCH   1   7
TORSDOF 11
ENDMDL
MODEL 3
REMARK VINA RESULT: -6.801651457      4.101      6.861
REMARK  11 active torsions:
REMARK  status: ('A' for Active; 'I' for Inactive)
REMARK    1  A    between atoms: O1_2  and  C2_3 
REMARK    2  A    between atoms: C2_3  and  C3_5 
REMARK    3  A    between atoms: C5_7  and  C6_8 
REMARK    4  A    between atoms: C7_9  and  O3_10 
REMARK    5  A    between atoms: C8_12  and  O4_13 
REMARK    6  A    between atoms: C10_16  and  O5_17 
REMARK    7  A    between atoms: C10_16  and  C11_19 
REMARK       I    between atoms: C11_19  and  N1_21 
REMARK    8  A    between atoms: N1_21  and  N2_23 
REMARK    9  A    between atoms: C16_33  and  C17_34 
REMARK   10  A    between atoms: C17_34  and  O8_35 
REMARK   11  A    between atoms: C17_34  and  O9_37 
ROOT
HETATM    1  N2  UNL     1      -5.894  24.697  44.056  1.00  0.00    -0.292 N 
ATOM      2  H2  UNL     1      -5.001  24.598  44.538  1.00  0.00     0.187 HD
HETATM    3  C12 UNL     1      -5.931  25.137  42.849  1.00  0.00     0.101 C 
HETATM    4  C13 UNL     1      -7.241  25.274  42.161  1.00  0.00     0.082 C 
HETATM    5  C14 UNL     1      -4.718  25.501  42.156  1.00  0.00     0.114 C 
HETATM    6  N3  UNL     1      -3.754  25.809  41.601  1.00  0.00    -0.190 NA
ENDROOT
BRANCH   1   7
HETATM    7  N1  UNL     1      -7.070  24.357  44.695  1.00  0.00    -0.263 N 
HETATM    8  C11 UNL     1      -6.992  23.498  45.873  1.00  0.00     0.295 C 
HETATM    9  O6  UNL     1      -5.850  23.163  46.172  1.00  0.00    -0.264 OA
ATOM     10  H1  UNL     1      -7.969  24.698  44.354  1.00  0.00     0.190 HD
BRANCH   8  11
HETATM   11  C10 UNL     1      -8.186  23.129  46.555  1.00  0.00     0.165 C 
HETATM   12  C9  UNL     1      -8.967  23.812  47.527  1.00  0.00     0.110 A 
HETATM   13  C8  UNL     1      -8.749  25.049  48.070  1.00  0.00     0.130 A 
HETATM   14  N4  UNL     1     -10.086  23.155  47.987  1.00  0.00    -0.318 N 
HETATM   15  C7  UNL     1      -9.601  25.605  49.022  1.00  0.00     0.118 A 
HETATM   16  C6  UNL     1     -10.704  24.905  49.445  1.00  0.00     0.081 A 
HETATM   17  C15 UNL     1     -10.905  23.665  48.887  1.00  0.00     0.260 A 
HETATM   18  O7  UNL     1     -11.912  23.010  49.264  1.00  0.00    -0.267 OA
ATOM     19  H4  UNL     1     -10.292  22.229  47.613  1.00  0.00     0.169 HD
BRANCH  13  20
HETATM   20  O4  UNL     1      -7.659  25.782  47.676  1.00  0.00    -0.356 OA
ATOM     21  H4  UNL     1      -6.809  25.542  48.029  1.00  0.00     0.218 HD
ENDBRANCH  13  20
BRANCH  15  22
HETATM   22  O3  UNL     1      -9.388  26.851  49.572  1.00  0.00    -0.357 OA
ATOM     23  H3  UNL     1      -8.655  27.357  49.241  1.00  0.00     0.217 HD
ENDBRANCH  15  22
BRANCH  16  24
HETATM   24  C5  UNL     1     -11.622  25.430  50.449  1.00  0.00     0.020 A 
HETATM   25  C4  UNL     1     -12.681  26.304  50.270  1.00  0.00     0.058 A 
HETATM   26  C3  UNL     1     -13.275  26.549  51.490  1.00  0.00     0.151 A 
HETATM   27  O10 UNL     1     -12.600  25.850  52.366  1.00  0.00    -0.303 OA
HETATM   28  C16 UNL     1     -11.616  25.172  51.806  1.00  0.00     0.119 A 
BRANCH  26  29
HETATM   29  C2  UNL     1     -14.433  27.421  51.748  1.00  0.00     0.317 C 
HETATM   30  O2  UNL     1     -15.465  26.941  52.274  1.00  0.00    -0.257 OA
BRANCH  29  31
HETATM   31  O1  UNL     1     -14.422  28.758  51.430  1.00  0.00    -0.321 OA
HETATM   32  C1  UNL     1     -15.215  29.723  52.115  1.00  0.00     0.213 C 
ENDBRANCH  29  31
ENDBRANCH  26  29
BRANCH  28  33
HETATM   33  C17 UNL     1     -10.697  24.297  52.571  1.00  0.00     0.313 C 
BRANCH  33  34
HETATM   34  O8  UNL     1     -10.824  24.516  53.918  1.00  0.00    -0.365 OA
ATOM     35  H8  UNL     1     -10.581  23.741  54.411  1.00  0.00     0.213 HD
ENDBRANCH  33  34
BRANCH  33  36
HETATM   36  O9  UNL     1     -10.999  22.957  52.310  1.00  0.00    -0.365 OA
ATOM     37  H9  UNL     1     -10.639  22.409  52.997  1.00  0.00     0.213 HD
ENDBRANCH  33  36
ENDBRANCH  28  33
ENDBRANCH  16  24
BRANCH  11  38
HETATM   38  O5  UNL     1      -8.621  21.946  46.206  1.00  0.00    -0.354 OA
ATOM     39  H5  UNL     1      -8.588  21.752  45.276  1.00  0.00     0.218 HD
ENDBRANCH  11  38
ENDBRANCH   8  11
ENDBRANCH   1   7
TORSDOF 11
ENDMDL
MODEL 4
REMARK VINA RESULT: -6.755480435      4.605      8.285
REMARK  11 active torsions:
REMARK  status: ('A' for Active; 'I' for Inactive)
REMARK    1  A    between atoms: O1_2  and  C2_3 
REMARK    2  A    between atoms: C2_3  and  C3_5 
REMARK    3  A    between atoms: C5_7  and  C6_8 
REMARK    4  A    between atoms: C7_9  and  O3_10 
REMARK    5  A    between atoms: C8_12  and  O4_13 
REMARK    6  A    between atoms: C10_16  and  O5_17 
REMARK    7  A    between atoms: C10_16  and  C11_19 
REMARK       I    between atoms: C11_19  and  N1_21 
REMARK    8  A    between atoms: N1_21  and  N2_23 
REMARK    9  A    between atoms: C16_33  and  C17_34 
REMARK   10  A    between atoms: C17_34  and  O8_35 
REMARK   11  A    between atoms: C17_34  and  O9_37 
ROOT
HETATM    1  N2  UNL     1     -12.767  27.150  50.957  1.00  0.00    -0.292 N 
ATOM      2  H2  UNL     1     -12.492  27.889  51.603  1.00  0.00     0.187 HD
HETATM    3  C12 UNL     1     -13.913  26.581  51.075  1.00  0.00     0.101 C 
HETATM    4  C13 UNL     1     -14.296  25.506  50.123  1.00  0.00     0.082 C 
HETATM    5  C14 UNL     1     -14.829  26.972  52.119  1.00  0.00     0.114 C 
HETATM    6  N3  UNL     1     -15.561  27.268  52.962  1.00  0.00    -0.190 NA
ENDROOT
BRANCH   1   7
HETATM    7  N1  UNL     1     -11.909  26.756  49.949  1.00  0.00    -0.263 N 
HETATM    8  C11 UNL     1     -10.479  26.708  50.239  1.00  0.00     0.295 C 
HETATM    9  O6  UNL     1     -10.191  27.035  51.387  1.00  0.00    -0.264 OA
ATOM     10  H1  UNL     1     -12.265  26.504  49.027  1.00  0.00     0.190 HD
BRANCH   8  11
HETATM   11  C10 UNL     1      -9.568  26.306  49.222  1.00  0.00     0.165 C 
HETATM   12  C9  UNL     1      -9.433  25.087  48.504  1.00  0.00     0.110 A 
HETATM   13  C8  UNL     1     -10.183  23.948  48.623  1.00  0.00     0.130 A 
HETATM   14  N4  UNL     1      -8.425  25.034  47.568  1.00  0.00    -0.318 N 
HETATM   15  C7  UNL     1      -9.942  22.814  47.849  1.00  0.00     0.118 A 
HETATM   16  C6  UNL     1      -8.922  22.816  46.930  1.00  0.00     0.081 A 
HETATM   17  C15 UNL     1      -8.181  23.970  46.826  1.00  0.00     0.260 A 
HETATM   18  O7  UNL     1      -7.242  23.989  45.988  1.00  0.00    -0.267 OA
ATOM     19  H4  UNL     1      -7.837  25.858  47.442  1.00  0.00     0.169 HD
BRANCH  13  20
HETATM   20  O4  UNL     1     -11.211  23.902  49.529  1.00  0.00    -0.356 OA
ATOM     21  H4  UNL     1     -12.042  24.289  49.280  1.00  0.00     0.218 HD
ENDBRANCH  13  20
BRANCH  15  22
HETATM   22  O3  UNL     1     -10.694  21.665  47.962  1.00  0.00    -0.357 OA
ATOM     23  H3  UNL     1     -10.233  20.835  47.951  1.00  0.00     0.217 HD
ENDBRANCH  15  22
BRANCH  16  24
HETATM   24  C5  UNL     1      -8.615  21.654  46.104  1.00  0.00     0.020 A 
HETATM   25  C4  UNL     1      -7.831  20.559  46.422  1.00  0.00     0.058 A 
HETATM   26  C3  UNL     1      -7.795  19.701  45.344  1.00  0.00     0.151 A 
HETATM   27  O10 UNL     1      -8.527  20.259  44.415  1.00  0.00    -0.303 OA
HETATM   28  C16 UNL     1      -9.035  21.412  44.811  1.00  0.00     0.119 A 
BRANCH  26  29
HETATM   29  C2  UNL     1      -7.075  18.419  45.260  1.00  0.00     0.317 C 
HETATM   30  O2  UNL     1      -6.660  17.872  46.309  1.00  0.00    -0.257 OA
BRANCH  29  31
HETATM   31  O1  UNL     1      -6.841  17.794  44.059  1.00  0.00    -0.321 OA
HETATM   32  C1  UNL     1      -7.270  16.465  43.781  1.00  0.00     0.213 C 
ENDBRANCH  29  31
ENDBRANCH  26  29
BRANCH  28  33
HETATM   33  C17 UNL     1      -9.905  22.251  43.954  1.00  0.00     0.313 C 
BRANCH  33  34
HETATM   34  O8  UNL     1      -9.236  23.370  43.528  1.00  0.00    -0.365 OA
ATOM     35  H8  UNL     1      -9.822  23.956  43.063  1.00  0.00     0.213 HD
ENDBRANCH  33  34
BRANCH  33  36
HETATM   36  O9  UNL     1     -10.303  21.520  42.831  1.00  0.00    -0.365 OA
ATOM     37  H9  UNL     1      -9.868  21.860  42.058  1.00  0.00     0.213 HD
ENDBRANCH  33  36
ENDBRANCH  28  33
ENDBRANCH  16  24
BRANCH  11  38
HETATM   38  O5  UNL     1      -8.712  27.246  48.912  1.00  0.00    -0.354 OA
ATOM     39  H5  UNL     1      -8.810  28.065  49.382  1.00  0.00     0.218 HD
ENDBRANCH  11  38
ENDBRANCH   8  11
ENDBRANCH   1   7
TORSDOF 11
ENDMDL
MODEL 5
REMARK VINA RESULT: -6.730060814      1.245      2.409
REMARK  11 active torsions:
REMARK  status: ('A' for Active; 'I' for Inactive)
REMARK    1  A    between atoms: O1_2  and  C2_3 
REMARK    2  A    between atoms: C2_3  and  C3_5 
REMARK    3  A    between atoms: C5_7  and  C6_8 
REMARK    4  A    between atoms: C7_9  and  O3_10 
REMARK    5  A    between atoms: C8_12  and  O4_13 
REMARK    6  A    between atoms: C10_16  and  O5_17 
REMARK    7  A    between atoms: C10_16  and  C11_19 
REMARK       I    between atoms: C11_19  and  N1_21 
REMARK    8  A    between atoms: N1_21  and  N2_23 
REMARK    9  A    between atoms: C16_33  and  C17_34 
REMARK   10  A    between atoms: C17_34  and  O8_35 
REMARK   11  A    between atoms: C17_34  and  O9_37 
ROOT
HETATM    1  N2  UNL     1      -5.109  26.367  40.454  1.00  0.00    -0.292 N 
ATOM      2  H2  UNL     1      -5.388  27.331  40.271  1.00  0.00     0.187 HD
HETATM    3  C12 UNL     1      -3.897  25.995  40.245  1.00  0.00     0.101 C 
HETATM    4  C13 UNL     1      -3.507  24.587  40.517  1.00  0.00     0.082 C 
HETATM    5  C14 UNL     1      -2.912  26.926  39.748  1.00  0.00     0.114 C 
HETATM    6  N3  UNL     1      -2.122  27.660  39.335  1.00  0.00    -0.190 NA
ENDROOT
BRANCH   1   7
HETATM    7  N1  UNL     1      -6.031  25.456  40.928  1.00  0.00    -0.263 N 
HETATM    8  C11 UNL     1      -6.628  25.695  42.239  1.00  0.00     0.295 C 
HETATM    9  O6  UNL     1      -6.228  26.717  42.790  1.00  0.00    -0.264 OA
ATOM     10  H1  UNL     1      -6.289  24.637  40.377  1.00  0.00     0.190 HD
BRANCH   8  11
HETATM   11  C10 UNL     1      -7.582  24.775  42.757  1.00  0.00     0.165 C 
HETATM   12  C9  UNL     1      -7.543  23.909  43.884  1.00  0.00     0.110 A 
HETATM   13  C8  UNL     1      -6.529  23.741  44.787  1.00  0.00     0.130 A 
HETATM   14  N4  UNL     1      -8.661  23.137  44.103  1.00  0.00    -0.318 N 
HETATM   15  C7  UNL     1      -6.623  22.851  45.856  1.00  0.00     0.118 A 
HETATM   16  C6  UNL     1      -7.763  22.106  46.027  1.00  0.00     0.081 A 
HETATM   17  C15 UNL     1      -8.769  22.289  45.109  1.00  0.00     0.260 A 
HETATM   18  O7  UNL     1      -9.822  21.613  45.252  1.00  0.00    -0.267 OA
ATOM     19  H4  UNL     1      -9.445  23.225  43.457  1.00  0.00     0.169 HD
BRANCH  13  20
HETATM   20  O4  UNL     1      -5.372  24.465  44.653  1.00  0.00    -0.356 OA
ATOM     21  H4  UNL     1      -5.414  25.288  44.179  1.00  0.00     0.218 HD
ENDBRANCH  13  20
BRANCH  15  22
HETATM   22  O3  UNL     1      -5.606  22.679  46.770  1.00  0.00    -0.357 OA
ATOM     23  H3  UNL     1      -5.100  23.445  47.013  1.00  0.00     0.217 HD
ENDBRANCH  15  22
BRANCH  16  24
HETATM   24  C5  UNL     1      -7.912  21.149  47.118  1.00  0.00     0.020 A 
HETATM   25  C4  UNL     1      -8.250  21.396  48.436  1.00  0.00     0.058 A 
HETATM   26  C3  UNL     1      -8.263  20.206  49.130  1.00  0.00     0.151 A 
HETATM   27  O10 UNL     1      -7.945  19.280  48.263  1.00  0.00    -0.303 OA
HETATM   28  C16 UNL     1      -7.728  19.781  47.061  1.00  0.00     0.119 A 
BRANCH  26  29
HETATM   29  C2  UNL     1      -8.572  20.020  50.558  1.00  0.00     0.317 C 
HETATM   30  O2  UNL     1      -9.255  20.881  51.161  1.00  0.00    -0.257 OA
BRANCH  29  31
HETATM   31  O1  UNL     1      -8.133  18.923  51.260  1.00  0.00    -0.321 OA
HETATM   32  C1  UNL     1      -6.754  18.646  51.481  1.00  0.00     0.213 C 
ENDBRANCH  29  31
ENDBRANCH  26  29
BRANCH  28  33
HETATM   33  C17 UNL     1      -7.355  18.951  45.892  1.00  0.00     0.313 C 
BRANCH  33  34
HETATM   34  O8  UNL     1      -6.903  17.719  46.293  1.00  0.00    -0.365 OA
ATOM     35  H8  UNL     1      -6.853  17.122  45.556  1.00  0.00     0.213 HD
ENDBRANCH  33  34
BRANCH  33  36
HETATM   36  O9  UNL     1      -8.472  18.767  45.072  1.00  0.00    -0.365 OA
ATOM     37  H9  UNL     1      -8.247  18.981  44.174  1.00  0.00     0.213 HD
ENDBRANCH  33  36
ENDBRANCH  28  33
ENDBRANCH  16  24
BRANCH  11  38
HETATM   38  O5  UNL     1      -8.683  24.739  42.051  1.00  0.00    -0.354 OA
ATOM     39  H5  UNL     1      -9.247  25.500  42.129  1.00  0.00     0.218 HD
ENDBRANCH  11  38
ENDBRANCH   8  11
ENDBRANCH   1   7
TORSDOF 11
ENDMDL
