MODEL 1
REMARK VINA RESULT: -6.483746667      0.000      0.000
REMARK  9 active torsions:
REMARK  status: ('A' for Active; 'I' for Inactive)
REMARK    1  A    between atoms: C2_2  and  O1_3 
REMARK    2  A    between atoms: O1_3  and  C3_4 
REMARK    3  A    between atoms: C3_4  and  C4_6 
REMARK    4  A    between atoms: C5_7  and  C6_8 
REMARK    5  A    between atoms: C6_8  and  N1_9 
REMARK    6  A    between atoms: N1_9  and  N2_11 
REMARK    7  A    between atoms: C11_19  and  C12_20 
REMARK    8  A    between atoms: C15_30  and  N6_31 
REMARK    9  A    between atoms: N7_34  and  O6_35 
ROOT
HETATM    1  C4  UNL     1     -11.443  25.322  49.555  1.00  0.00     0.125 C 
HETATM    2  C5  UNL     1     -11.012  24.153  48.922  1.00  0.00     0.046 C 
HETATM    3  C14 UNL     1     -11.834  23.105  48.574  1.00  0.00     0.127 C 
HETATM    4  N4  UNL     1     -11.488  21.930  48.797  1.00  0.00    -0.384 N 
ATOM      5  H41 UNL     1     -12.097  21.153  48.540  1.00  0.00     0.157 HD
ATOM      6  H42 UNL     1     -10.568  21.828  49.225  1.00  0.00     0.157 HD
HETATM    7  N5  UNL     1     -13.081  23.243  47.995  1.00  0.00    -0.174 N 
ATOM      8  H5  UNL     1     -13.396  22.488  47.387  1.00  0.00     0.186 HD
HETATM    9  C15 UNL     1     -13.930  24.300  48.164  1.00  0.00     0.707 C 
HETATM   10  N7  UNL     1     -13.848  25.403  48.931  1.00  0.00    -0.012 N 
HETATM   11  C16 UNL     1     -12.731  25.863  49.529  1.00  0.00     0.305 C 
HETATM   12  O7  UNL     1     -12.874  26.925  50.148  1.00  0.00    -0.264 OA
ENDROOT
BRANCH   2  13
HETATM   13  C6  UNL     1      -9.596  24.114  48.627  1.00  0.00     0.118 C 
BRANCH  13  14
HETATM   14  N1  UNL     1      -9.206  23.813  47.304  1.00  0.00    -0.329 N 
ATOM     15  H1  UNL     1      -9.148  24.529  46.579  1.00  0.00     0.180 HD
BRANCH  14  16
HETATM   16  N2  UNL     1      -8.910  22.504  47.052  1.00  0.00    -0.226 NA
HETATM   17  C7  UNL     1      -7.457  22.339  46.946  1.00  0.00     0.118 C 
HETATM   18  C8  UNL     1      -6.847  23.289  45.964  1.00  0.00     0.060 C 
HETATM   19  C9  UNL     1      -7.735  23.457  44.812  1.00  0.00     0.012 A 
HETATM   20  C10 UNL     1      -8.976  22.833  44.723  1.00  0.00     0.056 A 
HETATM   21  C11 UNL     1      -7.562  24.200  43.665  1.00  0.00     0.183 A 
HETATM   22  N3  UNL     1      -9.473  23.234  43.541  1.00  0.00    -0.263 N 
HETATM   23  C13 UNL     1      -9.447  21.943  45.837  1.00  0.00     0.173 C 
HETATM   24  O3  UNL     1      -8.653  24.016  42.946  1.00  0.00    -0.230 OA
ATOM     25  H3  UNL     1     -10.380  22.954  43.169  1.00  0.00     0.194 HD
BRANCH  21  26
HETATM   26  C12 UNL     1      -6.414  25.037  43.289  1.00  0.00     0.237 C 
HETATM   27  O4  UNL     1      -5.311  24.456  43.157  1.00  0.00    -0.642 OA
HETATM   28  O5  UNL     1      -6.524  26.391  43.086  1.00  0.00    -0.642 OA
ENDBRANCH  21  26
ENDBRANCH  14  16
ENDBRANCH  13  14
ENDBRANCH   2  13
BRANCH   1  29
HETATM   29  C3  UNL     1     -10.409  26.011  50.293  1.00  0.00     0.300 C 
HETATM   30  O2  UNL     1      -9.773  27.012  49.874  1.00  0.00    -0.259 OA
BRANCH  29  31
HETATM   31  O1  UNL     1     -10.086  25.541  51.558  1.00  0.00    -0.318 OA
BRANCH  31  32
HETATM   32  C2  UNL     1     -10.968  24.763  52.339  1.00  0.00     0.174 C 
HETATM   33  C1  UNL     1     -10.289  23.417  52.582  1.00  0.00     0.034 C 
ENDBRANCH  31  32
ENDBRANCH  29  31
ENDBRANCH   1  29
BRANCH  10  34
HETATM   34  O6  UNL     1     -14.984  26.149  49.144  1.00  0.00    -0.266 OA
ATOM     35  H6  UNL     1     -15.047  27.010  48.747  1.00  0.00     0.246 HD
ENDBRANCH  10  34
BRANCH   9  36
HETATM   36  N6  UNL     1     -15.023  24.271  47.476  1.00  0.00    -0.232 N 
ATOM     37  H62 UNL     1     -14.911  24.714  46.563  1.00  0.00     0.174 HD
ATOM     38  H61 UNL     1     -15.826  23.824  47.920  1.00  0.00     0.174 HD
ENDBRANCH   9  36
TORSDOF 9
ENDMDL
MODEL 2
REMARK VINA RESULT: -6.371799506      2.096      3.371
REMARK  9 active torsions:
REMARK  status: ('A' for Active; 'I' for Inactive)
REMARK    1  A    between atoms: C2_2  and  O1_3 
REMARK    2  A    between atoms: O1_3  and  C3_4 
REMARK    3  A    between atoms: C3_4  and  C4_6 
REMARK    4  A    between atoms: C5_7  and  C6_8 
REMARK    5  A    between atoms: C6_8  and  N1_9 
REMARK    6  A    between atoms: N1_9  and  N2_11 
REMARK    7  A    between atoms: C11_19  and  C12_20 
REMARK    8  A    between atoms: C15_30  and  N6_31 
REMARK    9  A    between atoms: N7_34  and  O6_35 
ROOT
HETATM    1  C4  UNL     1     -11.299  24.027  49.040  1.00  0.00     0.125 C 
HETATM    2  C5  UNL     1     -10.015  24.579  49.060  1.00  0.00     0.046 C 
HETATM    3  C14 UNL     1      -9.736  25.895  49.351  1.00  0.00     0.127 C 
HETATM    4  N4  UNL     1      -8.925  26.537  48.658  1.00  0.00    -0.384 N 
ATOM      5  H41 UNL     1      -8.719  27.513  48.874  1.00  0.00     0.157 HD
ATOM      6  H42 UNL     1      -8.494  26.007  47.901  1.00  0.00     0.157 HD
HETATM    7  N5  UNL     1     -10.320  26.613  50.377  1.00  0.00    -0.174 N 
ATOM      8  H5  UNL     1      -9.767  27.363  50.791  1.00  0.00     0.186 HD
HETATM    9  C15 UNL     1     -11.571  26.410  50.886  1.00  0.00     0.707 C 
HETATM   10  N7  UNL     1     -12.557  25.565  50.532  1.00  0.00    -0.012 N 
HETATM   11  C16 UNL     1     -12.423  24.493  49.726  1.00  0.00     0.305 C 
HETATM   12  O7  UNL     1     -13.454  23.826  49.574  1.00  0.00    -0.264 OA
ENDROOT
BRANCH   2  13
HETATM   13  C6  UNL     1      -8.952  23.644  48.759  1.00  0.00     0.118 C 
BRANCH  13  14
HETATM   14  N1  UNL     1      -8.544  23.520  47.413  1.00  0.00    -0.329 N 
ATOM     15  H1  UNL     1      -8.577  24.306  46.763  1.00  0.00     0.180 HD
BRANCH  14  16
HETATM   16  N2  UNL     1      -8.103  22.285  47.035  1.00  0.00    -0.226 NA
HETATM   17  C7  UNL     1      -6.703  22.372  46.608  1.00  0.00     0.118 C 
HETATM   18  C8  UNL     1      -6.488  23.427  45.570  1.00  0.00     0.060 C 
HETATM   19  C9  UNL     1      -7.625  23.460  44.648  1.00  0.00     0.012 A 
HETATM   20  C10 UNL     1      -8.736  22.635  44.796  1.00  0.00     0.056 A 
HETATM   21  C11 UNL     1      -7.833  24.241  43.532  1.00  0.00     0.183 A 
HETATM   22  N3  UNL     1      -9.541  22.966  43.772  1.00  0.00    -0.263 N 
HETATM   23  C13 UNL     1      -8.797  21.661  45.936  1.00  0.00     0.173 C 
HETATM   24  O3  UNL     1      -9.012  23.885  43.056  1.00  0.00    -0.230 OA
ATOM     25  H3  UNL     1     -10.451  22.541  43.590  1.00  0.00     0.194 HD
BRANCH  21  26
HETATM   26  C12 UNL     1      -6.949  25.266  42.961  1.00  0.00     0.237 C 
HETATM   27  O4  UNL     1      -7.187  26.456  43.275  1.00  0.00    -0.642 OA
HETATM   28  O5  UNL     1      -5.906  24.955  42.122  1.00  0.00    -0.642 OA
ENDBRANCH  21  26
ENDBRANCH  14  16
ENDBRANCH  13  14
ENDBRANCH   2  13
BRANCH   1  29
HETATM   29  C3  UNL     1     -11.422  22.845  48.216  1.00  0.00     0.300 C 
HETATM   30  O2  UNL     1     -11.340  21.663  48.638  1.00  0.00    -0.259 OA
BRANCH  29  31
HETATM   31  O1  UNL     1     -11.648  23.017  46.857  1.00  0.00    -0.318 OA
BRANCH  31  32
HETATM   32  C2  UNL     1     -12.594  22.261  46.132  1.00  0.00     0.174 C 
HETATM   33  C1  UNL     1     -13.912  23.032  46.169  1.00  0.00     0.034 C 
ENDBRANCH  31  32
ENDBRANCH  29  31
ENDBRANCH   1  29
BRANCH  10  34
HETATM   34  O6  UNL     1     -13.826  25.786  51.016  1.00  0.00    -0.266 OA
ATOM     35  H6  UNL     1     -14.284  25.071  51.443  1.00  0.00     0.246 HD
ENDBRANCH  10  34
BRANCH   9  36
HETATM   36  N6  UNL     1     -11.905  27.145  51.895  1.00  0.00    -0.232 N 
ATOM     37  H62 UNL     1     -11.511  28.084  51.830  1.00  0.00     0.174 HD
ATOM     38  H61 UNL     1     -12.498  26.704  52.599  1.00  0.00     0.174 HD
ENDBRANCH   9  36
TORSDOF 9
ENDMDL
MODEL 3
REMARK VINA RESULT: -6.199755651      1.736      2.335
REMARK  9 active torsions:
REMARK  status: ('A' for Active; 'I' for Inactive)
REMARK    1  A    between atoms: C2_2  and  O1_3 
REMARK    2  A    between atoms: O1_3  and  C3_4 
REMARK    3  A    between atoms: C3_4  and  C4_6 
REMARK    4  A    between atoms: C5_7  and  C6_8 
REMARK    5  A    between atoms: C6_8  and  N1_9 
REMARK    6  A    between atoms: N1_9  and  N2_11 
REMARK    7  A    between atoms: C11_19  and  C12_20 
REMARK    8  A    between atoms: C15_30  and  N6_31 
REMARK    9  A    between atoms: N7_34  and  O6_35 
ROOT
HETATM    1  C4  UNL     1     -10.370  24.210  48.657  1.00  0.00     0.125 C 
HETATM    2  C5  UNL     1      -9.309  23.450  48.156  1.00  0.00     0.046 C 
HETATM    3  C14 UNL     1      -9.335  22.083  47.997  1.00  0.00     0.127 C 
HETATM    4  N4  UNL     1      -8.365  21.387  48.350  1.00  0.00    -0.384 N 
ATOM      5  H41 UNL     1      -8.385  20.373  48.232  1.00  0.00     0.157 HD
ATOM      6  H42 UNL     1      -7.578  21.911  48.732  1.00  0.00     0.157 HD
HETATM    7  N5  UNL     1     -10.402  21.373  47.480  1.00  0.00    -0.174 N 
ATOM      8  H5  UNL     1     -10.187  20.502  46.994  1.00  0.00     0.186 HD
HETATM    9  C15 UNL     1     -11.717  21.731  47.559  1.00  0.00     0.707 C 
HETATM   10  N7  UNL     1     -12.330  22.762  48.171  1.00  0.00    -0.012 N 
HETATM   11  C16 UNL     1     -11.725  23.873  48.637  1.00  0.00     0.305 C 
HETATM   12  O7  UNL     1     -12.490  24.716  49.121  1.00  0.00    -0.264 OA
ENDROOT
BRANCH   2  13
HETATM   13  C6  UNL     1      -8.139  24.217  47.786  1.00  0.00     0.118 C 
BRANCH  13  14
HETATM   14  N1  UNL     1      -7.767  24.236  46.424  1.00  0.00    -0.329 N 
ATOM     15  H1  UNL     1      -7.469  25.092  45.956  1.00  0.00     0.180 HD
BRANCH  14  16
HETATM   16  N2  UNL     1      -7.831  23.039  45.771  1.00  0.00    -0.226 NA
HETATM   17  C7  UNL     1      -6.475  22.557  45.495  1.00  0.00     0.118 C 
HETATM   18  C8  UNL     1      -5.639  23.578  44.790  1.00  0.00     0.060 C 
HETATM   19  C9  UNL     1      -6.457  24.310  43.821  1.00  0.00     0.012 A 
HETATM   20  C10 UNL     1      -7.820  24.077  43.659  1.00  0.00     0.056 A 
HETATM   21  C11 UNL     1      -6.099  25.303  42.936  1.00  0.00     0.183 A 
HETATM   22  N3  UNL     1      -8.199  24.935  42.697  1.00  0.00    -0.263 N 
HETATM   23  C13 UNL     1      -8.504  23.035  44.496  1.00  0.00     0.173 C 
HETATM   24  O3  UNL     1      -7.204  25.630  42.291  1.00  0.00    -0.230 OA
ATOM     25  H3  UNL     1      -9.150  25.020  42.339  1.00  0.00     0.194 HD
BRANCH  21  26
HETATM   26  C12 UNL     1      -4.772  25.898  42.725  1.00  0.00     0.237 C 
HETATM   27  O4  UNL     1      -4.086  25.432  41.785  1.00  0.00    -0.642 OA
HETATM   28  O5  UNL     1      -4.289  26.918  43.510  1.00  0.00    -0.642 OA
ENDBRANCH  21  26
ENDBRANCH  14  16
ENDBRANCH  13  14
ENDBRANCH   2  13
BRANCH   1  29
HETATM   29  C3  UNL     1      -9.971  25.473  49.237  1.00  0.00     0.300 C 
HETATM   30  O2  UNL     1      -9.859  26.552  48.600  1.00  0.00    -0.259 OA
BRANCH  29  31
HETATM   31  O1  UNL     1      -9.687  25.507  50.595  1.00  0.00    -0.318 OA
BRANCH  31  32
HETATM   32  C2  UNL     1     -10.627  25.912  51.568  1.00  0.00     0.174 C 
HETATM   33  C1  UNL     1     -10.972  24.679  52.403  1.00  0.00     0.034 C 
ENDBRANCH  31  32
ENDBRANCH  29  31
ENDBRANCH   1  29
BRANCH  10  34
HETATM   34  O6  UNL     1     -13.693  22.711  48.352  1.00  0.00    -0.266 OA
ATOM     35  H6  UNL     1     -14.234  22.352  47.658  1.00  0.00     0.246 HD
ENDBRANCH  10  34
BRANCH   9  36
HETATM   36  N6  UNL     1     -12.558  20.965  46.947  1.00  0.00    -0.232 N 
ATOM     37  H62 UNL     1     -12.202  20.015  46.844  1.00  0.00     0.174 HD
ATOM     38  H61 UNL     1     -13.436  21.396  46.659  1.00  0.00     0.174 HD
ENDBRANCH   9  36
TORSDOF 9
ENDMDL
MODEL 4
REMARK VINA RESULT: -6.134462112      5.014      7.745
REMARK  9 active torsions:
REMARK  status: ('A' for Active; 'I' for Inactive)
REMARK    1  A    between atoms: C2_2  and  O1_3 
REMARK    2  A    between atoms: O1_3  and  C3_4 
REMARK    3  A    between atoms: C3_4  and  C4_6 
REMARK    4  A    between atoms: C5_7  and  C6_8 
REMARK    5  A    between atoms: C6_8  and  N1_9 
REMARK    6  A    between atoms: N1_9  and  N2_11 
REMARK    7  A    between atoms: C11_19  and  C12_20 
REMARK    8  A    between atoms: C15_30  and  N6_31 
REMARK    9  A    between atoms: N7_34  and  O6_35 
ROOT
HETATM    1  C4  UNL     1      -9.151  17.680  44.514  1.00  0.00     0.125 C 
HETATM    2  C5  UNL     1      -8.423  18.136  45.616  1.00  0.00     0.046 C 
HETATM    3  C14 UNL     1      -8.611  17.703  46.909  1.00  0.00     0.127 C 
HETATM    4  N4  UNL     1      -8.647  18.518  47.849  1.00  0.00    -0.384 N 
ATOM      5  H41 UNL     1      -8.787  18.197  48.808  1.00  0.00     0.157 HD
ATOM      6  H42 UNL     1      -8.509  19.491  47.578  1.00  0.00     0.157 HD
HETATM    7  N5  UNL     1      -8.798  16.384  47.276  1.00  0.00    -0.174 N 
ATOM      8  H5  UNL     1      -8.483  16.112  48.207  1.00  0.00     0.186 HD
HETATM    9  C15 UNL     1      -9.368  15.411  46.505  1.00  0.00     0.707 C 
HETATM   10  N7  UNL     1      -9.932  15.450  45.283  1.00  0.00    -0.012 N 
HETATM   11  C16 UNL     1      -9.813  16.456  44.394  1.00  0.00     0.305 C 
HETATM   12  O7  UNL     1     -10.377  16.260  43.310  1.00  0.00    -0.264 OA
ENDROOT
BRANCH   2  13
HETATM   13  C6  UNL     1      -7.407  19.118  45.303  1.00  0.00     0.118 C 
BRANCH  13  14
HETATM   14  N1  UNL     1      -7.820  20.454  45.107  1.00  0.00    -0.329 N 
ATOM     15  H1  UNL     1      -7.733  20.921  44.204  1.00  0.00     0.180 HD
BRANCH  14  16
HETATM   16  N2  UNL     1      -8.343  21.083  46.200  1.00  0.00    -0.226 NA
HETATM   17  C7  UNL     1      -9.373  22.036  45.773  1.00  0.00     0.118 C 
HETATM   18  C8  UNL     1      -8.878  22.977  44.722  1.00  0.00     0.060 C 
HETATM   19  C9  UNL     1      -7.488  23.348  44.997  1.00  0.00     0.012 A 
HETATM   20  C10 UNL     1      -6.771  22.829  46.072  1.00  0.00     0.056 A 
HETATM   21  C11 UNL     1      -6.654  24.211  44.320  1.00  0.00     0.183 A 
HETATM   22  N3  UNL     1      -5.559  23.403  45.978  1.00  0.00    -0.263 N 
HETATM   23  C13 UNL     1      -7.425  21.851  47.004  1.00  0.00     0.173 C 
HETATM   24  O3  UNL     1      -5.506  24.192  44.972  1.00  0.00    -0.230 OA
ATOM     25  H3  UNL     1      -4.787  23.232  46.622  1.00  0.00     0.194 HD
BRANCH  21  26
HETATM   26  C12 UNL     1      -6.948  25.004  43.118  1.00  0.00     0.237 C 
HETATM   27  O4  UNL     1      -7.494  26.118  43.296  1.00  0.00    -0.642 OA
HETATM   28  O5  UNL     1      -6.646  24.563  41.852  1.00  0.00    -0.642 OA
ENDBRANCH  21  26
ENDBRANCH  14  16
ENDBRANCH  13  14
ENDBRANCH   2  13
BRANCH   1  29
HETATM   29  C3  UNL     1      -9.187  18.607  43.404  1.00  0.00     0.300 C 
HETATM   30  O2  UNL     1      -8.392  18.590  42.429  1.00  0.00    -0.259 OA
BRANCH  29  31
HETATM   31  O1  UNL     1     -10.165  19.591  43.406  1.00  0.00    -0.318 OA
BRANCH  31  32
HETATM   32  C2  UNL     1     -10.852  19.997  42.241  1.00  0.00     0.174 C 
HETATM   33  C1  UNL     1     -11.505  21.344  42.548  1.00  0.00     0.034 C 
ENDBRANCH  31  32
ENDBRANCH  29  31
ENDBRANCH   1  29
BRANCH  10  34
HETATM   34  O6  UNL     1     -10.705  14.388  44.875  1.00  0.00    -0.266 OA
ATOM     35  H6  UNL     1     -11.258  14.491  44.109  1.00  0.00     0.246 HD
ENDBRANCH  10  34
BRANCH   9  36
HETATM   36  N6  UNL     1      -9.386  14.220  47.006  1.00  0.00    -0.232 N 
ATOM     37  H62 UNL     1      -8.474  13.947  47.371  1.00  0.00     0.174 HD
ATOM     38  H61 UNL     1     -10.280  13.729  46.974  1.00  0.00     0.174 HD
ENDBRANCH   9  36
TORSDOF 9
ENDMDL
MODEL 5
REMARK VINA RESULT: -6.076547020      4.310      6.453
REMARK  9 active torsions:
REMARK  status: ('A' for Active; 'I' for Inactive)
REMARK    1  A    between atoms: C2_2  and  O1_3 
REMARK    2  A    between atoms: O1_3  and  C3_4 
REMARK    3  A    between atoms: C3_4  and  C4_6 
REMARK    4  A    between atoms: C5_7  and  C6_8 
REMARK    5  A    between atoms: C6_8  and  N1_9 
REMARK    6  A    between atoms: N1_9  and  N2_11 
REMARK    7  A    between atoms: C11_19  and  C12_20 
REMARK    8  A    between atoms: C15_30  and  N6_31 
REMARK    9  A    between atoms: N7_34  and  O6_35 
ROOT
HETATM    1  C4  UNL     1      -8.429  22.544  46.825  1.00  0.00     0.125 C 
HETATM    2  C5  UNL     1      -8.563  21.253  47.344  1.00  0.00     0.046 C 
HETATM    3  C14 UNL     1      -8.447  20.932  48.678  1.00  0.00     0.127 C 
HETATM    4  N4  UNL     1      -7.789  19.936  49.033  1.00  0.00    -0.384 N 
ATOM      5  H41 UNL     1      -7.703  19.698  50.021  1.00  0.00     0.157 HD
ATOM      6  H42 UNL     1      -7.383  19.396  48.269  1.00  0.00     0.157 HD
HETATM    7  N5  UNL     1      -8.997  21.663  49.713  1.00  0.00    -0.174 N 
ATOM      8  H5  UNL     1      -9.250  21.153  50.559  1.00  0.00     0.186 HD
HETATM    9  C15 UNL     1      -9.233  23.009  49.706  1.00  0.00     0.707 C 
HETATM   10  N7  UNL     1      -8.964  23.962  48.795  1.00  0.00    -0.012 N 
HETATM   11  C16 UNL     1      -8.628  23.746  47.507  1.00  0.00     0.305 C 
HETATM   12  O7  UNL     1      -8.472  24.772  46.833  1.00  0.00    -0.264 OA
ENDROOT
BRANCH   2  13
HETATM   13  C6  UNL     1      -8.860  20.235  46.360  1.00  0.00     0.118 C 
BRANCH  13  14
HETATM   14  N1  UNL     1      -7.794  19.431  45.901  1.00  0.00    -0.329 N 
ATOM     15  H1  UNL     1      -7.245  19.677  45.077  1.00  0.00     0.180 HD
BRANCH  14  16
HETATM   16  N2  UNL     1      -7.541  18.304  46.629  1.00  0.00    -0.226 NA
HETATM   17  C7  UNL     1      -6.426  17.568  46.025  1.00  0.00     0.118 C 
HETATM   18  C8  UNL     1      -6.639  17.304  44.569  1.00  0.00     0.060 C 
HETATM   19  C9  UNL     1      -8.049  16.997  44.318  1.00  0.00     0.012 A 
HETATM   20  C10 UNL     1      -9.011  17.011  45.323  1.00  0.00     0.056 A 
HETATM   21  C11 UNL     1      -8.682  16.658  43.142  1.00  0.00     0.183 A 
HETATM   22  N3  UNL     1     -10.156  16.685  44.700  1.00  0.00    -0.263 N 
HETATM   23  C13 UNL     1      -8.616  17.348  46.731  1.00  0.00     0.173 C 
HETATM   24  O3  UNL     1      -9.953  16.485  43.452  1.00  0.00    -0.230 OA
ATOM     25  H3  UNL     1     -11.064  16.608  45.159  1.00  0.00     0.194 HD
BRANCH  21  26
HETATM   26  C12 UNL     1      -8.096  16.511  41.803  1.00  0.00     0.237 C 
HETATM   27  O4  UNL     1      -7.601  15.394  41.522  1.00  0.00    -0.642 OA
HETATM   28  O5  UNL     1      -8.081  17.536  40.888  1.00  0.00    -0.642 OA
ENDBRANCH  21  26
ENDBRANCH  14  16
ENDBRANCH  13  14
ENDBRANCH   2  13
BRANCH   1  29
HETATM   29  C3  UNL     1      -8.052  22.584  45.430  1.00  0.00     0.300 C 
HETATM   30  O2  UNL     1      -8.838  22.833  44.480  1.00  0.00    -0.259 OA
BRANCH  29  31
HETATM   31  O1  UNL     1      -6.726  22.331  45.105  1.00  0.00    -0.318 OA
BRANCH  31  32
HETATM   32  C2  UNL     1      -5.691  23.270  45.305  1.00  0.00     0.174 C 
HETATM   33  C1  UNL     1      -5.705  24.219  44.107  1.00  0.00     0.034 C 
ENDBRANCH  31  32
ENDBRANCH  29  31
ENDBRANCH   1  29
BRANCH  10  34
HETATM   34  O6  UNL     1      -9.029  25.282  49.176  1.00  0.00    -0.266 OA
ATOM     35  H6  UNL     1      -9.797  25.585  49.648  1.00  0.00     0.246 HD
ENDBRANCH  10  34
BRANCH   9  36
HETATM   36  N6  UNL     1      -9.822  23.492  50.750  1.00  0.00    -0.232 N 
ATOM     37  H62 UNL     1     -10.580  24.127  50.499  1.00  0.00     0.174 HD
ATOM     38  H61 UNL     1      -9.465  23.184  51.654  1.00  0.00     0.174 HD
ENDBRANCH   9  36
TORSDOF 9
ENDMDL
