MODEL 1
REMARK VINA RESULT: -6.948256924      0.000      0.000
REMARK  5 active torsions:
REMARK  status: ('A' for Active; 'I' for Inactive)
REMARK    1  A    between atoms: N2_7  and  C5_8 
REMARK    2  A    between atoms: C5_8  and  C6_9 
REMARK    3  A    between atoms: C6_9  and  C7_10 
REMARK    4  A    between atoms: C7_10  and  C8_11 
REMARK    5  A    between atoms: C8_11  and  N3_12 
ROOT
HETATM    1  N3  UNL     1      31.064  20.281  96.056  1.00  0.00    -0.276 N 
HETATM    2  N4  UNL     1      32.200  19.694  96.392  1.00  0.00    -0.297 N 
ATOM      3  H4  UNL     1      33.070  20.220  96.311  1.00  0.00     0.187 HD
HETATM    4  C9  UNL     1      32.247  18.427  96.838  1.00  0.00     0.073 A 
HETATM    5  C10 UNL     1      33.502  17.736  97.225  1.00  0.00     0.074 C 
HETATM    6  C11 UNL     1      31.060  17.744  96.935  1.00  0.00     0.209 A 
HETATM    7  O1  UNL     1      31.011  16.564  97.339  1.00  0.00    -0.285 OA
HETATM    8  C12 UNL     1      29.836  18.327  96.589  1.00  0.00     0.063 A 
HETATM    9  C13 UNL     1      28.646  17.634  96.689  1.00  0.00     0.040 A 
HETATM   10  C14 UNL     1      27.461  18.241  96.340  1.00  0.00     0.027 A 
HETATM   11 BR1  UNL     1      25.818  17.293  96.476  1.00  0.00    -0.050 Br
HETATM   12  C15 UNL     1      27.539  19.551  95.895  1.00  0.00     0.109 A 
HETATM   13  N5  UNL     1      28.708  20.212  95.804  1.00  0.00    -0.349 N 
ATOM     14  H5  UNL     1      28.703  21.176  95.469  1.00  0.00     0.167 HD
HETATM   15  C16 UNL     1      29.881  19.650  96.136  1.00  0.00     0.136 A 
ENDROOT
BRANCH   1  16
HETATM   16  C8  UNL     1      31.026  21.669  95.570  1.00  0.00     0.151 C 
BRANCH  16  17
HETATM   17  C7  UNL     1      32.110  22.430  96.267  1.00  0.00     0.023 C 
BRANCH  17  18
HETATM   18  C6  UNL     1      31.662  23.850  96.494  1.00  0.00     0.023 C 
BRANCH  18  19
HETATM   19  C5  UNL     1      32.690  24.875  96.074  1.00  0.00     0.150 C 
BRANCH  19  20
HETATM   20  N2  UNL     1      32.321  25.417  94.754  1.00  0.00    -0.279 N 
HETATM   21  C3  UNL     1      33.149  25.999  93.869  1.00  0.00     0.095 A 
HETATM   22  N1  UNL     1      32.431  26.358  92.786  1.00  0.00    -0.334 N 
HETATM   23  C4  UNL     1      34.600  26.207  94.056  1.00  0.00     0.091 C 
HETATM   24  C2  UNL     1      31.149  26.002  92.989  1.00  0.00     0.093 A 
ATOM     25  H1  UNL     1      32.797  26.821  91.954  1.00  0.00     0.168 HD
HETATM   26  C1  UNL     1      29.989  26.204  92.050  1.00  0.00     0.090 C 
HETATM   27  N6  UNL     1      31.119  25.428  94.204  1.00  0.00    -0.286 N 
ATOM     28  H6  UNL     1      30.279  25.052  94.643  1.00  0.00     0.188 HD
ENDBRANCH  19  20
ENDBRANCH  18  19
ENDBRANCH  17  18
ENDBRANCH  16  17
ENDBRANCH   1  16
TORSDOF 5
ENDMDL
MODEL 2
REMARK VINA RESULT: -6.927870350      5.345      7.843
REMARK  5 active torsions:
REMARK  status: ('A' for Active; 'I' for Inactive)
REMARK    1  A    between atoms: N2_7  and  C5_8 
REMARK    2  A    between atoms: C5_8  and  C6_9 
REMARK    3  A    between atoms: C6_9  and  C7_10 
REMARK    4  A    between atoms: C7_10  and  C8_11 
REMARK    5  A    between atoms: C8_11  and  N3_12 
ROOT
HETATM    1  N3  UNL     1      33.365  18.626  96.905  1.00  0.00    -0.276 N 
HETATM    2  N4  UNL     1      33.004  19.151  98.063  1.00  0.00    -0.297 N 
ATOM      3  H4  UNL     1      32.047  19.484  98.177  1.00  0.00     0.187 HD
HETATM    4  C9  UNL     1      33.857  19.261  99.096  1.00  0.00     0.073 A 
HETATM    5  C10 UNL     1      33.489  19.844 100.410  1.00  0.00     0.074 C 
HETATM    6  C11 UNL     1      35.139  18.806  98.911  1.00  0.00     0.209 A 
HETATM    7  O1  UNL     1      35.996  18.870  99.817  1.00  0.00    -0.285 OA
HETATM    8  C12 UNL     1      35.562  18.244  97.702  1.00  0.00     0.063 A 
HETATM    9  C13 UNL     1      36.853  17.787  97.524  1.00  0.00     0.040 A 
HETATM   10  C14 UNL     1      37.232  17.240  96.319  1.00  0.00     0.027 A 
HETATM   11 BR1  UNL     1      39.009  16.610  96.067  1.00  0.00    -0.050 Br
HETATM   12  C15 UNL     1      36.265  17.180  95.330  1.00  0.00     0.109 A 
HETATM   13  N5  UNL     1      35.010  17.629  95.520  1.00  0.00    -0.349 N 
ATOM     14  H5  UNL     1      34.340  17.557  94.754  1.00  0.00     0.167 HD
HETATM   15  C16 UNL     1      34.607  18.168  96.682  1.00  0.00     0.136 A 
ENDROOT
BRANCH   1  16
HETATM   16  C8  UNL     1      32.420  18.510  95.782  1.00  0.00     0.151 C 
BRANCH  16  17
HETATM   17  C7  UNL     1      31.692  19.811  95.658  1.00  0.00     0.023 C 
BRANCH  17  18
HETATM   18  C6  UNL     1      30.217  19.549  95.503  1.00  0.00     0.023 C 
BRANCH  18  19
HETATM   19  C5  UNL     1      29.902  18.129  95.091  1.00  0.00     0.150 C 
BRANCH  19  20
HETATM   20  N2  UNL     1      28.763  17.637  95.885  1.00  0.00    -0.279 N 
HETATM   21  C3  UNL     1      28.831  16.892  97.003  1.00  0.00     0.095 A 
HETATM   22  N1  UNL     1      27.575  16.649  97.430  1.00  0.00    -0.334 N 
HETATM   23  C4  UNL     1      30.074  16.422  97.650  1.00  0.00     0.091 C 
HETATM   24  C2  UNL     1      26.716  17.241  96.581  1.00  0.00     0.093 A 
ATOM     25  H1  UNL     1      27.321  16.108  98.256  1.00  0.00     0.168 HD
HETATM   26  C1  UNL     1      25.212  17.238  96.659  1.00  0.00     0.090 C 
HETATM   27  N6  UNL     1      27.478  17.837  95.649  1.00  0.00    -0.286 N 
ATOM     28  H6  UNL     1      27.113  18.372  94.861  1.00  0.00     0.188 HD
ENDBRANCH  19  20
ENDBRANCH  18  19
ENDBRANCH  17  18
ENDBRANCH  16  17
ENDBRANCH   1  16
TORSDOF 5
ENDMDL
MODEL 3
REMARK VINA RESULT: -6.863771109      5.271      7.919
REMARK  5 active torsions:
REMARK  status: ('A' for Active; 'I' for Inactive)
REMARK    1  A    between atoms: N2_7  and  C5_8 
REMARK    2  A    between atoms: C5_8  and  C6_9 
REMARK    3  A    between atoms: C6_9  and  C7_10 
REMARK    4  A    between atoms: C7_10  and  C8_11 
REMARK    5  A    between atoms: C8_11  and  N3_12 
ROOT
HETATM    1  N3  UNL     1      33.277  18.637  96.434  1.00  0.00    -0.276 N 
HETATM    2  N4  UNL     1      32.786  19.174  97.538  1.00  0.00    -0.297 N 
ATOM      3  H4  UNL     1      31.825  19.518  97.534  1.00  0.00     0.187 HD
HETATM    4  C9  UNL     1      33.510  19.284  98.665  1.00  0.00     0.073 A 
HETATM    5  C10 UNL     1      32.992  19.880  99.922  1.00  0.00     0.074 C 
HETATM    6  C11 UNL     1      34.799  18.815  98.639  1.00  0.00     0.209 A 
HETATM    7  O1  UNL     1      35.542  18.877  99.640  1.00  0.00    -0.285 OA
HETATM    8  C12 UNL     1      35.359  18.240  97.492  1.00  0.00     0.063 A 
HETATM    9  C13 UNL     1      36.657  17.770  97.473  1.00  0.00     0.040 A 
HETATM   10  C14 UNL     1      37.172  17.210  96.326  1.00  0.00     0.027 A 
HETATM   11 BR1  UNL     1      38.960  16.561  96.293  1.00  0.00    -0.050 Br
HETATM   12  C15 UNL     1      36.330  17.152  95.228  1.00  0.00     0.109 A 
HETATM   13  N5  UNL     1      35.066  17.615  95.264  1.00  0.00    -0.349 N 
ATOM     14  H5  UNL     1      34.493  17.545  94.423  1.00  0.00     0.167 HD
HETATM   15  C16 UNL     1      34.533  18.166  96.366  1.00  0.00     0.136 A 
ENDROOT
BRANCH   1  16
HETATM   16  C8  UNL     1      32.473  18.523  95.207  1.00  0.00     0.151 C 
BRANCH  16  17
HETATM   17  C7  UNL     1      31.537  19.689  95.160  1.00  0.00     0.023 C 
BRANCH  17  18
HETATM   18  C6  UNL     1      30.178  19.226  94.704  1.00  0.00     0.023 C 
BRANCH  18  19
HETATM   19  C5  UNL     1      29.106  19.391  95.756  1.00  0.00     0.150 C 
BRANCH  19  20
HETATM   20  N2  UNL     1      28.791  18.074  96.336  1.00  0.00    -0.279 N 
HETATM   21  C3  UNL     1      27.565  17.549  96.509  1.00  0.00     0.095 A 
HETATM   22  N1  UNL     1      27.698  16.329  97.067  1.00  0.00    -0.334 N 
HETATM   23  C4  UNL     1      26.290  18.203  96.147  1.00  0.00     0.091 C 
HETATM   24  C2  UNL     1      29.009  16.085  97.246  1.00  0.00     0.093 A 
ATOM     25  H1  UNL     1      26.935  15.699  97.313  1.00  0.00     0.168 HD
HETATM   26  C1  UNL     1      29.632  14.848  97.839  1.00  0.00     0.090 C 
HETATM   27  N6  UNL     1      29.648  17.174  96.787  1.00  0.00    -0.286 N 
ATOM     28  H6  UNL     1      30.661  17.291  96.787  1.00  0.00     0.188 HD
ENDBRANCH  19  20
ENDBRANCH  18  19
ENDBRANCH  17  18
ENDBRANCH  16  17
ENDBRANCH   1  16
TORSDOF 5
ENDMDL
MODEL 4
REMARK VINA RESULT: -6.747467332      4.268      6.933
REMARK  5 active torsions:
REMARK  status: ('A' for Active; 'I' for Inactive)
REMARK    1  A    between atoms: N2_7  and  C5_8 
REMARK    2  A    between atoms: C5_8  and  C6_9 
REMARK    3  A    between atoms: C6_9  and  C7_10 
REMARK    4  A    between atoms: C7_10  and  C8_11 
REMARK    5  A    between atoms: C8_11  and  N3_12 
ROOT
HETATM    1  N3  UNL     1      31.946  20.384  97.174  1.00  0.00    -0.276 N 
HETATM    2  N4  UNL     1      33.027  19.649  97.374  1.00  0.00    -0.297 N 
ATOM      3  H4  UNL     1      33.528  19.279  96.566  1.00  0.00     0.187 HD
HETATM    4  C9  UNL     1      33.487  19.373  98.606  1.00  0.00     0.073 A 
HETATM    5  C10 UNL     1      34.695  18.553  98.870  1.00  0.00     0.074 C 
HETATM    6  C11 UNL     1      32.789  19.883  99.673  1.00  0.00     0.209 A 
HETATM    7  O1  UNL     1      33.145  19.676 100.851  1.00  0.00    -0.285 OA
HETATM    8  C12 UNL     1      31.641  20.665  99.506  1.00  0.00     0.063 A 
HETATM    9  C13 UNL     1      30.945  21.175 100.583  1.00  0.00     0.040 A 
HETATM   10  C14 UNL     1      29.820  21.941 100.379  1.00  0.00     0.027 A 
HETATM   11 BR1  UNL     1      28.856  22.647 101.859  1.00  0.00    -0.050 Br
HETATM   12  C15 UNL     1      29.443  22.157  99.064  1.00  0.00     0.109 A 
HETATM   13  N5  UNL     1      30.134  21.652  98.024  1.00  0.00    -0.349 N 
ATOM     14  H5  UNL     1      29.809  21.846  97.077  1.00  0.00     0.167 HD
HETATM   15  C16 UNL     1      31.235  20.902  98.188  1.00  0.00     0.136 A 
ENDROOT
BRANCH   1  16
HETATM   16  C8  UNL     1      31.454  20.679  95.819  1.00  0.00     0.151 C 
BRANCH  16  17
HETATM   17  C7  UNL     1      31.692  19.471  94.969  1.00  0.00     0.023 C 
BRANCH  17  18
HETATM   18  C6  UNL     1      30.371  18.905  94.517  1.00  0.00     0.023 C 
BRANCH  18  19
HETATM   19  C5  UNL     1      29.243  19.170  95.487  1.00  0.00     0.150 C 
BRANCH  19  20
HETATM   20  N2  UNL     1      28.942  17.932  96.227  1.00  0.00    -0.279 N 
HETATM   21  C3  UNL     1      27.720  17.455  96.523  1.00  0.00     0.095 A 
HETATM   22  N1  UNL     1      27.866  16.302  97.207  1.00  0.00    -0.334 N 
HETATM   23  C4  UNL     1      26.437  18.091  96.159  1.00  0.00     0.091 C 
HETATM   24  C2  UNL     1      29.181  16.052  97.341  1.00  0.00     0.093 A 
ATOM     25  H1  UNL     1      27.109  15.719  97.562  1.00  0.00     0.168 HD
HETATM   26  C1  UNL     1      29.818  14.876  98.034  1.00  0.00     0.090 C 
HETATM   27  N6  UNL     1      29.810  17.070  96.729  1.00  0.00    -0.286 N 
ATOM     28  H6  UNL     1      30.823  17.166  96.662  1.00  0.00     0.188 HD
ENDBRANCH  19  20
ENDBRANCH  18  19
ENDBRANCH  17  18
ENDBRANCH  16  17
ENDBRANCH   1  16
TORSDOF 5
ENDMDL
MODEL 5
REMARK VINA RESULT: -6.648468697      4.009      6.783
REMARK  5 active torsions:
REMARK  status: ('A' for Active; 'I' for Inactive)
REMARK    1  A    between atoms: N2_7  and  C5_8 
REMARK    2  A    between atoms: C5_8  and  C6_9 
REMARK    3  A    between atoms: C6_9  and  C7_10 
REMARK    4  A    between atoms: C7_10  and  C8_11 
REMARK    5  A    between atoms: C8_11  and  N3_12 
ROOT
HETATM    1  N3  UNL     1      31.794  20.742  97.020  1.00  0.00    -0.276 N 
HETATM    2  N4  UNL     1      32.847  19.949  97.123  1.00  0.00    -0.297 N 
ATOM      3  H4  UNL     1      33.348  19.682  96.276  1.00  0.00     0.187 HD
HETATM    4  C9  UNL     1      33.278  19.483  98.308  1.00  0.00     0.073 A 
HETATM    5  C10 UNL     1      34.455  18.592  98.463  1.00  0.00     0.074 C 
HETATM    6  C11 UNL     1      32.581  19.858  99.429  1.00  0.00     0.209 A 
HETATM    7  O1  UNL     1      32.912  19.472 100.569  1.00  0.00    -0.285 OA
HETATM    8  C12 UNL     1      31.462  20.695  99.365  1.00  0.00     0.063 A 
HETATM    9  C13 UNL     1      30.766  21.069 100.497  1.00  0.00     0.040 A 
HETATM   10  C14 UNL     1      29.670  21.894 100.393  1.00  0.00     0.027 A 
HETATM   11 BR1  UNL     1      28.706  22.413 101.949  1.00  0.00    -0.050 Br
HETATM   12  C15 UNL     1      29.321  22.311  99.119  1.00  0.00     0.109 A 
HETATM   13  N5  UNL     1      30.011  21.937  98.025  1.00  0.00    -0.349 N 
ATOM     14  H5  UNL     1      29.707  22.276  97.112  1.00  0.00     0.167 HD
HETATM   15  C16 UNL     1      31.085  21.134  98.091  1.00  0.00     0.136 A 
ENDROOT
BRANCH   1  16
HETATM   16  C8  UNL     1      31.332  21.246  95.717  1.00  0.00     0.151 C 
BRANCH  16  17
HETATM   17  C7  UNL     1      31.134  20.071  94.813  1.00  0.00     0.023 C 
BRANCH  17  18
HETATM   18  C6  UNL     1      29.796  19.439  95.094  1.00  0.00     0.023 C 
BRANCH  18  19
HETATM   19  C5  UNL     1      29.896  17.997  95.535  1.00  0.00     0.150 C 
BRANCH  19  20
HETATM   20  N2  UNL     1      28.608  17.580  96.117  1.00  0.00    -0.279 N 
HETATM   21  C3  UNL     1      28.427  16.656  97.078  1.00  0.00     0.095 A 
HETATM   22  N1  UNL     1      27.107  16.562  97.336  1.00  0.00    -0.334 N 
HETATM   23  C4  UNL     1      29.497  15.879  97.736  1.00  0.00     0.091 C 
HETATM   24  C2  UNL     1      26.456  17.427  96.537  1.00  0.00     0.093 A 
ATOM     25  H1  UNL     1      26.676  15.941  98.019  1.00  0.00     0.168 HD
HETATM   26  C1  UNL     1      24.970  17.667  96.474  1.00  0.00     0.090 C 
HETATM   27  N6  UNL     1      27.406  18.033  95.805  1.00  0.00    -0.286 N 
ATOM     28  H6  UNL     1      27.224  18.748  95.101  1.00  0.00     0.188 HD
ENDBRANCH  19  20
ENDBRANCH  18  19
ENDBRANCH  17  18
ENDBRANCH  16  17
ENDBRANCH   1  16
TORSDOF 5
ENDMDL
