MODEL 1
REMARK VINA RESULT: -5.722279898      0.000      0.000
REMARK  5 active torsions:
REMARK  status: ('A' for Active; 'I' for Inactive)
REMARK    1  A    between atoms: C2_2  and  N1_3 
REMARK    2  A    between atoms: N2_11  and  C8_12 
REMARK    3  A    between atoms: C8_12  and  C9_13 
REMARK    4  A    between atoms: N3_17  and  C13_18 
REMARK    5  A    between atoms: C13_18  and  C14_19 
ROOT
HETATM    1  C14 UNL     1      35.009  20.558  98.305  1.00  0.00     0.128 C 
HETATM    2  C15 UNL     1      36.419  20.088  98.670  1.00  0.00     0.031 C 
HETATM    3  C16 UNL     1      34.998  21.972  98.272  1.00  0.00     0.069 C 
HETATM    4  N4  UNL     1      34.974  23.128  98.261  1.00  0.00    -0.197 NA
ENDROOT
BRANCH   1   5
HETATM    5  C13 UNL     1      33.949  19.844  99.125  1.00  0.00     0.094 C 
BRANCH   5   6
HETATM    6  N3  UNL     1      32.670  20.084  98.587  1.00  0.00    -0.273 N 
HETATM    7  C5  UNL     1      32.081  19.504  97.529  1.00  0.00     0.094 A 
HETATM    8  C4  UNL     1      30.748  19.768  97.159  1.00  0.00     0.132 A 
HETATM    9  C6  UNL     1      32.562  18.623  96.621  1.00  0.00     0.056 A 
HETATM   10  C3  UNL     1      30.010  20.656  97.904  1.00  0.00     0.281 A 
HETATM   11  N2  UNL     1      30.433  19.066  96.063  1.00  0.00    -0.346 N 
HETATM   12  N1  UNL     1      30.612  21.233  98.960  1.00  0.00    -0.264 N 
HETATM   13  O1  UNL     1      28.831  20.886  97.578  1.00  0.00    -0.265 OA
HETATM   14  C17 UNL     1      31.884  20.962  99.290  1.00  0.00     0.336 A 
HETATM   15  O2  UNL     1      32.330  21.569 100.300  1.00  0.00    -0.246 OA
HETATM   16  C7  UNL     1      31.560  18.357  95.735  1.00  0.00     0.113 A 
HETATM   17 BR1  UNL     1      34.302  17.912  96.517  1.00  0.00    -0.047 Br
BRANCH  12  18
HETATM   18  C2  UNL     1      29.818  22.172  99.739  1.00  0.00     0.133 C 
HETATM   19  C1  UNL     1      29.819  23.551  99.136  1.00  0.00     0.027 C 
ENDBRANCH  12  18
BRANCH  11  20
HETATM   20  C8  UNL     1      29.263  18.973  95.254  1.00  0.00     0.156 C 
BRANCH  20  21
HETATM   21  C9  UNL     1      28.376  17.908  95.801  1.00  0.00    -0.005 C 
HETATM   22  C10 UNL     1      27.102  17.987  96.064  1.00  0.00    -0.090 C 
HETATM   23  C11 UNL     1      26.443  16.740  96.615  1.00  0.00     0.042 C 
HETATM   24  C12 UNL     1      26.245  19.158  95.915  1.00  0.00     0.042 C 
ENDBRANCH  20  21
ENDBRANCH  11  20
ENDBRANCH   5   6
ENDBRANCH   1   5
TORSDOF 5
ENDMDL
MODEL 2
REMARK VINA RESULT: -5.548796773      1.177      1.783
REMARK  5 active torsions:
REMARK  status: ('A' for Active; 'I' for Inactive)
REMARK    1  A    between atoms: C2_2  and  N1_3 
REMARK    2  A    between atoms: N2_11  and  C8_12 
REMARK    3  A    between atoms: C8_12  and  C9_13 
REMARK    4  A    between atoms: N3_17  and  C13_18 
REMARK    5  A    between atoms: C13_18  and  C14_19 
ROOT
HETATM    1  C14 UNL     1      33.983  19.135 100.128  1.00  0.00     0.128 C 
HETATM    2  C15 UNL     1      33.832  19.646 101.562  1.00  0.00     0.031 C 
HETATM    3  C16 UNL     1      35.062  18.221 100.085  1.00  0.00     0.069 C 
HETATM    4  N4  UNL     1      35.954  17.488 100.035  1.00  0.00    -0.197 NA
ENDROOT
BRANCH   1   5
HETATM    5  C13 UNL     1      33.955  20.272  99.121  1.00  0.00     0.094 C 
BRANCH   5   6
HETATM    6  N3  UNL     1      32.673  20.390  98.551  1.00  0.00    -0.273 N 
HETATM    7  C5  UNL     1      32.146  19.710  97.519  1.00  0.00     0.094 A 
HETATM    8  C4  UNL     1      30.805  19.857  97.116  1.00  0.00     0.132 A 
HETATM    9  C6  UNL     1      32.705  18.816  96.671  1.00  0.00     0.056 A 
HETATM   10  C3  UNL     1      29.992  20.730  97.798  1.00  0.00     0.281 A 
HETATM   11  N2  UNL     1      30.560  19.073  96.057  1.00  0.00    -0.346 N 
HETATM   12  N1  UNL     1      30.532  21.407  98.828  1.00  0.00    -0.264 N 
HETATM   13  O1  UNL     1      28.806  20.856  97.442  1.00  0.00    -0.265 OA
HETATM   14  C17 UNL     1      31.814  21.246  99.191  1.00  0.00     0.336 A 
HETATM   15  O2  UNL     1      32.196  21.940 100.171  1.00  0.00    -0.246 OA
HETATM   16  C7  UNL     1      31.741  18.430  95.787  1.00  0.00     0.113 A 
HETATM   17 BR1  UNL     1      34.492  18.227  96.633  1.00  0.00    -0.047 Br
BRANCH  12  18
HETATM   18  C2  UNL     1      29.659  22.329  99.540  1.00  0.00     0.133 C 
HETATM   19  C1  UNL     1      29.753  23.730  99.000  1.00  0.00     0.027 C 
ENDBRANCH  12  18
BRANCH  11  20
HETATM   20  C8  UNL     1      29.415  18.852  95.238  1.00  0.00     0.156 C 
BRANCH  20  21
HETATM   21  C9  UNL     1      28.550  17.822  95.879  1.00  0.00    -0.005 C 
HETATM   22  C10 UNL     1      27.278  17.905  96.151  1.00  0.00    -0.090 C 
HETATM   23  C11 UNL     1      26.643  16.697  96.807  1.00  0.00     0.042 C 
HETATM   24  C12 UNL     1      26.402  19.049  95.919  1.00  0.00     0.042 C 
ENDBRANCH  20  21
ENDBRANCH  11  20
ENDBRANCH   5   6
ENDBRANCH   1   5
TORSDOF 5
ENDMDL
MODEL 3
REMARK VINA RESULT: -5.426366518      2.478      6.465
REMARK  5 active torsions:
REMARK  status: ('A' for Active; 'I' for Inactive)
REMARK    1  A    between atoms: C2_2  and  N1_3 
REMARK    2  A    between atoms: N2_11  and  C8_12 
REMARK    3  A    between atoms: C8_12  and  C9_13 
REMARK    4  A    between atoms: N3_17  and  C13_18 
REMARK    5  A    between atoms: C13_18  and  C14_19 
ROOT
HETATM    1  C14 UNL     1      27.665  17.903  96.355  1.00  0.00     0.128 C 
HETATM    2  C15 UNL     1      26.855  16.611  96.477  1.00  0.00     0.031 C 
HETATM    3  C16 UNL     1      26.788  18.954  95.999  1.00  0.00     0.069 C 
HETATM    4  N4  UNL     1      26.084  19.817  95.689  1.00  0.00    -0.197 NA
ENDROOT
BRANCH   1   5
HETATM    5  C13 UNL     1      28.926  17.700  95.532  1.00  0.00     0.094 C 
BRANCH   5   6
HETATM    6  N3  UNL     1      29.983  18.464  96.062  1.00  0.00    -0.273 N 
HETATM    7  C5  UNL     1      30.879  18.121  97.002  1.00  0.00     0.094 A 
HETATM    8  C4  UNL     1      31.956  18.952  97.367  1.00  0.00     0.132 A 
HETATM    9  C6  UNL     1      30.968  17.017  97.779  1.00  0.00     0.056 A 
HETATM   10  C3  UNL     1      32.106  20.167  96.743  1.00  0.00     0.281 A 
HETATM   11  N2  UNL     1      32.675  18.366  98.334  1.00  0.00    -0.346 N 
HETATM   12  N1  UNL     1      31.200  20.501  95.806  1.00  0.00    -0.264 N 
HETATM   13  O1  UNL     1      33.060  20.899  97.065  1.00  0.00    -0.265 OA
HETATM   14  C17 UNL     1      30.184  19.689  95.477  1.00  0.00     0.336 A 
HETATM   15  O2  UNL     1      29.405  20.119  94.584  1.00  0.00    -0.246 OA
HETATM   16  C7  UNL     1      32.058  17.166  98.583  1.00  0.00     0.113 A 
HETATM   17 BR1  UNL     1      29.795  15.546  97.826  1.00  0.00    -0.047 Br
BRANCH  12  18
HETATM   18  C2  UNL     1      31.371  21.792  95.155  1.00  0.00     0.133 C 
HETATM   19  C1  UNL     1      31.455  22.921  96.147  1.00  0.00     0.027 C 
ENDBRANCH  12  18
BRANCH  11  20
HETATM   20  C8  UNL     1      33.823  18.757  99.083  1.00  0.00     0.156 C 
BRANCH  20  21
HETATM   21  C9  UNL     1      35.048  18.305  98.367  1.00  0.00    -0.005 C 
HETATM   22  C10 UNL     1      36.091  19.018  98.041  1.00  0.00    -0.090 C 
HETATM   23  C11 UNL     1      37.206  18.297  97.314  1.00  0.00     0.042 C 
HETATM   24  C12 UNL     1      36.288  20.444  98.275  1.00  0.00     0.042 C 
ENDBRANCH  20  21
ENDBRANCH  11  20
ENDBRANCH   5   6
ENDBRANCH   1   5
TORSDOF 5
ENDMDL
MODEL 4
REMARK VINA RESULT: -5.419036549      2.423      3.765
REMARK  5 active torsions:
REMARK  status: ('A' for Active; 'I' for Inactive)
REMARK    1  A    between atoms: C2_2  and  N1_3 
REMARK    2  A    between atoms: N2_11  and  C8_12 
REMARK    3  A    between atoms: C8_12  and  C9_13 
REMARK    4  A    between atoms: N3_17  and  C13_18 
REMARK    5  A    between atoms: C13_18  and  C14_19 
ROOT
HETATM    1  C14 UNL     1      33.565  23.062  99.051  1.00  0.00     0.128 C 
HETATM    2  C15 UNL     1      33.487  24.380  99.825  1.00  0.00     0.031 C 
HETATM    3  C16 UNL     1      33.267  23.317  97.692  1.00  0.00     0.069 C 
HETATM    4  N4  UNL     1      33.006  23.512  96.583  1.00  0.00    -0.197 NA
ENDROOT
BRANCH   1   5
HETATM    5  C13 UNL     1      32.814  21.949  99.761  1.00  0.00     0.094 C 
BRANCH   5   6
HETATM    6  N3  UNL     1      32.750  20.804  98.944  1.00  0.00    -0.273 N 
HETATM    7  C5  UNL     1      31.757  20.404  98.132  1.00  0.00     0.094 A 
HETATM    8  C4  UNL     1      31.868  19.283  97.287  1.00  0.00     0.132 A 
HETATM    9  C6  UNL     1      30.514  20.903  97.944  1.00  0.00     0.056 A 
HETATM   10  C3  UNL     1      33.036  18.559  97.285  1.00  0.00     0.281 A 
HETATM   11  N2  UNL     1      30.727  19.112  96.607  1.00  0.00    -0.346 N 
HETATM   12  N1  UNL     1      34.023  18.967  98.104  1.00  0.00    -0.264 N 
HETATM   13  O1  UNL     1      33.134  17.571  96.535  1.00  0.00    -0.265 OA
HETATM   14  C17 UNL     1      33.890  20.041  98.899  1.00  0.00     0.336 A 
HETATM   15  O2  UNL     1      34.887  20.316  99.618  1.00  0.00    -0.246 OA
HETATM   16  C7  UNL     1      29.892  20.120  97.017  1.00  0.00     0.113 A 
HETATM   17 BR1  UNL     1      29.716  22.367  98.818  1.00  0.00    -0.047 Br
BRANCH  12  18
HETATM   18  C2  UNL     1      35.253  18.190  98.092  1.00  0.00     0.133 C 
HETATM   19  C1  UNL     1      36.227  18.686  97.057  1.00  0.00     0.027 C 
ENDBRANCH  12  18
BRANCH  11  20
HETATM   20  C8  UNL     1      30.278  18.144  95.661  1.00  0.00     0.156 C 
BRANCH  20  21
HETATM   21  C9  UNL     1      28.811  17.951  95.822  1.00  0.00    -0.005 C 
HETATM   22  C10 UNL     1      28.198  17.037  96.522  1.00  0.00    -0.090 C 
HETATM   23  C11 UNL     1      26.684  17.075  96.512  1.00  0.00     0.042 C 
HETATM   24  C12 UNL     1      28.812  15.961  97.292  1.00  0.00     0.042 C 
ENDBRANCH  20  21
ENDBRANCH  11  20
ENDBRANCH   5   6
ENDBRANCH   1   5
TORSDOF 5
ENDMDL
MODEL 5
REMARK VINA RESULT: -5.391669937      1.468      1.743
REMARK  5 active torsions:
REMARK  status: ('A' for Active; 'I' for Inactive)
REMARK    1  A    between atoms: C2_2  and  N1_3 
REMARK    2  A    between atoms: N2_11  and  C8_12 
REMARK    3  A    between atoms: C8_12  and  C9_13 
REMARK    4  A    between atoms: N3_17  and  C13_18 
REMARK    5  A    between atoms: C13_18  and  C14_19 
ROOT
HETATM    1  C14 UNL     1      36.285  19.320  98.046  1.00  0.00     0.128 C 
HETATM    2  C15 UNL     1      37.692  18.896  98.471  1.00  0.00     0.031 C 
HETATM    3  C16 UNL     1      36.206  20.732  98.090  1.00  0.00     0.069 C 
HETATM    4  N4  UNL     1      36.125  21.884  98.142  1.00  0.00    -0.197 NA
ENDROOT
BRANCH   1   5
HETATM    5  C13 UNL     1      35.215  18.511  98.759  1.00  0.00     0.094 C 
BRANCH   5   6
HETATM    6  N3  UNL     1      33.937  19.023  98.462  1.00  0.00    -0.273 N 
HETATM    7  C5  UNL     1      33.213  18.876  97.341  1.00  0.00     0.094 A 
HETATM    8  C4  UNL     1      31.896  19.359  97.216  1.00  0.00     0.132 A 
HETATM    9  C6  UNL     1      33.525  18.307  96.154  1.00  0.00     0.056 A 
HETATM   10  C3  UNL     1      31.317  20.010  98.279  1.00  0.00     0.281 A 
HETATM   11  N2  UNL     1      31.426  19.087  95.991  1.00  0.00    -0.346 N 
HETATM   12  N1  UNL     1      32.054  20.153  99.397  1.00  0.00    -0.264 N 
HETATM   13  O1  UNL     1      30.152  20.433  98.169  1.00  0.00    -0.265 OA
HETATM   14  C17 UNL     1      33.307  19.682  99.488  1.00  0.00     0.336 A 
HETATM   15  O2  UNL     1      33.889  19.882 100.588  1.00  0.00    -0.246 OA
HETATM   16  C7  UNL     1      32.440  18.434  95.338  1.00  0.00     0.113 A 
HETATM   17 BR1  UNL     1      35.161  17.527  95.647  1.00  0.00    -0.047 Br
BRANCH  12  18
HETATM   18  C2  UNL     1      31.429  20.845 100.514  1.00  0.00     0.133 C 
HETATM   19  C1  UNL     1      30.732  19.896 101.451  1.00  0.00     0.027 C 
ENDBRANCH  12  18
BRANCH  11  20
HETATM   20  C8  UNL     1      30.199  19.365  95.322  1.00  0.00     0.156 C 
BRANCH  20  21
HETATM   21  C9  UNL     1      29.220  18.287  95.632  1.00  0.00    -0.005 C 
HETATM   22  C10 UNL     1      27.941  18.409  95.858  1.00  0.00    -0.090 C 
HETATM   23  C11 UNL     1      27.177  17.135  96.147  1.00  0.00     0.042 C 
HETATM   24  C12 UNL     1      27.170  19.647  95.892  1.00  0.00     0.042 C 
ENDBRANCH  20  21
ENDBRANCH  11  20
ENDBRANCH   5   6
ENDBRANCH   1   5
TORSDOF 5
ENDMDL
