MODEL 1
REMARK VINA RESULT: -6.806597984      0.000      0.000
REMARK  5 active torsions:
REMARK  status: ('A' for Active; 'I' for Inactive)
REMARK    1  A    between atoms: O1_2  and  C2_3 
REMARK    2  A    between atoms: C4_5  and  O2_6 
REMARK    3  A    between atoms: C9_13  and  C10_14 
REMARK    4  A    between atoms: C10_14  and  N1_15 
REMARK    5  A    between atoms: N1_15  and  C12_17 
ROOT
HETATM    1  C2  UNL     1      31.936  20.122  96.480  1.00  0.00     0.089 A 
HETATM    2  C3  UNL     1      32.852  19.651  97.361  1.00  0.00     0.077 A 
HETATM    3  C4  UNL     1      32.687  18.474  98.059  1.00  0.00     0.105 A 
HETATM    4  C6  UNL     1      31.524  17.778  97.816  1.00  0.00     0.125 A 
HETATM    5  O3  UNL     1      31.387  16.676  98.477  1.00  0.00    -0.272 OA
HETATM    6  C7  UNL     1      30.354  15.918  98.353  1.00  0.00     0.288 A 
HETATM    7  O4  UNL     1      30.202  14.835  98.992  1.00  0.00    -0.260 OA
HETATM    8  C8  UNL     1      29.340  16.282  97.485  1.00  0.00     0.092 A 
HETATM    9  C9  UNL     1      29.377  17.442  96.726  1.00  0.00    -0.010 A 
HETATM   10  C15 UNL     1      30.533  18.201  96.922  1.00  0.00     0.029 A 
HETATM   11  C16 UNL     1      30.772  19.368  96.276  1.00  0.00     0.058 A 
HETATM   12 BR1  UNL     1      29.511  20.008  95.036  1.00  0.00    -0.047 Br
ENDROOT
BRANCH   9  13
HETATM   13  C10 UNL     1      28.327  17.826  95.781  1.00  0.00     0.312 C 
BRANCH  13  14
HETATM   14  N1  UNL     1      27.180  18.328  96.604  1.00  0.00     0.097 N 
HETATM   15  C11 UNL     1      26.316  19.215  95.824  1.00  0.00     0.310 C 
BRANCH  14  16
HETATM   16  C12 UNL     1      26.346  17.209  97.005  1.00  0.00     0.270 C 
HETATM   17  C13 UNL     1      24.912  17.292  96.597  1.00  0.00     0.205 C 
HETATM   18  O5  UNL     1      24.975  15.962  96.192  1.00  0.00    -0.387 OA
HETATM   19  C14 UNL     1      26.324  16.181  95.895  1.00  0.00     0.205 C 
ENDBRANCH  14  16
ENDBRANCH  13  14
ENDBRANCH   9  13
BRANCH   3  20
HETATM   20  O2  UNL     1      33.657  18.076  98.924  1.00  0.00    -0.353 OA
HETATM   21  C5  UNL     1      34.925  18.611  99.077  1.00  0.00     0.210 C 
ENDBRANCH   3  20
BRANCH   1  22
HETATM   22  O1  UNL     1      32.067  21.298  95.762  1.00  0.00    -0.354 OA
HETATM   23  C1  UNL     1      32.052  22.571  96.326  1.00  0.00     0.210 C 
ENDBRANCH   1  22
TORSDOF 5
ENDMDL
MODEL 2
REMARK VINA RESULT: -6.508380718      2.231      3.277
REMARK  5 active torsions:
REMARK  status: ('A' for Active; 'I' for Inactive)
REMARK    1  A    between atoms: O1_2  and  C2_3 
REMARK    2  A    between atoms: C4_5  and  O2_6 
REMARK    3  A    between atoms: C9_13  and  C10_14 
REMARK    4  A    between atoms: C10_14  and  N1_15 
REMARK    5  A    between atoms: N1_15  and  C12_17 
ROOT
HETATM    1  C2  UNL     1      34.109  18.238  96.467  1.00  0.00     0.089 A 
HETATM    2  C3  UNL     1      34.744  18.145  97.661  1.00  0.00     0.077 A 
HETATM    3  C4  UNL     1      34.174  18.550  98.849  1.00  0.00     0.105 A 
HETATM    4  C6  UNL     1      32.899  19.065  98.770  1.00  0.00     0.125 A 
HETATM    5  O3  UNL     1      32.379  19.437  99.893  1.00  0.00    -0.272 OA
HETATM    6  C7  UNL     1      31.195  19.936  99.976  1.00  0.00     0.288 A 
HETATM    7  O4  UNL     1      30.669  20.307 101.067  1.00  0.00    -0.260 OA
HETATM    8  C8  UNL     1      30.435  20.087  98.830  1.00  0.00     0.092 A 
HETATM    9  C9  UNL     1      30.890  19.725  97.571  1.00  0.00    -0.010 A 
HETATM   10  C15 UNL     1      32.181  19.192  97.575  1.00  0.00     0.029 A 
HETATM   11  C16 UNL     1      32.812  18.771  96.453  1.00  0.00     0.058 A 
HETATM   12 BR1  UNL     1      31.921  18.878  94.800  1.00  0.00    -0.047 Br
ENDROOT
BRANCH   9  13
HETATM   13  C10 UNL     1      30.087  19.850  96.353  1.00  0.00     0.312 C 
BRANCH  13  14
HETATM   14  N1  UNL     1      28.780  19.176  96.636  1.00  0.00     0.097 N 
HETATM   15  C11 UNL     1      27.694  19.772  95.856  1.00  0.00     0.310 C 
BRANCH  14  16
HETATM   16  C12 UNL     1      28.853  17.786  96.223  1.00  0.00     0.270 C 
HETATM   17  C13 UNL     1      28.954  16.786  97.328  1.00  0.00     0.205 C 
HETATM   18  O5  UNL     1      27.994  16.012  96.685  1.00  0.00    -0.387 OA
HETATM   19  C14 UNL     1      27.457  17.204  96.186  1.00  0.00     0.205 C 
ENDBRANCH  14  16
ENDBRANCH  13  14
ENDBRANCH   9  13
BRANCH   3  20
HETATM   20  O2  UNL     1      34.882  18.420 100.002  1.00  0.00    -0.353 OA
HETATM   21  C5  UNL     1      36.105  17.795 100.177  1.00  0.00     0.210 C 
ENDBRANCH   3  20
BRANCH   1  22
HETATM   22  O1  UNL     1      34.649  17.842  95.257  1.00  0.00    -0.354 OA
HETATM   23  C1  UNL     1      35.840  17.134  95.119  1.00  0.00     0.210 C 
ENDBRANCH   1  22
TORSDOF 5
ENDMDL
MODEL 3
REMARK VINA RESULT: -6.500734192      2.488      3.494
REMARK  5 active torsions:
REMARK  status: ('A' for Active; 'I' for Inactive)
REMARK    1  A    between atoms: O1_2  and  C2_3 
REMARK    2  A    between atoms: C4_5  and  O2_6 
REMARK    3  A    between atoms: C9_13  and  C10_14 
REMARK    4  A    between atoms: C10_14  and  N1_15 
REMARK    5  A    between atoms: N1_15  and  C12_17 
ROOT
HETATM    1  C2  UNL     1      32.328  22.394  98.817  1.00  0.00     0.089 A 
HETATM    2  C3  UNL     1      33.674  22.345  98.662  1.00  0.00     0.077 A 
HETATM    3  C4  UNL     1      34.319  21.312  98.018  1.00  0.00     0.105 A 
HETATM    4  C6  UNL     1      33.519  20.305  97.525  1.00  0.00     0.125 A 
HETATM    5  O3  UNL     1      34.139  19.345  96.922  1.00  0.00    -0.272 OA
HETATM    6  C7  UNL     1      33.524  18.337  96.409  1.00  0.00     0.288 A 
HETATM    7  O4  UNL     1      34.115  17.387  95.815  1.00  0.00    -0.260 OA
HETATM    8  C8  UNL     1      32.145  18.261  96.498  1.00  0.00     0.092 A 
HETATM    9  C9  UNL     1      31.375  19.230  97.122  1.00  0.00    -0.010 A 
HETATM   10  C15 UNL     1      32.124  20.286  97.648  1.00  0.00     0.029 A 
HETATM   11  C16 UNL     1      31.568  21.339  98.294  1.00  0.00     0.058 A 
HETATM   12 BR1  UNL     1      29.699  21.417  98.488  1.00  0.00    -0.047 Br
ENDROOT
BRANCH   9  13
HETATM   13  C10 UNL     1      29.914  19.179  97.198  1.00  0.00     0.312 C 
BRANCH  13  14
HETATM   14  N1  UNL     1      29.498  17.924  96.494  1.00  0.00     0.097 N 
HETATM   15  C11 UNL     1      29.026  16.914  97.444  1.00  0.00     0.310 C 
BRANCH  14  16
HETATM   16  C12 UNL     1      28.373  18.208  95.622  1.00  0.00     0.270 C 
HETATM   17  C13 UNL     1      27.028  17.832  96.155  1.00  0.00     0.205 C 
HETATM   18  O5  UNL     1      26.540  19.063  95.729  1.00  0.00    -0.387 OA
HETATM   19  C14 UNL     1      27.822  19.579  95.952  1.00  0.00     0.205 C 
ENDBRANCH  14  16
ENDBRANCH  13  14
ENDBRANCH   9  13
BRANCH   3  20
HETATM   20  O2  UNL     1      35.673  21.343  97.906  1.00  0.00    -0.353 OA
HETATM   21  C5  UNL     1      36.609  21.053  98.885  1.00  0.00     0.210 C 
ENDBRANCH   3  20
BRANCH   1  22
HETATM   22  O1  UNL     1      31.647  23.414  99.457  1.00  0.00    -0.354 OA
HETATM   23  C1  UNL     1      31.648  24.743  99.042  1.00  0.00     0.210 C 
ENDBRANCH   1  22
TORSDOF 5
ENDMDL
MODEL 4
REMARK VINA RESULT: -6.269399095      2.890      4.157
REMARK  5 active torsions:
REMARK  status: ('A' for Active; 'I' for Inactive)
REMARK    1  A    between atoms: O1_2  and  C2_3 
REMARK    2  A    between atoms: C4_5  and  O2_6 
REMARK    3  A    between atoms: C9_13  and  C10_14 
REMARK    4  A    between atoms: C10_14  and  N1_15 
REMARK    5  A    between atoms: N1_15  and  C12_17 
ROOT
HETATM    1  C2  UNL     1      33.369  21.217 100.048  1.00  0.00     0.089 A 
HETATM    2  C3  UNL     1      34.521  21.544  99.415  1.00  0.00     0.077 A 
HETATM    3  C4  UNL     1      34.995  20.860  98.316  1.00  0.00     0.105 A 
HETATM    4  C6  UNL     1      34.229  19.803  97.877  1.00  0.00     0.125 A 
HETATM    5  O3  UNL     1      34.686  19.175  96.845  1.00  0.00    -0.272 OA
HETATM    6  C7  UNL     1      34.077  18.169  96.321  1.00  0.00     0.288 A 
HETATM    7  O4  UNL     1      34.511  17.540  95.309  1.00  0.00    -0.260 OA
HETATM    8  C8  UNL     1      32.886  17.729  96.870  1.00  0.00     0.092 A 
HETATM    9  C9  UNL     1      32.302  18.323  97.978  1.00  0.00    -0.010 A 
HETATM   10  C15 UNL     1      33.029  19.407  98.479  1.00  0.00     0.029 A 
HETATM   11  C16 UNL     1      32.633  20.131  99.553  1.00  0.00     0.058 A 
HETATM   12 BR1  UNL     1      31.021  19.691 100.417  1.00  0.00    -0.047 Br
ENDROOT
BRANCH   9  13
HETATM   13  C10 UNL     1      31.028  17.889  98.553  1.00  0.00     0.312 C 
BRANCH  13  14
HETATM   14  N1  UNL     1      30.407  16.962  97.553  1.00  0.00     0.097 N 
HETATM   15  C11 UNL     1      30.044  15.684  98.168  1.00  0.00     0.310 C 
BRANCH  14  16
HETATM   16  C12 UNL     1      29.166  17.537  97.066  1.00  0.00     0.270 C 
HETATM   17  C13 UNL     1      29.005  17.566  95.581  1.00  0.00     0.205 C 
HETATM   18  O5  UNL     1      27.704  17.100  95.736  1.00  0.00    -0.387 OA
HETATM   19  C14 UNL     1      28.144  16.436  96.885  1.00  0.00     0.205 C 
ENDBRANCH  14  16
ENDBRANCH  13  14
ENDBRANCH   9  13
BRANCH   3  20
HETATM   20  O2  UNL     1      36.162  21.256  97.741  1.00  0.00    -0.353 OA
HETATM   21  C5  UNL     1      37.450  21.004  98.183  1.00  0.00     0.210 C 
ENDBRANCH   3  20
BRANCH   1  22
HETATM   22  O1  UNL     1      32.863  21.880 101.152  1.00  0.00    -0.354 OA
HETATM   23  C1  UNL     1      32.478  23.217 101.159  1.00  0.00     0.210 C 
ENDBRANCH   1  22
TORSDOF 5
ENDMDL
MODEL 5
REMARK VINA RESULT: -6.170579725      2.120      3.991
REMARK  5 active torsions:
REMARK  status: ('A' for Active; 'I' for Inactive)
REMARK    1  A    between atoms: O1_2  and  C2_3 
REMARK    2  A    between atoms: C4_5  and  O2_6 
REMARK    3  A    between atoms: C9_13  and  C10_14 
REMARK    4  A    between atoms: C10_14  and  N1_15 
REMARK    5  A    between atoms: N1_15  and  C12_17 
ROOT
HETATM    1  C2  UNL     1      32.639  19.854  98.859  1.00  0.00     0.089 A 
HETATM    2  C3  UNL     1      33.134  20.979  98.289  1.00  0.00     0.077 A 
HETATM    3  C4  UNL     1      32.674  21.479  97.090  1.00  0.00     0.105 A 
HETATM    4  C6  UNL     1      31.664  20.770  96.480  1.00  0.00     0.125 A 
HETATM    5  O3  UNL     1      31.243  21.255  95.358  1.00  0.00    -0.272 OA
HETATM    6  C7  UNL     1      30.302  20.701  94.675  1.00  0.00     0.288 A 
HETATM    7  O4  UNL     1      29.876  21.162  93.574  1.00  0.00    -0.260 OA
HETATM    8  C8  UNL     1      29.707  19.544  95.144  1.00  0.00     0.092 A 
HETATM    9  C9  UNL     1      30.077  18.933  96.332  1.00  0.00    -0.010 A 
HETATM   10  C15 UNL     1      31.102  19.601  97.007  1.00  0.00     0.029 A 
HETATM   11  C16 UNL     1      31.610  19.177  98.189  1.00  0.00     0.058 A 
HETATM   12 BR1  UNL     1      30.905  17.628  98.991  1.00  0.00    -0.047 Br
ENDROOT
BRANCH   9  13
HETATM   13  C10 UNL     1      29.438  17.725  96.856  1.00  0.00     0.312 C 
BRANCH  13  14
HETATM   14  N1  UNL     1      28.207  17.506  96.030  1.00  0.00     0.097 N 
HETATM   15  C11 UNL     1      27.943  16.079  95.840  1.00  0.00     0.310 C 
BRANCH  14  16
HETATM   16  C12 UNL     1      27.052  18.037  96.731  1.00  0.00     0.270 C 
HETATM   17  C13 UNL     1      26.166  18.935  95.931  1.00  0.00     0.205 C 
HETATM   18  O5  UNL     1      25.061  18.258  96.437  1.00  0.00    -0.387 OA
HETATM   19  C14 UNL     1      25.870  17.119  96.509  1.00  0.00     0.205 C 
ENDBRANCH  14  16
ENDBRANCH  13  14
ENDBRANCH   9  13
BRANCH   3  20
HETATM   20  O2  UNL     1      33.229  22.615  96.590  1.00  0.00    -0.353 OA
HETATM   21  C5  UNL     1      32.892  23.924  96.891  1.00  0.00     0.210 C 
ENDBRANCH   3  20
BRANCH   1  22
HETATM   22  O1  UNL     1      33.075  19.323 100.060  1.00  0.00    -0.354 OA
HETATM   23  C1  UNL     1      34.388  18.941 100.321  1.00  0.00     0.210 C 
ENDBRANCH   1  22
TORSDOF 5
ENDMDL
