MODEL 1
REMARK VINA RESULT: -6.629659639      0.000      0.000
REMARK  9 active torsions:
REMARK  status: ('A' for Active; 'I' for Inactive)
REMARK    1  A    between atoms: C2_2  and  O1_3 
REMARK    2  A    between atoms: C2_2  and  C3_5 
REMARK    3  A    between atoms: C3_5  and  N1_6 
REMARK    4  A    between atoms: C3_5  and  C6_12 
REMARK       I    between atoms: N1_6  and  C4_8 
REMARK    5  A    between atoms: C4_8  and  C5_10 
REMARK    6  A    between atoms: C9_17  and  C10_18 
REMARK    7  A    between atoms: C11_19  and  C12_20 
REMARK    8  A    between atoms: C12_20  and  N3_21 
REMARK    9  A    between atoms: C12_20  and  O3_25 
ROOT
HETATM    1  C12 UNL     1      33.546  -8.350  68.561  1.00  0.00     0.377 C 
HETATM    2  C13 UNL     1      32.723  -8.790  67.410  1.00  0.00     0.142 C 
HETATM    3  N4  UNL     1      32.092  -9.132  66.519  1.00  0.00    -0.191 NA
ENDROOT
BRANCH   1   4
HETATM    4  C11 UNL     1      34.895  -7.993  68.123  1.00  0.00    -0.016 C 
HETATM    5  C10 UNL     1      36.014  -7.679  67.772  1.00  0.00    -0.041 C 
BRANCH   5   6
HETATM    6  C9  UNL     1      37.348  -7.298  67.381  1.00  0.00     0.102 A 
HETATM    7  C8  UNL     1      38.249  -8.254  66.931  1.00  0.00     0.126 A 
HETATM    8  N2  UNL     1      39.463  -7.878  66.559  1.00  0.00    -0.371 N 
HETATM    9  C7  UNL     1      39.776  -6.560  66.635  1.00  0.00     0.115 A 
ATOM     10  H2  UNL     1      40.143  -8.561  66.224  1.00  0.00     0.164 HD
HETATM   11  C6  UNL     1      38.891  -5.595  67.083  1.00  0.00     0.051 A 
HETATM   12  N5  UNL     1      37.667  -5.967  67.459  1.00  0.00    -0.349 N 
ATOM     13  H5  UNL     1      36.989  -5.283  67.794  1.00  0.00     0.166 HD
BRANCH  11  14
HETATM   14  C3  UNL     1      39.362  -4.163  67.095  1.00  0.00     0.164 C 
BRANCH  14  15
HETATM   15  C2  UNL     1      39.740  -3.740  65.706  1.00  0.00     0.142 C 
HETATM   16  C1  UNL     1      38.952  -2.574  65.184  1.00  0.00     0.042 C 
BRANCH  15  17
HETATM   17  O1  UNL     1      41.131  -3.524  65.576  1.00  0.00    -0.394 OA
ATOM     18  H1  UNL     1      41.514  -4.108  64.932  1.00  0.00     0.210 HD
ENDBRANCH  15  17
ENDBRANCH  14  15
BRANCH  14  19
HETATM   19  N1  UNL     1      38.232  -3.339  67.537  1.00  0.00    -0.348 N 
HETATM   20  C4  UNL     1      37.907  -3.094  68.886  1.00  0.00     0.232 C 
HETATM   21  O2  UNL     1      38.646  -3.645  69.769  1.00  0.00    -0.272 OA
ATOM     22  H1  UNL     1      37.643  -2.914  66.820  1.00  0.00     0.163 HD
BRANCH  20  23
HETATM   23  C5  UNL     1      36.780  -2.257  69.309  1.00  0.00     0.217 C 
HETATM   24 CL1  UNL     1      37.329  -0.568  69.256  1.00  0.00    -0.121 Cl
ENDBRANCH  20  23
ENDBRANCH  14  19
ENDBRANCH  11  14
ENDBRANCH   5   6
ENDBRANCH   1   4
BRANCH   1  25
HETATM   25  N3  UNL     1      32.834  -7.291  69.209  1.00  0.00    -0.021 N 
ATOM     26  H33 UNL     1      33.336  -6.985  70.042  1.00  0.00     0.280 HD
ATOM     27  H32 UNL     1      32.883  -6.437  68.652  1.00  0.00     0.280 HD
ATOM     28  H31 UNL     1      31.865  -7.512  69.437  1.00  0.00     0.280 HD
ENDBRANCH   1  25
BRANCH   1  29
HETATM   29  O3  UNL     1      33.699  -9.444  69.410  1.00  0.00    -0.344 OA
ATOM     30  H3  UNL     1      32.929  -9.984  69.279  1.00  0.00     0.214 HD
ENDBRANCH   1  29
TORSDOF 9
ENDMDL
MODEL 2
REMARK VINA RESULT: -6.498791364      3.287      4.474
REMARK  9 active torsions:
REMARK  status: ('A' for Active; 'I' for Inactive)
REMARK    1  A    between atoms: C2_2  and  O1_3 
REMARK    2  A    between atoms: C2_2  and  C3_5 
REMARK    3  A    between atoms: C3_5  and  N1_6 
REMARK    4  A    between atoms: C3_5  and  C6_12 
REMARK       I    between atoms: N1_6  and  C4_8 
REMARK    5  A    between atoms: C4_8  and  C5_10 
REMARK    6  A    between atoms: C9_17  and  C10_18 
REMARK    7  A    between atoms: C11_19  and  C12_20 
REMARK    8  A    between atoms: C12_20  and  N3_21 
REMARK    9  A    between atoms: C12_20  and  O3_25 
ROOT
HETATM    1  C12 UNL     1      38.412  -8.763  62.621  1.00  0.00     0.377 C 
HETATM    2  C13 UNL     1      37.000  -8.934  62.206  1.00  0.00     0.142 C 
HETATM    3  N4  UNL     1      35.908  -9.063  61.888  1.00  0.00    -0.191 NA
ENDROOT
BRANCH   1   4
HETATM    4  C11 UNL     1      38.490  -8.359  64.024  1.00  0.00    -0.016 C 
HETATM    5  C10 UNL     1      38.533  -8.021  65.190  1.00  0.00    -0.041 C 
BRANCH   5   6
HETATM    6  C9  UNL     1      38.561  -7.636  66.579  1.00  0.00     0.102 A 
HETATM    7  C8  UNL     1      37.991  -8.453  67.547  1.00  0.00     0.126 A 
HETATM    8  N2  UNL     1      38.046  -8.088  68.818  1.00  0.00    -0.371 N 
HETATM    9  C7  UNL     1      38.664  -6.919  69.123  1.00  0.00     0.115 A 
ATOM     10  H2  UNL     1      37.635  -8.670  69.548  1.00  0.00     0.164 HD
HETATM   11  C6  UNL     1      39.235  -6.093  68.170  1.00  0.00     0.051 A 
HETATM   12  N5  UNL     1      39.183  -6.454  66.889  1.00  0.00    -0.349 N 
ATOM     13  H5  UNL     1      39.594  -5.870  66.160  1.00  0.00     0.166 HD
BRANCH  11  14
HETATM   14  C3  UNL     1      39.910  -4.833  68.650  1.00  0.00     0.164 C 
BRANCH  14  15
HETATM   15  C2  UNL     1      41.294  -4.746  68.074  1.00  0.00     0.142 C 
HETATM   16  C1  UNL     1      42.247  -3.924  68.891  1.00  0.00     0.042 C 
BRANCH  15  17
HETATM   17  O1  UNL     1      41.829  -6.022  67.783  1.00  0.00    -0.394 OA
ATOM     18  H1  UNL     1      41.928  -6.152  66.847  1.00  0.00     0.210 HD
ENDBRANCH  15  17
ENDBRANCH  14  15
BRANCH  14  19
HETATM   19  N1  UNL     1      39.128  -3.702  68.141  1.00  0.00    -0.348 N 
HETATM   20  C4  UNL     1      38.243  -2.932  68.923  1.00  0.00     0.232 C 
HETATM   21  O2  UNL     1      38.116  -3.264  70.149  1.00  0.00    -0.272 OA
ATOM     22  H1  UNL     1      39.231  -3.455  67.156  1.00  0.00     0.163 HD
BRANCH  20  23
HETATM   23  C5  UNL     1      37.477  -1.797  68.399  1.00  0.00     0.217 C 
HETATM   24 CL1  UNL     1      37.650  -0.465  69.563  1.00  0.00    -0.121 Cl
ENDBRANCH  20  23
ENDBRANCH  14  19
ENDBRANCH  11  14
ENDBRANCH   5   6
ENDBRANCH   1   4
BRANCH   1  25
HETATM   25  N3  UNL     1      39.093  -9.984  62.318  1.00  0.00    -0.021 N 
ATOM     26  H33 UNL     1      40.092  -9.887  62.498  1.00  0.00     0.280 HD
ATOM     27  H32 UNL     1      38.860 -10.701  63.005  1.00  0.00     0.280 HD
ATOM     28  H31 UNL     1      38.934 -10.332  61.372  1.00  0.00     0.280 HD
ENDBRANCH   1  25
BRANCH   1  29
HETATM   29  O3  UNL     1      38.939  -7.700  61.890  1.00  0.00    -0.344 OA
ATOM     30  H3  UNL     1      39.860  -7.662  62.117  1.00  0.00     0.214 HD
ENDBRANCH   1  29
TORSDOF 9
ENDMDL
MODEL 3
REMARK VINA RESULT: -6.442702243      5.484      8.100
REMARK  9 active torsions:
REMARK  status: ('A' for Active; 'I' for Inactive)
REMARK    1  A    between atoms: C2_2  and  O1_3 
REMARK    2  A    between atoms: C2_2  and  C3_5 
REMARK    3  A    between atoms: C3_5  and  N1_6 
REMARK    4  A    between atoms: C3_5  and  C6_12 
REMARK       I    between atoms: N1_6  and  C4_8 
REMARK    5  A    between atoms: C4_8  and  C5_10 
REMARK    6  A    between atoms: C9_17  and  C10_18 
REMARK    7  A    between atoms: C11_19  and  C12_20 
REMARK    8  A    between atoms: C12_20  and  N3_21 
REMARK    9  A    between atoms: C12_20  and  O3_25 
ROOT
HETATM    1  C12 UNL     1      26.529  -9.552  71.153  1.00  0.00     0.377 C 
HETATM    2  C13 UNL     1      26.563 -10.994  70.813  1.00  0.00     0.142 C 
HETATM    3  N4  UNL     1      26.593 -12.107  70.551  1.00  0.00    -0.191 NA
ENDROOT
BRANCH   1   4
HETATM    4  C11 UNL     1      27.610  -8.839  70.473  1.00  0.00    -0.016 C 
HETATM    5  C10 UNL     1      28.521  -8.253  69.923  1.00  0.00    -0.041 C 
BRANCH   5   6
HETATM    6  C9  UNL     1      29.619  -7.582  69.274  1.00  0.00     0.102 A 
HETATM    7  C8  UNL     1      29.942  -6.275  69.613  1.00  0.00     0.126 A 
HETATM    8  N2  UNL     1      30.967  -5.685  69.019  1.00  0.00    -0.371 N 
HETATM    9  C7  UNL     1      31.665  -6.392  68.093  1.00  0.00     0.115 A 
ATOM     10  H2  UNL     1      31.226  -4.725  69.250  1.00  0.00     0.164 HD
HETATM   11  C6  UNL     1      31.354  -7.694  67.743  1.00  0.00     0.051 A 
HETATM   12  N5  UNL     1      30.323  -8.294  68.338  1.00  0.00    -0.349 N 
ATOM     13  H5  UNL     1      30.066  -9.253  68.104  1.00  0.00     0.166 HD
BRANCH  11  14
HETATM   14  C3  UNL     1      32.225  -8.370  66.715  1.00  0.00     0.164 C 
BRANCH  14  15
HETATM   15  C2  UNL     1      32.069  -7.688  65.388  1.00  0.00     0.142 C 
HETATM   16  C1  UNL     1      32.635  -8.459  64.231  1.00  0.00     0.042 C 
BRANCH  15  17
HETATM   17  O1  UNL     1      30.732  -7.298  65.145  1.00  0.00    -0.394 OA
ATOM     18  H1  UNL     1      30.177  -8.049  64.975  1.00  0.00     0.210 HD
ENDBRANCH  15  17
ENDBRANCH  14  15
BRANCH  14  19
HETATM   19  N1  UNL     1      33.616  -8.212  67.154  1.00  0.00    -0.348 N 
HETATM   20  C4  UNL     1      34.160  -8.818  68.304  1.00  0.00     0.232 C 
HETATM   21  O2  UNL     1      33.374  -9.539  69.005  1.00  0.00    -0.272 OA
ATOM     22  H1  UNL     1      34.230  -7.624  66.590  1.00  0.00     0.163 HD
BRANCH  20  23
HETATM   23  C5  UNL     1      35.557  -8.658  68.721  1.00  0.00     0.217 C 
HETATM   24 CL1  UNL     1      36.575  -9.209  67.374  1.00  0.00    -0.121 Cl
ENDBRANCH  20  23
ENDBRANCH  14  19
ENDBRANCH  11  14
ENDBRANCH   5   6
ENDBRANCH   1   4
BRANCH   1  25
HETATM   25  N3  UNL     1      25.217  -9.075  70.843  1.00  0.00    -0.021 N 
ATOM     26  H33 UNL     1      25.033  -9.167  69.844  1.00  0.00     0.280 HD
ATOM     27  H32 UNL     1      24.510  -9.713  71.210  1.00  0.00     0.280 HD
ATOM     28  H31 UNL     1      25.031  -8.121  71.152  1.00  0.00     0.280 HD
ENDBRANCH   1  25
BRANCH   1  29
HETATM   29  O3  UNL     1      26.796  -9.435  72.516  1.00  0.00    -0.344 OA
ATOM     30  H3  UNL     1      27.369 -10.162  72.731  1.00  0.00     0.214 HD
ENDBRANCH   1  29
TORSDOF 9
ENDMDL
MODEL 4
REMARK VINA RESULT: -6.411671013      1.675      1.953
REMARK  9 active torsions:
REMARK  status: ('A' for Active; 'I' for Inactive)
REMARK    1  A    between atoms: C2_2  and  O1_3 
REMARK    2  A    between atoms: C2_2  and  C3_5 
REMARK    3  A    between atoms: C3_5  and  N1_6 
REMARK    4  A    between atoms: C3_5  and  C6_12 
REMARK       I    between atoms: N1_6  and  C4_8 
REMARK    5  A    between atoms: C4_8  and  C5_10 
REMARK    6  A    between atoms: C9_17  and  C10_18 
REMARK    7  A    between atoms: C11_19  and  C12_20 
REMARK    8  A    between atoms: C12_20  and  N3_21 
REMARK    9  A    between atoms: C12_20  and  O3_25 
ROOT
HETATM    1  C12 UNL     1      33.359  -8.127  65.661  1.00  0.00     0.377 C 
HETATM    2  C13 UNL     1      32.408  -8.681  66.653  1.00  0.00     0.142 C 
HETATM    3  N4  UNL     1      31.675  -9.106  67.422  1.00  0.00    -0.191 NA
ENDROOT
BRANCH   1   4
HETATM    4  C11 UNL     1      34.624  -7.773  66.304  1.00  0.00    -0.016 C 
HETATM    5  C10 UNL     1      35.664  -7.465  66.851  1.00  0.00    -0.041 C 
BRANCH   5   6
HETATM    6  C9  UNL     1      36.884  -7.099  67.525  1.00  0.00     0.102 A 
HETATM    7  C8  UNL     1      37.473  -7.969  68.433  1.00  0.00     0.126 A 
HETATM    8  N2  UNL     1      38.605  -7.620  69.025  1.00  0.00    -0.371 N 
HETATM    9  C7  UNL     1      39.145  -6.414  68.715  1.00  0.00     0.115 A 
ATOM     10  H2  UNL     1      39.058  -8.241  69.696  1.00  0.00     0.164 HD
HETATM   11  C6  UNL     1      38.569  -5.536  67.814  1.00  0.00     0.051 A 
HETATM   12  N5  UNL     1      37.430  -5.881  67.214  1.00  0.00    -0.349 N 
ATOM     13  H5  UNL     1      36.978  -5.257  66.545  1.00  0.00     0.166 HD
BRANCH  11  14
HETATM   14  C3  UNL     1      39.288  -4.238  67.545  1.00  0.00     0.164 C 
BRANCH  14  15
HETATM   15  C2  UNL     1      39.827  -4.236  66.145  1.00  0.00     0.142 C 
HETATM   16  C1  UNL     1      39.367  -3.075  65.312  1.00  0.00     0.042 C 
BRANCH  15  17
HETATM   17  O1  UNL     1      41.234  -4.367  66.117  1.00  0.00    -0.394 OA
ATOM     18  H1  UNL     1      41.585  -4.527  66.985  1.00  0.00     0.210 HD
ENDBRANCH  15  17
ENDBRANCH  14  15
BRANCH  14  19
HETATM   19  N1  UNL     1      38.297  -3.162  67.659  1.00  0.00    -0.348 N 
HETATM   20  C4  UNL     1      37.856  -2.616  68.880  1.00  0.00     0.232 C 
HETATM   21  O2  UNL     1      38.350  -3.109  69.949  1.00  0.00    -0.272 OA
ATOM     22  H1  UNL     1      37.902  -2.785  66.797  1.00  0.00     0.163 HD
BRANCH  20  23
HETATM   23  C5  UNL     1      36.872  -1.532  68.975  1.00  0.00     0.217 C 
HETATM   24 CL1  UNL     1      37.690  -0.143  69.722  1.00  0.00    -0.121 Cl
ENDBRANCH  20  23
ENDBRANCH  14  19
ENDBRANCH  11  14
ENDBRANCH   5   6
ENDBRANCH   1   4
BRANCH   1  25
HETATM   25  N3  UNL     1      33.479  -9.088  64.608  1.00  0.00    -0.021 N 
ATOM     26  H33 UNL     1      33.669  -8.620  63.721  1.00  0.00     0.280 HD
ATOM     27  H32 UNL     1      34.341  -9.623  64.711  1.00  0.00     0.280 HD
ATOM     28  H31 UNL     1      32.679  -9.714  64.515  1.00  0.00     0.280 HD
ENDBRANCH   1  25
BRANCH   1  29
HETATM   29  O3  UNL     1      32.824  -6.929  65.190  1.00  0.00    -0.344 OA
ATOM     30  H3  UNL     1      32.629  -7.077  64.272  1.00  0.00     0.214 HD
ENDBRANCH   1  29
TORSDOF 9
ENDMDL
MODEL 5
REMARK VINA RESULT: -6.291385499      1.559      1.845
REMARK  9 active torsions:
REMARK  status: ('A' for Active; 'I' for Inactive)
REMARK    1  A    between atoms: C2_2  and  O1_3 
REMARK    2  A    between atoms: C2_2  and  C3_5 
REMARK    3  A    between atoms: C3_5  and  N1_6 
REMARK    4  A    between atoms: C3_5  and  C6_12 
REMARK       I    between atoms: N1_6  and  C4_8 
REMARK    5  A    between atoms: C4_8  and  C5_10 
REMARK    6  A    between atoms: C9_17  and  C10_18 
REMARK    7  A    between atoms: C11_19  and  C12_20 
REMARK    8  A    between atoms: C12_20  and  N3_21 
REMARK    9  A    between atoms: C12_20  and  O3_25 
ROOT
HETATM    1  C12 UNL     1      32.316  -7.273  66.780  1.00  0.00     0.377 C 
HETATM    2  C13 UNL     1      31.633  -7.885  67.943  1.00  0.00     0.142 C 
HETATM    3  N4  UNL     1      31.109  -8.356  68.845  1.00  0.00    -0.191 NA
ENDROOT
BRANCH   1   4
HETATM    4  C11 UNL     1      33.762  -7.232  66.995  1.00  0.00    -0.016 C 
HETATM    5  C10 UNL     1      34.963  -7.220  67.179  1.00  0.00    -0.041 C 
BRANCH   5   6
HETATM    6  C9  UNL     1      36.389  -7.231  67.385  1.00  0.00     0.102 A 
HETATM    7  C8  UNL     1      37.085  -8.431  67.420  1.00  0.00     0.126 A 
HETATM    8  N2  UNL     1      38.398  -8.416  67.591  1.00  0.00    -0.371 N 
HETATM    9  C7  UNL     1      39.012  -7.213  67.725  1.00  0.00     0.115 A 
ATOM     10  H2  UNL     1      38.933  -9.284  67.620  1.00  0.00     0.164 HD
HETATM   11  C6  UNL     1      38.333  -6.008  67.694  1.00  0.00     0.051 A 
HETATM   12  N5  UNL     1      37.011  -6.017  67.523  1.00  0.00    -0.349 N 
ATOM     13  H5  UNL     1      36.478  -5.147  67.495  1.00  0.00     0.166 HD
BRANCH  11  14
HETATM   14  C3  UNL     1      39.142  -4.744  67.833  1.00  0.00     0.164 C 
BRANCH  14  15
HETATM   15  C2  UNL     1      40.092  -4.618  66.679  1.00  0.00     0.142 C 
HETATM   16  C1  UNL     1      39.759  -3.505  65.728  1.00  0.00     0.042 C 
BRANCH  15  17
HETATM   17  O1  UNL     1      41.439  -4.550  67.103  1.00  0.00    -0.394 OA
ATOM     18  H1  UNL     1      42.024  -4.372  66.376  1.00  0.00     0.210 HD
ENDBRANCH  15  17
ENDBRANCH  14  15
BRANCH  14  19
HETATM   19  N1  UNL     1      38.202  -3.619  67.781  1.00  0.00    -0.348 N 
HETATM   20  C4  UNL     1      37.779  -2.884  68.907  1.00  0.00     0.232 C 
HETATM   21  O2  UNL     1      38.244  -3.243  70.041  1.00  0.00    -0.272 OA
ATOM     22  H1  UNL     1      37.830  -3.350  66.870  1.00  0.00     0.163 HD
BRANCH  20  23
HETATM   23  C5  UNL     1      36.846  -1.755  68.835  1.00  0.00     0.217 C 
HETATM   24 CL1  UNL     1      37.654  -0.357  69.577  1.00  0.00    -0.121 Cl
ENDBRANCH  20  23
ENDBRANCH  14  19
ENDBRANCH  11  14
ENDBRANCH   5   6
ENDBRANCH   1   4
BRANCH   1  25
HETATM   25  N3  UNL     1      31.911  -8.004  65.619  1.00  0.00    -0.021 N 
ATOM     26  H33 UNL     1      32.515  -7.778  64.828  1.00  0.00     0.280 HD
ATOM     27  H32 UNL     1      32.129  -8.995  65.728  1.00  0.00     0.280 HD
ATOM     28  H31 UNL     1      30.931  -7.881  65.364  1.00  0.00     0.280 HD
ENDBRANCH   1  25
BRANCH   1  29
HETATM   29  O3  UNL     1      31.906  -5.943  66.704  1.00  0.00    -0.344 OA
ATOM     30  H3  UNL     1      31.841  -5.746  65.777  1.00  0.00     0.214 HD
ENDBRANCH   1  29
TORSDOF 9
ENDMDL
