MODEL 1
REMARK VINA RESULT: -7.558600037      0.000      0.000
REMARK  5 active torsions:
REMARK  status: ('A' for Active; 'I' for Inactive)
REMARK       I    between atoms: N2_3  and  C2_5 
REMARK       I    between atoms: C2_5  and  N5_20 
REMARK    1  A    between atoms: N3_6  and  N4_8 
REMARK    2  A    between atoms: N4_8  and  S1_10 
REMARK    3  A    between atoms: S1_10  and  C3_13 
REMARK    4  A    between atoms: N5_20  and  O3_22 
REMARK    5  A    between atoms: O3_22  and  C9_23 
ROOT
HETATM    1  N1  UNL     1      33.083  -8.435  65.044  1.00  0.00    -0.171 NA
HETATM    2  C1  UNL     1      32.824  -8.708  66.143  1.00  0.00     0.196 C 
HETATM    3  N2  UNL     1      32.524  -9.036  67.479  1.00  0.00    -0.123 N 
ATOM      4  H2  UNL     1      31.870  -9.796  67.666  1.00  0.00     0.197 HD
HETATM    5  C2  UNL     1      33.100  -8.344  68.574  1.00  0.00     0.726 C 
HETATM    6  N3  UNL     1      32.468  -7.348  69.067  1.00  0.00    -0.120 N 
ATOM      7  H3  UNL     1      32.861  -6.833  69.855  1.00  0.00     0.206 HD
HETATM    8  N5  UNL     1      34.343  -8.715  69.132  1.00  0.00    -0.085 N 
ATOM      9  H5  UNL     1      34.553  -8.514  70.110  1.00  0.00     0.214 HD
ENDROOT
BRANCH   6  10
HETATM   10  N4  UNL     1      31.246  -6.971  68.529  1.00  0.00    -0.208 N 
ATOM     11  H4  UNL     1      31.063  -7.053  67.528  1.00  0.00     0.201 HD
BRANCH  10  12
HETATM   12  S1  UNL     1      30.046  -6.358  69.606  1.00  0.00     0.278 S 
HETATM   13  O1  UNL     1      30.740  -5.855  70.841  1.00  0.00    -0.199 OA
HETATM   14  O2  UNL     1      29.280  -5.229  69.020  1.00  0.00    -0.199 OA
BRANCH  12  15
HETATM   15  C3  UNL     1      28.959  -7.678  69.977  1.00  0.00     0.102 A 
HETATM   16  C4  UNL     1      28.869  -8.792  69.176  1.00  0.00     0.027 A 
HETATM   17  C5  UNL     1      28.002  -9.798  69.510  1.00  0.00     0.002 A 
HETATM   18  C6  UNL     1      27.193  -9.773  70.622  1.00  0.00     0.002 A 
HETATM   19  C7  UNL     1      27.301  -8.642  71.415  1.00  0.00     0.025 A 
HETATM   20  C8  UNL     1      28.164  -7.618  71.098  1.00  0.00     0.057 A 
HETATM   21 CL1  UNL     1      28.244  -6.214  72.157  1.00  0.00    -0.083 Cl
ENDBRANCH  12  15
ENDBRANCH  10  12
ENDBRANCH   6  10
BRANCH   8  22
HETATM   22  O3  UNL     1      35.256  -9.349  68.342  1.00  0.00    -0.169 OA
BRANCH  22  23
HETATM   23  C9  UNL     1      36.555  -9.481  68.758  1.00  0.00     0.395 C 
HETATM   24  N6  UNL     1      37.415  -8.396  69.062  1.00  0.00    -0.031 NA
HETATM   25  O4  UNL     1      36.999 -10.674  68.872  1.00  0.00    -0.240 OA
ENDBRANCH  22  23
ENDBRANCH   8  22
TORSDOF 5
ENDMDL
MODEL 2
REMARK VINA RESULT: -7.533218394      1.609      2.047
REMARK  5 active torsions:
REMARK  status: ('A' for Active; 'I' for Inactive)
REMARK       I    between atoms: N2_3  and  C2_5 
REMARK       I    between atoms: C2_5  and  N5_20 
REMARK    1  A    between atoms: N3_6  and  N4_8 
REMARK    2  A    between atoms: N4_8  and  S1_10 
REMARK    3  A    between atoms: S1_10  and  C3_13 
REMARK    4  A    between atoms: N5_20  and  O3_22 
REMARK    5  A    between atoms: O3_22  and  C9_23 
ROOT
HETATM    1  N1  UNL     1      33.238  -8.358  64.991  1.00  0.00    -0.171 NA
HETATM    2  C1  UNL     1      32.750  -8.761  65.964  1.00  0.00     0.196 C 
HETATM    3  N2  UNL     1      32.168  -9.246  67.152  1.00  0.00    -0.123 N 
ATOM      4  H2  UNL     1      31.570 -10.072  67.107  1.00  0.00     0.197 HD
HETATM    5  C2  UNL     1      32.385  -8.624  68.407  1.00  0.00     0.726 C 
HETATM    6  N3  UNL     1      31.552  -7.739  68.802  1.00  0.00    -0.120 N 
ATOM      7  H3  UNL     1      31.686  -7.275  69.701  1.00  0.00     0.206 HD
HETATM    8  N5  UNL     1      33.485  -8.949  69.230  1.00  0.00    -0.085 N 
ATOM      9  H5  UNL     1      33.429  -8.831  70.242  1.00  0.00     0.214 HD
ENDROOT
BRANCH   6  10
HETATM   10  N4  UNL     1      30.466  -7.409  68.003  1.00  0.00    -0.208 N 
ATOM     11  H4  UNL     1      30.450  -7.645  67.011  1.00  0.00     0.201 HD
BRANCH  10  12
HETATM   12  S1  UNL     1      29.143  -6.585  68.743  1.00  0.00     0.278 S 
HETATM   13  O1  UNL     1      29.514  -5.134  68.880  1.00  0.00    -0.199 OA
HETATM   14  O2  UNL     1      27.900  -6.665  67.935  1.00  0.00    -0.199 OA
BRANCH  12  15
HETATM   15  C3  UNL     1      28.879  -7.326  70.306  1.00  0.00     0.102 A 
HETATM   16  C4  UNL     1      29.043  -6.628  71.478  1.00  0.00     0.027 A 
HETATM   17  C5  UNL     1      28.824  -7.255  72.676  1.00  0.00     0.002 A 
HETATM   18  C6  UNL     1      28.441  -8.570  72.792  1.00  0.00     0.002 A 
HETATM   19  C7  UNL     1      28.281  -9.255  71.599  1.00  0.00     0.025 A 
HETATM   20  C8  UNL     1      28.497  -8.645  70.383  1.00  0.00     0.057 A 
HETATM   21 CL1  UNL     1      28.272  -9.582  68.910  1.00  0.00    -0.083 Cl
ENDBRANCH  12  15
ENDBRANCH  10  12
ENDBRANCH   6  10
BRANCH   8  22
HETATM   22  O3  UNL     1      34.624  -9.423  68.649  1.00  0.00    -0.169 OA
BRANCH  22  23
HETATM   23  C9  UNL     1      35.708  -8.601  68.482  1.00  0.00     0.395 C 
HETATM   24  N6  UNL     1      35.768  -7.530  67.557  1.00  0.00    -0.031 NA
HETATM   25  O4  UNL     1      36.723  -8.837  69.223  1.00  0.00    -0.240 OA
ENDBRANCH  22  23
ENDBRANCH   8  22
TORSDOF 5
ENDMDL
MODEL 3
REMARK VINA RESULT: -7.272292097      1.224      1.492
REMARK  5 active torsions:
REMARK  status: ('A' for Active; 'I' for Inactive)
REMARK       I    between atoms: N2_3  and  C2_5 
REMARK       I    between atoms: C2_5  and  N5_20 
REMARK    1  A    between atoms: N3_6  and  N4_8 
REMARK    2  A    between atoms: N4_8  and  S1_10 
REMARK    3  A    between atoms: S1_10  and  C3_13 
REMARK    4  A    between atoms: N5_20  and  O3_22 
REMARK    5  A    between atoms: O3_22  and  C9_23 
ROOT
HETATM    1  N1  UNL     1      32.897  -8.306  65.118  1.00  0.00    -0.171 NA
HETATM    2  C1  UNL     1      32.716  -8.693  66.198  1.00  0.00     0.196 C 
HETATM    3  N2  UNL     1      32.507  -9.159  67.511  1.00  0.00    -0.123 N 
ATOM      4  H2  UNL     1      31.945  -9.998  67.654  1.00  0.00     0.197 HD
HETATM    5  C2  UNL     1      33.053  -8.499  68.640  1.00  0.00     0.726 C 
HETATM    6  N3  UNL     1      32.342  -7.621  69.238  1.00  0.00    -0.120 N 
ATOM      7  H3  UNL     1      32.712  -7.132  70.053  1.00  0.00     0.206 HD
HETATM    8  N5  UNL     1      34.351  -8.779  69.124  1.00  0.00    -0.085 N 
ATOM      9  H5  UNL     1      34.580  -8.636  70.108  1.00  0.00     0.214 HD
ENDROOT
BRANCH   6  10
HETATM   10  N4  UNL     1      31.065  -7.336  68.774  1.00  0.00    -0.208 N 
ATOM     11  H4  UNL     1      30.708  -7.763  67.919  1.00  0.00     0.201 HD
BRANCH  10  12
HETATM   12  S1  UNL     1      30.103  -6.235  69.690  1.00  0.00     0.278 S 
HETATM   13  O1  UNL     1      30.973  -5.632  70.759  1.00  0.00    -0.199 OA
HETATM   14  O2  UNL     1      29.564  -5.128  68.862  1.00  0.00    -0.199 OA
BRANCH  12  15
HETATM   15  C3  UNL     1      28.783  -7.152  70.381  1.00  0.00     0.102 A 
HETATM   16  C4  UNL     1      28.713  -7.423  71.727  1.00  0.00     0.027 A 
HETATM   17  C5  UNL     1      27.658  -8.145  72.218  1.00  0.00     0.002 A 
HETATM   18  C6  UNL     1      26.635  -8.631  71.439  1.00  0.00     0.002 A 
HETATM   19  C7  UNL     1      26.725  -8.345  70.087  1.00  0.00     0.025 A 
HETATM   20  C8  UNL     1      27.777  -7.623  69.571  1.00  0.00     0.057 A 
HETATM   21 CL1  UNL     1      27.819  -7.301  67.841  1.00  0.00    -0.083 Cl
ENDBRANCH  12  15
ENDBRANCH  10  12
ENDBRANCH   6  10
BRANCH   8  22
HETATM   22  O3  UNL     1      35.291  -9.243  68.253  1.00  0.00    -0.169 OA
BRANCH  22  23
HETATM   23  C9  UNL     1      36.583  -9.436  68.669  1.00  0.00     0.395 C 
HETATM   24  N6  UNL     1      37.486  -8.393  68.993  1.00  0.00    -0.031 NA
HETATM   25  O4  UNL     1      36.977 -10.648  68.764  1.00  0.00    -0.240 OA
ENDBRANCH  22  23
ENDBRANCH   8  22
TORSDOF 5
ENDMDL
MODEL 4
REMARK VINA RESULT: -7.231276077      5.833      9.698
REMARK  5 active torsions:
REMARK  status: ('A' for Active; 'I' for Inactive)
REMARK       I    between atoms: N2_3  and  C2_5 
REMARK       I    between atoms: C2_5  and  N5_20 
REMARK    1  A    between atoms: N3_6  and  N4_8 
REMARK    2  A    between atoms: N4_8  and  S1_10 
REMARK    3  A    between atoms: S1_10  and  C3_13 
REMARK    4  A    between atoms: N5_20  and  O3_22 
REMARK    5  A    between atoms: O3_22  and  C9_23 
ROOT
HETATM    1  N1  UNL     1      36.632  -9.744  64.409  1.00  0.00    -0.171 NA
HETATM    2  C1  UNL     1      36.300  -8.682  64.743  1.00  0.00     0.196 C 
HETATM    3  N2  UNL     1      35.893  -7.399  65.158  1.00  0.00    -0.123 N 
ATOM      4  H2  UNL     1      35.675  -6.698  64.450  1.00  0.00     0.197 HD
HETATM    5  C2  UNL     1      35.776  -7.051  66.526  1.00  0.00     0.726 C 
HETATM    6  N3  UNL     1      36.779  -6.512  67.107  1.00  0.00    -0.120 N 
ATOM      7  H3  UNL     1      36.721  -6.252  68.092  1.00  0.00     0.206 HD
HETATM    8  N5  UNL     1      34.595  -7.280  67.266  1.00  0.00    -0.085 N 
ATOM      9  H5  UNL     1      34.364  -6.695  68.069  1.00  0.00     0.214 HD
ENDROOT
BRANCH   6  10
HETATM   10  N4  UNL     1      37.947  -6.281  66.393  1.00  0.00    -0.208 N 
ATOM     11  H4  UNL     1      37.991  -5.558  65.675  1.00  0.00     0.201 HD
BRANCH  10  12
HETATM   12  S1  UNL     1      39.322  -7.257  66.761  1.00  0.00     0.278 S 
HETATM   13  O1  UNL     1      40.115  -6.562  67.833  1.00  0.00    -0.199 OA
HETATM   14  O2  UNL     1      38.944  -8.600  67.270  1.00  0.00    -0.199 OA
BRANCH  12  15
HETATM   15  C3  UNL     1      40.248  -7.424  65.287  1.00  0.00     0.102 A 
HETATM   16  C4  UNL     1      40.330  -8.619  64.612  1.00  0.00     0.027 A 
HETATM   17  C5  UNL     1      41.069  -8.697  63.461  1.00  0.00     0.002 A 
HETATM   18  C6  UNL     1      41.754  -7.636  62.918  1.00  0.00     0.002 A 
HETATM   19  C7  UNL     1      41.657  -6.442  63.615  1.00  0.00     0.025 A 
HETATM   20  C8  UNL     1      40.922  -6.341  64.773  1.00  0.00     0.057 A 
HETATM   21 CL1  UNL     1      40.847  -4.788  65.600  1.00  0.00    -0.083 Cl
ENDBRANCH  12  15
ENDBRANCH  10  12
ENDBRANCH   6  10
BRANCH   8  22
HETATM   22  O3  UNL     1      33.768  -8.295  66.886  1.00  0.00    -0.169 OA
BRANCH  22  23
HETATM   23  C9  UNL     1      32.963  -8.912  67.809  1.00  0.00     0.395 C 
HETATM   24  N6  UNL     1      33.385  -9.316  69.099  1.00  0.00    -0.031 NA
HETATM   25  O4  UNL     1      31.753  -9.126  67.456  1.00  0.00    -0.240 OA
ENDBRANCH  22  23
ENDBRANCH   8  22
TORSDOF 5
ENDMDL
MODEL 5
REMARK VINA RESULT: -7.179961321      6.097      9.336
REMARK  5 active torsions:
REMARK  status: ('A' for Active; 'I' for Inactive)
REMARK       I    between atoms: N2_3  and  C2_5 
REMARK       I    between atoms: C2_5  and  N5_20 
REMARK    1  A    between atoms: N3_6  and  N4_8 
REMARK    2  A    between atoms: N4_8  and  S1_10 
REMARK    3  A    between atoms: S1_10  and  C3_13 
REMARK    4  A    between atoms: N5_20  and  O3_22 
REMARK    5  A    between atoms: O3_22  and  C9_23 
ROOT
HETATM    1  N1  UNL     1      36.397  -8.675  64.720  1.00  0.00    -0.171 NA
HETATM    2  C1  UNL     1      36.492  -8.092  65.719  1.00  0.00     0.196 C 
HETATM    3  N2  UNL     1      36.606  -7.395  66.938  1.00  0.00    -0.123 N 
ATOM      4  H2  UNL     1      36.260  -6.437  66.993  1.00  0.00     0.197 HD
HETATM    5  C2  UNL     1      37.184  -7.981  68.091  1.00  0.00     0.726 C 
HETATM    6  N3  UNL     1      38.432  -7.806  68.304  1.00  0.00    -0.120 N 
ATOM      7  H3  UNL     1      38.874  -8.218  69.126  1.00  0.00     0.206 HD
HETATM    8  N5  UNL     1      36.432  -8.750  69.006  1.00  0.00    -0.085 N 
ATOM      9  H5  UNL     1      36.715  -8.816  69.984  1.00  0.00     0.214 HD
ENDROOT
BRANCH   6  10
HETATM   10  N4  UNL     1      39.185  -7.053  67.413  1.00  0.00    -0.208 N 
ATOM     11  H4  UNL     1      39.326  -7.362  66.451  1.00  0.00     0.201 HD
BRANCH  10  12
HETATM   12  S1  UNL     1      39.875  -5.579  67.986  1.00  0.00     0.278 S 
HETATM   13  O1  UNL     1      39.239  -5.249  69.309  1.00  0.00    -0.199 OA
HETATM   14  O2  UNL     1      41.340  -5.682  68.197  1.00  0.00    -0.199 OA
BRANCH  12  15
HETATM   15  C3  UNL     1      39.535  -4.349  66.790  1.00  0.00     0.102 A 
HETATM   16  C4  UNL     1      38.622  -3.347  67.017  1.00  0.00     0.027 A 
HETATM   17  C5  UNL     1      38.393  -2.407  66.047  1.00  0.00     0.002 A 
HETATM   18  C6  UNL     1      39.030  -2.394  64.828  1.00  0.00     0.002 A 
HETATM   19  C7  UNL     1      39.947  -3.412  64.621  1.00  0.00     0.025 A 
HETATM   20  C8  UNL     1      40.192  -4.368  65.581  1.00  0.00     0.057 A 
HETATM   21 CL1  UNL     1      41.372  -5.629  65.243  1.00  0.00    -0.083 Cl
ENDBRANCH  12  15
ENDBRANCH  10  12
ENDBRANCH   6  10
BRANCH   8  22
HETATM   22  O3  UNL     1      35.319  -9.400  68.560  1.00  0.00    -0.169 OA
BRANCH  22  23
HETATM   23  C9  UNL     1      34.077  -8.851  68.745  1.00  0.00     0.395 C 
HETATM   24  N6  UNL     1      33.678  -7.585  68.249  1.00  0.00    -0.031 NA
HETATM   25  O4  UNL     1      33.239  -9.548  69.413  1.00  0.00    -0.240 OA
ENDBRANCH  22  23
ENDBRANCH   8  22
TORSDOF 5
ENDMDL
