MODEL 1
REMARK VINA RESULT: -6.732978516      0.000      0.000
REMARK  6 active torsions:
REMARK  status: ('A' for Active; 'I' for Inactive)
REMARK    1  A    between atoms: C2_2  and  C3_4 
REMARK    2  A    between atoms: C2_2  and  C11_24 
REMARK       I    between atoms: C3_4  and  N1_6 
REMARK    3  A    between atoms: N1_6  and  C4_8 
REMARK    4  A    between atoms: C5_11  and  C6_12 
REMARK       I    between atoms: C6_12  and  N3_14 
REMARK    5  A    between atoms: C11_24  and  N6_25 
REMARK    6  A    between atoms: C11_24  and  N7_29 
ROOT
HETATM    1  C4  UNL     1      32.165  -8.022  68.624  1.00  0.00     0.701 A 
HETATM    2  N2  UNL     1      33.441  -8.011  69.130  1.00  0.00    -0.168 N 
ATOM      3  H2  UNL     1      33.702  -7.632  70.040  1.00  0.00     0.186 HD
HETATM    4  C5  UNL     1      34.290  -8.567  68.266  1.00  0.00     0.204 A 
HETATM    5  N4  UNL     1      33.566  -8.937  67.204  1.00  0.00    -0.266 N 
ATOM      6  H4  UNL     1      33.926  -9.395  66.366  1.00  0.00     0.189 HD
HETATM    7  N5  UNL     1      32.301  -8.608  67.425  1.00  0.00    -0.130 N 
ATOM      8  H5  UNL     1      31.536  -8.778  66.773  1.00  0.00     0.205 HD
ENDROOT
BRANCH   1   9
HETATM    9  N1  UNL     1      31.016  -7.518  69.266  1.00  0.00    -0.156 N 
HETATM   10  C3  UNL     1      29.738  -8.086  69.184  1.00  0.00     0.263 C 
HETATM   11  O1  UNL     1      29.535  -9.114  68.510  1.00  0.00    -0.270 OA
ATOM     12  H1  UNL     1      31.123  -6.677  69.832  1.00  0.00     0.187 HD
BRANCH  10  13
HETATM   13  C2  UNL     1      28.568  -7.504  69.886  1.00  0.00     0.168 C 
HETATM   14  C1  UNL     1      27.517  -6.983  68.961  1.00  0.00     0.047 C 
HETATM   15 CL1  UNL     1      29.210  -6.162  70.896  1.00  0.00    -0.105 Cl
BRANCH  13  16
HETATM   16  C11 UNL     1      27.937  -8.486  70.835  1.00  0.00     0.410 C 
BRANCH  16  17
HETATM   17  N6  UNL     1      28.917  -9.199  71.625  1.00  0.00    -0.048 N 
ATOM     18  H63 UNL     1      28.847 -10.206  71.476  1.00  0.00     0.276 HD
ATOM     19  H62 UNL     1      29.859  -9.046  71.266  1.00  0.00     0.276 HD
ATOM     20  H61 UNL     1      28.859  -8.969  72.617  1.00  0.00     0.276 HD
ENDBRANCH  16  17
BRANCH  16  21
HETATM   21  N7  UNL     1      27.065  -9.423  70.186  1.00  0.00    -0.048 N 
ATOM     22  H73 UNL     1      26.095  -9.110  70.236  1.00  0.00     0.276 HD
ATOM     23  H72 UNL     1      27.197  -9.400  69.175  1.00  0.00     0.276 HD
ATOM     24  H71 UNL     1      27.157 -10.374  70.543  1.00  0.00     0.276 HD
ENDBRANCH  16  21
ENDBRANCH  13  16
ENDBRANCH  10  13
ENDBRANCH   1   9
BRANCH   4  25
HETATM   25  C6  UNL     1      35.725  -8.763  68.388  1.00  0.00     0.289 C 
HETATM   26  O2  UNL     1      36.175  -9.780  68.977  1.00  0.00    -0.264 OA
HETATM   27  N3  UNL     1      36.647  -7.835  67.858  1.00  0.00    -0.341 N 
HETATM   28  C7  UNL     1      36.301  -6.619  67.153  1.00  0.00     0.152 C 
HETATM   29  C10 UNL     1      38.094  -8.063  67.997  1.00  0.00     0.152 C 
HETATM   30  C8  UNL     1      37.616  -5.992  66.698  1.00  0.00     0.187 C 
HETATM   31  O3  UNL     1      38.471  -5.713  67.735  1.00  0.00    -0.388 OA
HETATM   32  C9  UNL     1      38.671  -6.794  68.587  1.00  0.00     0.187 C 
ENDBRANCH   4  25
TORSDOF 6
ENDMDL
MODEL 2
REMARK VINA RESULT: -6.515319841      1.814      2.486
REMARK  6 active torsions:
REMARK  status: ('A' for Active; 'I' for Inactive)
REMARK    1  A    between atoms: C2_2  and  C3_4 
REMARK    2  A    between atoms: C2_2  and  C11_24 
REMARK       I    between atoms: C3_4  and  N1_6 
REMARK    3  A    between atoms: N1_6  and  C4_8 
REMARK    4  A    between atoms: C5_11  and  C6_12 
REMARK       I    between atoms: C6_12  and  N3_14 
REMARK    5  A    between atoms: C11_24  and  N6_25 
REMARK    6  A    between atoms: C11_24  and  N7_29 
ROOT
HETATM    1  C4  UNL     1      30.809  -7.969  68.643  1.00  0.00     0.701 A 
HETATM    2  N2  UNL     1      31.937  -7.195  68.754  1.00  0.00    -0.168 N 
ATOM      3  H2  UNL     1      32.133  -6.561  69.528  1.00  0.00     0.186 HD
HETATM    4  C5  UNL     1      32.740  -7.389  67.708  1.00  0.00     0.204 A 
HETATM    5  N4  UNL     1      32.134  -8.286  66.922  1.00  0.00    -0.266 N 
ATOM      6  H4  UNL     1      32.496  -8.647  66.040  1.00  0.00     0.189 HD
HETATM    7  N5  UNL     1      30.984  -8.626  67.487  1.00  0.00    -0.130 N 
ATOM      8  H5  UNL     1      30.322  -9.295  67.095  1.00  0.00     0.205 HD
ENDROOT
BRANCH   1   9
HETATM    9  N1  UNL     1      29.745  -8.018  69.567  1.00  0.00    -0.156 N 
HETATM   10  C3  UNL     1      28.665  -8.906  69.497  1.00  0.00     0.263 C 
HETATM   11  O1  UNL     1      28.578  -9.740  68.575  1.00  0.00    -0.270 OA
ATOM     12  H1  UNL     1      29.764  -7.357  70.343  1.00  0.00     0.187 HD
BRANCH  10  13
HETATM   13  C2  UNL     1      27.575  -8.906  70.504  1.00  0.00     0.168 C 
HETATM   14  C1  UNL     1      26.758  -7.655  70.498  1.00  0.00     0.047 C 
HETATM   15 CL1  UNL     1      28.374  -9.103  72.103  1.00  0.00    -0.105 Cl
BRANCH  13  16
HETATM   16  C11 UNL     1      26.657 -10.087  70.339  1.00  0.00     0.410 C 
BRANCH  16  17
HETATM   17  N6  UNL     1      25.359  -9.866  70.937  1.00  0.00    -0.048 N 
ATOM     18  H63 UNL     1      25.241 -10.432  71.777  1.00  0.00     0.276 HD
ATOM     19  H62 UNL     1      25.301  -8.938  71.355  1.00  0.00     0.276 HD
ATOM     20  H61 UNL     1      24.596 -10.022  70.278  1.00  0.00     0.276 HD
ENDBRANCH  16  17
BRANCH  16  21
HETATM   21  N7  UNL     1      27.216 -11.313  70.833  1.00  0.00    -0.048 N 
ATOM     22  H73 UNL     1      27.673 -11.832  70.083  1.00  0.00     0.276 HD
ATOM     23  H72 UNL     1      28.024 -11.129  71.428  1.00  0.00     0.276 HD
ATOM     24  H71 UNL     1      26.536 -11.900  71.317  1.00  0.00     0.276 HD
ENDBRANCH  16  21
ENDBRANCH  13  16
ENDBRANCH  10  13
ENDBRANCH   1   9
BRANCH   4  25
HETATM   25  C6  UNL     1      34.028  -6.782  67.416  1.00  0.00     0.289 C 
HETATM   26  O2  UNL     1      34.084  -5.651  66.866  1.00  0.00    -0.264 OA
HETATM   27  N3  UNL     1      35.241  -7.430  67.735  1.00  0.00    -0.341 N 
HETATM   28  C7  UNL     1      35.357  -8.727  68.367  1.00  0.00     0.152 C 
HETATM   29  C10 UNL     1      36.530  -6.790  67.427  1.00  0.00     0.152 C 
HETATM   30  C8  UNL     1      36.847  -8.972  68.587  1.00  0.00     0.187 C 
HETATM   31  O3  UNL     1      37.579  -8.942  67.426  1.00  0.00    -0.388 OA
HETATM   32  C9  UNL     1      37.339  -7.809  66.656  1.00  0.00     0.187 C 
ENDBRANCH   4  25
TORSDOF 6
ENDMDL
MODEL 3
REMARK VINA RESULT: -6.514077630      0.990      1.160
REMARK  6 active torsions:
REMARK  status: ('A' for Active; 'I' for Inactive)
REMARK    1  A    between atoms: C2_2  and  C3_4 
REMARK    2  A    between atoms: C2_2  and  C11_24 
REMARK       I    between atoms: C3_4  and  N1_6 
REMARK    3  A    between atoms: N1_6  and  C4_8 
REMARK    4  A    between atoms: C5_11  and  C6_12 
REMARK       I    between atoms: C6_12  and  N3_14 
REMARK    5  A    between atoms: C11_24  and  N6_25 
REMARK    6  A    between atoms: C11_24  and  N7_29 
ROOT
HETATM    1  C4  UNL     1      31.507  -8.159  68.588  1.00  0.00     0.701 A 
HETATM    2  N2  UNL     1      32.808  -8.104  69.023  1.00  0.00    -0.168 N 
ATOM      3  H2  UNL     1      33.099  -7.787  69.948  1.00  0.00     0.186 HD
HETATM    4  C5  UNL     1      33.638  -8.522  68.067  1.00  0.00     0.204 A 
HETATM    5  N4  UNL     1      32.877  -8.848  67.016  1.00  0.00    -0.266 N 
ATOM      6  H4  UNL     1      33.214  -9.205  66.122  1.00  0.00     0.189 HD
HETATM    7  N5  UNL     1      31.609  -8.628  67.335  1.00  0.00    -0.130 N 
ATOM      8  H5  UNL     1      30.818  -8.793  66.713  1.00  0.00     0.205 HD
ENDROOT
BRANCH   1   9
HETATM    9  N1  UNL     1      30.369  -7.793  69.335  1.00  0.00    -0.156 N 
HETATM   10  C3  UNL     1      29.146  -8.474  69.315  1.00  0.00     0.263 C 
HETATM   11  O1  UNL     1      28.986  -9.487  68.605  1.00  0.00    -0.270 OA
ATOM     12  H1  UNL     1      30.442  -6.972  69.934  1.00  0.00     0.187 HD
BRANCH  10  13
HETATM   13  C2  UNL     1      27.984  -8.036  70.127  1.00  0.00     0.168 C 
HETATM   14  C1  UNL     1      27.254  -6.871  69.542  1.00  0.00     0.047 C 
HETATM   15 CL1  UNL     1      28.642  -7.595  71.741  1.00  0.00    -0.105 Cl
BRANCH  13  16
HETATM   16  C11 UNL     1      27.006  -9.156  70.358  1.00  0.00     0.410 C 
BRANCH  16  17
HETATM   17  N6  UNL     1      25.747  -8.689  70.894  1.00  0.00    -0.048 N 
ATOM     18  H63 UNL     1      25.266  -9.430  71.404  1.00  0.00     0.276 HD
ATOM     19  H62 UNL     1      25.895  -8.033  71.661  1.00  0.00     0.276 HD
ATOM     20  H61 UNL     1      25.144  -8.286  70.177  1.00  0.00     0.276 HD
ENDBRANCH  16  17
BRANCH  16  21
HETATM   21  N7  UNL     1      27.528 -10.202  71.189  1.00  0.00    -0.048 N 
ATOM     22  H73 UNL     1      28.252  -9.843  71.812  1.00  0.00     0.276 HD
ATOM     23  H72 UNL     1      26.839 -10.492  71.883  1.00  0.00     0.276 HD
ATOM     24  H71 UNL     1      27.870 -11.005  70.661  1.00  0.00     0.276 HD
ENDBRANCH  16  21
ENDBRANCH  13  16
ENDBRANCH  10  13
ENDBRANCH   1   9
BRANCH   4  25
HETATM   25  C6  UNL     1      35.087  -8.628  68.092  1.00  0.00     0.289 C 
HETATM   26  O2  UNL     1      35.640  -9.564  68.726  1.00  0.00    -0.264 OA
HETATM   27  N3  UNL     1      35.910  -7.700  67.418  1.00  0.00    -0.341 N 
HETATM   28  C7  UNL     1      35.439  -6.570  66.645  1.00  0.00     0.152 C 
HETATM   29  C10 UNL     1      37.374  -7.835  67.462  1.00  0.00     0.152 C 
HETATM   30  C8  UNL     1      36.676  -5.913  66.039  1.00  0.00     0.187 C 
HETATM   31  O3  UNL     1      37.586  -5.500  66.980  1.00  0.00    -0.388 OA
HETATM   32  C9  UNL     1      37.914  -6.491  67.899  1.00  0.00     0.187 C 
ENDBRANCH   4  25
TORSDOF 6
ENDMDL
MODEL 4
REMARK VINA RESULT: -6.435842324      1.618      1.831
REMARK  6 active torsions:
REMARK  status: ('A' for Active; 'I' for Inactive)
REMARK    1  A    between atoms: C2_2  and  C3_4 
REMARK    2  A    between atoms: C2_2  and  C11_24 
REMARK       I    between atoms: C3_4  and  N1_6 
REMARK    3  A    between atoms: N1_6  and  C4_8 
REMARK    4  A    between atoms: C5_11  and  C6_12 
REMARK       I    between atoms: C6_12  and  N3_14 
REMARK    5  A    between atoms: C11_24  and  N6_25 
REMARK    6  A    between atoms: C11_24  and  N7_29 
ROOT
HETATM    1  C4  UNL     1      33.026  -7.757  68.723  1.00  0.00     0.701 A 
HETATM    2  N2  UNL     1      33.742  -7.549  67.571  1.00  0.00    -0.168 N 
ATOM      3  H2  UNL     1      33.455  -6.932  66.811  1.00  0.00     0.186 HD
HETATM    4  C5  UNL     1      34.866  -8.265  67.585  1.00  0.00     0.204 A 
HETATM    5  N4  UNL     1      34.878  -8.935  68.743  1.00  0.00    -0.266 N 
ATOM      6  H4  UNL     1      35.609  -9.574  69.056  1.00  0.00     0.189 HD
HETATM    7  N5  UNL     1      33.777  -8.627  69.415  1.00  0.00    -0.130 N 
ATOM      8  H5  UNL     1      33.535  -9.000  70.332  1.00  0.00     0.205 HD
ENDROOT
BRANCH   1   9
HETATM    9  N1  UNL     1      31.789  -7.163  69.048  1.00  0.00    -0.156 N 
HETATM   10  C3  UNL     1      30.535  -7.714  68.757  1.00  0.00     0.263 C 
HETATM   11  O1  UNL     1      30.436  -8.809  68.170  1.00  0.00    -0.270 OA
ATOM     12  H1  UNL     1      31.810  -6.265  69.530  1.00  0.00     0.187 HD
BRANCH  10  13
HETATM   13  C2  UNL     1      29.269  -7.036  69.127  1.00  0.00     0.168 C 
HETATM   14  C1  UNL     1      28.183  -7.210  68.116  1.00  0.00     0.047 C 
HETATM   15 CL1  UNL     1      29.669  -5.291  69.297  1.00  0.00    -0.105 Cl
BRANCH  13  16
HETATM   16  C11 UNL     1      28.761  -7.488  70.470  1.00  0.00     0.410 C 
BRANCH  16  17
HETATM   17  N6  UNL     1      29.356  -6.751  71.563  1.00  0.00    -0.048 N 
ATOM     18  H63 UNL     1      30.369  -6.694  71.459  1.00  0.00     0.276 HD
ATOM     19  H62 UNL     1      29.130  -5.759  71.503  1.00  0.00     0.276 HD
ATOM     20  H61 UNL     1      29.101  -7.133  72.474  1.00  0.00     0.276 HD
ENDBRANCH  16  17
BRANCH  16  21
HETATM   21  N7  UNL     1      28.921  -8.897  70.692  1.00  0.00    -0.048 N 
ATOM     22  H73 UNL     1      29.527  -9.309  69.982  1.00  0.00     0.276 HD
ATOM     23  H72 UNL     1      29.489  -9.071  71.520  1.00  0.00     0.276 HD
ATOM     24  H71 UNL     1      28.035  -9.400  70.747  1.00  0.00     0.276 HD
ENDBRANCH  16  21
ENDBRANCH  13  16
ENDBRANCH  10  13
ENDBRANCH   1   9
BRANCH   4  25
HETATM   25  C6  UNL     1      35.912  -8.350  66.579  1.00  0.00     0.289 C 
HETATM   26  O2  UNL     1      35.744  -9.054  65.550  1.00  0.00    -0.264 OA
HETATM   27  N3  UNL     1      37.133  -7.654  66.721  1.00  0.00    -0.341 N 
HETATM   28  C7  UNL     1      37.488  -6.803  67.837  1.00  0.00     0.152 C 
HETATM   29  C10 UNL     1      38.173  -7.759  65.686  1.00  0.00     0.152 C 
HETATM   30  C8  UNL     1      38.854  -6.207  67.511  1.00  0.00     0.187 C 
HETATM   31  O3  UNL     1      39.825  -7.155  67.309  1.00  0.00    -0.388 OA
HETATM   32  C9  UNL     1      39.450  -8.140  66.401  1.00  0.00     0.187 C 
ENDBRANCH   4  25
TORSDOF 6
ENDMDL
MODEL 5
REMARK VINA RESULT: -6.395538810      1.453      1.756
REMARK  6 active torsions:
REMARK  status: ('A' for Active; 'I' for Inactive)
REMARK    1  A    between atoms: C2_2  and  C3_4 
REMARK    2  A    between atoms: C2_2  and  C11_24 
REMARK       I    between atoms: C3_4  and  N1_6 
REMARK    3  A    between atoms: N1_6  and  C4_8 
REMARK    4  A    between atoms: C5_11  and  C6_12 
REMARK       I    between atoms: C6_12  and  N3_14 
REMARK    5  A    between atoms: C11_24  and  N6_25 
REMARK    6  A    between atoms: C11_24  and  N7_29 
ROOT
HETATM    1  C4  UNL     1      32.448  -8.442  68.374  1.00  0.00     0.701 A 
HETATM    2  N2  UNL     1      33.670  -8.470  68.998  1.00  0.00    -0.168 N 
ATOM      3  H2  UNL     1      33.811  -8.376  70.004  1.00  0.00     0.186 HD
HETATM    4  C5  UNL     1      34.646  -8.635  68.106  1.00  0.00     0.204 A 
HETATM    5  N4  UNL     1      34.058  -8.716  66.907  1.00  0.00    -0.266 N 
ATOM      6  H4  UNL     1      34.536  -8.846  66.015  1.00  0.00     0.189 HD
HETATM    7  N5  UNL     1      32.748  -8.600  67.076  1.00  0.00    -0.130 N 
ATOM      8  H5  UNL     1      32.063  -8.626  66.321  1.00  0.00     0.205 HD
ENDROOT
BRANCH   1   9
HETATM    9  N1  UNL     1      31.198  -8.283  69.007  1.00  0.00    -0.156 N 
HETATM   10  C3  UNL     1      30.091  -7.640  68.441  1.00  0.00     0.263 C 
HETATM   11  O1  UNL     1      30.148  -7.151  67.296  1.00  0.00    -0.270 OA
ATOM     12  H1  UNL     1      31.094  -8.664  69.946  1.00  0.00     0.187 HD
BRANCH  10  13
HETATM   13  C2  UNL     1      28.801  -7.506  69.163  1.00  0.00     0.168 C 
HETATM   14  C1  UNL     1      28.399  -8.742  69.899  1.00  0.00     0.047 C 
HETATM   15 CL1  UNL     1      27.570  -7.113  67.913  1.00  0.00    -0.105 Cl
BRANCH  13  16
HETATM   16  C11 UNL     1      28.814  -6.348  70.125  1.00  0.00     0.410 C 
BRANCH  16  17
HETATM   17  N6  UNL     1      29.542  -5.210  69.609  1.00  0.00    -0.048 N 
ATOM     18  H63 UNL     1      28.908  -4.525  69.196  1.00  0.00     0.276 HD
ATOM     19  H62 UNL     1      29.922  -4.643  70.367  1.00  0.00     0.276 HD
ATOM     20  H61 UNL     1      30.272  -5.480  68.950  1.00  0.00     0.276 HD
ENDBRANCH  16  17
BRANCH  16  21
HETATM   21  N7  UNL     1      29.316  -6.696  71.423  1.00  0.00    -0.048 N 
ATOM     22  H73 UNL     1      30.078  -7.371  71.349  1.00  0.00     0.276 HD
ATOM     23  H72 UNL     1      29.823  -5.914  71.837  1.00  0.00     0.276 HD
ATOM     24  H71 UNL     1      28.593  -7.036  72.058  1.00  0.00     0.276 HD
ENDBRANCH  16  21
ENDBRANCH  13  16
ENDBRANCH  10  13
ENDBRANCH   1   9
BRANCH   4  25
HETATM   25  C6  UNL     1      36.081  -8.721  68.321  1.00  0.00     0.289 C 
HETATM   26  O2  UNL     1      36.572  -9.714  68.918  1.00  0.00    -0.264 OA
HETATM   27  N3  UNL     1      36.958  -7.708  67.875  1.00  0.00    -0.341 N 
HETATM   28  C7  UNL     1      36.562  -6.505  67.174  1.00  0.00     0.152 C 
HETATM   29  C10 UNL     1      38.406  -7.824  68.108  1.00  0.00     0.152 C 
HETATM   30  C8  UNL     1      37.849  -5.764  66.823  1.00  0.00     0.187 C 
HETATM   31  O3  UNL     1      38.608  -5.446  67.922  1.00  0.00    -0.388 OA
HETATM   32  C9  UNL     1      38.838  -6.530  68.762  1.00  0.00     0.187 C 
ENDBRANCH   4  25
TORSDOF 6
ENDMDL
