MODEL 1
REMARK VINA RESULT: -6.341827634      0.000      0.000
REMARK  6 active torsions:
REMARK  status: ('A' for Active; 'I' for Inactive)
REMARK    1  A    between atoms: C5_11  and  N4_12 
REMARK    2  A    between atoms: C7_16  and  C8_17 
REMARK    3  A    between atoms: C9_18  and  C10_19 
REMARK    4  A    between atoms: C10_19  and  N5_20 
REMARK    5  A    between atoms: N5_20  and  C11_22 
REMARK    6  A    between atoms: C11_22  and  C12_23 
ROOT
HETATM    1  C1  UNL     1      37.095  -8.935  64.086  1.00  0.00     0.148 C 
HETATM    2  N1  UNL     1      35.678  -8.780  63.998  1.00  0.00    -0.377 N 
ATOM      3  H1  UNL     1      35.310  -8.732  63.048  1.00  0.00     0.160 HD
HETATM    4  C2  UNL     1      34.806  -8.693  64.911  1.00  0.00     0.154 A 
HETATM    5  C3  UNL     1      35.042  -8.730  66.264  1.00  0.00     0.094 A 
HETATM    6  N2  UNL     1      36.292  -8.948  66.654  1.00  0.00    -0.348 N 
ATOM      7  H2  UNL     1      37.024  -9.029  65.948  1.00  0.00     0.167 HD
HETATM    8  C4  UNL     1      36.619  -9.064  67.949  1.00  0.00     0.182 A 
HETATM    9  N3  UNL     1      35.656  -8.958  68.880  1.00  0.00    -0.338 N 
ATOM     10  H3  UNL     1      35.907  -9.049  69.864  1.00  0.00     0.168 HD
HETATM   11  C5  UNL     1      34.359  -8.735  68.550  1.00  0.00     0.113 A 
HETATM   12  C6  UNL     1      34.023  -8.608  67.225  1.00  0.00     0.052 A 
HETATM   13  C7  UNL     1      32.726  -8.437  66.867  1.00  0.00     0.028 A 
HETATM   14  C13 UNL     1      32.544  -8.413  65.432  1.00  0.00     0.157 A 
HETATM   15  N6  UNL     1      31.712  -8.308  64.407  1.00  0.00    -0.268 N 
ATOM     16  H6  UNL     1      30.703  -8.181  64.330  1.00  0.00     0.190 HD
HETATM   17  N7  UNL     1      32.684  -8.427  63.526  1.00  0.00    -0.231 N 
ATOM     18  H7  UNL     1      32.762  -8.435  62.509  1.00  0.00     0.209 HD
HETATM   19  N8  UNL     1      33.518  -8.533  64.559  1.00  0.00    -0.205 N 
ENDROOT
BRANCH  13  20
HETATM   20  C8  UNL     1      31.738  -8.055  67.564  1.00  0.00     0.018 C 
HETATM   21  C9  UNL     1      30.653  -7.197  67.880  1.00  0.00     0.018 C 
BRANCH  21  22
HETATM   22  C10 UNL     1      30.766  -6.453  69.194  1.00  0.00     0.083 C 
BRANCH  22  23
HETATM   23  N5  UNL     1      30.174  -6.843  70.229  1.00  0.00    -0.398 N 
ATOM     24  H5  UNL     1      30.707  -6.998  71.085  1.00  0.00     0.158 HD
BRANCH  23  25
HETATM   25  C11 UNL     1      28.771  -7.073  70.226  1.00  0.00     0.134 C 
BRANCH  25  26
HETATM   26  C12 UNL     1      28.413  -8.486  70.622  1.00  0.00     0.134 C 
HETATM   27 CL1  UNL     1      28.264  -9.517  69.186  1.00  0.00    -0.129 Cl
ENDBRANCH  25  26
ENDBRANCH  23  25
ENDBRANCH  22  23
ENDBRANCH  21  22
ENDBRANCH  13  20
BRANCH  11  28
HETATM   28  N4  UNL     1      33.540  -8.764  69.489  1.00  0.00    -0.385 N 
ATOM     29  H42 UNL     1      33.586  -8.171  70.318  1.00  0.00     0.157 HD
ATOM     30  H41 UNL     1      32.730  -9.369  69.361  1.00  0.00     0.157 HD
ENDBRANCH  11  28
TORSDOF 6
ENDMDL
MODEL 2
REMARK VINA RESULT: -6.158024547      5.763      9.282
REMARK  6 active torsions:
REMARK  status: ('A' for Active; 'I' for Inactive)
REMARK    1  A    between atoms: C5_11  and  N4_12 
REMARK    2  A    between atoms: C7_16  and  C8_17 
REMARK    3  A    between atoms: C9_18  and  C10_19 
REMARK    4  A    between atoms: C10_19  and  N5_20 
REMARK    5  A    between atoms: N5_20  and  C11_22 
REMARK    6  A    between atoms: C11_22  and  C12_23 
ROOT
HETATM    1  C1  UNL     1      38.236  -3.366  69.335  1.00  0.00     0.148 C 
HETATM    2  N1  UNL     1      39.463  -3.902  68.836  1.00  0.00    -0.377 N 
ATOM      3  H1  UNL     1      40.305  -3.509  69.256  1.00  0.00     0.160 HD
HETATM    4  C2  UNL     1      39.670  -4.788  67.956  1.00  0.00     0.154 A 
HETATM    5  C3  UNL     1      38.709  -5.468  67.247  1.00  0.00     0.094 A 
HETATM    6  N2  UNL     1      37.443  -5.225  67.560  1.00  0.00    -0.348 N 
ATOM      7  H2  UNL     1      37.233  -4.521  68.268  1.00  0.00     0.167 HD
HETATM    8  C4  UNL     1      36.430  -5.879  66.972  1.00  0.00     0.182 A 
HETATM    9  N3  UNL     1      36.705  -6.807  66.040  1.00  0.00    -0.338 N 
ATOM     10  H3  UNL     1      35.933  -7.304  65.595  1.00  0.00     0.168 HD
HETATM   11  C5  UNL     1      37.976  -7.103  65.672  1.00  0.00     0.113 A 
HETATM   12  C6  UNL     1      39.013  -6.429  66.268  1.00  0.00     0.052 A 
HETATM   13  C7  UNL     1      40.296  -6.743  65.955  1.00  0.00     0.028 A 
HETATM   14  C13 UNL     1      41.257  -6.000  66.740  1.00  0.00     0.157 A 
HETATM   15  N6  UNL     1      42.527  -5.753  67.019  1.00  0.00    -0.268 N 
ATOM     16  H6  UNL     1      43.411  -6.116  66.661  1.00  0.00     0.190 HD
HETATM   17  N7  UNL     1      42.217  -4.858  67.935  1.00  0.00    -0.231 N 
ATOM     18  H7  UNL     1      42.726  -4.247  68.574  1.00  0.00     0.209 HD
HETATM   19  N8  UNL     1      40.940  -5.109  67.652  1.00  0.00    -0.205 N 
ENDROOT
BRANCH  13  20
HETATM   20  C8  UNL     1      40.753  -7.367  64.952  1.00  0.00     0.018 C 
HETATM   21  C9  UNL     1      41.540  -7.497  63.777  1.00  0.00     0.018 C 
BRANCH  21  22
HETATM   22  C10 UNL     1      40.770  -7.746  62.497  1.00  0.00     0.083 C 
BRANCH  22  23
HETATM   23  N5  UNL     1      40.296  -6.804  61.817  1.00  0.00    -0.398 N 
ATOM     24  H5  UNL     1      40.927  -6.175  61.320  1.00  0.00     0.158 HD
BRANCH  23  25
HETATM   25  C11 UNL     1      38.892  -6.600  61.728  1.00  0.00     0.134 C 
BRANCH  25  26
HETATM   26  C12 UNL     1      38.509  -5.142  61.812  1.00  0.00     0.134 C 
HETATM   27 CL1  UNL     1      39.146  -4.416  63.301  1.00  0.00    -0.129 Cl
ENDBRANCH  25  26
ENDBRANCH  23  25
ENDBRANCH  22  23
ENDBRANCH  21  22
ENDBRANCH  13  20
BRANCH  11  28
HETATM   28  N4  UNL     1      38.112  -8.054  64.879  1.00  0.00    -0.385 N 
ATOM     29  H42 UNL     1      38.847  -8.122  64.174  1.00  0.00     0.157 HD
ATOM     30  H41 UNL     1      37.487  -8.848  65.017  1.00  0.00     0.157 HD
ENDBRANCH  11  28
TORSDOF 6
ENDMDL
MODEL 3
REMARK VINA RESULT: -6.134670464      1.854      2.380
REMARK  6 active torsions:
REMARK  status: ('A' for Active; 'I' for Inactive)
REMARK    1  A    between atoms: C5_11  and  N4_12 
REMARK    2  A    between atoms: C7_16  and  C8_17 
REMARK    3  A    between atoms: C9_18  and  C10_19 
REMARK    4  A    between atoms: C10_19  and  N5_20 
REMARK    5  A    between atoms: N5_20  and  C11_22 
REMARK    6  A    between atoms: C11_22  and  C12_23 
ROOT
HETATM    1  C1  UNL     1      37.078  -8.923  64.065  1.00  0.00     0.148 C 
HETATM    2  N1  UNL     1      35.660  -8.771  63.997  1.00  0.00    -0.377 N 
ATOM      3  H1  UNL     1      35.278  -8.723  63.053  1.00  0.00     0.160 HD
HETATM    4  C2  UNL     1      34.801  -8.686  64.923  1.00  0.00     0.154 A 
HETATM    5  C3  UNL     1      35.057  -8.724  66.273  1.00  0.00     0.094 A 
HETATM    6  N2  UNL     1      36.313  -8.938  66.644  1.00  0.00    -0.348 N 
ATOM      7  H2  UNL     1      37.035  -9.017  65.927  1.00  0.00     0.167 HD
HETATM    8  C4  UNL     1      36.660  -9.054  67.934  1.00  0.00     0.182 A 
HETATM    9  N3  UNL     1      35.710  -8.951  68.879  1.00  0.00    -0.338 N 
ATOM     10  H3  UNL     1      35.976  -9.041  69.859  1.00  0.00     0.168 HD
HETATM   11  C5  UNL     1      34.408  -8.730  68.569  1.00  0.00     0.113 A 
HETATM   12  C6  UNL     1      34.052  -8.604  67.249  1.00  0.00     0.052 A 
HETATM   13  C7  UNL     1      32.749  -8.435  66.910  1.00  0.00     0.028 A 
HETATM   14  C13 UNL     1      32.547  -8.412  65.478  1.00  0.00     0.157 A 
HETATM   15  N6  UNL     1      31.699  -8.308  64.465  1.00  0.00    -0.268 N 
ATOM     16  H6  UNL     1      30.689  -8.184  64.403  1.00  0.00     0.190 HD
HETATM   17  N7  UNL     1      32.659  -8.425  63.570  1.00  0.00    -0.231 N 
ATOM     18  H7  UNL     1      32.722  -8.433  62.552  1.00  0.00     0.209 HD
HETATM   19  N8  UNL     1      33.508  -8.529  64.590  1.00  0.00    -0.205 N 
ENDROOT
BRANCH  13  20
HETATM   20  C8  UNL     1      31.772  -8.056  67.622  1.00  0.00     0.018 C 
HETATM   21  C9  UNL     1      30.634  -7.257  67.909  1.00  0.00     0.018 C 
BRANCH  21  22
HETATM   22  C10 UNL     1      30.754  -6.360  69.123  1.00  0.00     0.083 C 
BRANCH  22  23
HETATM   23  N5  UNL     1      31.823  -5.767  69.405  1.00  0.00    -0.398 N 
ATOM     24  H5  UNL     1      32.438  -6.153  70.121  1.00  0.00     0.158 HD
BRANCH  23  25
HETATM   25  C11 UNL     1      32.189  -4.564  68.740  1.00  0.00     0.134 C 
BRANCH  25  26
HETATM   26  C12 UNL     1      33.424  -4.725  67.887  1.00  0.00     0.134 C 
HETATM   27 CL1  UNL     1      32.985  -4.857  66.173  1.00  0.00    -0.129 Cl
ENDBRANCH  25  26
ENDBRANCH  23  25
ENDBRANCH  22  23
ENDBRANCH  21  22
ENDBRANCH  13  20
BRANCH  11  28
HETATM   28  N4  UNL     1      33.603  -8.761  69.519  1.00  0.00    -0.385 N 
ATOM     29  H42 UNL     1      32.697  -8.293  69.528  1.00  0.00     0.157 HD
ATOM     30  H41 UNL     1      33.850  -9.371  70.299  1.00  0.00     0.157 HD
ENDBRANCH  11  28
TORSDOF 6
ENDMDL
MODEL 4
REMARK VINA RESULT: -6.107889539      6.032      8.821
REMARK  6 active torsions:
REMARK  status: ('A' for Active; 'I' for Inactive)
REMARK    1  A    between atoms: C5_11  and  N4_12 
REMARK    2  A    between atoms: C7_16  and  C8_17 
REMARK    3  A    between atoms: C9_18  and  C10_19 
REMARK    4  A    between atoms: C10_19  and  N5_20 
REMARK    5  A    between atoms: N5_20  and  C11_22 
REMARK    6  A    between atoms: C11_22  and  C12_23 
ROOT
HETATM    1  C1  UNL     1      33.545  -3.746  66.825  1.00  0.00     0.148 C 
HETATM    2  N1  UNL     1      34.637  -3.172  67.546  1.00  0.00    -0.377 N 
ATOM      3  H1  UNL     1      34.465  -2.236  67.912  1.00  0.00     0.160 HD
HETATM    4  C2  UNL     1      35.784  -3.641  67.803  1.00  0.00     0.154 A 
HETATM    5  C3  UNL     1      36.260  -4.874  67.425  1.00  0.00     0.094 A 
HETATM    6  N2  UNL     1      35.416  -5.678  66.791  1.00  0.00    -0.348 N 
ATOM      7  H2  UNL     1      34.480  -5.340  66.569  1.00  0.00     0.167 HD
HETATM    8  C4  UNL     1      35.760  -6.924  66.434  1.00  0.00     0.182 A 
HETATM    9  N3  UNL     1      36.993  -7.372  66.726  1.00  0.00    -0.338 N 
ATOM     10  H3  UNL     1      37.252  -8.321  66.455  1.00  0.00     0.168 HD
HETATM   11  C5  UNL     1      37.904  -6.602  67.371  1.00  0.00     0.113 A 
HETATM   12  C6  UNL     1      37.556  -5.324  67.731  1.00  0.00     0.052 A 
HETATM   13  C7  UNL     1      38.431  -4.551  68.423  1.00  0.00     0.028 A 
HETATM   14  C13 UNL     1      37.868  -3.272  68.796  1.00  0.00     0.157 A 
HETATM   15  N6  UNL     1      38.034  -2.106  69.402  1.00  0.00    -0.268 N 
ATOM     16  H6  UNL     1      38.811  -1.678  69.905  1.00  0.00     0.190 HD
HETATM   17  N7  UNL     1      36.813  -1.709  69.106  1.00  0.00    -0.231 N 
ATOM     18  H7  UNL     1      36.248  -0.876  69.269  1.00  0.00     0.209 HD
HETATM   19  N8  UNL     1      36.650  -2.882  68.497  1.00  0.00    -0.205 N 
ENDROOT
BRANCH  13  20
HETATM   20  C8  UNL     1      39.686  -4.673  68.558  1.00  0.00     0.018 C 
HETATM   21  C9  UNL     1      41.039  -4.368  68.258  1.00  0.00     0.018 C 
BRANCH  21  22
HETATM   22  C10 UNL     1      41.856  -5.508  67.688  1.00  0.00     0.083 C 
BRANCH  22  23
HETATM   23  N5  UNL     1      42.236  -5.516  66.492  1.00  0.00    -0.398 N 
ATOM     24  H5  UNL     1      43.233  -5.474  66.281  1.00  0.00     0.158 HD
BRANCH  23  25
HETATM   25  C11 UNL     1      41.297  -5.585  65.426  1.00  0.00     0.134 C 
BRANCH  25  26
HETATM   26  C12 UNL     1      41.227  -6.957  64.801  1.00  0.00     0.134 C 
HETATM   27 CL1  UNL     1      41.964  -6.945  63.187  1.00  0.00    -0.129 Cl
ENDBRANCH  25  26
ENDBRANCH  23  25
ENDBRANCH  22  23
ENDBRANCH  21  22
ENDBRANCH  13  20
BRANCH  11  28
HETATM   28  N4  UNL     1      38.974  -7.160  67.683  1.00  0.00    -0.385 N 
ATOM     29  H42 UNL     1      39.326  -7.247  68.637  1.00  0.00     0.157 HD
ATOM     30  H41 UNL     1      39.475  -7.628  66.929  1.00  0.00     0.157 HD
ENDBRANCH  11  28
TORSDOF 6
ENDMDL
MODEL 5
REMARK VINA RESULT: -6.090019866      7.938      9.025
REMARK  6 active torsions:
REMARK  status: ('A' for Active; 'I' for Inactive)
REMARK    1  A    between atoms: C5_11  and  N4_12 
REMARK    2  A    between atoms: C7_16  and  C8_17 
REMARK    3  A    between atoms: C9_18  and  C10_19 
REMARK    4  A    between atoms: C10_19  and  N5_20 
REMARK    5  A    between atoms: N5_20  and  C11_22 
REMARK    6  A    between atoms: C11_22  and  C12_23 
ROOT
HETATM    1  C1  UNL     1      41.562  -7.448  62.891  1.00  0.00     0.148 C 
HETATM    2  N1  UNL     1      41.823  -6.897  64.183  1.00  0.00    -0.377 N 
ATOM      3  H1  UNL     1      42.620  -7.307  64.670  1.00  0.00     0.160 HD
HETATM    4  C2  UNL     1      41.223  -5.982  64.819  1.00  0.00     0.154 A 
HETATM    5  C3  UNL     1      40.127  -5.277  64.384  1.00  0.00     0.094 A 
HETATM    6  N2  UNL     1      39.697  -5.527  63.154  1.00  0.00    -0.348 N 
ATOM      7  H2  UNL     1      40.156  -6.254  62.606  1.00  0.00     0.167 HD
HETATM    8  C4  UNL     1      38.674  -4.851  62.611  1.00  0.00     0.182 A 
HETATM    9  N3  UNL     1      38.067  -3.892  63.331  1.00  0.00    -0.338 N 
ATOM     10  H3  UNL     1      37.290  -3.378  62.915  1.00  0.00     0.168 HD
HETATM   11  C5  UNL     1      38.456  -3.587  64.594  1.00  0.00     0.113 A 
HETATM   12  C6  UNL     1      39.498  -4.284  65.154  1.00  0.00     0.052 A 
HETATM   13  C7  UNL     1      39.939  -3.962  66.396  1.00  0.00     0.028 A 
HETATM   14  C13 UNL     1      41.097  -4.734  66.791  1.00  0.00     0.157 A 
HETATM   15  N6  UNL     1      42.013  -4.994  67.712  1.00  0.00    -0.268 N 
ATOM     16  H6  UNL     1      42.202  -4.621  68.643  1.00  0.00     0.190 HD
HETATM   17  N7  UNL     1      42.587  -5.919  66.970  1.00  0.00    -0.231 N 
ATOM     18  H7  UNL     1      43.381  -6.552  67.062  1.00  0.00     0.209 HD
HETATM   19  N8  UNL     1      41.665  -5.655  66.045  1.00  0.00    -0.205 N 
ENDROOT
BRANCH  13  20
HETATM   20  C8  UNL     1      39.363  -3.305  67.314  1.00  0.00     0.018 C 
HETATM   21  C9  UNL     1      38.681  -3.167  68.552  1.00  0.00     0.018 C 
BRANCH  21  22
HETATM   22  C10 UNL     1      37.269  -2.630  68.465  1.00  0.00     0.083 C 
BRANCH  22  23
HETATM   23  N5  UNL     1      36.950  -1.522  68.960  1.00  0.00    -0.398 N 
ATOM     24  H5  UNL     1      36.064  -1.091  68.698  1.00  0.00     0.158 HD
BRANCH  23  25
HETATM   25  C11 UNL     1      37.807  -0.859  69.880  1.00  0.00     0.134 C 
BRANCH  25  26
HETATM   26  C12 UNL     1      37.701   0.645  69.792  1.00  0.00     0.134 C 
HETATM   27 CL1  UNL     1      38.777   1.416  70.975  1.00  0.00    -0.129 Cl
ENDBRANCH  25  26
ENDBRANCH  23  25
ENDBRANCH  22  23
ENDBRANCH  21  22
ENDBRANCH  13  20
BRANCH  11  28
HETATM   28  N4  UNL     1      37.892  -2.610  65.122  1.00  0.00    -0.385 N 
ATOM     29  H42 UNL     1      37.510  -1.814  64.611  1.00  0.00     0.157 HD
ATOM     30  H41 UNL     1      37.737  -2.668  66.129  1.00  0.00     0.157 HD
ENDBRANCH  11  28
TORSDOF 6
ENDMDL
