MODEL 1
REMARK VINA RESULT: -6.966573463      0.000      0.000
REMARK  6 active torsions:
REMARK  status: ('A' for Active; 'I' for Inactive)
REMARK    1  A    between atoms: C3_3  and  N1_4 
REMARK    2  A    between atoms: N2_6  and  C5_8 
REMARK    3  A    between atoms: C5_8  and  C6_9 
REMARK    4  A    between atoms: C6_9  and  C7_10 
REMARK       I    between atoms: C7_10  and  N3_12 
REMARK    5  A    between atoms: N3_12  and  N4_14 
REMARK    6  A    between atoms: N6_22  and  O2_23 
ROOT
HETATM    1  C1  UNL     1      40.642  -8.453  64.614  1.00  0.00     0.014 C 
HETATM    2  C2  UNL     1      40.386  -7.752  65.561  1.00  0.00    -0.097 C 
HETATM    3  C3  UNL     1      40.088  -6.890  66.732  1.00  0.00     0.242 C 
ENDROOT
BRANCH   3   4
HETATM    4  N1  UNL     1      38.685  -6.578  66.788  1.00  0.00    -0.155 N 
HETATM    5  C4  UNL     1      38.033  -5.492  66.364  1.00  0.00     0.683 A 
HETATM    6  N2  UNL     1      38.423  -4.424  65.765  1.00  0.00    -0.225 N 
HETATM    7  N5  UNL     1      36.696  -5.670  66.669  1.00  0.00    -0.185 N 
ATOM      8  H2  UNL     1      37.686  -3.747  65.563  1.00  0.00     0.177 HD
HETATM    9  C8  UNL     1      36.540  -6.839  67.264  1.00  0.00     0.135 A 
ATOM     10  H5  UNL     1      35.949  -5.004  66.468  1.00  0.00     0.184 HD
HETATM   11  C9  UNL     1      35.434  -7.502  67.767  1.00  0.00     0.166 A 
HETATM   12  C11 UNL     1      37.768  -7.428  67.351  1.00  0.00     0.158 A 
HETATM   13 CL1  UNL     1      33.826  -6.788  67.681  1.00  0.00    -0.059 Cl
HETATM   14  N6  UNL     1      35.618  -8.704  68.324  1.00  0.00    -0.181 N 
HETATM   15  C10 UNL     1      36.829  -9.295  68.413  1.00  0.00     0.222 A 
HETATM   16  N7  UNL     1      37.018 -10.564  69.001  1.00  0.00    -0.061 NA
HETATM   17  N8  UNL     1      37.902  -8.647  67.922  1.00  0.00    -0.312 N 
ATOM     18  H8  UNL     1      38.824  -9.079  67.982  1.00  0.00     0.170 HD
BRANCH   6  19
HETATM   19  C5  UNL     1      39.709  -4.047  65.347  1.00  0.00     0.147 C 
BRANCH  19  20
HETATM   20  C6  UNL     1      39.564  -2.709  64.580  1.00  0.00     0.124 C 
BRANCH  20  21
HETATM   21  C7  UNL     1      38.645  -2.919  63.441  1.00  0.00     0.237 C 
HETATM   22  O1  UNL     1      38.727  -3.994  62.797  1.00  0.00    -0.272 OA
HETATM   23  N3  UNL     1      37.677  -1.972  63.042  1.00  0.00    -0.277 N 
ATOM     24  H3  UNL     1      37.593  -1.093  63.552  1.00  0.00     0.189 HD
BRANCH  23  25
HETATM   25  N4  UNL     1      36.835  -2.222  61.960  1.00  0.00    -0.343 N 
ATOM     26  H42 UNL     1      37.228  -2.192  61.019  1.00  0.00     0.176 HD
ATOM     27  H41 UNL     1      35.847  -2.430  62.103  1.00  0.00     0.176 HD
ENDBRANCH  23  25
ENDBRANCH  20  21
ENDBRANCH  19  20
ENDBRANCH   6  19
BRANCH  14  28
HETATM   28  O2  UNL     1      34.558  -9.436  68.852  1.00  0.00    -0.279 OA
ATOM     29  H2  UNL     1      34.508  -9.647  69.778  1.00  0.00     0.245 HD
ENDBRANCH  14  28
ENDBRANCH   3   4
TORSDOF 6
ENDMDL
MODEL 2
REMARK VINA RESULT: -6.807682289      1.773      2.686
REMARK  6 active torsions:
REMARK  status: ('A' for Active; 'I' for Inactive)
REMARK    1  A    between atoms: C3_3  and  N1_4 
REMARK    2  A    between atoms: N2_6  and  C5_8 
REMARK    3  A    between atoms: C5_8  and  C6_9 
REMARK    4  A    between atoms: C6_9  and  C7_10 
REMARK       I    between atoms: C7_10  and  N3_12 
REMARK    5  A    between atoms: N3_12  and  N4_14 
REMARK    6  A    between atoms: N6_22  and  O2_23 
ROOT
HETATM    1  C1  UNL     1      40.425  -9.059  64.115  1.00  0.00     0.014 C 
HETATM    2  C2  UNL     1      40.248  -8.307  65.040  1.00  0.00    -0.097 C 
HETATM    3  C3  UNL     1      40.046  -7.380  66.182  1.00  0.00     0.242 C 
ENDROOT
BRANCH   3   4
HETATM    4  N1  UNL     1      38.660  -7.012  66.297  1.00  0.00    -0.155 N 
HETATM    5  C4  UNL     1      38.012  -5.958  65.794  1.00  0.00     0.683 A 
HETATM    6  N2  UNL     1      38.388  -4.982  65.048  1.00  0.00    -0.225 N 
HETATM    7  N5  UNL     1      36.695  -6.049  66.210  1.00  0.00    -0.185 N 
ATOM      8  H2  UNL     1      37.658  -4.306  64.819  1.00  0.00     0.177 HD
HETATM    9  C8  UNL     1      36.549  -7.135  66.947  1.00  0.00     0.135 A 
ATOM     10  H5  UNL     1      35.956  -5.384  65.983  1.00  0.00     0.184 HD
HETATM   11  C9  UNL     1      35.463  -7.694  67.600  1.00  0.00     0.166 A 
HETATM   12  C11 UNL     1      37.762  -7.756  67.019  1.00  0.00     0.158 A 
HETATM   13 CL1  UNL     1      33.875  -6.934  67.541  1.00  0.00    -0.059 Cl
HETATM   14  N6  UNL     1      35.652  -8.829  68.280  1.00  0.00    -0.181 N 
HETATM   15  C10 UNL     1      36.849  -9.451  68.356  1.00  0.00     0.222 A 
HETATM   16  N7  UNL     1      37.042 -10.650  69.075  1.00  0.00    -0.061 NA
HETATM   17  N8  UNL     1      37.901  -8.905  67.719  1.00  0.00    -0.312 N 
ATOM     18  H8  UNL     1      38.812  -9.361  67.766  1.00  0.00     0.170 HD
BRANCH   6  19
HETATM   19  C5  UNL     1      39.650  -4.705  64.501  1.00  0.00     0.147 C 
BRANCH  19  20
HETATM   20  C6  UNL     1      40.197  -3.453  65.230  1.00  0.00     0.124 C 
BRANCH  20  21
HETATM   21  C7  UNL     1      40.643  -3.855  66.581  1.00  0.00     0.237 C 
HETATM   22  O1  UNL     1      39.926  -3.545  67.565  1.00  0.00    -0.272 OA
HETATM   23  N3  UNL     1      41.835  -4.573  66.822  1.00  0.00    -0.277 N 
ATOM     24  H3  UNL     1      42.431  -4.836  66.037  1.00  0.00     0.189 HD
BRANCH  23  25
HETATM   25  N4  UNL     1      42.208  -4.928  68.116  1.00  0.00    -0.343 N 
ATOM     26  H42 UNL     1      41.881  -4.353  68.893  1.00  0.00     0.176 HD
ATOM     27  H41 UNL     1      42.795  -5.744  68.288  1.00  0.00     0.176 HD
ENDBRANCH  23  25
ENDBRANCH  20  21
ENDBRANCH  19  20
ENDBRANCH   6  19
BRANCH  14  28
HETATM   28  O2  UNL     1      34.611  -9.455  68.963  1.00  0.00    -0.279 OA
ATOM     29  H2  UNL     1      34.412  -9.247  69.869  1.00  0.00     0.245 HD
ENDBRANCH  14  28
ENDBRANCH   3   4
TORSDOF 6
ENDMDL
MODEL 3
REMARK VINA RESULT: -6.741461748      3.389      5.318
REMARK  6 active torsions:
REMARK  status: ('A' for Active; 'I' for Inactive)
REMARK    1  A    between atoms: C3_3  and  N1_4 
REMARK    2  A    between atoms: N2_6  and  C5_8 
REMARK    3  A    between atoms: C5_8  and  C6_9 
REMARK    4  A    between atoms: C6_9  and  C7_10 
REMARK       I    between atoms: C7_10  and  N3_12 
REMARK    5  A    between atoms: N3_12  and  N4_14 
REMARK    6  A    between atoms: N6_22  and  O2_23 
ROOT
HETATM    1  C1  UNL     1      37.774  -1.742  69.383  1.00  0.00     0.014 C 
HETATM    2  C2  UNL     1      37.794  -2.244  68.288  1.00  0.00    -0.097 C 
HETATM    3  C3  UNL     1      37.823  -2.848  66.932  1.00  0.00     0.242 C 
ENDROOT
BRANCH   3   4
HETATM    4  N1  UNL     1      37.579  -4.264  67.002  1.00  0.00    -0.155 N 
HETATM    5  C4  UNL     1      38.442  -5.283  66.967  1.00  0.00     0.683 A 
HETATM    6  N2  UNL     1      39.724  -5.333  66.893  1.00  0.00    -0.225 N 
HETATM    7  N5  UNL     1      37.703  -6.449  67.046  1.00  0.00    -0.185 N 
ATOM      8  H2  UNL     1      40.120  -6.273  66.881  1.00  0.00     0.177 HD
HETATM    9  C8  UNL     1      36.420  -6.144  67.128  1.00  0.00     0.135 A 
ATOM     10  H5  UNL     1      38.088  -7.395  67.041  1.00  0.00     0.184 HD
HETATM   11  C9  UNL     1      35.272  -6.912  67.226  1.00  0.00     0.166 A 
HETATM   12  C11 UNL     1      36.314  -4.784  67.102  1.00  0.00     0.158 A 
HETATM   13 CL1  UNL     1      35.352  -8.671  67.263  1.00  0.00    -0.059 Cl
HETATM   14  N6  UNL     1      34.095  -6.280  67.292  1.00  0.00    -0.181 N 
HETATM   15  C10 UNL     1      33.980  -4.934  67.268  1.00  0.00     0.222 A 
HETATM   16  N7  UNL     1      32.736  -4.273  67.338  1.00  0.00    -0.061 NA
HETATM   17  N8  UNL     1      35.099  -4.192  67.173  1.00  0.00    -0.312 N 
ATOM     18  H8  UNL     1      35.031  -3.175  67.153  1.00  0.00     0.170 HD
BRANCH   6  19
HETATM   19  C5  UNL     1      40.661  -4.290  66.825  1.00  0.00     0.147 C 
BRANCH  19  20
HETATM   20  C6  UNL     1      41.269  -4.132  68.240  1.00  0.00     0.124 C 
BRANCH  20  21
HETATM   21  C7  UNL     1      42.356  -5.122  68.397  1.00  0.00     0.237 C 
HETATM   22  O1  UNL     1      42.269  -6.208  67.773  1.00  0.00    -0.272 OA
HETATM   23  N3  UNL     1      43.488  -4.906  69.213  1.00  0.00    -0.277 N 
ATOM     24  H3  UNL     1      43.578  -4.030  69.727  1.00  0.00     0.189 HD
BRANCH  23  25
HETATM   25  N4  UNL     1      44.484  -5.874  69.323  1.00  0.00    -0.343 N 
ATOM     26  H42 UNL     1      44.215  -6.823  69.585  1.00  0.00     0.176 HD
ATOM     27  H41 UNL     1      45.461  -5.642  69.148  1.00  0.00     0.176 HD
ENDBRANCH  23  25
ENDBRANCH  20  21
ENDBRANCH  19  20
ENDBRANCH   6  19
BRANCH  14  28
HETATM   28  O2  UNL     1      32.894  -6.979  67.393  1.00  0.00    -0.279 OA
ATOM     29  H2  UNL     1      32.577  -7.309  68.226  1.00  0.00     0.245 HD
ENDBRANCH  14  28
ENDBRANCH   3   4
TORSDOF 6
ENDMDL
MODEL 4
REMARK VINA RESULT: -6.668807549      4.304      6.175
REMARK  6 active torsions:
REMARK  status: ('A' for Active; 'I' for Inactive)
REMARK    1  A    between atoms: C3_3  and  N1_4 
REMARK    2  A    between atoms: N2_6  and  C5_8 
REMARK    3  A    between atoms: C5_8  and  C6_9 
REMARK    4  A    between atoms: C6_9  and  C7_10 
REMARK       I    between atoms: C7_10  and  N3_12 
REMARK    5  A    between atoms: N3_12  and  N4_14 
REMARK    6  A    between atoms: N6_22  and  O2_23 
ROOT
HETATM    1  C1  UNL     1      37.615  -0.162  69.495  1.00  0.00     0.014 C 
HETATM    2  C2  UNL     1      37.675  -1.365  69.456  1.00  0.00    -0.097 C 
HETATM    3  C3  UNL     1      37.756  -2.847  69.423  1.00  0.00     0.242 C 
ENDROOT
BRANCH   3   4
HETATM    4  N1  UNL     1      37.152  -3.361  68.223  1.00  0.00    -0.155 N 
HETATM    5  C4  UNL     1      37.724  -3.883  67.135  1.00  0.00     0.683 A 
HETATM    6  N2  UNL     1      38.949  -4.115  66.824  1.00  0.00    -0.225 N 
HETATM    7  N5  UNL     1      36.709  -4.208  66.253  1.00  0.00    -0.185 N 
ATOM      8  H2  UNL     1      39.091  -4.528  65.902  1.00  0.00     0.177 HD
HETATM    9  C8  UNL     1      35.547  -3.892  66.797  1.00  0.00     0.135 A 
ATOM     10  H5  UNL     1      36.837  -4.626  65.331  1.00  0.00     0.184 HD
HETATM   11  C9  UNL     1      34.238  -4.003  66.358  1.00  0.00     0.166 A 
HETATM   12  C11 UNL     1      35.795  -3.360  68.029  1.00  0.00     0.158 A 
HETATM   13 CL1  UNL     1      33.862  -4.682  64.776  1.00  0.00    -0.059 Cl
HETATM   14  N6  UNL     1      33.263  -3.579  67.168  1.00  0.00    -0.181 N 
HETATM   15  C10 UNL     1      33.499  -3.052  68.389  1.00  0.00     0.222 A 
HETATM   16  N7  UNL     1      32.465  -2.606  69.241  1.00  0.00    -0.061 NA
HETATM   17  N8  UNL     1      34.772  -2.946  68.812  1.00  0.00    -0.312 N 
ATOM     18  H8  UNL     1      34.968  -2.550  69.732  1.00  0.00     0.170 HD
BRANCH   6  19
HETATM   19  C5  UNL     1      40.121  -3.888  67.562  1.00  0.00     0.147 C 
BRANCH  19  20
HETATM   20  C6  UNL     1      41.041  -5.114  67.344  1.00  0.00     0.124 C 
BRANCH  20  21
HETATM   21  C7  UNL     1      42.187  -5.012  68.272  1.00  0.00     0.237 C 
HETATM   22  O1  UNL     1      42.258  -4.009  69.026  1.00  0.00    -0.272 OA
HETATM   23  N3  UNL     1      43.205  -5.986  68.356  1.00  0.00    -0.277 N 
ATOM     24  H3  UNL     1      43.166  -6.809  67.754  1.00  0.00     0.189 HD
BRANCH  23  25
HETATM   25  N4  UNL     1      44.263  -5.840  69.251  1.00  0.00    -0.343 N 
ATOM     26  H42 UNL     1      44.091  -5.365  70.137  1.00  0.00     0.176 HD
ATOM     27  H41 UNL     1      45.192  -6.198  69.027  1.00  0.00     0.176 HD
ENDBRANCH  23  25
ENDBRANCH  20  21
ENDBRANCH  19  20
ENDBRANCH   6  19
BRANCH  14  28
HETATM   28  O2  UNL     1      31.921  -3.656  66.802  1.00  0.00    -0.279 OA
ATOM     29  H2  UNL     1      31.276  -3.043  67.136  1.00  0.00     0.245 HD
ENDBRANCH  14  28
ENDBRANCH   3   4
TORSDOF 6
ENDMDL
MODEL 5
REMARK VINA RESULT: -6.651408055      3.272      5.326
REMARK  6 active torsions:
REMARK  status: ('A' for Active; 'I' for Inactive)
REMARK    1  A    between atoms: C3_3  and  N1_4 
REMARK    2  A    between atoms: N2_6  and  C5_8 
REMARK    3  A    between atoms: C5_8  and  C6_9 
REMARK    4  A    between atoms: C6_9  and  C7_10 
REMARK       I    between atoms: C7_10  and  N3_12 
REMARK    5  A    between atoms: N3_12  and  N4_14 
REMARK    6  A    between atoms: N6_22  and  O2_23 
ROOT
HETATM    1  C1  UNL     1      38.667  -1.932  64.416  1.00  0.00     0.014 C 
HETATM    2  C2  UNL     1      38.414  -2.268  65.546  1.00  0.00    -0.097 C 
HETATM    3  C3  UNL     1      38.106  -2.667  66.942  1.00  0.00     0.242 C 
ENDROOT
BRANCH   3   4
HETATM    4  N1  UNL     1      37.675  -4.038  66.995  1.00  0.00    -0.155 N 
HETATM    5  C4  UNL     1      38.395  -5.162  66.957  1.00  0.00     0.683 A 
HETATM    6  N2  UNL     1      39.660  -5.382  66.894  1.00  0.00    -0.225 N 
HETATM    7  N5  UNL     1      37.508  -6.221  67.017  1.00  0.00    -0.185 N 
ATOM      8  H2  UNL     1      39.928  -6.366  66.876  1.00  0.00     0.177 HD
HETATM    9  C8  UNL     1      36.276  -5.749  67.091  1.00  0.00     0.135 A 
ATOM     10  H5  UNL     1      37.763  -7.209  67.006  1.00  0.00     0.184 HD
HETATM   11  C9  UNL     1      35.035  -6.358  67.171  1.00  0.00     0.166 A 
HETATM   12  C11 UNL     1      36.352  -4.387  67.079  1.00  0.00     0.158 A 
HETATM   13 CL1  UNL     1      34.880  -8.113  67.191  1.00  0.00    -0.059 Cl
HETATM   14  N6  UNL     1      33.952  -5.576  67.233  1.00  0.00    -0.181 N 
HETATM   15  C10 UNL     1      34.017  -4.227  67.223  1.00  0.00     0.222 A 
HETATM   16  N7  UNL     1      32.870  -3.407  67.288  1.00  0.00    -0.061 NA
HETATM   17  N8  UNL     1      35.225  -3.640  67.145  1.00  0.00    -0.312 N 
ATOM     18  H8  UNL     1      35.293  -2.622  67.135  1.00  0.00     0.170 HD
BRANCH   6  19
HETATM   19  C5  UNL     1      40.728  -4.472  66.845  1.00  0.00     0.147 C 
BRANCH  19  20
HETATM   20  C6  UNL     1      41.295  -4.359  68.281  1.00  0.00     0.124 C 
BRANCH  20  21
HETATM   21  C7  UNL     1      42.441  -5.285  68.408  1.00  0.00     0.237 C 
HETATM   22  O1  UNL     1      42.396  -6.379  67.792  1.00  0.00    -0.272 OA
HETATM   23  N3  UNL     1      43.585  -5.000  69.184  1.00  0.00    -0.277 N 
ATOM     24  H3  UNL     1      43.642  -4.117  69.690  1.00  0.00     0.189 HD
BRANCH  23  25
HETATM   25  N4  UNL     1      44.637  -5.909  69.267  1.00  0.00    -0.343 N 
ATOM     26  H42 UNL     1      45.530  -5.663  68.840  1.00  0.00     0.176 HD
ATOM     27  H41 UNL     1      44.521  -6.803  69.744  1.00  0.00     0.176 HD
ENDBRANCH  23  25
ENDBRANCH  20  21
ENDBRANCH  19  20
ENDBRANCH   6  19
BRANCH  14  28
HETATM   28  O2  UNL     1      32.668  -6.110  67.317  1.00  0.00    -0.279 OA
ATOM     29  H2  UNL     1      32.286  -6.606  66.602  1.00  0.00     0.245 HD
ENDBRANCH  14  28
ENDBRANCH   3   4
TORSDOF 6
ENDMDL
