MODEL 1
REMARK VINA RESULT: -6.107007458      0.000      0.000
REMARK  8 active torsions:
REMARK  status: ('A' for Active; 'I' for Inactive)
REMARK    1  A    between atoms: C3_6  and  C4_7 
REMARK    2  A    between atoms: C4_7  and  N2_8 
REMARK    3  A    between atoms: N2_8  and  C5_10 
REMARK    4  A    between atoms: C5_10  and  C6_11 
REMARK    5  A    between atoms: C6_11  and  N3_12 
REMARK    6  A    between atoms: N3_12  and  C7_15 
REMARK    7  A    between atoms: C7_15  and  C8_16 
REMARK    8  A    between atoms: C8_16  and  N4_17 
ROOT
HETATM    1  C6  UNL     1      -7.781  34.623 -25.656  1.00  0.00     0.251 C 
ENDROOT
BRANCH   1   2
HETATM    2  C5  UNL     1      -6.362  34.198 -25.466  1.00  0.00     0.141 C 
BRANCH   2   3
HETATM    3  N2  UNL     1      -5.442  35.269 -25.572  1.00  0.00    -0.418 N 
ATOM      4  H2  UNL     1      -5.002  35.520 -26.457  1.00  0.00     0.153 HD
BRANCH   3   5
HETATM    5  C4  UNL     1      -5.166  35.976 -24.354  1.00  0.00     0.146 C 
BRANCH   5   6
HETATM    6  C3  UNL     1      -5.632  37.435 -24.518  1.00  0.00     0.203 C 
HETATM    7  N1  UNL     1      -5.882  37.802 -25.881  1.00  0.00    -0.069 N 
HETATM    8  C2  UNL     1      -6.919  38.780 -25.883  1.00  0.00     0.233 C 
ATOM      9  H12 UNL     1      -6.092  36.999 -26.475  1.00  0.00     0.277 HD
ATOM     10  H11 UNL     1      -5.041  38.114 -26.368  1.00  0.00     0.277 HD
HETATM   11  C1  UNL     1      -7.372  38.964 -24.475  1.00  0.00     0.029 C 
HETATM   12  C13 UNL     1      -6.956  37.647 -23.806  1.00  0.00     0.036 C 
ENDBRANCH   5   6
ENDBRANCH   3   5
ENDBRANCH   2   3
ENDBRANCH   1   2
BRANCH   1  13
HETATM   13  N3  UNL     1      -8.601  33.404 -25.511  1.00  0.00    -0.069 N 
ATOM     14  H32 UNL     1      -8.092  32.575 -25.819  1.00  0.00     0.277 HD
ATOM     15  H31 UNL     1      -8.730  33.156 -24.531  1.00  0.00     0.277 HD
BRANCH  13  16
HETATM   16  C7  UNL     1      -9.857  33.528 -26.189  1.00  0.00     0.276 C 
BRANCH  16  17
HETATM   17  C8  UNL     1      -9.792  34.301 -27.468  1.00  0.00     0.085 C 
BRANCH  17  18
HETATM   18  N4  UNL     1     -10.796  35.261 -27.603  1.00  0.00    -0.388 N 
HETATM   19  C9  UNL     1     -10.552  36.488 -28.230  1.00  0.00     0.148 C 
HETATM   20  C10 UNL     1     -11.010  37.613 -27.281  1.00  0.00     0.187 C 
HETATM   21  O1  UNL     1     -12.350  37.542 -27.058  1.00  0.00    -0.388 OA
HETATM   22  C11 UNL     1     -12.827  36.247 -26.864  1.00  0.00     0.187 C 
HETATM   23  C12 UNL     1     -11.683  35.342 -26.452  1.00  0.00     0.148 C 
ENDBRANCH  17  18
ENDBRANCH  16  17
ENDBRANCH  13  16
ENDBRANCH   1  13
TORSDOF 8
ENDMDL
MODEL 2
REMARK VINA RESULT: -6.099399941      2.096      5.362
REMARK  8 active torsions:
REMARK  status: ('A' for Active; 'I' for Inactive)
REMARK    1  A    between atoms: C3_6  and  C4_7 
REMARK    2  A    between atoms: C4_7  and  N2_8 
REMARK    3  A    between atoms: N2_8  and  C5_10 
REMARK    4  A    between atoms: C5_10  and  C6_11 
REMARK    5  A    between atoms: C6_11  and  N3_12 
REMARK    6  A    between atoms: N3_12  and  C7_15 
REMARK    7  A    between atoms: C7_15  and  C8_16 
REMARK    8  A    between atoms: C8_16  and  N4_17 
ROOT
HETATM    1  C6  UNL     1     -10.002  33.627 -25.764  1.00  0.00     0.251 C 
ENDROOT
BRANCH   1   2
HETATM    2  C5  UNL     1     -10.055  33.415 -27.241  1.00  0.00     0.141 C 
BRANCH   2   3
HETATM    3  N2  UNL     1     -10.419  34.581 -27.957  1.00  0.00    -0.418 N 
ATOM      4  H2  UNL     1      -9.804  35.006 -28.651  1.00  0.00     0.153 HD
BRANCH   3   5
HETATM    5  C4  UNL     1     -11.708  35.127 -27.644  1.00  0.00     0.146 C 
BRANCH   5   6
HETATM    6  C3  UNL     1     -11.555  36.640 -27.398  1.00  0.00     0.203 C 
HETATM    7  N1  UNL     1     -12.036  37.058 -26.115  1.00  0.00    -0.069 N 
HETATM    8  C2  UNL     1     -11.251  38.175 -25.701  1.00  0.00     0.233 C 
ATOM      9  H12 UNL     1     -12.044  36.303 -25.429  1.00  0.00     0.277 HD
ATOM     10  H11 UNL     1     -13.037  37.255 -26.111  1.00  0.00     0.277 HD
HETATM   11  C1  UNL     1     -10.203  38.400 -26.735  1.00  0.00     0.029 C 
HETATM   12  C13 UNL     1     -10.087  37.028 -27.412  1.00  0.00     0.036 C 
ENDBRANCH   5   6
ENDBRANCH   3   5
ENDBRANCH   2   3
ENDBRANCH   1   2
BRANCH   1  13
HETATM   13  N3  UNL     1      -8.628  33.283 -25.346  1.00  0.00    -0.069 N 
ATOM     14  H32 UNL     1      -8.503  33.403 -24.341  1.00  0.00     0.277 HD
ATOM     15  H31 UNL     1      -8.460  32.279 -25.408  1.00  0.00     0.277 HD
BRANCH  13  16
HETATM   16  C7  UNL     1      -7.651  34.022 -26.087  1.00  0.00     0.276 C 
BRANCH  16  17
HETATM   17  C8  UNL     1      -6.385  34.293 -25.337  1.00  0.00     0.085 C 
BRANCH  17  18
HETATM   18  N4  UNL     1      -6.363  35.527 -24.686  1.00  0.00    -0.388 N 
HETATM   19  C9  UNL     1      -7.167  36.590 -25.111  1.00  0.00     0.148 C 
HETATM   20  C10 UNL     1      -6.265  37.824 -25.313  1.00  0.00     0.187 C 
HETATM   21  O1  UNL     1      -5.695  38.204 -24.138  1.00  0.00    -0.388 OA
HETATM   22  C11 UNL     1      -5.238  37.144 -23.357  1.00  0.00     0.187 C 
HETATM   23  C12 UNL     1      -5.037  35.921 -24.231  1.00  0.00     0.148 C 
ENDBRANCH  17  18
ENDBRANCH  16  17
ENDBRANCH  13  16
ENDBRANCH   1  13
TORSDOF 8
ENDMDL
MODEL 3
REMARK VINA RESULT: -6.095719237      1.070      1.384
REMARK  8 active torsions:
REMARK  status: ('A' for Active; 'I' for Inactive)
REMARK    1  A    between atoms: C3_6  and  C4_7 
REMARK    2  A    between atoms: C4_7  and  N2_8 
REMARK    3  A    between atoms: N2_8  and  C5_10 
REMARK    4  A    between atoms: C5_10  and  C6_11 
REMARK    5  A    between atoms: C6_11  and  N3_12 
REMARK    6  A    between atoms: N3_12  and  C7_15 
REMARK    7  A    between atoms: C7_15  and  C8_16 
REMARK    8  A    between atoms: C8_16  and  N4_17 
ROOT
HETATM    1  C6  UNL     1      -7.900  34.642 -25.629  1.00  0.00     0.251 C 
ENDROOT
BRANCH   1   2
HETATM    2  C5  UNL     1      -6.474  34.202 -25.564  1.00  0.00     0.141 C 
BRANCH   2   3
HETATM    3  N2  UNL     1      -5.621  35.166 -24.975  1.00  0.00    -0.418 N 
ATOM      4  H2  UNL     1      -4.718  35.411 -25.380  1.00  0.00     0.153 HD
BRANCH   3   5
HETATM    5  C4  UNL     1      -6.109  35.777 -23.771  1.00  0.00     0.146 C 
BRANCH   5   6
HETATM    6  C3  UNL     1      -5.493  37.183 -23.649  1.00  0.00     0.203 C 
HETATM    7  N1  UNL     1      -4.060  37.174 -23.616  1.00  0.00    -0.069 N 
HETATM    8  C2  UNL     1      -3.606  38.387 -24.215  1.00  0.00     0.233 C 
ATOM      9  H12 UNL     1      -3.659  36.343 -24.050  1.00  0.00     0.277 HD
ATOM     10  H11 UNL     1      -3.686  37.031 -22.678  1.00  0.00     0.277 HD
HETATM   11  C1  UNL     1      -4.803  39.129 -24.698  1.00  0.00     0.029 C 
HETATM   12  C13 UNL     1      -5.852  38.021 -24.863  1.00  0.00     0.036 C 
ENDBRANCH   5   6
ENDBRANCH   3   5
ENDBRANCH   2   3
ENDBRANCH   1   2
BRANCH   1  13
HETATM   13  N3  UNL     1      -8.716  33.421 -25.474  1.00  0.00    -0.069 N 
ATOM     14  H32 UNL     1      -8.176  32.583 -25.686  1.00  0.00     0.277 HD
ATOM     15  H31 UNL     1      -8.923  33.233 -24.494  1.00  0.00     0.277 HD
BRANCH  13  16
HETATM   16  C7  UNL     1      -9.913  33.484 -26.258  1.00  0.00     0.276 C 
BRANCH  16  17
HETATM   17  C8  UNL     1      -9.800  34.324 -27.490  1.00  0.00     0.085 C 
BRANCH  17  18
HETATM   18  N4  UNL     1     -10.806  35.281 -27.620  1.00  0.00    -0.388 N 
HETATM   19  C9  UNL     1     -10.562  36.519 -28.226  1.00  0.00     0.148 C 
HETATM   20  C10 UNL     1     -11.035  37.627 -27.264  1.00  0.00     0.187 C 
HETATM   21  O1  UNL     1     -12.376  37.546 -27.054  1.00  0.00    -0.388 OA
HETATM   22  C11 UNL     1     -12.850  36.247 -26.886  1.00  0.00     0.187 C 
HETATM   23  C12 UNL     1     -11.705  35.340 -26.476  1.00  0.00     0.148 C 
ENDBRANCH  17  18
ENDBRANCH  16  17
ENDBRANCH  13  16
ENDBRANCH   1  13
TORSDOF 8
ENDMDL
MODEL 4
REMARK VINA RESULT: -6.079292602      2.144      5.467
REMARK  8 active torsions:
REMARK  status: ('A' for Active; 'I' for Inactive)
REMARK    1  A    between atoms: C3_6  and  C4_7 
REMARK    2  A    between atoms: C4_7  and  N2_8 
REMARK    3  A    between atoms: N2_8  and  C5_10 
REMARK    4  A    between atoms: C5_10  and  C6_11 
REMARK    5  A    between atoms: C6_11  and  N3_12 
REMARK    6  A    between atoms: N3_12  and  C7_15 
REMARK    7  A    between atoms: C7_15  and  C8_16 
REMARK    8  A    between atoms: C8_16  and  N4_17 
ROOT
HETATM    1  C6  UNL     1     -10.042  33.451 -25.814  1.00  0.00     0.251 C 
ENDROOT
BRANCH   1   2
HETATM    2  C5  UNL     1     -10.018  33.350 -27.304  1.00  0.00     0.141 C 
BRANCH   2   3
HETATM    3  N2  UNL     1     -10.357  34.564 -27.949  1.00  0.00    -0.418 N 
ATOM      4  H2  UNL     1      -9.719  35.034 -28.589  1.00  0.00     0.153 HD
BRANCH   3   5
HETATM    5  C4  UNL     1     -11.657  35.089 -27.645  1.00  0.00     0.146 C 
BRANCH   5   6
HETATM    6  C3  UNL     1     -11.532  36.605 -27.408  1.00  0.00     0.203 C 
HETATM    7  N1  UNL     1     -12.047  37.026 -26.139  1.00  0.00    -0.069 N 
HETATM    8  C2  UNL     1     -11.288  38.158 -25.717  1.00  0.00     0.233 C 
ATOM      9  H12 UNL     1     -12.059  36.276 -25.447  1.00  0.00     0.277 HD
ATOM     10  H11 UNL     1     -13.051  37.207 -26.158  1.00  0.00     0.277 HD
HETATM   11  C1  UNL     1     -10.222  38.391 -26.730  1.00  0.00     0.029 C 
HETATM   12  C13 UNL     1     -10.070  37.016 -27.394  1.00  0.00     0.036 C 
ENDBRANCH   5   6
ENDBRANCH   3   5
ENDBRANCH   2   3
ENDBRANCH   1   2
BRANCH   1  13
HETATM   13  N3  UNL     1      -8.637  33.352 -25.370  1.00  0.00    -0.069 N 
ATOM     14  H32 UNL     1      -8.576  33.154 -24.371  1.00  0.00     0.277 HD
ATOM     15  H31 UNL     1      -8.193  32.507 -25.727  1.00  0.00     0.277 HD
BRANCH  13  16
HETATM   16  C7  UNL     1      -7.890  34.523 -25.717  1.00  0.00     0.276 C 
BRANCH  16  17
HETATM   17  C8  UNL     1      -6.448  34.472 -25.324  1.00  0.00     0.085 C 
BRANCH  17  18
HETATM   18  N4  UNL     1      -5.862  35.727 -25.150  1.00  0.00    -0.388 N 
HETATM   19  C9  UNL     1      -4.777  35.911 -24.286  1.00  0.00     0.148 C 
HETATM   20  C10 UNL     1      -5.121  37.063 -23.321  1.00  0.00     0.187 C 
HETATM   21  O1  UNL     1      -5.289  38.229 -24.000  1.00  0.00    -0.388 OA
HETATM   22  C11 UNL     1      -6.002  38.098 -25.190  1.00  0.00     0.187 C 
HETATM   23  C12 UNL     1      -6.821  36.822 -25.151  1.00  0.00     0.148 C 
ENDBRANCH  17  18
ENDBRANCH  16  17
ENDBRANCH  13  16
ENDBRANCH   1  13
TORSDOF 8
ENDMDL
MODEL 5
REMARK VINA RESULT: -5.875975688      1.740      2.819
REMARK  8 active torsions:
REMARK  status: ('A' for Active; 'I' for Inactive)
REMARK    1  A    between atoms: C3_6  and  C4_7 
REMARK    2  A    between atoms: C4_7  and  N2_8 
REMARK    3  A    between atoms: N2_8  and  C5_10 
REMARK    4  A    between atoms: C5_10  and  C6_11 
REMARK    5  A    between atoms: C6_11  and  N3_12 
REMARK    6  A    between atoms: N3_12  and  C7_15 
REMARK    7  A    between atoms: C7_15  and  C8_16 
REMARK    8  A    between atoms: C8_16  and  N4_17 
ROOT
HETATM    1  C6  UNL     1      -9.222  33.335 -27.259  1.00  0.00     0.251 C 
ENDROOT
BRANCH   1   2
HETATM    2  C5  UNL     1      -8.987  33.700 -25.830  1.00  0.00     0.141 C 
BRANCH   2   3
HETATM    3  N2  UNL     1      -7.713  33.302 -25.357  1.00  0.00    -0.418 N 
ATOM      4  H2  UNL     1      -7.567  32.418 -24.872  1.00  0.00     0.153 HD
BRANCH   3   5
HETATM    5  C4  UNL     1      -6.641  34.224 -25.603  1.00  0.00     0.146 C 
BRANCH   5   6
HETATM    6  C3  UNL     1      -6.791  35.420 -24.645  1.00  0.00     0.203 C 
HETATM    7  N1  UNL     1      -6.005  35.295 -23.453  1.00  0.00    -0.069 N 
HETATM    8  C2  UNL     1      -5.633  36.609 -23.040  1.00  0.00     0.233 C 
ATOM      9  H12 UNL     1      -5.204  34.674 -23.570  1.00  0.00     0.277 HD
ATOM     10  H11 UNL     1      -6.479  34.767 -22.719  1.00  0.00     0.277 HD
HETATM   11  C1  UNL     1      -6.148  37.566 -24.058  1.00  0.00     0.029 C 
HETATM   12  C13 UNL     1      -6.296  36.692 -25.310  1.00  0.00     0.036 C 
ENDBRANCH   5   6
ENDBRANCH   3   5
ENDBRANCH   2   3
ENDBRANCH   1   2
BRANCH   1  13
HETATM   13  N3  UNL     1     -10.513  33.946 -27.634  1.00  0.00    -0.069 N 
ATOM     14  H32 UNL     1     -10.964  33.429 -28.389  1.00  0.00     0.277 HD
ATOM     15  H31 UNL     1     -11.214  33.810 -26.907  1.00  0.00     0.277 HD
BRANCH  13  16
HETATM   16  C7  UNL     1     -10.365  35.331 -27.966  1.00  0.00     0.276 C 
BRANCH  16  17
HETATM   17  C8  UNL     1     -11.525  36.187 -27.567  1.00  0.00     0.085 C 
BRANCH  17  18
HETATM   18  N4  UNL     1     -11.179  37.278 -26.769  1.00  0.00    -0.388 N 
HETATM   19  C9  UNL     1     -11.759  38.537 -26.964  1.00  0.00     0.148 C 
HETATM   20  C10 UNL     1     -10.625  39.572 -27.103  1.00  0.00     0.187 C 
HETATM   21  O1  UNL     1      -9.893  39.646 -25.959  1.00  0.00    -0.388 OA
HETATM   22  C11 UNL     1      -9.623  38.410 -25.375  1.00  0.00     0.187 C 
HETATM   23  C12 UNL     1      -9.767  37.316 -26.416  1.00  0.00     0.148 C 
ENDBRANCH  17  18
ENDBRANCH  16  17
ENDBRANCH  13  16
ENDBRANCH   1  13
TORSDOF 8
ENDMDL
