MODEL 1
REMARK VINA RESULT: -6.714284170      0.000      0.000
REMARK  9 active torsions:
REMARK  status: ('A' for Active; 'I' for Inactive)
REMARK    1  A    between atoms: N1_1  and  C1_5 
REMARK    2  A    between atoms: N2_7  and  C3_8 
REMARK    3  A    between atoms: C3_8  and  C4_9 
REMARK    4  A    between atoms: C4_9  and  C5_10 
REMARK    5  A    between atoms: C5_10  and  C6_11 
REMARK    6  A    between atoms: C6_11  and  N3_12 
REMARK    7  A    between atoms: N3_12  and  C7_15 
REMARK    8  A    between atoms: C7_15  and  C8_16 
REMARK    9  A    between atoms: C8_16  and  C9_17 
ROOT
HETATM    1  C5  UNL     1      -9.833  38.421 -26.447  1.00  0.00     0.029 C 
ENDROOT
BRANCH   1   2
HETATM    2  C4  UNL     1      -8.758  38.223 -25.406  1.00  0.00     0.032 C 
BRANCH   2   3
HETATM    3  C3  UNL     1      -7.421  38.078 -26.106  1.00  0.00     0.273 C 
BRANCH   3   4
HETATM    4  N2  UNL     1      -6.503  37.483 -25.208  1.00  0.00     0.098 N 
HETATM    5  C2  UNL     1      -6.227  36.105 -25.408  1.00  0.00     0.313 C 
HETATM    6  C1  UNL     1      -5.259  35.814 -24.284  1.00  0.00     0.282 C 
HETATM    7  C13 UNL     1      -5.701  36.757 -23.227  1.00  0.00     0.187 C 
HETATM    8  C12 UNL     1      -6.832  37.572 -23.818  1.00  0.00     0.352 C 
HETATM    9  O1  UNL     1      -5.237  36.843 -22.118  1.00  0.00    -0.294 OA
BRANCH   6  10
HETATM   10  N1  UNL     1      -3.941  36.179 -24.764  1.00  0.00    -0.067 N 
ATOM     11  H13 UNL     1      -3.185  35.714 -24.261  1.00  0.00     0.275 HD
ATOM     12  H12 UNL     1      -3.730  35.803 -25.688  1.00  0.00     0.275 HD
ATOM     13  H11 UNL     1      -3.886  37.197 -24.722  1.00  0.00     0.275 HD
ENDBRANCH   6  10
ENDBRANCH   3   4
ENDBRANCH   2   3
ENDBRANCH   1   2
BRANCH   1  14
HETATM   14  C6  UNL     1     -11.203  38.179 -25.890  1.00  0.00     0.232 C 
BRANCH  14  15
HETATM   15  N3  UNL     1     -12.119  37.548 -26.796  1.00  0.00    -0.075 N 
ATOM     16  H32 UNL     1     -13.044  37.976 -26.752  1.00  0.00     0.277 HD
ATOM     17  H31 UNL     1     -11.893  37.763 -27.767  1.00  0.00     0.277 HD
BRANCH  15  18
HETATM   18  C7  UNL     1     -12.182  36.136 -26.570  1.00  0.00     0.238 C 
BRANCH  18  19
HETATM   19  C8  UNL     1     -11.616  35.377 -27.771  1.00  0.00     0.086 C 
BRANCH  19  20
HETATM   20  C9  UNL     1     -10.535  34.507 -27.238  1.00  0.00     0.027 A 
HETATM   21  C10 UNL     1     -10.213  33.224 -27.639  1.00  0.00     0.114 A 
HETATM   22  N4  UNL     1      -9.173  32.803 -26.896  1.00  0.00    -0.360 N 
HETATM   23  C11 UNL     1      -8.817  33.768 -26.034  1.00  0.00     0.180 A 
ATOM     24  H4  UNL     1      -8.725  31.890 -26.976  1.00  0.00     0.166 HD
HETATM   25  N5  UNL     1      -9.666  34.811 -26.258  1.00  0.00    -0.355 N 
ATOM     26  H5  UNL     1      -9.645  35.698 -25.753  1.00  0.00     0.166 HD
ENDBRANCH  19  20
ENDBRANCH  18  19
ENDBRANCH  15  18
ENDBRANCH  14  15
ENDBRANCH   1  14
TORSDOF 9
ENDMDL
MODEL 2
REMARK VINA RESULT: -6.692349104      2.189      5.925
REMARK  9 active torsions:
REMARK  status: ('A' for Active; 'I' for Inactive)
REMARK    1  A    between atoms: N1_1  and  C1_5 
REMARK    2  A    between atoms: N2_7  and  C3_8 
REMARK    3  A    between atoms: C3_8  and  C4_9 
REMARK    4  A    between atoms: C4_9  and  C5_10 
REMARK    5  A    between atoms: C5_10  and  C6_11 
REMARK    6  A    between atoms: C6_11  and  N3_12 
REMARK    7  A    between atoms: N3_12  and  C7_15 
REMARK    8  A    between atoms: C7_15  and  C8_16 
REMARK    9  A    between atoms: C8_16  and  C9_17 
ROOT
HETATM    1  C5  UNL     1      -9.996  33.956 -27.454  1.00  0.00     0.029 C 
ENDROOT
BRANCH   1   2
HETATM    2  C4  UNL     1     -11.089  34.964 -27.719  1.00  0.00     0.032 C 
BRANCH   2   3
HETATM    3  C3  UNL     1     -10.452  36.284 -28.106  1.00  0.00     0.273 C 
BRANCH   3   4
HETATM    4  N2  UNL     1     -11.023  37.309 -27.315  1.00  0.00     0.098 N 
HETATM    5  C2  UNL     1     -10.803  38.641 -27.754  1.00  0.00     0.313 C 
HETATM    6  C1  UNL     1     -11.513  39.443 -26.686  1.00  0.00     0.282 C 
HETATM    7  C13 UNL     1     -11.357  38.586 -25.485  1.00  0.00     0.187 C 
HETATM    8  C12 UNL     1     -10.642  37.331 -25.937  1.00  0.00     0.352 C 
HETATM    9  O1  UNL     1     -11.734  38.855 -24.371  1.00  0.00    -0.294 OA
BRANCH   6  10
HETATM   10  N1  UNL     1     -12.907  39.513 -27.076  1.00  0.00    -0.067 N 
ATOM     11  H13 UNL     1     -13.512  39.888 -26.345  1.00  0.00     0.275 HD
ATOM     12  H12 UNL     1     -13.094  40.229 -27.777  1.00  0.00     0.275 HD
ATOM     13  H11 UNL     1     -13.174  38.575 -27.377  1.00  0.00     0.275 HD
ENDBRANCH   6  10
ENDBRANCH   3   4
ENDBRANCH   2   3
ENDBRANCH   1   2
BRANCH   1  14
HETATM   14  C6  UNL     1      -9.951  33.543 -26.014  1.00  0.00     0.232 C 
BRANCH  14  15
HETATM   15  N3  UNL     1      -8.634  33.441 -25.457  1.00  0.00    -0.075 N 
ATOM     16  H32 UNL     1      -8.663  33.168 -24.474  1.00  0.00     0.277 HD
ATOM     17  H31 UNL     1      -8.132  32.634 -25.828  1.00  0.00     0.277 HD
BRANCH  15  18
HETATM   18  C7  UNL     1      -7.895  34.652 -25.646  1.00  0.00     0.238 C 
BRANCH  18  19
HETATM   19  C8  UNL     1      -6.415  34.430 -25.332  1.00  0.00     0.086 C 
BRANCH  19  20
HETATM   20  C9  UNL     1      -5.944  35.673 -24.665  1.00  0.00     0.027 A 
HETATM   21  C10 UNL     1      -5.730  35.874 -23.315  1.00  0.00     0.114 A 
HETATM   22  N4  UNL     1      -5.308  37.140 -23.142  1.00  0.00    -0.360 N 
HETATM   23  C11 UNL     1      -5.244  37.758 -24.331  1.00  0.00     0.180 A 
ATOM     24  H4  UNL     1      -5.073  37.564 -22.244  1.00  0.00     0.166 HD
HETATM   25  N5  UNL     1      -5.639  36.840 -25.260  1.00  0.00    -0.355 N 
ATOM     26  H5  UNL     1      -5.695  37.014 -26.263  1.00  0.00     0.166 HD
ENDBRANCH  19  20
ENDBRANCH  18  19
ENDBRANCH  15  18
ENDBRANCH  14  15
ENDBRANCH   1  14
TORSDOF 9
ENDMDL
MODEL 3
REMARK VINA RESULT: -6.644535024      2.294      5.811
REMARK  9 active torsions:
REMARK  status: ('A' for Active; 'I' for Inactive)
REMARK    1  A    between atoms: N1_1  and  C1_5 
REMARK    2  A    between atoms: N2_7  and  C3_8 
REMARK    3  A    between atoms: C3_8  and  C4_9 
REMARK    4  A    between atoms: C4_9  and  C5_10 
REMARK    5  A    between atoms: C5_10  and  C6_11 
REMARK    6  A    between atoms: C6_11  and  N3_12 
REMARK    7  A    between atoms: N3_12  and  C7_15 
REMARK    8  A    between atoms: C7_15  and  C8_16 
REMARK    9  A    between atoms: C8_16  and  C9_17 
ROOT
HETATM    1  C5  UNL     1     -10.080  34.019 -27.329  1.00  0.00     0.029 C 
ENDROOT
BRANCH   1   2
HETATM    2  C4  UNL     1     -11.144  35.046 -27.631  1.00  0.00     0.032 C 
BRANCH   2   3
HETATM    3  C3  UNL     1     -10.471  36.347 -28.022  1.00  0.00     0.273 C 
BRANCH   3   4
HETATM    4  N2  UNL     1     -10.990  37.384 -27.211  1.00  0.00     0.098 N 
HETATM    5  C2  UNL     1     -10.724  38.712 -27.638  1.00  0.00     0.313 C 
HETATM    6  C1  UNL     1     -11.386  39.528 -26.550  1.00  0.00     0.282 C 
HETATM    7  C13 UNL     1     -11.247  38.651 -25.361  1.00  0.00     0.187 C 
HETATM    8  C12 UNL     1     -10.588  37.375 -25.838  1.00  0.00     0.352 C 
HETATM    9  O1  UNL     1     -11.597  38.921 -24.240  1.00  0.00    -0.294 OA
BRANCH   6  10
HETATM   10  N1  UNL     1     -12.782  39.657 -26.919  1.00  0.00    -0.067 N 
ATOM     11  H13 UNL     1     -13.086  40.626 -27.012  1.00  0.00     0.275 HD
ATOM     12  H12 UNL     1     -12.974  39.371 -27.878  1.00  0.00     0.275 HD
ATOM     13  H11 UNL     1     -13.317  39.132 -26.227  1.00  0.00     0.275 HD
ENDBRANCH   6  10
ENDBRANCH   3   4
ENDBRANCH   2   3
ENDBRANCH   1   2
BRANCH   1  14
HETATM   14  C6  UNL     1     -10.037  33.667 -25.873  1.00  0.00     0.232 C 
BRANCH  14  15
HETATM   15  N3  UNL     1      -8.743  33.293 -25.381  1.00  0.00    -0.075 N 
ATOM     16  H32 UNL     1      -8.701  33.343 -24.363  1.00  0.00     0.277 HD
ATOM     17  H31 UNL     1      -8.573  32.294 -25.496  1.00  0.00     0.277 HD
BRANCH  15  18
HETATM   18  C7  UNL     1      -7.711  34.076 -25.989  1.00  0.00     0.238 C 
BRANCH  18  19
HETATM   19  C8  UNL     1      -7.308  35.233 -25.073  1.00  0.00     0.086 C 
BRANCH  19  20
HETATM   20  C9  UNL     1      -5.821  35.260 -25.072  1.00  0.00     0.027 A 
HETATM   21  C10 UNL     1      -4.995  36.080 -24.327  1.00  0.00     0.114 A 
HETATM   22  N4  UNL     1      -3.720  35.777 -24.631  1.00  0.00    -0.360 N 
HETATM   23  C11 UNL     1      -3.698  34.793 -25.543  1.00  0.00     0.180 A 
ATOM     24  H4  UNL     1      -2.897  36.226 -24.229  1.00  0.00     0.166 HD
HETATM   25  N5  UNL     1      -5.001  34.486 -25.804  1.00  0.00    -0.355 N 
ATOM     26  H5  UNL     1      -5.310  33.770 -26.462  1.00  0.00     0.166 HD
ENDBRANCH  19  20
ENDBRANCH  18  19
ENDBRANCH  15  18
ENDBRANCH  14  15
ENDBRANCH   1  14
TORSDOF 9
ENDMDL
MODEL 4
REMARK VINA RESULT: -6.610353550      1.837      5.519
REMARK  9 active torsions:
REMARK  status: ('A' for Active; 'I' for Inactive)
REMARK    1  A    between atoms: N1_1  and  C1_5 
REMARK    2  A    between atoms: N2_7  and  C3_8 
REMARK    3  A    between atoms: C3_8  and  C4_9 
REMARK    4  A    between atoms: C4_9  and  C5_10 
REMARK    5  A    between atoms: C5_10  and  C6_11 
REMARK    6  A    between atoms: C6_11  and  N3_12 
REMARK    7  A    between atoms: N3_12  and  C7_15 
REMARK    8  A    between atoms: C7_15  and  C8_16 
REMARK    9  A    between atoms: C8_16  and  C9_17 
ROOT
HETATM    1  C5  UNL     1     -10.596  33.978 -27.617  1.00  0.00     0.029 C 
ENDROOT
BRANCH   1   2
HETATM    2  C4  UNL     1     -10.386  35.425 -27.991  1.00  0.00     0.032 C 
BRANCH   2   3
HETATM    3  C3  UNL     1     -11.590  36.227 -27.537  1.00  0.00     0.273 C 
BRANCH   3   4
HETATM    4  N2  UNL     1     -11.169  37.156 -26.556  1.00  0.00     0.098 N 
HETATM    5  C2  UNL     1     -11.639  38.488 -26.704  1.00  0.00     0.313 C 
HETATM    6  C1  UNL     1     -10.986  39.182 -25.530  1.00  0.00     0.282 C 
HETATM    7  C13 UNL     1      -9.724  38.418 -25.367  1.00  0.00     0.187 C 
HETATM    8  C12 UNL     1      -9.756  37.304 -26.391  1.00  0.00     0.352 C 
HETATM    9  O1  UNL     1      -8.854  38.654 -24.567  1.00  0.00    -0.294 OA
BRANCH   6  10
HETATM   10  N1  UNL     1     -11.852  38.971 -24.388  1.00  0.00    -0.067 N 
ATOM     11  H13 UNL     1     -12.055  39.828 -23.872  1.00  0.00     0.275 HD
ATOM     12  H12 UNL     1     -12.813  38.748 -24.646  1.00  0.00     0.275 HD
ATOM     13  H11 UNL     1     -11.411  38.251 -23.815  1.00  0.00     0.275 HD
ENDBRANCH   6  10
ENDBRANCH   3   4
ENDBRANCH   2   3
ENDBRANCH   1   2
BRANCH   1  14
HETATM   14  C6  UNL     1      -9.306  33.294 -27.280  1.00  0.00     0.232 C 
BRANCH  14  15
HETATM   15  N3  UNL     1      -8.944  33.340 -25.893  1.00  0.00    -0.075 N 
ATOM     16  H32 UNL     1      -9.475  34.051 -25.390  1.00  0.00     0.277 HD
ATOM     17  H31 UNL     1      -9.273  32.515 -25.392  1.00  0.00     0.277 HD
BRANCH  15  18
HETATM   18  C7  UNL     1      -7.534  33.526 -25.732  1.00  0.00     0.238 C 
BRANCH  18  19
HETATM   19  C8  UNL     1      -7.225  34.974 -25.352  1.00  0.00     0.086 C 
BRANCH  19  20
HETATM   20  C9  UNL     1      -5.744  35.069 -25.255  1.00  0.00     0.027 A 
HETATM   21  C10 UNL     1      -5.007  35.900 -24.433  1.00  0.00     0.114 A 
HETATM   22  N4  UNL     1      -3.702  35.665 -24.664  1.00  0.00    -0.360 N 
HETATM   23  C11 UNL     1      -3.576  34.715 -25.603  1.00  0.00     0.180 A 
ATOM     24  H4  UNL     1      -2.928  36.138 -24.197  1.00  0.00     0.166 HD
HETATM   25  N5  UNL     1      -4.844  34.358 -25.956  1.00  0.00    -0.355 N 
ATOM     26  H5  UNL     1      -5.077  33.651 -26.654  1.00  0.00     0.166 HD
ENDBRANCH  19  20
ENDBRANCH  18  19
ENDBRANCH  15  18
ENDBRANCH  14  15
ENDBRANCH   1  14
TORSDOF 9
ENDMDL
MODEL 5
REMARK VINA RESULT: -6.544024391      1.691      5.315
REMARK  9 active torsions:
REMARK  status: ('A' for Active; 'I' for Inactive)
REMARK    1  A    between atoms: N1_1  and  C1_5 
REMARK    2  A    between atoms: N2_7  and  C3_8 
REMARK    3  A    between atoms: C3_8  and  C4_9 
REMARK    4  A    between atoms: C4_9  and  C5_10 
REMARK    5  A    between atoms: C5_10  and  C6_11 
REMARK    6  A    between atoms: C6_11  and  N3_12 
REMARK    7  A    between atoms: N3_12  and  C7_15 
REMARK    8  A    between atoms: C7_15  and  C8_16 
REMARK    9  A    between atoms: C8_16  and  C9_17 
ROOT
HETATM    1  C5  UNL     1     -10.576  34.212 -27.642  1.00  0.00     0.029 C 
ENDROOT
BRANCH   1   2
HETATM    2  C4  UNL     1     -10.410  35.672 -27.987  1.00  0.00     0.032 C 
BRANCH   2   3
HETATM    3  C3  UNL     1     -11.599  36.440 -27.445  1.00  0.00     0.273 C 
BRANCH   3   4
HETATM    4  N2  UNL     1     -11.146  37.317 -26.431  1.00  0.00     0.098 N 
HETATM    5  C2  UNL     1     -11.540  38.676 -26.549  1.00  0.00     0.313 C 
HETATM    6  C1  UNL     1     -10.871  39.301 -25.345  1.00  0.00     0.282 C 
HETATM    7  C13 UNL     1      -9.657  38.464 -25.182  1.00  0.00     0.187 C 
HETATM    8  C12 UNL     1      -9.730  37.382 -26.238  1.00  0.00     0.352 C 
HETATM    9  O1  UNL     1      -8.790  38.630 -24.361  1.00  0.00    -0.294 OA
BRANCH   6  10
HETATM   10  N1  UNL     1     -11.769  39.107 -24.224  1.00  0.00    -0.067 N 
ATOM     11  H13 UNL     1     -11.287  38.868 -23.357  1.00  0.00     0.275 HD
ATOM     12  H12 UNL     1     -12.198  39.972 -23.896  1.00  0.00     0.275 HD
ATOM     13  H11 UNL     1     -12.450  38.404 -24.512  1.00  0.00     0.275 HD
ENDBRANCH   6  10
ENDBRANCH   3   4
ENDBRANCH   2   3
ENDBRANCH   1   2
BRANCH   1  14
HETATM   14  C6  UNL     1      -9.262  33.491 -27.610  1.00  0.00     0.232 C 
BRANCH  14  15
HETATM   15  N3  UNL     1      -8.899  32.957 -26.329  1.00  0.00    -0.075 N 
ATOM     16  H32 UNL     1      -9.680  32.468 -25.892  1.00  0.00     0.277 HD
ATOM     17  H31 UNL     1      -8.254  32.173 -26.420  1.00  0.00     0.277 HD
BRANCH  15  18
HETATM   18  C7  UNL     1      -8.371  33.976 -25.474  1.00  0.00     0.238 C 
BRANCH  18  19
HETATM   19  C8  UNL     1      -6.861  34.113 -25.673  1.00  0.00     0.086 C 
BRANCH  19  20
HETATM   20  C9  UNL     1      -6.447  35.304 -24.884  1.00  0.00     0.027 A 
HETATM   21  C10 UNL     1      -6.258  36.593 -25.346  1.00  0.00     0.114 A 
HETATM   22  N4  UNL     1      -5.884  37.358 -24.304  1.00  0.00    -0.360 N 
HETATM   23  C11 UNL     1      -5.827  36.608 -23.193  1.00  0.00     0.180 A 
ATOM     24  H4  UNL     1      -5.676  38.356 -24.352  1.00  0.00     0.166 HD
HETATM   25  N5  UNL     1      -6.177  35.344 -23.568  1.00  0.00    -0.355 N 
ATOM     26  H5  UNL     1      -6.227  34.543 -22.939  1.00  0.00     0.166 HD
ENDBRANCH  19  20
ENDBRANCH  18  19
ENDBRANCH  15  18
ENDBRANCH  14  15
ENDBRANCH   1  14
TORSDOF 9
ENDMDL
