MODEL 1
REMARK VINA RESULT: -6.543764392      0.000      0.000
REMARK  11 active torsions:
REMARK  status: ('A' for Active; 'I' for Inactive)
REMARK    1  A    between atoms: N1_1  and  C1_5 
REMARK    2  A    between atoms: C1_5  and  C2_6 
REMARK    3  A    between atoms: C2_6  and  C3_7 
REMARK    4  A    between atoms: C3_7  and  C4_8 
REMARK    5  A    between atoms: C5_9  and  C6_10 
REMARK    6  A    between atoms: C5_9  and  C7_15 
REMARK    7  A    between atoms: C6_10  and  N2_11 
REMARK    8  A    between atoms: C7_15  and  N3_16 
REMARK    9  A    between atoms: N4_19  and  C10_20 
REMARK   10  A    between atoms: C10_20  and  C11_21 
REMARK   11  A    between atoms: C11_21  and  N5_22 
ROOT
HETATM    1  C4  UNL     1     -10.200  35.484 -27.655  1.00  0.00    -0.021 C 
HETATM    2  C5  UNL     1     -10.937  36.385 -27.087  1.00  0.00    -0.041 C 
ENDROOT
BRANCH   2   3
HETATM    3  C6  UNL     1     -12.213  36.060 -26.419  1.00  0.00     0.265 C 
BRANCH   3   4
HETATM    4  N2  UNL     1     -13.361  36.448 -27.236  1.00  0.00    -0.076 N 
ATOM      5  H23 UNL     1     -13.139  36.416 -28.231  1.00  0.00     0.274 HD
ATOM      6  H22 UNL     1     -14.093  35.738 -27.214  1.00  0.00     0.274 HD
ATOM      7  H21 UNL     1     -13.722  37.364 -26.965  1.00  0.00     0.274 HD
ENDBRANCH   3   4
ENDBRANCH   2   3
BRANCH   2   8
HETATM    8  C7  UNL     1     -10.500  37.836 -27.095  1.00  0.00     0.153 C 
BRANCH   8   9
HETATM    9  N3  UNL     1     -10.346  38.374 -25.781  1.00  0.00    -0.403 N 
HETATM   10  C8  UNL     1      -9.061  38.219 -25.213  1.00  0.00     0.137 C 
HETATM   11  C9  UNL     1      -8.725  39.131 -24.078  1.00  0.00     0.146 C 
HETATM   12  N4  UNL     1      -9.322  40.418 -24.116  1.00  0.00    -0.369 N 
HETATM   13  C12 UNL     1     -10.133  40.755 -25.187  1.00  0.00     0.082 C 
HETATM   14  C13 UNL     1     -11.023  39.595 -25.546  1.00  0.00     0.162 C 
BRANCH  12  15
HETATM   15  C10 UNL     1      -9.394  41.127 -22.910  1.00  0.00     0.090 C 
BRANCH  15  16
HETATM   16  C11 UNL     1     -10.236  40.532 -21.823  1.00  0.00     0.274 C 
BRANCH  16  17
HETATM   17  N5  UNL     1     -10.516  41.572 -20.845  1.00  0.00    -0.075 N 
ATOM     18  H53 UNL     1     -10.306  42.507 -21.194  1.00  0.00     0.274 HD
ATOM     19  H52 UNL     1     -11.515  41.705 -20.688  1.00  0.00     0.274 HD
ATOM     20  H51 UNL     1     -10.010  41.348 -19.989  1.00  0.00     0.274 HD
ENDBRANCH  16  17
ENDBRANCH  15  16
ENDBRANCH  12  15
ENDBRANCH   8   9
ENDBRANCH   2   8
BRANCH   1  21
HETATM   21  C3  UNL     1     -10.448  34.040 -27.755  1.00  0.00     0.029 C 
BRANCH  21  22
HETATM   22  C2  UNL     1      -9.158  33.331 -27.375  1.00  0.00     0.031 C 
BRANCH  22  23
HETATM   23  C1  UNL     1      -8.501  33.984 -26.181  1.00  0.00     0.230 C 
BRANCH  23  24
HETATM   24  N1  UNL     1      -7.857  32.943 -25.404  1.00  0.00    -0.079 N 
ATOM     25  H13 UNL     1      -6.948  33.226 -25.039  1.00  0.00     0.274 HD
ATOM     26  H12 UNL     1      -8.317  32.776 -24.509  1.00  0.00     0.274 HD
ATOM     27  H11 UNL     1      -7.806  32.105 -25.985  1.00  0.00     0.274 HD
ENDBRANCH  23  24
ENDBRANCH  22  23
ENDBRANCH  21  22
ENDBRANCH   1  21
TORSDOF 11
ENDMDL
MODEL 2
REMARK VINA RESULT: -6.121626975      1.178      1.278
REMARK  11 active torsions:
REMARK  status: ('A' for Active; 'I' for Inactive)
REMARK    1  A    between atoms: N1_1  and  C1_5 
REMARK    2  A    between atoms: C1_5  and  C2_6 
REMARK    3  A    between atoms: C2_6  and  C3_7 
REMARK    4  A    between atoms: C3_7  and  C4_8 
REMARK    5  A    between atoms: C5_9  and  C6_10 
REMARK    6  A    between atoms: C5_9  and  C7_15 
REMARK    7  A    between atoms: C6_10  and  N2_11 
REMARK    8  A    between atoms: C7_15  and  N3_16 
REMARK    9  A    between atoms: N4_19  and  C10_20 
REMARK   10  A    between atoms: C10_20  and  C11_21 
REMARK   11  A    between atoms: C11_21  and  N5_22 
ROOT
HETATM    1  C4  UNL     1     -10.238  35.523 -27.753  1.00  0.00    -0.021 C 
HETATM    2  C5  UNL     1     -10.963  36.435 -27.188  1.00  0.00    -0.041 C 
ENDROOT
BRANCH   2   3
HETATM    3  C6  UNL     1     -12.191  36.116 -26.431  1.00  0.00     0.265 C 
BRANCH   3   4
HETATM    4  N2  UNL     1     -13.392  36.375 -27.223  1.00  0.00    -0.076 N 
ATOM      5  H23 UNL     1     -14.148  35.736 -26.975  1.00  0.00     0.274 HD
ATOM      6  H22 UNL     1     -13.834  37.254 -26.955  1.00  0.00     0.274 HD
ATOM      7  H21 UNL     1     -13.194  36.347 -28.224  1.00  0.00     0.274 HD
ENDBRANCH   3   4
ENDBRANCH   2   3
BRANCH   2   8
HETATM    8  C7  UNL     1     -10.564  37.893 -27.292  1.00  0.00     0.153 C 
BRANCH   8   9
HETATM    9  N3  UNL     1     -10.876  38.637 -26.113  1.00  0.00    -0.403 N 
HETATM   10  C8  UNL     1      -9.864  38.658 -25.128  1.00  0.00     0.137 C 
HETATM   11  C9  UNL     1      -9.947  39.756 -24.118  1.00  0.00     0.146 C 
HETATM   12  N4  UNL     1     -10.507  40.979 -24.572  1.00  0.00    -0.369 N 
HETATM   13  C12 UNL     1     -10.903  41.090 -25.894  1.00  0.00     0.082 C 
HETATM   14  C13 UNL     1     -11.605  39.832 -26.331  1.00  0.00     0.162 C 
BRANCH  12  15
HETATM   15  C10 UNL     1     -10.996  41.860 -23.598  1.00  0.00     0.090 C 
BRANCH  15  16
HETATM   16  C11 UNL     1     -10.341  43.204 -23.510  1.00  0.00     0.274 C 
BRANCH  16  17
HETATM   17  N5  UNL     1      -9.047  43.037 -22.866  1.00  0.00    -0.075 N 
ATOM     18  H53 UNL     1      -8.577  43.926 -22.693  1.00  0.00     0.274 HD
ATOM     19  H52 UNL     1      -9.127  42.733 -21.895  1.00  0.00     0.274 HD
ATOM     20  H51 UNL     1      -8.489  42.399 -23.433  1.00  0.00     0.274 HD
ENDBRANCH  16  17
ENDBRANCH  15  16
ENDBRANCH  12  15
ENDBRANCH   8   9
ENDBRANCH   2   8
BRANCH   1  21
HETATM   21  C3  UNL     1     -10.456  34.071 -27.768  1.00  0.00     0.029 C 
BRANCH  21  22
HETATM   22  C2  UNL     1      -9.145  33.412 -27.367  1.00  0.00     0.031 C 
BRANCH  22  23
HETATM   23  C1  UNL     1      -8.591  34.015 -26.097  1.00  0.00     0.230 C 
BRANCH  23  24
HETATM   24  N1  UNL     1      -7.859  32.978 -25.396  1.00  0.00    -0.079 N 
ATOM     25  H13 UNL     1      -6.998  33.321 -24.971  1.00  0.00     0.274 HD
ATOM     26  H12 UNL     1      -8.323  32.676 -24.540  1.00  0.00     0.274 HD
ATOM     27  H11 UNL     1      -7.698  32.212 -26.051  1.00  0.00     0.274 HD
ENDBRANCH  23  24
ENDBRANCH  22  23
ENDBRANCH  21  22
ENDBRANCH   1  21
TORSDOF 11
ENDMDL
MODEL 3
REMARK VINA RESULT: -6.001884862      2.531      3.259
REMARK  11 active torsions:
REMARK  status: ('A' for Active; 'I' for Inactive)
REMARK    1  A    between atoms: N1_1  and  C1_5 
REMARK    2  A    between atoms: C1_5  and  C2_6 
REMARK    3  A    between atoms: C2_6  and  C3_7 
REMARK    4  A    between atoms: C3_7  and  C4_8 
REMARK    5  A    between atoms: C5_9  and  C6_10 
REMARK    6  A    between atoms: C5_9  and  C7_15 
REMARK    7  A    between atoms: C6_10  and  N2_11 
REMARK    8  A    between atoms: C7_15  and  N3_16 
REMARK    9  A    between atoms: N4_19  and  C10_20 
REMARK   10  A    between atoms: C10_20  and  C11_21 
REMARK   11  A    between atoms: C11_21  and  N5_22 
ROOT
HETATM    1  C4  UNL     1     -10.226  35.595 -27.793  1.00  0.00    -0.021 C 
HETATM    2  C5  UNL     1     -10.788  36.569 -27.149  1.00  0.00    -0.041 C 
ENDROOT
BRANCH   2   3
HETATM    3  C6  UNL     1     -12.012  36.384 -26.343  1.00  0.00     0.265 C 
BRANCH   3   4
HETATM    4  N2  UNL     1     -13.216  36.476 -27.167  1.00  0.00    -0.076 N 
ATOM      5  H23 UNL     1     -13.949  37.009 -26.699  1.00  0.00     0.274 HD
ATOM      6  H22 UNL     1     -13.070  37.083 -27.974  1.00  0.00     0.274 HD
ATOM      7  H21 UNL     1     -13.548  35.554 -27.450  1.00  0.00     0.274 HD
ENDBRANCH   3   4
ENDBRANCH   2   3
BRANCH   2   8
HETATM    8  C7  UNL     1     -10.190  37.960 -27.207  1.00  0.00     0.153 C 
BRANCH   8   9
HETATM    9  N3  UNL     1      -9.194  38.176 -26.207  1.00  0.00    -0.403 N 
HETATM   10  C8  UNL     1      -8.500  37.020 -25.787  1.00  0.00     0.137 C 
HETATM   11  C9  UNL     1      -7.187  37.245 -25.111  1.00  0.00     0.146 C 
HETATM   12  N4  UNL     1      -6.455  38.384 -25.537  1.00  0.00    -0.369 N 
HETATM   13  C12 UNL     1      -6.970  39.179 -26.546  1.00  0.00     0.082 C 
HETATM   14  C13 UNL     1      -8.450  39.373 -26.347  1.00  0.00     0.162 C 
BRANCH  12  15
HETATM   15  C10 UNL     1      -5.469  38.872 -24.669  1.00  0.00     0.090 C 
BRANCH  15  16
HETATM   16  C11 UNL     1      -4.383  37.920 -24.273  1.00  0.00     0.274 C 
BRANCH  16  17
HETATM   17  N5  UNL     1      -3.186  38.693 -23.976  1.00  0.00    -0.075 N 
ATOM     18  H53 UNL     1      -2.336  38.131 -24.014  1.00  0.00     0.274 HD
ATOM     19  H52 UNL     1      -2.949  39.351 -24.718  1.00  0.00     0.274 HD
ATOM     20  H51 UNL     1      -3.318  39.148 -23.073  1.00  0.00     0.274 HD
ENDBRANCH  16  17
ENDBRANCH  15  16
ENDBRANCH  12  15
ENDBRANCH   8   9
ENDBRANCH   2   8
BRANCH   1  21
HETATM   21  C3  UNL     1     -10.649  34.191 -27.863  1.00  0.00     0.029 C 
BRANCH  21  22
HETATM   22  C2  UNL     1      -9.515  33.349 -27.298  1.00  0.00     0.031 C 
BRANCH  22  23
HETATM   23  C1  UNL     1      -9.432  33.472 -25.794  1.00  0.00     0.230 C 
BRANCH  23  24
HETATM   24  N1  UNL     1      -8.066  33.190 -25.401  1.00  0.00    -0.079 N 
ATOM     25  H13 UNL     1      -7.457  32.997 -26.196  1.00  0.00     0.274 HD
ATOM     26  H12 UNL     1      -7.577  34.015 -25.053  1.00  0.00     0.274 HD
ATOM     27  H11 UNL     1      -8.086  32.427 -24.724  1.00  0.00     0.274 HD
ENDBRANCH  23  24
ENDBRANCH  22  23
ENDBRANCH  21  22
ENDBRANCH   1  21
TORSDOF 11
ENDMDL
MODEL 4
REMARK VINA RESULT: -5.971123914      1.558      1.783
REMARK  11 active torsions:
REMARK  status: ('A' for Active; 'I' for Inactive)
REMARK    1  A    between atoms: N1_1  and  C1_5 
REMARK    2  A    between atoms: C1_5  and  C2_6 
REMARK    3  A    between atoms: C2_6  and  C3_7 
REMARK    4  A    between atoms: C3_7  and  C4_8 
REMARK    5  A    between atoms: C5_9  and  C6_10 
REMARK    6  A    between atoms: C5_9  and  C7_15 
REMARK    7  A    between atoms: C6_10  and  N2_11 
REMARK    8  A    between atoms: C7_15  and  N3_16 
REMARK    9  A    between atoms: N4_19  and  C10_20 
REMARK   10  A    between atoms: C10_20  and  C11_21 
REMARK   11  A    between atoms: C11_21  and  N5_22 
ROOT
HETATM    1  C4  UNL     1     -10.280  35.483 -27.889  1.00  0.00    -0.021 C 
HETATM    2  C5  UNL     1     -10.969  36.450 -27.370  1.00  0.00    -0.041 C 
ENDROOT
BRANCH   2   3
HETATM    3  C6  UNL     1     -12.124  36.212 -26.480  1.00  0.00     0.265 C 
BRANCH   3   4
HETATM    4  N2  UNL     1     -13.391  36.357 -27.195  1.00  0.00    -0.076 N 
ATOM      5  H23 UNL     1     -13.597  35.533 -27.759  1.00  0.00     0.274 HD
ATOM      6  H22 UNL     1     -14.186  36.314 -26.557  1.00  0.00     0.274 HD
ATOM      7  H21 UNL     1     -13.409  37.208 -27.757  1.00  0.00     0.274 HD
ENDBRANCH   3   4
ENDBRANCH   2   3
BRANCH   2   8
HETATM    8  C7  UNL     1     -10.601  37.889 -27.671  1.00  0.00     0.153 C 
BRANCH   8   9
HETATM    9  N3  UNL     1     -10.831  38.761 -26.564  1.00  0.00    -0.403 N 
HETATM   10  C8  UNL     1      -9.755  38.881 -25.658  1.00  0.00     0.137 C 
HETATM   11  C9  UNL     1      -9.766  40.085 -24.772  1.00  0.00     0.146 C 
HETATM   12  N4  UNL     1     -10.352  41.255 -25.320  1.00  0.00    -0.369 N 
HETATM   13  C12 UNL     1     -10.837  41.224 -26.617  1.00  0.00     0.082 C 
HETATM   14  C13 UNL     1     -11.570  39.933 -26.864  1.00  0.00     0.162 C 
BRANCH  12  15
HETATM   15  C10 UNL     1     -10.772  42.244 -24.420  1.00  0.00     0.090 C 
BRANCH  15  16
HETATM   16  C11 UNL     1     -11.535  43.400 -24.990  1.00  0.00     0.274 C 
BRANCH  16  17
HETATM   17  N5  UNL     1     -11.910  44.281 -23.895  1.00  0.00    -0.075 N 
ATOM     18  H53 UNL     1     -11.697  43.883 -22.979  1.00  0.00     0.274 HD
ATOM     19  H52 UNL     1     -11.311  45.104 -23.829  1.00  0.00     0.274 HD
ATOM     20  H51 UNL     1     -12.896  44.519 -24.001  1.00  0.00     0.274 HD
ENDBRANCH  16  17
ENDBRANCH  15  16
ENDBRANCH  12  15
ENDBRANCH   8   9
ENDBRANCH   2   8
BRANCH   1  21
HETATM   21  C3  UNL     1     -10.478  34.038 -27.721  1.00  0.00     0.029 C 
BRANCH  21  22
HETATM   22  C2  UNL     1      -9.133  33.439 -27.337  1.00  0.00     0.031 C 
BRANCH  22  23
HETATM   23  C1  UNL     1      -8.623  34.016 -26.037  1.00  0.00     0.230 C 
BRANCH  23  24
HETATM   24  N1  UNL     1      -7.820  33.001 -25.385  1.00  0.00    -0.079 N 
ATOM     25  H13 UNL     1      -6.977  33.380 -24.954  1.00  0.00     0.274 HD
ATOM     26  H12 UNL     1      -8.254  32.637 -24.536  1.00  0.00     0.274 HD
ATOM     27  H11 UNL     1      -7.621  32.272 -26.071  1.00  0.00     0.274 HD
ENDBRANCH  23  24
ENDBRANCH  22  23
ENDBRANCH  21  22
ENDBRANCH   1  21
TORSDOF 11
ENDMDL
MODEL 5
REMARK VINA RESULT: -5.910863999      2.456      3.420
REMARK  11 active torsions:
REMARK  status: ('A' for Active; 'I' for Inactive)
REMARK    1  A    between atoms: N1_1  and  C1_5 
REMARK    2  A    between atoms: C1_5  and  C2_6 
REMARK    3  A    between atoms: C2_6  and  C3_7 
REMARK    4  A    between atoms: C3_7  and  C4_8 
REMARK    5  A    between atoms: C5_9  and  C6_10 
REMARK    6  A    between atoms: C5_9  and  C7_15 
REMARK    7  A    between atoms: C6_10  and  N2_11 
REMARK    8  A    between atoms: C7_15  and  N3_16 
REMARK    9  A    between atoms: N4_19  and  C10_20 
REMARK   10  A    between atoms: C10_20  and  C11_21 
REMARK   11  A    between atoms: C11_21  and  N5_22 
ROOT
HETATM    1  C4  UNL     1     -10.151  35.845 -27.502  1.00  0.00    -0.021 C 
HETATM    2  C5  UNL     1     -10.834  36.651 -26.752  1.00  0.00    -0.041 C 
ENDROOT
BRANCH   2   3
HETATM    3  C6  UNL     1     -12.157  36.293 -26.203  1.00  0.00     0.265 C 
BRANCH   3   4
HETATM    4  N2  UNL     1     -13.217  36.477 -27.193  1.00  0.00    -0.076 N 
ATOM      5  H23 UNL     1     -13.727  35.609 -27.359  1.00  0.00     0.274 HD
ATOM      6  H22 UNL     1     -13.981  37.041 -26.821  1.00  0.00     0.274 HD
ATOM      7  H21 UNL     1     -12.854  36.868 -28.062  1.00  0.00     0.274 HD
ENDBRANCH   3   4
ENDBRANCH   2   3
BRANCH   2   8
HETATM    8  C7  UNL     1     -10.281  38.020 -26.412  1.00  0.00     0.153 C 
BRANCH   8   9
HETATM    9  N3  UNL     1      -8.854  38.041 -26.351  1.00  0.00    -0.403 N 
HETATM   10  C8  UNL     1      -8.257  39.288 -26.639  1.00  0.00     0.137 C 
HETATM   11  C9  UNL     1      -6.854  39.476 -26.158  1.00  0.00     0.146 C 
HETATM   12  N4  UNL     1      -6.510  38.795 -24.962  1.00  0.00    -0.369 N 
HETATM   13  C12 UNL     1      -7.473  38.043 -24.312  1.00  0.00     0.082 C 
HETATM   14  C13 UNL     1      -8.283  37.264 -25.313  1.00  0.00     0.162 C 
BRANCH  12  15
HETATM   15  C10 UNL     1      -5.146  38.587 -24.714  1.00  0.00     0.090 C 
BRANCH  15  16
HETATM   16  C11 UNL     1      -4.790  37.454 -23.800  1.00  0.00     0.274 C 
BRANCH  16  17
HETATM   17  N5  UNL     1      -3.829  36.604 -24.486  1.00  0.00    -0.075 N 
ATOM     18  H53 UNL     1      -2.942  36.532 -23.987  1.00  0.00     0.274 HD
ATOM     19  H52 UNL     1      -4.084  35.617 -24.454  1.00  0.00     0.274 HD
ATOM     20  H51 UNL     1      -3.718  36.951 -25.438  1.00  0.00     0.274 HD
ENDBRANCH  16  17
ENDBRANCH  15  16
ENDBRANCH  12  15
ENDBRANCH   8   9
ENDBRANCH   2   8
BRANCH   1  21
HETATM   21  C3  UNL     1     -10.512  34.491 -27.942  1.00  0.00     0.029 C 
BRANCH  21  22
HETATM   22  C2  UNL     1      -9.470  33.538 -27.375  1.00  0.00     0.031 C 
BRANCH  22  23
HETATM   23  C1  UNL     1      -9.573  33.440 -25.870  1.00  0.00     0.230 C 
BRANCH  23  24
HETATM   24  N1  UNL     1      -8.231  33.292 -25.342  1.00  0.00    -0.079 N 
ATOM     25  H13 UNL     1      -7.583  32.886 -26.018  1.00  0.00     0.274 HD
ATOM     26  H12 UNL     1      -7.755  34.185 -25.216  1.00  0.00     0.274 HD
ATOM     27  H11 UNL     1      -8.293  32.750 -24.480  1.00  0.00     0.274 HD
ENDBRANCH  23  24
ENDBRANCH  22  23
ENDBRANCH  21  22
ENDBRANCH   1  21
TORSDOF 11
ENDMDL
