MODEL 1
REMARK VINA RESULT: -7.019077624      0.000      0.000
REMARK  9 active torsions:
REMARK  status: ('A' for Active; 'I' for Inactive)
REMARK    1  A    between atoms: C1_2  and  C2_3 
REMARK       I    between atoms: C1_2  and  N2_11 
REMARK    2  A    between atoms: C2_3  and  N1_4 
REMARK    3  A    between atoms: N1_4  and  C3_7 
REMARK    4  A    between atoms: C3_7  and  C4_8 
REMARK    5  A    between atoms: N2_11  and  C7_13 
REMARK    6  A    between atoms: C7_13  and  C8_14 
REMARK    7  A    between atoms: C8_14  and  C9_15 
REMARK    8  A    between atoms: C9_15  and  N3_16 
REMARK    9  A    between atoms: N3_16  and  C10_18 
ROOT
HETATM    1  C7  UNL     1     -11.273  34.895 -27.885  1.00  0.00     0.124 C 
ENDROOT
BRANCH   1   2
HETATM    2  N2  UNL     1     -11.025  36.217 -27.420  1.00  0.00    -0.360 N 
HETATM    3  C1  UNL     1     -11.699  36.927 -26.414  1.00  0.00     0.243 C 
HETATM    4  O1  UNL     1     -12.666  36.469 -25.759  1.00  0.00    -0.272 OA
ATOM      5  H2  UNL     1     -10.258  36.712 -27.876  1.00  0.00     0.162 HD
BRANCH   3   6
HETATM    6  C2  UNL     1     -11.296  38.303 -26.044  1.00  0.00     0.334 C 
BRANCH   6   7
HETATM    7  N1  UNL     1     -11.554  38.650 -24.697  1.00  0.00    -0.067 N 
ATOM      8  H12 UNL     1     -12.492  38.367 -24.410  1.00  0.00     0.277 HD
ATOM      9  H11 UNL     1     -11.013  38.074 -24.052  1.00  0.00     0.277 HD
BRANCH   7  10
HETATM   10  C3  UNL     1     -11.330  40.063 -24.465  1.00  0.00     0.237 C 
BRANCH  10  11
HETATM   11  C4  UNL     1     -10.260  40.266 -23.425  1.00  0.00     0.011 A 
HETATM   12  C5  UNL     1     -10.406  39.628 -22.087  1.00  0.00     0.007 A 
HETATM   13  C6  UNL     1      -9.375  39.149 -23.101  1.00  0.00     0.007 A 
ENDBRANCH  10  11
ENDBRANCH   7  10
ENDBRANCH   6   7
ENDBRANCH   3   6
ENDBRANCH   1   2
BRANCH   1  14
HETATM   14  C8  UNL     1     -10.368  33.807 -27.504  1.00  0.00     0.040 C 
BRANCH  14  15
HETATM   15  C9  UNL     1     -10.052  33.523 -26.089  1.00  0.00     0.139 C 
BRANCH  15  16
HETATM   16  N3  UNL     1      -8.579  33.430 -25.945  1.00  0.00    -0.226 N 
ATOM     17  H3  UNL     1      -8.129  32.528 -26.104  1.00  0.00     0.177 HD
BRANCH  16  18
HETATM   18  C10 UNL     1      -7.855  34.427 -25.632  1.00  0.00     0.677 A 
HETATM   19  N4  UNL     1      -6.572  34.132 -25.278  1.00  0.00    -0.202 N 
HETATM   20  C11 UNL     1      -5.675  35.047 -24.922  1.00  0.00     0.107 A 
ATOM     21  H4  UNL     1      -6.284  33.154 -25.287  1.00  0.00     0.183 HD
HETATM   22  C12 UNL     1      -6.076  36.370 -24.911  1.00  0.00     0.035 A 
HETATM   23  C13 UNL     1      -7.384  36.673 -25.271  1.00  0.00     0.107 A 
HETATM   24  N5  UNL     1      -8.254  35.709 -25.624  1.00  0.00    -0.202 N 
ATOM     25  H5  UNL     1      -9.210  35.951 -25.885  1.00  0.00     0.183 HD
ENDBRANCH  16  18
ENDBRANCH  15  16
ENDBRANCH  14  15
ENDBRANCH   1  14
TORSDOF 9
ENDMDL
MODEL 2
REMARK VINA RESULT: -6.938137553      0.429      1.262
REMARK  9 active torsions:
REMARK  status: ('A' for Active; 'I' for Inactive)
REMARK    1  A    between atoms: C1_2  and  C2_3 
REMARK       I    between atoms: C1_2  and  N2_11 
REMARK    2  A    between atoms: C2_3  and  N1_4 
REMARK    3  A    between atoms: N1_4  and  C3_7 
REMARK    4  A    between atoms: C3_7  and  C4_8 
REMARK    5  A    between atoms: N2_11  and  C7_13 
REMARK    6  A    between atoms: C7_13  and  C8_14 
REMARK    7  A    between atoms: C8_14  and  C9_15 
REMARK    8  A    between atoms: C9_15  and  N3_16 
REMARK    9  A    between atoms: N3_16  and  C10_18 
ROOT
HETATM    1  C7  UNL     1     -11.328  35.033 -27.884  1.00  0.00     0.124 C 
ENDROOT
BRANCH   1   2
HETATM    2  N2  UNL     1     -10.979  36.370 -27.545  1.00  0.00    -0.360 N 
HETATM    3  C1  UNL     1     -11.500  37.172 -26.518  1.00  0.00     0.243 C 
HETATM    4  O1  UNL     1     -12.394  36.800 -25.721  1.00  0.00    -0.272 OA
ATOM      5  H2  UNL     1     -10.257  36.802 -28.123  1.00  0.00     0.162 HD
BRANCH   3   6
HETATM    6  C2  UNL     1     -11.007  38.552 -26.296  1.00  0.00     0.334 C 
BRANCH   6   7
HETATM    7  N1  UNL     1     -11.886  39.378 -25.558  1.00  0.00    -0.067 N 
ATOM      8  H12 UNL     1     -12.435  39.982 -26.170  1.00  0.00     0.277 HD
ATOM      9  H11 UNL     1     -12.648  38.841 -25.145  1.00  0.00     0.277 HD
BRANCH   7  10
HETATM   10  C3  UNL     1     -11.171  40.145 -24.556  1.00  0.00     0.237 C 
BRANCH  10  11
HETATM   11  C4  UNL     1     -10.776  39.266 -23.400  1.00  0.00     0.011 A 
HETATM   12  C5  UNL     1      -9.348  39.200 -22.982  1.00  0.00     0.007 A 
HETATM   13  C6  UNL     1     -10.405  39.896 -22.134  1.00  0.00     0.007 A 
ENDBRANCH  10  11
ENDBRANCH   7  10
ENDBRANCH   6   7
ENDBRANCH   3   6
ENDBRANCH   1   2
BRANCH   1  14
HETATM   14  C8  UNL     1     -10.444  33.929 -27.497  1.00  0.00     0.040 C 
BRANCH  14  15
HETATM   15  C9  UNL     1     -10.090  33.680 -26.085  1.00  0.00     0.139 C 
BRANCH  15  16
HETATM   16  N3  UNL     1      -8.633  33.421 -26.003  1.00  0.00    -0.226 N 
ATOM     17  H3  UNL     1      -8.288  32.491 -26.241  1.00  0.00     0.177 HD
BRANCH  16  18
HETATM   18  C10 UNL     1      -7.796  34.311 -25.648  1.00  0.00     0.677 A 
HETATM   19  N4  UNL     1      -8.263  35.591 -25.653  1.00  0.00    -0.202 N 
HETATM   20  C11 UNL     1      -7.529  36.646 -25.312  1.00  0.00     0.107 A 
ATOM     21  H4  UNL     1      -9.230  35.749 -25.935  1.00  0.00     0.183 HD
HETATM   22  C12 UNL     1      -6.219  36.422 -24.933  1.00  0.00     0.035 A 
HETATM   23  C13 UNL     1      -5.740  35.117 -24.928  1.00  0.00     0.107 A 
HETATM   24  N5  UNL     1      -6.524  34.083 -25.282  1.00  0.00    -0.202 N 
ATOM     25  H5  UNL     1      -6.155  33.132 -25.272  1.00  0.00     0.183 HD
ENDBRANCH  16  18
ENDBRANCH  15  16
ENDBRANCH  14  15
ENDBRANCH   1  14
TORSDOF 9
ENDMDL
MODEL 3
REMARK VINA RESULT: -6.862744190      1.230      1.879
REMARK  9 active torsions:
REMARK  status: ('A' for Active; 'I' for Inactive)
REMARK    1  A    between atoms: C1_2  and  C2_3 
REMARK       I    between atoms: C1_2  and  N2_11 
REMARK    2  A    between atoms: C2_3  and  N1_4 
REMARK    3  A    between atoms: N1_4  and  C3_7 
REMARK    4  A    between atoms: C3_7  and  C4_8 
REMARK    5  A    between atoms: N2_11  and  C7_13 
REMARK    6  A    between atoms: C7_13  and  C8_14 
REMARK    7  A    between atoms: C8_14  and  C9_15 
REMARK    8  A    between atoms: C9_15  and  N3_16 
REMARK    9  A    between atoms: N3_16  and  C10_18 
ROOT
HETATM    1  C7  UNL     1     -12.462  35.995 -27.028  1.00  0.00     0.124 C 
ENDROOT
BRANCH   1   2
HETATM    2  N2  UNL     1     -12.470  37.407 -26.842  1.00  0.00    -0.360 N 
HETATM    3  C1  UNL     1     -11.421  38.234 -26.410  1.00  0.00     0.243 C 
HETATM    4  O1  UNL     1     -10.277  37.818 -26.108  1.00  0.00    -0.272 OA
ATOM      5  H2  UNL     1     -13.350  37.877 -27.050  1.00  0.00     0.162 HD
BRANCH   3   6
HETATM    6  C2  UNL     1     -11.601  39.698 -26.284  1.00  0.00     0.334 C 
BRANCH   6   7
HETATM    7  N1  UNL     1     -12.188  40.117 -25.067  1.00  0.00    -0.067 N 
ATOM      8  H12 UNL     1     -12.929  40.800 -25.223  1.00  0.00     0.277 HD
ATOM      9  H11 UNL     1     -12.745  39.374 -24.645  1.00  0.00     0.277 HD
BRANCH   7  10
HETATM   10  C3  UNL     1     -11.187  40.619 -24.146  1.00  0.00     0.237 C 
BRANCH  10  11
HETATM   11  C4  UNL     1     -10.848  39.578 -23.112  1.00  0.00     0.011 A 
HETATM   12  C5  UNL     1      -9.429  39.171 -22.917  1.00  0.00     0.007 A 
HETATM   13  C6  UNL     1     -10.179  40.001 -21.883  1.00  0.00     0.007 A 
ENDBRANCH  10  11
ENDBRANCH   7  10
ENDBRANCH   6   7
ENDBRANCH   3   6
ENDBRANCH   1   2
BRANCH   1  14
HETATM   14  C8  UNL     1     -11.567  35.397 -28.023  1.00  0.00     0.040 C 
BRANCH  14  15
HETATM   15  C9  UNL     1     -10.623  34.318 -27.666  1.00  0.00     0.139 C 
BRANCH  15  16
HETATM   16  N3  UNL     1     -10.174  34.529 -26.270  1.00  0.00    -0.226 N 
ATOM     17  H3  UNL     1     -10.878  34.673 -25.546  1.00  0.00     0.177 HD
BRANCH  16  18
HETATM   18  C10 UNL     1      -8.946  34.537 -25.937  1.00  0.00     0.677 A 
HETATM   19  N4  UNL     1      -8.405  35.769 -25.724  1.00  0.00    -0.202 N 
HETATM   20  C11 UNL     1      -7.138  35.968 -25.370  1.00  0.00     0.107 A 
ATOM     21  H4  UNL     1      -9.005  36.585 -25.842  1.00  0.00     0.183 HD
HETATM   22  C12 UNL     1      -6.332  34.856 -25.214  1.00  0.00     0.035 A 
HETATM   23  C13 UNL     1      -6.882  33.598 -25.432  1.00  0.00     0.107 A 
HETATM   24  N5  UNL     1      -8.171  33.450 -25.789  1.00  0.00    -0.202 N 
ATOM     25  H5  UNL     1      -8.557  32.518 -25.945  1.00  0.00     0.183 HD
ENDBRANCH  16  18
ENDBRANCH  15  16
ENDBRANCH  14  15
ENDBRANCH   1  14
TORSDOF 9
ENDMDL
MODEL 4
REMARK VINA RESULT: -6.826322947      1.461      5.007
REMARK  9 active torsions:
REMARK  status: ('A' for Active; 'I' for Inactive)
REMARK    1  A    between atoms: C1_2  and  C2_3 
REMARK       I    between atoms: C1_2  and  N2_11 
REMARK    2  A    between atoms: C2_3  and  N1_4 
REMARK    3  A    between atoms: N1_4  and  C3_7 
REMARK    4  A    between atoms: C3_7  and  C4_8 
REMARK    5  A    between atoms: N2_11  and  C7_13 
REMARK    6  A    between atoms: C7_13  and  C8_14 
REMARK    7  A    between atoms: C8_14  and  C9_15 
REMARK    8  A    between atoms: C9_15  and  N3_16 
REMARK    9  A    between atoms: N3_16  and  C10_18 
ROOT
HETATM    1  C7  UNL     1     -11.692  35.076 -27.872  1.00  0.00     0.124 C 
ENDROOT
BRANCH   1   2
HETATM    2  N2  UNL     1     -10.370  34.572 -27.718  1.00  0.00    -0.360 N 
HETATM    3  C1  UNL     1      -9.867  33.742 -26.703  1.00  0.00     0.243 C 
HETATM    4  O1  UNL     1     -10.550  33.315 -25.742  1.00  0.00    -0.272 OA
ATOM      5  H2  UNL     1      -9.702  34.849 -28.437  1.00  0.00     0.162 HD
BRANCH   3   6
HETATM    6  C2  UNL     1      -8.454  33.298 -26.705  1.00  0.00     0.334 C 
BRANCH   6   7
HETATM    7  N1  UNL     1      -7.813  33.370 -25.446  1.00  0.00    -0.067 N 
ATOM      8  H12 UNL     1      -8.460  33.660 -24.713  1.00  0.00     0.277 HD
ATOM      9  H11 UNL     1      -7.580  32.443 -25.091  1.00  0.00     0.277 HD
BRANCH   7  10
HETATM   10  C3  UNL     1      -6.647  34.230 -25.498  1.00  0.00     0.237 C 
BRANCH  10  11
HETATM   11  C4  UNL     1      -6.910  35.523 -24.773  1.00  0.00     0.011 A 
HETATM   12  C5  UNL     1      -6.013  35.936 -23.658  1.00  0.00     0.007 A 
HETATM   13  C6  UNL     1      -6.010  36.652 -25.003  1.00  0.00     0.007 A 
ENDBRANCH  10  11
ENDBRANCH   7  10
ENDBRANCH   6   7
ENDBRANCH   3   6
ENDBRANCH   1   2
BRANCH   1  14
HETATM   14  C8  UNL     1     -12.069  36.340 -27.232  1.00  0.00     0.040 C 
BRANCH  14  15
HETATM   15  C9  UNL     1     -11.130  37.478 -27.154  1.00  0.00     0.139 C 
BRANCH  15  16
HETATM   16  N3  UNL     1     -11.650  38.450 -26.163  1.00  0.00    -0.226 N 
ATOM     17  H3  UNL     1     -12.545  38.903 -26.345  1.00  0.00     0.177 HD
BRANCH  16  18
HETATM   18  C10 UNL     1     -11.024  38.742 -25.094  1.00  0.00     0.677 A 
HETATM   19  N4  UNL     1      -9.678  38.535 -25.128  1.00  0.00    -0.202 N 
HETATM   20  C11 UNL     1      -8.866  38.784 -24.104  1.00  0.00     0.107 A 
ATOM     21  H4  UNL     1      -9.269  38.167 -25.986  1.00  0.00     0.183 HD
HETATM   22  C12 UNL     1      -9.430  39.281 -22.943  1.00  0.00     0.035 A 
HETATM   23  C13 UNL     1     -10.804  39.492 -22.907  1.00  0.00     0.107 A 
HETATM   24  N5  UNL     1     -11.582  39.223 -23.971  1.00  0.00    -0.202 N 
ATOM     25  H5  UNL     1     -12.588  39.385 -23.925  1.00  0.00     0.183 HD
ENDBRANCH  16  18
ENDBRANCH  15  16
ENDBRANCH  14  15
ENDBRANCH   1  14
TORSDOF 9
ENDMDL
MODEL 5
REMARK VINA RESULT: -6.814257258      1.816      5.025
REMARK  9 active torsions:
REMARK  status: ('A' for Active; 'I' for Inactive)
REMARK    1  A    between atoms: C1_2  and  C2_3 
REMARK       I    between atoms: C1_2  and  N2_11 
REMARK    2  A    between atoms: C2_3  and  N1_4 
REMARK    3  A    between atoms: N1_4  and  C3_7 
REMARK    4  A    between atoms: C3_7  and  C4_8 
REMARK    5  A    between atoms: N2_11  and  C7_13 
REMARK    6  A    between atoms: C7_13  and  C8_14 
REMARK    7  A    between atoms: C8_14  and  C9_15 
REMARK    8  A    between atoms: C9_15  and  N3_16 
REMARK    9  A    between atoms: N3_16  and  C10_18 
ROOT
HETATM    1  C7  UNL     1     -10.773  34.939 -27.927  1.00  0.00     0.124 C 
ENDROOT
BRANCH   1   2
HETATM    2  N2  UNL     1      -9.979  34.638 -26.785  1.00  0.00    -0.360 N 
HETATM    3  C1  UNL     1      -8.939  33.702 -26.670  1.00  0.00     0.243 C 
HETATM    4  O1  UNL     1      -8.552  32.963 -27.606  1.00  0.00    -0.272 OA
ATOM      5  H2  UNL     1     -10.194  35.170 -25.942  1.00  0.00     0.162 HD
BRANCH   3   6
HETATM    6  C2  UNL     1      -8.203  33.527 -25.397  1.00  0.00     0.334 C 
BRANCH   6   7
HETATM    7  N1  UNL     1      -6.896  34.070 -25.393  1.00  0.00    -0.067 N 
ATOM      8  H12 UNL     1      -6.283  33.565 -24.753  1.00  0.00     0.277 HD
ATOM      9  H11 UNL     1      -6.407  33.874 -26.266  1.00  0.00     0.277 HD
BRANCH   7  10
HETATM   10  C3  UNL     1      -6.918  35.490 -25.101  1.00  0.00     0.237 C 
BRANCH  10  11
HETATM   11  C4  UNL     1      -5.617  35.921 -24.477  1.00  0.00     0.011 A 
HETATM   12  C5  UNL     1      -5.406  37.356 -24.139  1.00  0.00     0.007 A 
HETATM   13  C6  UNL     1      -5.608  36.296 -23.064  1.00  0.00     0.007 A 
ENDBRANCH  10  11
ENDBRANCH   7  10
ENDBRANCH   6   7
ENDBRANCH   3   6
ENDBRANCH   1   2
BRANCH   1  14
HETATM   14  C8  UNL     1     -11.970  35.773 -27.783  1.00  0.00     0.040 C 
BRANCH  14  15
HETATM   15  C9  UNL     1     -12.382  36.315 -26.472  1.00  0.00     0.139 C 
BRANCH  15  16
HETATM   16  N3  UNL     1     -11.996  37.745 -26.412  1.00  0.00    -0.226 N 
ATOM     17  H3  UNL     1     -12.430  38.397 -27.065  1.00  0.00     0.177 HD
BRANCH  16  18
HETATM   18  C10 UNL     1     -11.145  38.193 -25.578  1.00  0.00     0.677 A 
HETATM   19  N4  UNL     1     -11.664  38.893 -24.531  1.00  0.00    -0.202 N 
HETATM   20  C11 UNL     1     -10.926  39.433 -23.566  1.00  0.00     0.107 A 
ATOM     21  H4  UNL     1     -12.676  39.011 -24.485  1.00  0.00     0.183 HD
HETATM   22  C12 UNL     1      -9.554  39.271 -23.638  1.00  0.00     0.035 A 
HETATM   23  C13 UNL     1      -9.023  38.557 -24.706  1.00  0.00     0.107 A 
HETATM   24  N5  UNL     1      -9.815  38.029 -25.658  1.00  0.00    -0.202 N 
ATOM     25  H5  UNL     1      -9.406  37.509 -26.435  1.00  0.00     0.183 HD
ENDBRANCH  16  18
ENDBRANCH  15  16
ENDBRANCH  14  15
ENDBRANCH   1  14
TORSDOF 9
ENDMDL
