MODEL 1
REMARK VINA RESULT: -7.032122022      0.000      0.000
REMARK  9 active torsions:
REMARK  status: ('A' for Active; 'I' for Inactive)
REMARK    1  A    between atoms: N1_1  and  C1_4 
REMARK    2  A    between atoms: N5_9  and  C2_10 
REMARK    3  A    between atoms: C2_10  and  C3_11 
REMARK    4  A    between atoms: C3_11  and  N6_12 
REMARK    5  A    between atoms: N6_12  and  C4_15 
REMARK    6  A    between atoms: C4_15  and  C5_16 
REMARK    7  A    between atoms: C5_16  and  C6_17 
REMARK    8  A    between atoms: C6_17  and  C7_18 
REMARK    9  A    between atoms: C7_18  and  N7_19 
ROOT
HETATM    1  N6  UNL     1      -8.600  33.241 -25.374  1.00  0.00    -0.074 N 
ATOM      2  H61 UNL     1      -8.531  33.247 -24.356  1.00  0.00     0.277 HD
ATOM      3  H62 UNL     1      -8.380  32.255 -25.513  1.00  0.00     0.277 HD
ENDROOT
BRANCH   1   4
HETATM    4  C3  UNL     1      -7.652  34.134 -26.015  1.00  0.00     0.254 C 
BRANCH   4   5
HETATM    5  C2  UNL     1      -6.873  34.939 -24.997  1.00  0.00     0.193 C 
BRANCH   5   6
HETATM    6  N5  UNL     1      -5.447  34.799 -25.173  1.00  0.00    -0.107 N 
HETATM    7  C1  UNL     1      -4.515  35.585 -24.623  1.00  0.00     0.703 A 
HETATM    8  N2  UNL     1      -3.325  35.123 -25.032  1.00  0.00    -0.117 N 
HETATM    9  N3  UNL     1      -3.530  34.077 -25.815  1.00  0.00     0.007 NA
ATOM     10  H2  UNL     1      -2.416  35.511 -24.782  1.00  0.00     0.202 HD
HETATM   11  N4  UNL     1      -4.832  33.866 -25.911  1.00  0.00     0.009 NA
BRANCH   7  12
HETATM   12  N1  UNL     1      -4.656  36.606 -23.842  1.00  0.00    -0.232 N 
ATOM     13  H12 UNL     1      -4.091  37.452 -23.769  1.00  0.00     0.174 HD
ATOM     14  H11 UNL     1      -5.405  36.691 -23.154  1.00  0.00     0.174 HD
ENDBRANCH   7  12
ENDBRANCH   5   6
ENDBRANCH   4   5
ENDBRANCH   1   4
BRANCH   1  15
HETATM   15  C4  UNL     1      -9.922  33.608 -25.861  1.00  0.00     0.232 C 
BRANCH  15  16
HETATM   16  C5  UNL     1      -9.883  33.997 -27.325  1.00  0.00     0.029 C 
BRANCH  16  17
HETATM   17  C6  UNL     1     -11.034  34.934 -27.668  1.00  0.00     0.022 C 
BRANCH  17  18
HETATM   18  C7  UNL     1     -10.416  36.257 -28.057  1.00  0.00     0.128 C 
BRANCH  18  19
HETATM   19  N7  UNL     1     -10.287  37.147 -26.920  1.00  0.00    -0.366 N 
HETATM   20  C8  UNL     1      -9.083  37.487 -26.425  1.00  0.00     0.090 A 
HETATM   21  C9  UNL     1      -8.911  38.322 -25.355  1.00  0.00     0.017 A 
HETATM   22  C10 UNL     1     -10.011  38.864 -24.724  1.00  0.00     0.003 A 
HETATM   23  C11 UNL     1     -11.257  38.517 -25.229  1.00  0.00     0.017 A 
HETATM   24  C12 UNL     1     -11.370  37.670 -26.313  1.00  0.00     0.090 A 
ENDBRANCH  18  19
ENDBRANCH  17  18
ENDBRANCH  16  17
ENDBRANCH  15  16
ENDBRANCH   1  15
TORSDOF 9
ENDMDL
MODEL 2
REMARK VINA RESULT: -7.024821030      0.023      1.068
REMARK  9 active torsions:
REMARK  status: ('A' for Active; 'I' for Inactive)
REMARK    1  A    between atoms: N1_1  and  C1_4 
REMARK    2  A    between atoms: N5_9  and  C2_10 
REMARK    3  A    between atoms: C2_10  and  C3_11 
REMARK    4  A    between atoms: C3_11  and  N6_12 
REMARK    5  A    between atoms: N6_12  and  C4_15 
REMARK    6  A    between atoms: C4_15  and  C5_16 
REMARK    7  A    between atoms: C5_16  and  C6_17 
REMARK    8  A    between atoms: C6_17  and  C7_18 
REMARK    9  A    between atoms: C7_18  and  N7_19 
ROOT
HETATM    1  N6  UNL     1      -8.605  33.233 -25.369  1.00  0.00    -0.074 N 
ATOM      2  H61 UNL     1      -8.539  33.243 -24.351  1.00  0.00     0.277 HD
ATOM      3  H62 UNL     1      -8.389  32.245 -25.503  1.00  0.00     0.277 HD
ENDROOT
BRANCH   1   4
HETATM    4  C3  UNL     1      -7.652  34.118 -26.011  1.00  0.00     0.254 C 
BRANCH   4   5
HETATM    5  C2  UNL     1      -6.871  34.923 -24.994  1.00  0.00     0.193 C 
BRANCH   5   6
HETATM    6  N5  UNL     1      -5.445  34.785 -25.173  1.00  0.00    -0.107 N 
HETATM    7  C1  UNL     1      -4.513  35.569 -24.621  1.00  0.00     0.703 A 
HETATM    8  N2  UNL     1      -3.323  35.109 -25.035  1.00  0.00    -0.117 N 
HETATM    9  N3  UNL     1      -3.529  34.067 -25.822  1.00  0.00     0.007 NA
ATOM     10  H2  UNL     1      -2.414  35.497 -24.785  1.00  0.00     0.202 HD
HETATM   11  N4  UNL     1      -4.832  33.855 -25.916  1.00  0.00     0.009 NA
BRANCH   7  12
HETATM   12  N1  UNL     1      -4.652  36.587 -23.836  1.00  0.00    -0.232 N 
ATOM     13  H12 UNL     1      -3.954  37.250 -23.502  1.00  0.00     0.174 HD
ATOM     14  H11 UNL     1      -5.544  36.866 -23.427  1.00  0.00     0.174 HD
ENDBRANCH   7  12
ENDBRANCH   5   6
ENDBRANCH   4   5
ENDBRANCH   1   4
BRANCH   1  15
HETATM   15  C4  UNL     1      -9.924  33.603 -25.862  1.00  0.00     0.232 C 
BRANCH  15  16
HETATM   16  C5  UNL     1      -9.875  34.008 -27.321  1.00  0.00     0.029 C 
BRANCH  16  17
HETATM   17  C6  UNL     1     -11.023  34.949 -27.662  1.00  0.00     0.022 C 
BRANCH  17  18
HETATM   18  C7  UNL     1     -10.401  36.272 -28.047  1.00  0.00     0.128 C 
BRANCH  18  19
HETATM   19  N7  UNL     1     -10.271  37.159 -26.907  1.00  0.00    -0.366 N 
HETATM   20  C8  UNL     1     -11.349  37.693 -26.304  1.00  0.00     0.090 A 
HETATM   21  C9  UNL     1     -11.277  38.534 -25.228  1.00  0.00     0.017 A 
HETATM   22  C10 UNL     1     -10.048  38.875 -24.705  1.00  0.00     0.003 A 
HETATM   23  C11 UNL     1      -8.931  38.328 -25.322  1.00  0.00     0.017 A 
HETATM   24  C12 UNL     1      -9.063  37.484 -26.406  1.00  0.00     0.090 A 
ENDBRANCH  18  19
ENDBRANCH  17  18
ENDBRANCH  16  17
ENDBRANCH  15  16
ENDBRANCH   1  15
TORSDOF 9
ENDMDL
MODEL 3
REMARK VINA RESULT: -6.993039804      1.313      2.022
REMARK  9 active torsions:
REMARK  status: ('A' for Active; 'I' for Inactive)
REMARK    1  A    between atoms: N1_1  and  C1_4 
REMARK    2  A    between atoms: N5_9  and  C2_10 
REMARK    3  A    between atoms: C2_10  and  C3_11 
REMARK    4  A    between atoms: C3_11  and  N6_12 
REMARK    5  A    between atoms: N6_12  and  C4_15 
REMARK    6  A    between atoms: C4_15  and  C5_16 
REMARK    7  A    between atoms: C5_16  and  C6_17 
REMARK    8  A    between atoms: C6_17  and  C7_18 
REMARK    9  A    between atoms: C7_18  and  N7_19 
ROOT
HETATM    1  N6  UNL     1      -9.101  33.789 -27.333  1.00  0.00    -0.074 N 
ATOM      2  H61 UNL     1      -8.898  32.908 -27.806  1.00  0.00     0.277 HD
ATOM      3  H62 UNL     1      -8.384  34.351 -27.791  1.00  0.00     0.277 HD
ENDROOT
BRANCH   1   4
HETATM    4  C3  UNL     1      -8.934  33.714 -25.893  1.00  0.00     0.254 C 
BRANCH   4   5
HETATM    5  C2  UNL     1      -8.053  34.832 -25.379  1.00  0.00     0.193 C 
BRANCH   5   6
HETATM    6  N5  UNL     1      -6.650  34.547 -25.566  1.00  0.00    -0.107 N 
HETATM    7  C1  UNL     1      -5.650  35.419 -25.396  1.00  0.00     0.703 A 
HETATM    8  N2  UNL     1      -4.513  34.764 -25.668  1.00  0.00    -0.117 N 
HETATM    9  N3  UNL     1      -4.816  33.519 -25.997  1.00  0.00     0.007 NA
ATOM     10  H2  UNL     1      -3.573  35.158 -25.628  1.00  0.00     0.202 HD
HETATM   11  N4  UNL     1      -6.129  33.371 -25.938  1.00  0.00     0.009 NA
BRANCH   7  12
HETATM   12  N1  UNL     1      -5.693  36.662 -25.041  1.00  0.00    -0.232 N 
ATOM     13  H12 UNL     1      -4.930  37.301 -24.819  1.00  0.00     0.174 HD
ATOM     14  H11 UNL     1      -6.560  37.188 -24.933  1.00  0.00     0.174 HD
ENDBRANCH   7  12
ENDBRANCH   5   6
ENDBRANCH   4   5
ENDBRANCH   1   4
BRANCH   1  15
HETATM   15  C4  UNL     1     -10.452  34.273 -27.577  1.00  0.00     0.232 C 
BRANCH  15  16
HETATM   16  C5  UNL     1     -10.449  35.727 -28.000  1.00  0.00     0.029 C 
BRANCH  16  17
HETATM   17  C6  UNL     1     -10.983  36.618 -26.886  1.00  0.00     0.022 C 
BRANCH  17  18
HETATM   18  C7  UNL     1     -10.087  37.834 -26.833  1.00  0.00     0.128 C 
BRANCH  18  19
HETATM   19  N7  UNL     1      -9.985  38.372 -25.490  1.00  0.00    -0.366 N 
HETATM   20  C8  UNL     1     -11.045  38.919 -24.869  1.00  0.00     0.090 A 
HETATM   21  C9  UNL     1     -10.999  39.439 -23.605  1.00  0.00     0.017 A 
HETATM   22  C10 UNL     1      -9.815  39.417 -22.898  1.00  0.00     0.003 A 
HETATM   23  C11 UNL     1      -8.716  38.854 -23.532  1.00  0.00     0.017 A 
HETATM   24  C12 UNL     1      -8.822  38.344 -24.811  1.00  0.00     0.090 A 
ENDBRANCH  18  19
ENDBRANCH  17  18
ENDBRANCH  16  17
ENDBRANCH  15  16
ENDBRANCH   1  15
TORSDOF 9
ENDMDL
MODEL 4
REMARK VINA RESULT: -6.979519217      1.312      1.718
REMARK  9 active torsions:
REMARK  status: ('A' for Active; 'I' for Inactive)
REMARK    1  A    between atoms: N1_1  and  C1_4 
REMARK    2  A    between atoms: N5_9  and  C2_10 
REMARK    3  A    between atoms: C2_10  and  C3_11 
REMARK    4  A    between atoms: C3_11  and  N6_12 
REMARK    5  A    between atoms: N6_12  and  C4_15 
REMARK    6  A    between atoms: C4_15  and  C5_16 
REMARK    7  A    between atoms: C5_16  and  C6_17 
REMARK    8  A    between atoms: C6_17  and  C7_18 
REMARK    9  A    between atoms: C7_18  and  N7_19 
ROOT
HETATM    1  N6  UNL     1      -9.101  33.799 -27.331  1.00  0.00    -0.074 N 
ATOM      2  H61 UNL     1      -8.893  32.920 -27.806  1.00  0.00     0.277 HD
ATOM      3  H62 UNL     1      -8.385  34.365 -27.786  1.00  0.00     0.277 HD
ENDROOT
BRANCH   1   4
HETATM    4  C3  UNL     1      -8.939  33.723 -25.891  1.00  0.00     0.254 C 
BRANCH   4   5
HETATM    5  C2  UNL     1      -8.071  34.849 -25.371  1.00  0.00     0.193 C 
BRANCH   5   6
HETATM    6  N5  UNL     1      -6.665  34.574 -25.547  1.00  0.00    -0.107 N 
HETATM    7  C1  UNL     1      -5.673  35.455 -25.372  1.00  0.00     0.703 A 
HETATM    8  N2  UNL     1      -4.528  34.809 -25.634  1.00  0.00    -0.117 N 
HETATM    9  N3  UNL     1      -4.819  33.561 -25.963  1.00  0.00     0.007 NA
ATOM     10  H2  UNL     1      -3.592  35.211 -25.588  1.00  0.00     0.202 HD
HETATM   11  N4  UNL     1      -6.131  33.402 -25.913  1.00  0.00     0.009 NA
BRANCH   7  12
HETATM   12  N1  UNL     1      -5.729  36.698 -25.020  1.00  0.00    -0.232 N 
ATOM     13  H12 UNL     1      -5.886  37.528 -25.591  1.00  0.00     0.174 HD
ATOM     14  H11 UNL     1      -5.612  37.018 -24.058  1.00  0.00     0.174 HD
ENDBRANCH   7  12
ENDBRANCH   5   6
ENDBRANCH   4   5
ENDBRANCH   1   4
BRANCH   1  15
HETATM   15  C4  UNL     1     -10.454  34.278 -27.579  1.00  0.00     0.232 C 
BRANCH  15  16
HETATM   16  C5  UNL     1     -10.455  35.730 -28.010  1.00  0.00     0.029 C 
BRANCH  16  17
HETATM   17  C6  UNL     1     -11.001  36.625 -26.904  1.00  0.00     0.022 C 
BRANCH  17  18
HETATM   18  C7  UNL     1     -10.110  37.845 -26.852  1.00  0.00     0.128 C 
BRANCH  18  19
HETATM   19  N7  UNL     1     -10.013  38.384 -25.509  1.00  0.00    -0.366 N 
HETATM   20  C8  UNL     1      -8.854  38.365 -24.825  1.00  0.00     0.090 A 
HETATM   21  C9  UNL     1      -8.713  38.861 -23.559  1.00  0.00     0.017 A 
HETATM   22  C10 UNL     1      -9.798  39.418 -22.915  1.00  0.00     0.003 A 
HETATM   23  C11 UNL     1     -10.997  39.440 -23.614  1.00  0.00     0.017 A 
HETATM   24  C12 UNL     1     -11.081  38.925 -24.892  1.00  0.00     0.090 A 
ENDBRANCH  18  19
ENDBRANCH  17  18
ENDBRANCH  16  17
ENDBRANCH  15  16
ENDBRANCH   1  15
TORSDOF 9
ENDMDL
MODEL 5
REMARK VINA RESULT: -6.926108022      1.763      3.711
REMARK  9 active torsions:
REMARK  status: ('A' for Active; 'I' for Inactive)
REMARK    1  A    between atoms: N1_1  and  C1_4 
REMARK    2  A    between atoms: N5_9  and  C2_10 
REMARK    3  A    between atoms: C2_10  and  C3_11 
REMARK    4  A    between atoms: C3_11  and  N6_12 
REMARK    5  A    between atoms: N6_12  and  C4_15 
REMARK    6  A    between atoms: C4_15  and  C5_16 
REMARK    7  A    between atoms: C5_16  and  C6_17 
REMARK    8  A    between atoms: C6_17  and  C7_18 
REMARK    9  A    between atoms: C7_18  and  N7_19 
ROOT
HETATM    1  N6  UNL     1      -5.519  36.181 -25.304  1.00  0.00    -0.074 N 
ATOM      2  H61 UNL     1      -5.998  36.613 -26.094  1.00  0.00     0.277 HD
ATOM      3  H62 UNL     1      -4.581  36.520 -25.519  1.00  0.00     0.277 HD
ENDROOT
BRANCH   1   4
HETATM    4  C3  UNL     1      -5.615  34.733 -25.299  1.00  0.00     0.254 C 
BRANCH   4   5
HETATM    5  C2  UNL     1      -4.829  34.122 -26.439  1.00  0.00     0.193 C 
BRANCH   5   6
HETATM    6  N5  UNL     1      -3.405  34.173 -26.204  1.00  0.00    -0.107 N 
HETATM    7  C1  UNL     1      -2.458  33.963 -27.125  1.00  0.00     0.703 A 
HETATM    8  N2  UNL     1      -1.276  34.101 -26.506  1.00  0.00    -0.117 N 
HETATM    9  N3  UNL     1      -1.503  34.389 -25.235  1.00  0.00     0.007 NA
ATOM     10  H2  UNL     1      -0.360  34.002 -26.941  1.00  0.00     0.202 HD
HETATM   11  N4  UNL     1      -2.809  34.436 -25.035  1.00  0.00     0.009 NA
BRANCH   7  12
HETATM   12  N1  UNL     1      -2.578  33.680 -28.381  1.00  0.00    -0.232 N 
ATOM     13  H12 UNL     1      -2.070  32.999 -28.945  1.00  0.00     0.174 HD
ATOM     14  H11 UNL     1      -3.245  34.139 -29.002  1.00  0.00     0.174 HD
ENDBRANCH   7  12
ENDBRANCH   5   6
ENDBRANCH   4   5
ENDBRANCH   1   4
BRANCH   1  15
HETATM   15  C4  UNL     1      -6.012  36.641 -24.013  1.00  0.00     0.232 C 
BRANCH  15  16
HETATM   16  C5  UNL     1      -7.070  37.712 -24.176  1.00  0.00     0.029 C 
BRANCH  16  17
HETATM   17  C6  UNL     1      -7.478  37.853 -25.637  1.00  0.00     0.022 C 
BRANCH  17  18
HETATM   18  C7  UNL     1      -8.989  37.910 -25.664  1.00  0.00     0.128 C 
BRANCH  18  19
HETATM   19  N7  UNL     1      -9.558  36.797 -26.398  1.00  0.00    -0.366 N 
HETATM   20  C8  UNL     1      -9.112  35.538 -26.226  1.00  0.00     0.090 A 
HETATM   21  C9  UNL     1      -9.616  34.457 -26.895  1.00  0.00     0.017 A 
HETATM   22  C10 UNL     1     -10.639  34.629 -27.804  1.00  0.00     0.003 A 
HETATM   23  C11 UNL     1     -11.103  35.924 -27.987  1.00  0.00     0.017 A 
HETATM   24  C12 UNL     1     -10.556  36.979 -27.283  1.00  0.00     0.090 A 
ENDBRANCH  18  19
ENDBRANCH  17  18
ENDBRANCH  16  17
ENDBRANCH  15  16
ENDBRANCH   1  15
TORSDOF 9
ENDMDL
