MODEL 1
REMARK VINA RESULT: -6.861653799      0.000      0.000
REMARK  6 active torsions:
REMARK  status: ('A' for Active; 'I' for Inactive)
REMARK    1  A    between atoms: C1_1  and  C2_2 
REMARK    2  A    between atoms: C1_1  and  C5_11 
REMARK    3  A    between atoms: C2_2  and  C3_3 
REMARK    4  A    between atoms: C3_3  and  C4_4 
REMARK    5  A    between atoms: C5_11  and  C6_12 
REMARK    6  A    between atoms: C6_12  and  C7_13 
ROOT
HETATM    1  C1  UNL     1       3.467  17.713 -38.804  1.00  0.00     0.000 C 
ENDROOT
BRANCH   1   2
HETATM    2  C2  UNL     1       2.648  16.728 -37.970  1.00  0.00     0.007 C 
BRANCH   2   3
HETATM    3  C3  UNL     1       1.171  16.908 -38.207  1.00  0.00     0.078 C 
BRANCH   3   4
HETATM    4  C4  UNL     1       0.380  16.949 -36.974  1.00  0.00     0.106 A 
HETATM    5  N1  UNL     1       0.671  17.581 -35.832  1.00  0.00    -0.274 N 
HETATM    6  N2  UNL     1      -0.311  17.362 -34.969  1.00  0.00    -0.007 NA
ATOM      7  H1  UNL     1       1.506  18.137 -35.654  1.00  0.00     0.185 HD
HETATM    8  N3  UNL     1      -1.219  16.600 -35.554  1.00  0.00    -0.007 NA
HETATM    9  N4  UNL     1      -0.800  16.343 -36.786  1.00  0.00    -0.274 N 
ATOM     10  H4  UNL     1      -1.294  15.778 -37.476  1.00  0.00     0.185 HD
ENDBRANCH   3   4
ENDBRANCH   2   3
ENDBRANCH   1   2
BRANCH   1  11
HETATM   11  C5  UNL     1       4.311  16.865 -39.707  1.00  0.00     0.000 C 
BRANCH  11  12
HETATM   12  C6  UNL     1       3.633  16.010 -40.692  1.00  0.00     0.006 C 
BRANCH  12  13
HETATM   13  C7  UNL     1       3.906  14.593 -40.824  1.00  0.00     0.013 C 
HETATM   14  C8  UNL     1       3.272  13.653 -39.823  1.00  0.00     0.034 C 
HETATM   15  C9  UNL     1       3.925  12.334 -40.263  1.00  0.00     0.232 C 
HETATM   16  N5  UNL     1       5.006  12.673 -41.174  1.00  0.00    -0.075 N 
HETATM   17  C10 UNL     1       5.321  14.087 -40.778  1.00  0.00     0.237 C 
ATOM     18  H52 UNL     1       5.801  12.035 -41.156  1.00  0.00     0.277 HD
ATOM     19  H51 UNL     1       4.795  12.539 -42.162  1.00  0.00     0.277 HD
ENDBRANCH  12  13
ENDBRANCH  11  12
ENDBRANCH   1  11
TORSDOF 6
ENDMDL
MODEL 2
REMARK VINA RESULT: -6.580797772      2.927      3.337
REMARK  6 active torsions:
REMARK  status: ('A' for Active; 'I' for Inactive)
REMARK    1  A    between atoms: C1_1  and  C2_2 
REMARK    2  A    between atoms: C1_1  and  C5_11 
REMARK    3  A    between atoms: C2_2  and  C3_3 
REMARK    4  A    between atoms: C3_3  and  C4_4 
REMARK    5  A    between atoms: C5_11  and  C6_12 
REMARK    6  A    between atoms: C6_12  and  C7_13 
ROOT
HETATM    1  C1  UNL     1       4.673  17.557 -39.044  1.00  0.00     0.000 C 
ENDROOT
BRANCH   1   2
HETATM    2  C2  UNL     1       4.576  19.033 -39.429  1.00  0.00     0.007 C 
BRANCH   2   3
HETATM    3  C3  UNL     1       3.854  19.827 -38.372  1.00  0.00     0.078 C 
BRANCH   3   4
HETATM    4  C4  UNL     1       2.480  20.178 -38.738  1.00  0.00     0.106 A 
HETATM    5  N1  UNL     1       1.549  19.391 -39.290  1.00  0.00    -0.274 N 
HETATM    6  N2  UNL     1       0.443  20.102 -39.457  1.00  0.00    -0.007 NA
ATOM      7  H1  UNL     1       1.670  18.410 -39.539  1.00  0.00     0.185 HD
HETATM    8  N3  UNL     1       0.664  21.328 -39.016  1.00  0.00    -0.007 NA
HETATM    9  N4  UNL     1       1.913  21.381 -38.574  1.00  0.00    -0.274 N 
ATOM     10  H4  UNL     1       2.368  22.201 -38.174  1.00  0.00     0.185 HD
ENDBRANCH   3   4
ENDBRANCH   2   3
ENDBRANCH   1   2
BRANCH   1  11
HETATM   11  C5  UNL     1       3.959  16.814 -40.132  1.00  0.00     0.000 C 
BRANCH  11  12
HETATM   12  C6  UNL     1       3.269  15.563 -39.783  1.00  0.00     0.006 C 
BRANCH  12  13
HETATM   13  C7  UNL     1       3.634  14.280 -40.347  1.00  0.00     0.013 C 
HETATM   14  C8  UNL     1       3.204  13.033 -39.606  1.00  0.00     0.034 C 
HETATM   15  C9  UNL     1       3.898  11.970 -40.473  1.00  0.00     0.232 C 
HETATM   16  N5  UNL     1       4.828  12.668 -41.345  1.00  0.00    -0.075 N 
HETATM   17  C10 UNL     1       5.078  13.940 -40.588  1.00  0.00     0.237 C 
ATOM     18  H52 UNL     1       5.665  12.141 -41.591  1.00  0.00     0.277 HD
ATOM     19  H51 UNL     1       4.506  12.794 -42.304  1.00  0.00     0.277 HD
ENDBRANCH  12  13
ENDBRANCH  11  12
ENDBRANCH   1  11
TORSDOF 6
ENDMDL
MODEL 3
REMARK VINA RESULT: -6.478270950      2.785      3.572
REMARK  6 active torsions:
REMARK  status: ('A' for Active; 'I' for Inactive)
REMARK    1  A    between atoms: C1_1  and  C2_2 
REMARK    2  A    between atoms: C1_1  and  C5_11 
REMARK    3  A    between atoms: C2_2  and  C3_3 
REMARK    4  A    between atoms: C3_3  and  C4_4 
REMARK    5  A    between atoms: C5_11  and  C6_12 
REMARK    6  A    between atoms: C6_12  and  C7_13 
ROOT
HETATM    1  C1  UNL     1       3.278  17.302 -40.700  1.00  0.00     0.000 C 
ENDROOT
BRANCH   1   2
HETATM    2  C2  UNL     1       4.337  17.703 -39.675  1.00  0.00     0.007 C 
BRANCH   2   3
HETATM    3  C3  UNL     1       4.528  19.197 -39.642  1.00  0.00     0.078 C 
BRANCH   3   4
HETATM    4  C4  UNL     1       3.936  19.839 -38.466  1.00  0.00     0.106 A 
HETATM    5  N1  UNL     1       2.752  19.583 -37.897  1.00  0.00    -0.274 N 
HETATM    6  N2  UNL     1       2.604  20.388 -36.855  1.00  0.00    -0.007 NA
ATOM      7  H1  UNL     1       2.078  18.887 -38.213  1.00  0.00     0.185 HD
HETATM    8  N3  UNL     1       3.681  21.148 -36.757  1.00  0.00    -0.007 NA
HETATM    9  N4  UNL     1       4.502  20.816 -37.744  1.00  0.00    -0.274 N 
ATOM     10  H4  UNL     1       5.415  21.234 -37.924  1.00  0.00     0.185 HD
ENDBRANCH   3   4
ENDBRANCH   2   3
ENDBRANCH   1   2
BRANCH   1  11
HETATM   11  C5  UNL     1       2.330  16.404 -39.964  1.00  0.00     0.000 C 
BRANCH  11  12
HETATM   12  C6  UNL     1       2.867  15.181 -39.350  1.00  0.00     0.006 C 
BRANCH  12  13
HETATM   13  C7  UNL     1       3.400  14.079 -40.126  1.00  0.00     0.013 C 
HETATM   14  C8  UNL     1       3.203  12.678 -39.593  1.00  0.00     0.034 C 
HETATM   15  C9  UNL     1       4.013  11.892 -40.637  1.00  0.00     0.232 C 
HETATM   16  N5  UNL     1       4.782  12.861 -41.400  1.00  0.00    -0.075 N 
HETATM   17  C10 UNL     1       4.866  14.019 -40.448  1.00  0.00     0.237 C 
ATOM     18  H52 UNL     1       5.679  12.522 -41.746  1.00  0.00     0.277 HD
ATOM     19  H51 UNL     1       4.401  13.085 -42.319  1.00  0.00     0.277 HD
ENDBRANCH  12  13
ENDBRANCH  11  12
ENDBRANCH   1  11
TORSDOF 6
ENDMDL
MODEL 4
REMARK VINA RESULT: -6.393363833      5.313      6.042
REMARK  6 active torsions:
REMARK  status: ('A' for Active; 'I' for Inactive)
REMARK    1  A    between atoms: C1_1  and  C2_2 
REMARK    2  A    between atoms: C1_1  and  C5_11 
REMARK    3  A    between atoms: C2_2  and  C3_3 
REMARK    4  A    between atoms: C3_3  and  C4_4 
REMARK    5  A    between atoms: C5_11  and  C6_12 
REMARK    6  A    between atoms: C6_12  and  C7_13 
ROOT
HETATM    1  C1  UNL     1       1.837  17.834 -42.988  1.00  0.00     0.000 C 
ENDROOT
BRANCH   1   2
HETATM    2  C2  UNL     1       0.391  17.454 -43.303  1.00  0.00     0.007 C 
BRANCH   2   3
HETATM    3  C3  UNL     1      -0.013  17.929 -44.674  1.00  0.00     0.078 C 
BRANCH   3   4
HETATM    4  C4  UNL     1      -1.330  18.571 -44.708  1.00  0.00     0.106 A 
HETATM    5  N1  UNL     1      -1.865  19.297 -45.696  1.00  0.00    -0.274 N 
HETATM    6  N2  UNL     1      -3.073  19.691 -45.321  1.00  0.00    -0.007 NA
ATOM      7  H1  UNL     1      -1.419  19.510 -46.588  1.00  0.00     0.185 HD
HETATM    8  N3  UNL     1      -3.308  19.222 -44.107  1.00  0.00    -0.007 NA
HETATM    9  N4  UNL     1      -2.240  18.533 -43.726  1.00  0.00    -0.274 N 
ATOM     10  H4  UNL     1      -2.131  18.054 -42.833  1.00  0.00     0.185 HD
ENDBRANCH   3   4
ENDBRANCH   2   3
ENDBRANCH   1   2
BRANCH   1  11
HETATM   11  C5  UNL     1       2.576  16.535 -42.880  1.00  0.00     0.000 C 
BRANCH  11  12
HETATM   12  C6  UNL     1       3.077  16.128 -41.559  1.00  0.00     0.006 C 
BRANCH  12  13
HETATM   13  C7  UNL     1       3.825  14.906 -41.343  1.00  0.00     0.013 C 
HETATM   14  C8  UNL     1       3.231  13.866 -40.419  1.00  0.00     0.034 C 
HETATM   15  C9  UNL     1       4.387  12.854 -40.398  1.00  0.00     0.232 C 
HETATM   16  N5  UNL     1       5.540  13.507 -40.993  1.00  0.00    -0.075 N 
HETATM   17  C10 UNL     1       5.221  14.960 -40.789  1.00  0.00     0.237 C 
ATOM     18  H52 UNL     1       6.443  13.208 -40.625  1.00  0.00     0.277 HD
ATOM     19  H51 UNL     1       5.735  13.241 -41.958  1.00  0.00     0.277 HD
ENDBRANCH  12  13
ENDBRANCH  11  12
ENDBRANCH   1  11
TORSDOF 6
ENDMDL
MODEL 5
REMARK VINA RESULT: -6.376294969      2.311      2.596
REMARK  6 active torsions:
REMARK  status: ('A' for Active; 'I' for Inactive)
REMARK    1  A    between atoms: C1_1  and  C2_2 
REMARK    2  A    between atoms: C1_1  and  C5_11 
REMARK    3  A    between atoms: C2_2  and  C3_3 
REMARK    4  A    between atoms: C3_3  and  C4_4 
REMARK    5  A    between atoms: C5_11  and  C6_12 
REMARK    6  A    between atoms: C6_12  and  C7_13 
ROOT
HETATM    1  C1  UNL     1       4.072  17.142 -39.235  1.00  0.00     0.000 C 
ENDROOT
BRANCH   1   2
HETATM    2  C2  UNL     1       2.768  16.623 -38.628  1.00  0.00     0.007 C 
BRANCH   2   3
HETATM    3  C3  UNL     1       2.135  17.653 -37.731  1.00  0.00     0.078 C 
BRANCH   3   4
HETATM    4  C4  UNL     1       1.425  18.708 -38.459  1.00  0.00     0.106 A 
HETATM    5  N1  UNL     1       1.632  20.028 -38.402  1.00  0.00    -0.274 N 
HETATM    6  N2  UNL     1       0.774  20.623 -39.218  1.00  0.00    -0.007 NA
ATOM      7  H1  UNL     1       2.332  20.498 -37.828  1.00  0.00     0.185 HD
HETATM    8  N3  UNL     1       0.028  19.694 -39.790  1.00  0.00    -0.007 NA
HETATM    9  N4  UNL     1       0.423  18.516 -39.327  1.00  0.00    -0.274 N 
ATOM     10  H4  UNL     1       0.030  17.612 -39.590  1.00  0.00     0.185 HD
ENDBRANCH   3   4
ENDBRANCH   2   3
ENDBRANCH   1   2
BRANCH   1  11
HETATM   11  C5  UNL     1       4.533  16.066 -40.170  1.00  0.00     0.000 C 
BRANCH  11  12
HETATM   12  C6  UNL     1       3.522  15.171 -40.752  1.00  0.00     0.006 C 
BRANCH  12  13
HETATM   13  C7  UNL     1       3.631  13.727 -40.708  1.00  0.00     0.013 C 
HETATM   14  C8  UNL     1       3.011  13.006 -39.531  1.00  0.00     0.034 C 
HETATM   15  C9  UNL     1       3.472  11.573 -39.838  1.00  0.00     0.232 C 
HETATM   16  N5  UNL     1       4.481  11.662 -40.881  1.00  0.00    -0.075 N 
HETATM   17  C10 UNL     1       4.981  13.068 -40.719  1.00  0.00     0.237 C 
ATOM     18  H52 UNL     1       5.202  10.942 -40.845  1.00  0.00     0.277 HD
ATOM     19  H51 UNL     1       4.155  11.427 -41.818  1.00  0.00     0.277 HD
ENDBRANCH  12  13
ENDBRANCH  11  12
ENDBRANCH   1  11
TORSDOF 6
ENDMDL
