MODEL 1
REMARK VINA RESULT: -5.798049199      0.000      0.000
REMARK  7 active torsions:
REMARK  status: ('A' for Active; 'I' for Inactive)
REMARK    1  A    between atoms: N1_1  and  C1_5 
REMARK    2  A    between atoms: C1_5  and  C2_6 
REMARK    3  A    between atoms: C2_6  and  C3_7 
REMARK    4  A    between atoms: N3_11  and  C5_12 
REMARK    5  A    between atoms: C5_12  and  C6_13 
REMARK    6  A    between atoms: C6_13  and  C7_14 
REMARK    7  A    between atoms: C7_14  and  C8_15 
ROOT
HETATM    1  C3  UNL     1       1.767  17.086 -43.023  1.00  0.00     0.047 A 
HETATM    2  C4  UNL     1       0.500  17.254 -43.501  1.00  0.00     0.134 A 
HETATM    3  N2  UNL     1       0.112  17.837 -42.372  1.00  0.00    -0.308 N 
ATOM      4  H2  UNL     1      -0.759  18.235 -42.021  1.00  0.00     0.186 HD
HETATM    5  N3  UNL     1       1.333  17.680 -41.897  1.00  0.00    -0.295 N 
ENDROOT
BRANCH   5   6
HETATM    6  C5  UNL     1       1.986  18.010 -40.648  1.00  0.00     0.149 C 
BRANCH   6   7
HETATM    7  C6  UNL     1       2.167  16.789 -39.766  1.00  0.00     0.028 C 
BRANCH   7   8
HETATM    8  C7  UNL     1       3.640  16.426 -39.815  1.00  0.00     0.060 C 
BRANCH   8   9
HETATM    9  C8  UNL     1       3.836  14.967 -40.028  1.00  0.00     0.024 A 
HETATM   10  C9  UNL     1       4.930  14.518 -40.738  1.00  0.00     0.112 A 
HETATM   11  N4  UNL     1       5.142  13.206 -40.952  1.00  0.00    -0.372 N 
HETATM   12  C10 UNL     1       4.292  12.275 -40.481  1.00  0.00     0.104 A 
ATOM     13  H4  UNL     1       5.963  12.912 -41.481  1.00  0.00     0.164 HD
HETATM   14  C11 UNL     1       3.199  12.709 -39.773  1.00  0.00     0.105 A 
HETATM   15  N5  UNL     1       2.986  14.036 -39.557  1.00  0.00    -0.367 N 
ATOM     16  H5  UNL     1       2.166  14.331 -39.027  1.00  0.00     0.165 HD
ENDBRANCH   8   9
ENDBRANCH   7   8
ENDBRANCH   6   7
ENDBRANCH   5   6
BRANCH   1  17
HETATM   17  C2  UNL     1       3.024  16.504 -43.545  1.00  0.00     0.087 C 
BRANCH  17  18
HETATM   18  C1  UNL     1       3.356  17.129 -44.880  1.00  0.00     0.235 C 
BRANCH  18  19
HETATM   19  N1  UNL     1       4.691  16.824 -45.313  1.00  0.00    -0.079 N 
ATOM     20  H13 UNL     1       4.762  16.851 -46.330  1.00  0.00     0.274 HD
ATOM     21  H12 UNL     1       5.334  17.581 -45.083  1.00  0.00     0.274 HD
ATOM     22  H11 UNL     1       5.026  15.934 -44.946  1.00  0.00     0.274 HD
ENDBRANCH  18  19
ENDBRANCH  17  18
ENDBRANCH   1  17
TORSDOF 7
ENDMDL
MODEL 2
REMARK VINA RESULT: -5.746635509      2.914      4.402
REMARK  7 active torsions:
REMARK  status: ('A' for Active; 'I' for Inactive)
REMARK    1  A    between atoms: N1_1  and  C1_5 
REMARK    2  A    between atoms: C1_5  and  C2_6 
REMARK    3  A    between atoms: C2_6  and  C3_7 
REMARK    4  A    between atoms: N3_11  and  C5_12 
REMARK    5  A    between atoms: C5_12  and  C6_13 
REMARK    6  A    between atoms: C6_13  and  C7_14 
REMARK    7  A    between atoms: C7_14  and  C8_15 
ROOT
HETATM    1  C3  UNL     1       3.931  20.329 -38.910  1.00  0.00     0.047 A 
HETATM    2  C4  UNL     1       4.616  21.079 -39.821  1.00  0.00     0.134 A 
HETATM    3  N2  UNL     1       5.252  20.007 -40.280  1.00  0.00    -0.308 N 
ATOM      4  H2  UNL     1       5.950  19.829 -41.002  1.00  0.00     0.186 HD
HETATM    5  N3  UNL     1       4.597  19.269 -39.404  1.00  0.00    -0.295 N 
ENDROOT
BRANCH   5   6
HETATM    6  C5  UNL     1       4.579  17.860 -39.075  1.00  0.00     0.149 C 
BRANCH   6   7
HETATM    7  C6  UNL     1       3.812  17.050 -40.103  1.00  0.00     0.028 C 
BRANCH   7   8
HETATM    8  C7  UNL     1       3.061  15.973 -39.342  1.00  0.00     0.060 C 
BRANCH   8   9
HETATM    9  C8  UNL     1       3.483  14.610 -39.764  1.00  0.00     0.024 A 
HETATM   10  C9  UNL     1       4.565  14.457 -40.606  1.00  0.00     0.112 A 
HETATM   11  N4  UNL     1       4.977  13.240 -41.008  1.00  0.00    -0.372 N 
HETATM   12  C10 UNL     1       4.348  12.121 -40.606  1.00  0.00     0.104 A 
ATOM     13  H4  UNL     1       5.781  13.165 -41.630  1.00  0.00     0.164 HD
HETATM   14  C11 UNL     1       3.270  12.260 -39.768  1.00  0.00     0.105 A 
HETATM   15  N5  UNL     1       2.855  13.490 -39.361  1.00  0.00    -0.367 N 
ATOM     16  H5  UNL     1       2.051  13.565 -38.737  1.00  0.00     0.165 HD
ENDBRANCH   8   9
ENDBRANCH   7   8
ENDBRANCH   6   7
ENDBRANCH   5   6
BRANCH   1  17
HETATM   17  C2  UNL     1       2.919  20.601 -37.865  1.00  0.00     0.087 C 
BRANCH  17  18
HETATM   18  C1  UNL     1       1.547  20.668 -38.494  1.00  0.00     0.235 C 
BRANCH  18  19
HETATM   19  N1  UNL     1       1.143  19.414 -39.066  1.00  0.00    -0.079 N 
ATOM     20  H13 UNL     1       0.688  19.551 -39.969  1.00  0.00     0.274 HD
ATOM     21  H12 UNL     1       1.951  18.872 -39.371  1.00  0.00     0.274 HD
ATOM     22  H11 UNL     1       0.552  18.871 -38.437  1.00  0.00     0.274 HD
ENDBRANCH  18  19
ENDBRANCH  17  18
ENDBRANCH   1  17
TORSDOF 7
ENDMDL
MODEL 3
REMARK VINA RESULT: -5.714538504      2.348      4.887
REMARK  7 active torsions:
REMARK  status: ('A' for Active; 'I' for Inactive)
REMARK    1  A    between atoms: N1_1  and  C1_5 
REMARK    2  A    between atoms: C1_5  and  C2_6 
REMARK    3  A    between atoms: C2_6  and  C3_7 
REMARK    4  A    between atoms: N3_11  and  C5_12 
REMARK    5  A    between atoms: C5_12  and  C6_13 
REMARK    6  A    between atoms: C6_13  and  C7_14 
REMARK    7  A    between atoms: C7_14  and  C8_15 
ROOT
HETATM    1  C3  UNL     1       3.615  14.497 -40.215  1.00  0.00     0.047 A 
HETATM    2  C4  UNL     1       3.426  13.167 -39.973  1.00  0.00     0.134 A 
HETATM    3  N2  UNL     1       2.629  13.431 -38.944  1.00  0.00    -0.308 N 
ATOM      4  H2  UNL     1       2.105  12.874 -38.269  1.00  0.00     0.186 HD
HETATM    5  N3  UNL     1       2.803  14.719 -39.166  1.00  0.00    -0.295 N 
ENDROOT
BRANCH   5   6
HETATM    6  C5  UNL     1       2.321  15.932 -38.540  1.00  0.00     0.149 C 
BRANCH   6   7
HETATM    7  C6  UNL     1       1.319  16.660 -39.416  1.00  0.00     0.028 C 
BRANCH   7   8
HETATM    8  C7  UNL     1       1.288  18.101 -38.942  1.00  0.00     0.060 C 
BRANCH   8   9
HETATM    9  C8  UNL     1       2.541  18.820 -39.296  1.00  0.00     0.024 A 
HETATM   10  C9  UNL     1       3.037  18.744 -40.580  1.00  0.00     0.112 A 
HETATM   11  N4  UNL     1       4.168  19.381 -40.938  1.00  0.00    -0.372 N 
HETATM   12  C10 UNL     1       4.864  20.119 -40.054  1.00  0.00     0.104 A 
ATOM     13  H4  UNL     1       4.504  19.302 -41.897  1.00  0.00     0.164 HD
HETATM   14  C11 UNL     1       4.381  20.203 -38.771  1.00  0.00     0.105 A 
HETATM   15  N5  UNL     1       3.237  19.559 -38.412  1.00  0.00    -0.367 N 
ATOM     16  H5  UNL     1       2.900  19.638 -37.452  1.00  0.00     0.165 HD
ENDBRANCH   8   9
ENDBRANCH   7   8
ENDBRANCH   6   7
ENDBRANCH   5   6
BRANCH   1  17
HETATM   17  C2  UNL     1       4.381  15.292 -41.201  1.00  0.00     0.087 C 
BRANCH  17  18
HETATM   18  C1  UNL     1       3.544  15.503 -42.441  1.00  0.00     0.235 C 
BRANCH  18  19
HETATM   19  N1  UNL     1       4.344  15.720 -43.614  1.00  0.00    -0.079 N 
ATOM     20  H13 UNL     1       5.232  15.223 -43.550  1.00  0.00     0.274 HD
ATOM     21  H12 UNL     1       3.947  15.243 -44.424  1.00  0.00     0.274 HD
ATOM     22  H11 UNL     1       4.491  16.710 -43.808  1.00  0.00     0.274 HD
ENDBRANCH  18  19
ENDBRANCH  17  18
ENDBRANCH   1  17
TORSDOF 7
ENDMDL
MODEL 4
REMARK VINA RESULT: -5.711838240      3.149      4.562
REMARK  7 active torsions:
REMARK  status: ('A' for Active; 'I' for Inactive)
REMARK    1  A    between atoms: N1_1  and  C1_5 
REMARK    2  A    between atoms: C1_5  and  C2_6 
REMARK    3  A    between atoms: C2_6  and  C3_7 
REMARK    4  A    between atoms: N3_11  and  C5_12 
REMARK    5  A    between atoms: C5_12  and  C6_13 
REMARK    6  A    between atoms: C6_13  and  C7_14 
REMARK    7  A    between atoms: C7_14  and  C8_15 
ROOT
HETATM    1  C3  UNL     1       1.948  18.470 -37.919  1.00  0.00     0.047 A 
HETATM    2  C4  UNL     1       1.563  19.581 -38.611  1.00  0.00     0.134 A 
HETATM    3  N2  UNL     1       2.713  19.613 -39.273  1.00  0.00    -0.308 N 
ATOM      4  H2  UNL     1       3.124  20.213 -39.989  1.00  0.00     0.186 HD
HETATM    5  N3  UNL     1       3.099  18.539 -38.612  1.00  0.00    -0.295 N 
ENDROOT
BRANCH   5   6
HETATM    6  C5  UNL     1       4.295  17.723 -38.610  1.00  0.00     0.149 C 
BRANCH   6   7
HETATM    7  C6  UNL     1       4.341  16.784 -39.801  1.00  0.00     0.028 C 
BRANCH   7   8
HETATM    8  C7  UNL     1       3.170  15.830 -39.654  1.00  0.00     0.060 C 
BRANCH   8   9
HETATM    9  C8  UNL     1       3.571  14.426 -39.936  1.00  0.00     0.024 A 
HETATM   10  C9  UNL     1       4.689  14.172 -40.704  1.00  0.00     0.112 A 
HETATM   11  N4  UNL     1       5.083  12.915 -40.980  1.00  0.00    -0.372 N 
HETATM   12  C10 UNL     1       4.401  11.851 -40.519  1.00  0.00     0.104 A 
ATOM     13  H4  UNL     1       5.915  12.766 -41.550  1.00  0.00     0.164 HD
HETATM   14  C11 UNL     1       3.286  12.090 -39.754  1.00  0.00     0.105 A 
HETATM   15  N5  UNL     1       2.889  13.361 -39.475  1.00  0.00    -0.367 N 
ATOM     16  H5  UNL     1       2.057  13.511 -38.903  1.00  0.00     0.165 HD
ENDBRANCH   8   9
ENDBRANCH   7   8
ENDBRANCH   6   7
ENDBRANCH   5   6
BRANCH   1  17
HETATM   17  C2  UNL     1       1.340  17.608 -36.881  1.00  0.00     0.087 C 
BRANCH  17  18
HETATM   18  C1  UNL     1       0.094  16.954 -37.431  1.00  0.00     0.235 C 
BRANCH  18  19
HETATM   19  N1  UNL     1      -0.742  16.409 -36.398  1.00  0.00    -0.079 N 
ATOM     20  H13 UNL     1      -0.533  16.832 -35.494  1.00  0.00     0.274 HD
ATOM     21  H12 UNL     1      -1.708  16.719 -36.504  1.00  0.00     0.274 HD
ATOM     22  H11 UNL     1      -0.686  15.392 -36.348  1.00  0.00     0.274 HD
ENDBRANCH  18  19
ENDBRANCH  17  18
ENDBRANCH   1  17
TORSDOF 7
ENDMDL
MODEL 5
REMARK VINA RESULT: -5.692994548      2.234      5.132
REMARK  7 active torsions:
REMARK  status: ('A' for Active; 'I' for Inactive)
REMARK    1  A    between atoms: N1_1  and  C1_5 
REMARK    2  A    between atoms: C1_5  and  C2_6 
REMARK    3  A    between atoms: C2_6  and  C3_7 
REMARK    4  A    between atoms: N3_11  and  C5_12 
REMARK    5  A    between atoms: C5_12  and  C6_13 
REMARK    6  A    between atoms: C6_13  and  C7_14 
REMARK    7  A    between atoms: C7_14  and  C8_15 
ROOT
HETATM    1  C3  UNL     1       3.399  16.931 -38.739  1.00  0.00     0.047 A 
HETATM    2  C4  UNL     1       2.271  16.544 -38.077  1.00  0.00     0.134 A 
HETATM    3  N2  UNL     1       2.274  15.364 -38.686  1.00  0.00    -0.308 N 
ATOM      4  H2  UNL     1       1.684  14.533 -38.663  1.00  0.00     0.186 HD
HETATM    5  N3  UNL     1       3.365  15.725 -39.333  1.00  0.00    -0.295 N 
ENDROOT
BRANCH   5   6
HETATM    6  C5  UNL     1       4.221  15.090 -40.313  1.00  0.00     0.149 C 
BRANCH   6   7
HETATM    7  C6  UNL     1       3.500  14.858 -41.628  1.00  0.00     0.028 C 
BRANCH   7   8
HETATM    8  C7  UNL     1       3.026  16.215 -42.114  1.00  0.00     0.060 C 
BRANCH   8   9
HETATM    9  C8  UNL     1       3.289  16.398 -43.567  1.00  0.00     0.024 A 
HETATM   10  C9  UNL     1       2.397  17.110 -44.341  1.00  0.00     0.112 A 
HETATM   11  N4  UNL     1       2.601  17.296 -45.659  1.00  0.00    -0.372 N 
HETATM   12  C10 UNL     1       3.685  16.794 -46.276  1.00  0.00     0.104 A 
ATOM     13  H4  UNL     1       1.920  17.829 -46.199  1.00  0.00     0.164 HD
HETATM   14  C11 UNL     1       4.581  16.082 -45.516  1.00  0.00     0.105 A 
HETATM   15  N5  UNL     1       4.374  15.895 -44.184  1.00  0.00    -0.367 N 
ATOM     16  H5  UNL     1       5.055  15.363 -43.643  1.00  0.00     0.165 HD
ENDBRANCH   8   9
ENDBRANCH   7   8
ENDBRANCH   6   7
ENDBRANCH   5   6
BRANCH   1  17
HETATM   17  C2  UNL     1       4.247  18.145 -38.762  1.00  0.00     0.087 C 
BRANCH  17  18
HETATM   18  C1  UNL     1       3.566  19.223 -39.574  1.00  0.00     0.235 C 
BRANCH  18  19
HETATM   19  N1  UNL     1       4.166  19.399 -40.867  1.00  0.00    -0.079 N 
ATOM     20  H13 UNL     1       4.970  18.783 -40.986  1.00  0.00     0.274 HD
ATOM     21  H12 UNL     1       3.566  19.029 -41.604  1.00  0.00     0.274 HD
ATOM     22  H11 UNL     1       4.417  20.370 -41.051  1.00  0.00     0.274 HD
ENDBRANCH  18  19
ENDBRANCH  17  18
ENDBRANCH   1  17
TORSDOF 7
ENDMDL
