MODEL 1
REMARK VINA RESULT: -6.153659077      0.000      0.000
REMARK  6 active torsions:
REMARK  status: ('A' for Active; 'I' for Inactive)
REMARK    1  A    between atoms: N2_6  and  C3_7 
REMARK    2  A    between atoms: C3_7  and  C4_8 
REMARK    3  A    between atoms: C4_8  and  C5_9 
REMARK    4  A    between atoms: C5_9  and  N3_10 
REMARK    5  A    between atoms: N3_10  and  C6_12 
REMARK    6  A    between atoms: C6_12  and  C7_13 
ROOT
HETATM    1  N1  UNL     1      -1.192  16.128 -36.297  1.00  0.00    -0.382 N 
ATOM      2  H11 UNL     1      -2.158  15.917 -36.547  1.00  0.00     0.158 HD
ATOM      3  H12 UNL     1      -0.797  15.787 -35.421  1.00  0.00     0.158 HD
HETATM    4  C1  UNL     1      -0.474  16.830 -37.096  1.00  0.00     0.129 C 
HETATM    5  C2  UNL     1       0.913  17.132 -36.737  1.00  0.00     0.205 C 
HETATM    6  N2  UNL     1       1.677  17.798 -37.734  1.00  0.00    -0.384 N 
HETATM    7  C10 UNL     1       0.932  18.530 -38.688  1.00  0.00     0.149 C 
HETATM    8  C11 UNL     1      -0.105  17.628 -39.342  1.00  0.00     0.197 C 
HETATM    9  O1  UNL     1      -1.009  17.290 -38.280  1.00  0.00    -0.337 OA
ENDROOT
BRANCH   6  10
HETATM   10  C3  UNL     1       2.741  16.988 -38.166  1.00  0.00     0.060 C 
BRANCH  10  11
HETATM   11  C4  UNL     1       3.890  17.726 -38.802  1.00  0.00     0.063 C 
BRANCH  11  12
HETATM   12  C5  UNL     1       4.569  16.749 -39.735  1.00  0.00     0.118 C 
BRANCH  12  13
HETATM   13  N3  UNL     1       3.803  16.555 -40.955  1.00  0.00    -0.420 N 
ATOM     14  H3  UNL     1       3.354  17.326 -41.449  1.00  0.00     0.153 HD
BRANCH  13  15
HETATM   15  C6  UNL     1       3.728  15.209 -41.406  1.00  0.00     0.118 C 
BRANCH  15  16
HETATM   16  C7  UNL     1       4.132  14.260 -40.301  1.00  0.00     0.003 A 
HETATM   17  C8  UNL     1       3.212  13.240 -39.772  1.00  0.00     0.007 A 
HETATM   18  C9  UNL     1       4.317  12.814 -40.688  1.00  0.00     0.007 A 
ENDBRANCH  15  16
ENDBRANCH  13  15
ENDBRANCH  12  13
ENDBRANCH  11  12
ENDBRANCH  10  11
ENDBRANCH   6  10
TORSDOF 6
ENDMDL
MODEL 2
REMARK VINA RESULT: -6.017046065      4.625      5.761
REMARK  6 active torsions:
REMARK  status: ('A' for Active; 'I' for Inactive)
REMARK    1  A    between atoms: N2_6  and  C3_7 
REMARK    2  A    between atoms: C3_7  and  C4_8 
REMARK    3  A    between atoms: C4_8  and  C5_9 
REMARK    4  A    between atoms: C5_9  and  N3_10 
REMARK    5  A    between atoms: N3_10  and  C6_12 
REMARK    6  A    between atoms: C6_12  and  C7_13 
ROOT
HETATM    1  N1  UNL     1      -2.280  20.221 -46.022  1.00  0.00    -0.382 N 
ATOM      2  H11 UNL     1      -3.051  20.885 -46.098  1.00  0.00     0.158 HD
ATOM      3  H12 UNL     1      -1.480  20.282 -46.651  1.00  0.00     0.158 HD
HETATM    4  C1  UNL     1      -2.325  19.304 -45.126  1.00  0.00     0.129 C 
HETATM    5  C2  UNL     1      -1.217  18.352 -45.018  1.00  0.00     0.205 C 
HETATM    6  N2  UNL     1      -1.281  17.454 -43.918  1.00  0.00    -0.384 N 
HETATM    7  C10 UNL     1      -2.573  17.223 -43.391  1.00  0.00     0.149 C 
HETATM    8  C11 UNL     1      -3.228  18.547 -43.022  1.00  0.00     0.197 C 
HETATM    9  O1  UNL     1      -3.406  19.222 -44.276  1.00  0.00    -0.337 OA
ENDROOT
BRANCH   6  10
HETATM   10  C3  UNL     1      -0.207  17.672 -43.037  1.00  0.00     0.060 C 
BRANCH  10  11
HETATM   11  C4  UNL     1       1.130  17.181 -43.524  1.00  0.00     0.063 C 
BRANCH  11  12
HETATM   12  C5  UNL     1       2.036  17.120 -42.315  1.00  0.00     0.118 C 
BRANCH  12  13
HETATM   13  N3  UNL     1       3.361  16.636 -42.664  1.00  0.00    -0.420 N 
ATOM     14  H3  UNL     1       4.074  17.237 -43.078  1.00  0.00     0.153 HD
BRANCH  13  15
HETATM   15  C6  UNL     1       3.586  15.260 -42.385  1.00  0.00     0.118 C 
BRANCH  15  16
HETATM   16  C7  UNL     1       4.163  15.092 -40.998  1.00  0.00     0.003 A 
HETATM   17  C8  UNL     1       3.444  14.369 -39.936  1.00  0.00     0.007 A 
HETATM   18  C9  UNL     1       4.601  13.700 -40.614  1.00  0.00     0.007 A 
ENDBRANCH  15  16
ENDBRANCH  13  15
ENDBRANCH  12  13
ENDBRANCH  11  12
ENDBRANCH  10  11
ENDBRANCH   6  10
TORSDOF 6
ENDMDL
MODEL 3
REMARK VINA RESULT: -5.880774993      1.802      2.324
REMARK  6 active torsions:
REMARK  status: ('A' for Active; 'I' for Inactive)
REMARK    1  A    between atoms: N2_6  and  C3_7 
REMARK    2  A    between atoms: C3_7  and  C4_8 
REMARK    3  A    between atoms: C4_8  and  C5_9 
REMARK    4  A    between atoms: C5_9  and  N3_10 
REMARK    5  A    between atoms: N3_10  and  C6_12 
REMARK    6  A    between atoms: C6_12  and  C7_13 
ROOT
HETATM    1  N1  UNL     1       0.756  17.453 -35.993  1.00  0.00    -0.382 N 
ATOM      2  H11 UNL     1       0.542  18.211 -35.344  1.00  0.00     0.158 HD
ATOM      3  H12 UNL     1       0.309  16.542 -35.892  1.00  0.00     0.158 HD
HETATM    4  C1  UNL     1       1.596  17.656 -36.941  1.00  0.00     0.129 C 
HETATM    5  C2  UNL     1       1.903  16.568 -37.872  1.00  0.00     0.205 C 
HETATM    6  N2  UNL     1       2.738  16.914 -38.969  1.00  0.00    -0.384 N 
HETATM    7  C10 UNL     1       3.568  18.042 -38.775  1.00  0.00     0.149 C 
HETATM    8  C11 UNL     1       2.726  19.242 -38.364  1.00  0.00     0.197 C 
HETATM    9  O1  UNL     1       2.199  18.887 -37.077  1.00  0.00    -0.337 OA
ENDROOT
BRANCH   6  10
HETATM   10  C3  UNL     1       2.047  16.769 -40.184  1.00  0.00     0.060 C 
BRANCH  10  11
HETATM   11  C4  UNL     1       2.838  17.114 -41.417  1.00  0.00     0.063 C 
BRANCH  11  12
HETATM   12  C5  UNL     1       3.302  15.806 -42.015  1.00  0.00     0.118 C 
BRANCH  12  13
HETATM   13  N3  UNL     1       4.685  15.521 -41.670  1.00  0.00    -0.420 N 
ATOM     14  H3  UNL     1       5.470  16.012 -42.099  1.00  0.00     0.153 HD
BRANCH  13  15
HETATM   15  C6  UNL     1       4.860  14.507 -40.688  1.00  0.00     0.118 C 
BRANCH  15  16
HETATM   16  C7  UNL     1       3.762  13.475 -40.798  1.00  0.00     0.003 A 
HETATM   17  C8  UNL     1       3.937  12.095 -40.316  1.00  0.00     0.007 A 
HETATM   18  C9  UNL     1       3.110  13.045 -39.506  1.00  0.00     0.007 A 
ENDBRANCH  15  16
ENDBRANCH  13  15
ENDBRANCH  12  13
ENDBRANCH  11  12
ENDBRANCH  10  11
ENDBRANCH   6  10
TORSDOF 6
ENDMDL
MODEL 4
REMARK VINA RESULT: -5.759972259      1.858      2.284
REMARK  6 active torsions:
REMARK  status: ('A' for Active; 'I' for Inactive)
REMARK    1  A    between atoms: N2_6  and  C3_7 
REMARK    2  A    between atoms: C3_7  and  C4_8 
REMARK    3  A    between atoms: C4_8  and  C5_9 
REMARK    4  A    between atoms: C5_9  and  N3_10 
REMARK    5  A    between atoms: N3_10  and  C6_12 
REMARK    6  A    between atoms: C6_12  and  C7_13 
ROOT
HETATM    1  N1  UNL     1      -0.380  18.604 -40.681  1.00  0.00    -0.382 N 
ATOM      2  H11 UNL     1      -0.864  19.396 -41.105  1.00  0.00     0.158 HD
ATOM      3  H12 UNL     1      -0.548  17.655 -41.015  1.00  0.00     0.158 HD
HETATM    4  C1  UNL     1       0.443  18.811 -39.720  1.00  0.00     0.129 C 
HETATM    5  C2  UNL     1       1.137  17.673 -39.112  1.00  0.00     0.205 C 
HETATM    6  N2  UNL     1       2.129  18.000 -38.148  1.00  0.00    -0.384 N 
HETATM    7  C10 UNL     1       1.982  19.259 -37.521  1.00  0.00     0.149 C 
HETATM    8  C11 UNL     1       1.898  20.357 -38.573  1.00  0.00     0.197 C 
HETATM    9  O1  UNL     1       0.670  20.093 -39.269  1.00  0.00    -0.337 OA
ENDROOT
BRANCH   6  10
HETATM   10  C3  UNL     1       3.401  17.594 -38.587  1.00  0.00     0.060 C 
BRANCH  10  11
HETATM   11  C4  UNL     1       3.497  17.265 -40.053  1.00  0.00     0.063 C 
BRANCH  11  12
HETATM   12  C5  UNL     1       4.559  16.198 -40.189  1.00  0.00     0.118 C 
BRANCH  12  13
HETATM   13  N3  UNL     1       4.552  15.602 -41.515  1.00  0.00    -0.420 N 
ATOM     14  H3  UNL     1       4.953  16.069 -42.328  1.00  0.00     0.153 HD
BRANCH  13  15
HETATM   15  C6  UNL     1       3.942  14.320 -41.591  1.00  0.00     0.118 C 
BRANCH  15  16
HETATM   16  C7  UNL     1       4.163  13.556 -40.306  1.00  0.00     0.003 A 
HETATM   17  C8  UNL     1       3.083  12.797 -39.654  1.00  0.00     0.007 A 
HETATM   18  C9  UNL     1       4.142  12.050 -40.406  1.00  0.00     0.007 A 
ENDBRANCH  15  16
ENDBRANCH  13  15
ENDBRANCH  12  13
ENDBRANCH  11  12
ENDBRANCH  10  11
ENDBRANCH   6  10
TORSDOF 6
ENDMDL
MODEL 5
REMARK VINA RESULT: -5.737285542      4.983      6.175
REMARK  6 active torsions:
REMARK  status: ('A' for Active; 'I' for Inactive)
REMARK    1  A    between atoms: N2_6  and  C3_7 
REMARK    2  A    between atoms: C3_7  and  C4_8 
REMARK    3  A    between atoms: C4_8  and  C5_9 
REMARK    4  A    between atoms: C5_9  and  N3_10 
REMARK    5  A    between atoms: N3_10  and  C6_12 
REMARK    6  A    between atoms: C6_12  and  C7_13 
ROOT
HETATM    1  N1  UNL     1      -2.320  20.513 -46.209  1.00  0.00    -0.382 N 
ATOM      2  H11 UNL     1      -3.126  21.058 -46.516  1.00  0.00     0.158 HD
ATOM      3  H12 UNL     1      -1.375  20.797 -46.465  1.00  0.00     0.158 HD
HETATM    4  C1  UNL     1      -2.506  19.464 -45.496  1.00  0.00     0.129 C 
HETATM    5  C2  UNL     1      -1.348  18.682 -45.055  1.00  0.00     0.205 C 
HETATM    6  N2  UNL     1      -1.630  17.614 -44.160  1.00  0.00    -0.384 N 
HETATM    7  C10 UNL     1      -2.950  17.109 -44.206  1.00  0.00     0.149 C 
HETATM    8  C11 UNL     1      -3.948  18.240 -43.998  1.00  0.00     0.197 C 
HETATM    9  O1  UNL     1      -3.783  19.081 -45.150  1.00  0.00    -0.337 OA
ENDROOT
BRANCH   6  10
HETATM   10  C3  UNL     1      -1.023  17.839 -42.912  1.00  0.00     0.060 C 
BRANCH  10  11
HETATM   11  C4  UNL     1       0.460  17.585 -42.866  1.00  0.00     0.063 C 
BRANCH  11  12
HETATM   12  C5  UNL     1       0.911  17.905 -41.459  1.00  0.00     0.118 C 
BRANCH  12  13
HETATM   13  N3  UNL     1       2.355  17.803 -41.325  1.00  0.00    -0.420 N 
ATOM     14  H3  UNL     1       2.937  18.593 -41.049  1.00  0.00     0.153 HD
BRANCH  13  15
HETATM   15  C6  UNL     1       2.891  16.517 -41.608  1.00  0.00     0.118 C 
BRANCH  15  16
HETATM   16  C7  UNL     1       3.585  15.956 -40.389  1.00  0.00     0.003 A 
HETATM   17  C8  UNL     1       3.558  14.520 -40.066  1.00  0.00     0.007 A 
HETATM   18  C9  UNL     1       4.809  15.111 -40.639  1.00  0.00     0.007 A 
ENDBRANCH  15  16
ENDBRANCH  13  15
ENDBRANCH  12  13
ENDBRANCH  11  12
ENDBRANCH  10  11
ENDBRANCH   6  10
TORSDOF 6
ENDMDL
