MODEL 1
REMARK VINA RESULT: -5.644504919      0.000      0.000
REMARK  14 active torsions:
REMARK  status: ('A' for Active; 'I' for Inactive)
REMARK    1  A    between atoms: C2_2  and  C3_3 
REMARK    2  A    between atoms: C3_3  and  C10_10 
REMARK    3  A    between atoms: C4_4  and  C5_5 
REMARK    4  A    between atoms: C5_5  and  C6_6 
REMARK    5  A    between atoms: C6_6  and  C7_7 
REMARK    6  A    between atoms: C10_10  and  C11_11 
REMARK    7  A    between atoms: C11_11  and  C12_12 
REMARK    8  A    between atoms: C12_12  and  C13_14 
REMARK    9  A    between atoms: C14_15  and  C15_16 
REMARK   10  A    between atoms: N1_21  and  C20_22 
REMARK   11  A    between atoms: C20_22  and  C21_23 
REMARK   12  A    between atoms: C21_23  and  C22_24 
REMARK   13  A    between atoms: C22_24  and  C23_25 
REMARK   14  A    between atoms: C23_25  and  C24_26 
ROOT
HETATM    1  C15 UNL     1       0.193  -7.287  34.587  1.00  0.00     0.246 C 
HETATM    2  C16 UNL     1       0.845  -8.568  34.092  1.00  0.00     0.040 C 
HETATM    3  C17 UNL     1       2.295  -8.193  33.830  1.00  0.00     0.004 C 
HETATM    4  C18 UNL     1       2.334  -7.134  32.786  1.00  0.00     0.030 C 
HETATM    5  C19 UNL     1       1.386  -6.008  32.932  1.00  0.00     0.273 C 
HETATM    6  N1  UNL     1       0.111  -6.309  33.514  1.00  0.00     0.096 N 
ENDROOT
BRANCH   1   7
HETATM    7  C14 UNL     1       1.104  -6.715  35.608  1.00  0.00     0.012 C 
HETATM    8  C13 UNL     1       0.955  -6.644  36.880  1.00  0.00     0.048 C 
BRANCH   8   9
HETATM    9  C12 UNL     1      -0.164  -7.110  37.698  1.00  0.00     0.149 C 
HETATM   10  O1  UNL     1      -1.277  -6.588  37.538  1.00  0.00    -0.293 OA
BRANCH   9  11
HETATM   11  C11 UNL     1      -0.015  -8.167  38.690  1.00  0.00     0.087 C 
BRANCH  11  12
HETATM   12  C10 UNL     1      -1.198  -8.708  39.376  1.00  0.00     0.041 C 
BRANCH  12  13
HETATM   13  C3  UNL     1      -1.536  -8.188  40.720  1.00  0.00    -0.084 C 
HETATM   14  C4  UNL     1      -0.491  -7.935  41.533  1.00  0.00    -0.024 C 
BRANCH  13  15
HETATM   15  C2  UNL     1      -2.918  -7.975  41.165  1.00  0.00     0.029 C 
HETATM   16  C1  UNL     1      -3.717  -7.394  39.994  1.00  0.00     0.010 C 
ENDBRANCH  13  15
BRANCH  14  17
HETATM   17  C5  UNL     1      -0.544  -7.440  42.901  1.00  0.00     0.028 C 
BRANCH  17  18
HETATM   18  C6  UNL     1       0.439  -8.224  43.759  1.00  0.00     0.007 C 
BRANCH  18  19
HETATM   19  C7  UNL     1       0.830  -7.410  44.979  1.00  0.00    -0.023 C 
HETATM   20  C8  UNL     1      -0.401  -7.129  45.830  1.00  0.00     0.009 C 
HETATM   21  C9  UNL     1       1.916  -8.063  45.774  1.00  0.00     0.009 C 
ENDBRANCH  18  19
ENDBRANCH  17  18
ENDBRANCH  14  17
ENDBRANCH  12  13
ENDBRANCH  11  12
ENDBRANCH   9  11
ENDBRANCH   8   9
ENDBRANCH   1   7
BRANCH   6  22
HETATM   22  C20 UNL     1      -0.878  -6.653  32.517  1.00  0.00     0.273 C 
BRANCH  22  23
HETATM   23  C21 UNL     1      -0.431  -6.490  31.111  1.00  0.00     0.030 C 
BRANCH  23  24
HETATM   24  C22 UNL     1      -0.483  -7.817  30.389  1.00  0.00     0.004 C 
BRANCH  24  25
HETATM   25  C23 UNL     1      -1.314  -7.798  29.157  1.00  0.00     0.027 C 
BRANCH  25  26
HETATM   26  C24 UNL     1      -2.693  -8.348  29.457  1.00  0.00     0.102 A 
HETATM   27  C25 UNL     1      -3.144  -9.364  28.443  1.00  0.00     0.147 A 
HETATM   28  N2  UNL     1      -3.466 -10.571  29.187  1.00  0.00    -0.363 N 
HETATM   29  C26 UNL     1      -3.202 -10.416  30.436  1.00  0.00     0.184 A 
ATOM     30  H2  UNL     1      -3.848 -11.422  28.775  1.00  0.00     0.162 HD
HETATM   31  N3  UNL     1      -3.435 -11.472  31.379  1.00  0.00    -0.064 NA
HETATM   32  N4  UNL     1      -2.686  -9.121  30.681  1.00  0.00    -0.358 N 
ATOM     33  H4  UNL     1      -2.357  -8.783  31.586  1.00  0.00     0.162 HD
ENDBRANCH  25  26
ENDBRANCH  24  25
ENDBRANCH  23  24
ENDBRANCH  22  23
ENDBRANCH   6  22
TORSDOF 14
ENDMDL
MODEL 2
REMARK VINA RESULT: -5.575962432      1.599      2.854
REMARK  14 active torsions:
REMARK  status: ('A' for Active; 'I' for Inactive)
REMARK    1  A    between atoms: C2_2  and  C3_3 
REMARK    2  A    between atoms: C3_3  and  C10_10 
REMARK    3  A    between atoms: C4_4  and  C5_5 
REMARK    4  A    between atoms: C5_5  and  C6_6 
REMARK    5  A    between atoms: C6_6  and  C7_7 
REMARK    6  A    between atoms: C10_10  and  C11_11 
REMARK    7  A    between atoms: C11_11  and  C12_12 
REMARK    8  A    between atoms: C12_12  and  C13_14 
REMARK    9  A    between atoms: C14_15  and  C15_16 
REMARK   10  A    between atoms: N1_21  and  C20_22 
REMARK   11  A    between atoms: C20_22  and  C21_23 
REMARK   12  A    between atoms: C21_23  and  C22_24 
REMARK   13  A    between atoms: C22_24  and  C23_25 
REMARK   14  A    between atoms: C23_25  and  C24_26 
ROOT
HETATM    1  C15 UNL     1       1.477  -6.580  33.019  1.00  0.00     0.246 C 
HETATM    2  C16 UNL     1       1.804  -8.005  33.434  1.00  0.00     0.040 C 
HETATM    3  C17 UNL     1       3.233  -7.946  33.950  1.00  0.00     0.004 C 
HETATM    4  C18 UNL     1       4.121  -7.494  32.845  1.00  0.00     0.030 C 
HETATM    5  C19 UNL     1       3.667  -6.334  32.046  1.00  0.00     0.273 C 
HETATM    6  N1  UNL     1       2.254  -6.200  31.849  1.00  0.00     0.096 N 
ENDROOT
BRANCH   1   7
HETATM    7  C14 UNL     1       1.930  -5.702  34.126  1.00  0.00     0.012 C 
HETATM    8  C13 UNL     1       1.241  -5.155  35.059  1.00  0.00     0.048 C 
BRANCH   8   9
HETATM    9  C12 UNL     1      -0.198  -5.237  35.304  1.00  0.00     0.149 C 
HETATM   10  O1  UNL     1      -0.928  -4.330  34.877  1.00  0.00    -0.293 OA
BRANCH   9  11
HETATM   11  C11 UNL     1      -0.800  -6.348  36.030  1.00  0.00     0.087 C 
BRANCH  11  12
HETATM   12  C10 UNL     1       0.050  -7.403  36.603  1.00  0.00     0.041 C 
BRANCH  12  13
HETATM   13  C3  UNL     1       0.297  -7.396  38.062  1.00  0.00    -0.084 C 
HETATM   14  C4  UNL     1      -0.335  -8.352  38.772  1.00  0.00    -0.024 C 
BRANCH  13  15
HETATM   15  C2  UNL     1       1.157  -6.403  38.717  1.00  0.00     0.029 C 
HETATM   16  C1  UNL     1       2.591  -6.602  38.215  1.00  0.00     0.010 C 
ENDBRANCH  13  15
BRANCH  14  17
HETATM   17  C5  UNL     1      -0.280  -8.556  40.212  1.00  0.00     0.028 C 
BRANCH  17  18
HETATM   18  C6  UNL     1      -1.615  -8.161  40.828  1.00  0.00     0.007 C 
BRANCH  18  19
HETATM   19  C7  UNL     1      -1.390  -7.268  42.034  1.00  0.00    -0.023 C 
HETATM   20  C8  UNL     1      -0.257  -7.826  42.885  1.00  0.00     0.009 C 
HETATM   21  C9  UNL     1      -1.145  -5.843  41.650  1.00  0.00     0.009 C 
ENDBRANCH  18  19
ENDBRANCH  17  18
ENDBRANCH  14  17
ENDBRANCH  12  13
ENDBRANCH  11  12
ENDBRANCH   9  11
ENDBRANCH   8   9
ENDBRANCH   1   7
BRANCH   6  22
HETATM   22  C20 UNL     1       1.805  -6.857  30.642  1.00  0.00     0.273 C 
BRANCH  22  23
HETATM   23  C21 UNL     1       0.378  -6.631  30.301  1.00  0.00     0.030 C 
BRANCH  23  24
HETATM   24  C22 UNL     1      -0.308  -7.949  30.025  1.00  0.00     0.004 C 
BRANCH  24  25
HETATM   25  C23 UNL     1      -1.234  -7.912  28.862  1.00  0.00     0.027 C 
BRANCH  25  26
HETATM   26  C24 UNL     1      -2.613  -8.373  29.288  1.00  0.00     0.102 A 
HETATM   27  C25 UNL     1      -3.205  -9.378  28.337  1.00  0.00     0.147 A 
HETATM   28  N2  UNL     1      -3.533 -10.550  29.132  1.00  0.00    -0.363 N 
HETATM   29  C26 UNL     1      -3.157 -10.389  30.351  1.00  0.00     0.184 A 
ATOM     30  H2  UNL     1      -3.997 -11.385  28.773  1.00  0.00     0.162 HD
HETATM   31  N3  UNL     1      -3.371 -11.413  31.334  1.00  0.00    -0.064 NA
HETATM   32  N4  UNL     1      -2.547  -9.124  30.524  1.00  0.00    -0.358 N 
ATOM     33  H4  UNL     1      -2.125  -8.790  31.390  1.00  0.00     0.162 HD
ENDBRANCH  25  26
ENDBRANCH  24  25
ENDBRANCH  23  24
ENDBRANCH  22  23
ENDBRANCH   6  22
TORSDOF 14
ENDMDL
MODEL 3
REMARK VINA RESULT: -5.572947637      3.538      5.778
REMARK  14 active torsions:
REMARK  status: ('A' for Active; 'I' for Inactive)
REMARK    1  A    between atoms: C2_2  and  C3_3 
REMARK    2  A    between atoms: C3_3  and  C10_10 
REMARK    3  A    between atoms: C4_4  and  C5_5 
REMARK    4  A    between atoms: C5_5  and  C6_6 
REMARK    5  A    between atoms: C6_6  and  C7_7 
REMARK    6  A    between atoms: C10_10  and  C11_11 
REMARK    7  A    between atoms: C11_11  and  C12_12 
REMARK    8  A    between atoms: C12_12  and  C13_14 
REMARK    9  A    between atoms: C14_15  and  C15_16 
REMARK   10  A    between atoms: N1_21  and  C20_22 
REMARK   11  A    between atoms: C20_22  and  C21_23 
REMARK   12  A    between atoms: C21_23  and  C22_24 
REMARK   13  A    between atoms: C22_24  and  C23_25 
REMARK   14  A    between atoms: C23_25  and  C24_26 
ROOT
HETATM    1  C15 UNL     1      -0.067  -7.300  34.064  1.00  0.00     0.246 C 
HETATM    2  C16 UNL     1       0.767  -8.562  33.914  1.00  0.00     0.040 C 
HETATM    3  C17 UNL     1       2.182  -8.069  33.659  1.00  0.00     0.004 C 
HETATM    4  C18 UNL     1       2.191  -7.270  32.404  1.00  0.00     0.030 C 
HETATM    5  C19 UNL     1       1.112  -6.272  32.233  1.00  0.00     0.273 C 
HETATM    6  N1  UNL     1      -0.166  -6.601  32.792  1.00  0.00     0.096 N 
ENDROOT
BRANCH   1   7
HETATM    7  C14 UNL     1       0.682  -6.404  34.979  1.00  0.00     0.012 C 
HETATM    8  C13 UNL     1       0.513  -6.201  36.233  1.00  0.00     0.048 C 
BRANCH   8   9
HETATM    9  C12 UNL     1      -0.474  -6.798  37.133  1.00  0.00     0.149 C 
HETATM   10  O1  UNL     1      -0.173  -7.834  37.745  1.00  0.00    -0.293 OA
BRANCH   9  11
HETATM   11  C11 UNL     1      -1.794  -6.216  37.334  1.00  0.00     0.087 C 
BRANCH  11  12
HETATM   12  C10 UNL     1      -2.970  -7.087  37.486  1.00  0.00     0.041 C 
BRANCH  12  13
HETATM   13  C3  UNL     1      -4.175  -6.795  36.678  1.00  0.00    -0.084 C 
HETATM   14  C4  UNL     1      -3.969  -6.611  35.358  1.00  0.00    -0.024 C 
BRANCH  13  15
HETATM   15  C2  UNL     1      -5.517  -6.686  37.263  1.00  0.00     0.029 C 
HETATM   16  C1  UNL     1      -5.426  -7.052  38.747  1.00  0.00     0.010 C 
ENDBRANCH  13  15
BRANCH  14  17
HETATM   17  C5  UNL     1      -4.970  -6.295  34.350  1.00  0.00     0.028 C 
BRANCH  17  18
HETATM   18  C6  UNL     1      -5.461  -7.584  33.706  1.00  0.00     0.007 C 
BRANCH  18  19
HETATM   19  C7  UNL     1      -6.895  -7.420  33.238  1.00  0.00    -0.023 C 
HETATM   20  C8  UNL     1      -7.847  -7.601  34.412  1.00  0.00     0.009 C 
HETATM   21  C9  UNL     1      -7.119  -6.116  32.538  1.00  0.00     0.009 C 
ENDBRANCH  18  19
ENDBRANCH  17  18
ENDBRANCH  14  17
ENDBRANCH  12  13
ENDBRANCH  11  12
ENDBRANCH   9  11
ENDBRANCH   8   9
ENDBRANCH   1   7
BRANCH   6  22
HETATM   22  C20 UNL     1      -1.020  -7.281  31.845  1.00  0.00     0.273 C 
BRANCH  22  23
HETATM   23  C21 UNL     1      -2.383  -6.710  31.709  1.00  0.00     0.030 C 
BRANCH  23  24
HETATM   24  C22 UNL     1      -2.863  -6.839  30.281  1.00  0.00     0.004 C 
BRANCH  24  25
HETATM   25  C23 UNL     1      -4.293  -7.225  30.162  1.00  0.00     0.027 C 
BRANCH  25  26
HETATM   26  C24 UNL     1      -4.402  -8.645  29.646  1.00  0.00     0.102 A 
HETATM   27  C25 UNL     1      -3.128  -9.126  29.003  1.00  0.00     0.147 A 
HETATM   28  N2  UNL     1      -2.753 -10.345  29.700  1.00  0.00    -0.363 N 
HETATM   29  C26 UNL     1      -3.567 -10.582  30.667  1.00  0.00     0.184 A 
ATOM     30  H2  UNL     1      -1.954 -10.931  29.456  1.00  0.00     0.162 HD
HETATM   31  N3  UNL     1      -3.403 -11.734  31.508  1.00  0.00    -0.064 NA
HETATM   32  N4  UNL     1      -4.564  -9.580  30.739  1.00  0.00    -0.358 N 
ATOM     33  H4  UNL     1      -5.289  -9.526  31.454  1.00  0.00     0.162 HD
ENDBRANCH  25  26
ENDBRANCH  24  25
ENDBRANCH  23  24
ENDBRANCH  22  23
ENDBRANCH   6  22
TORSDOF 14
ENDMDL
MODEL 4
REMARK VINA RESULT: -5.551765321      3.717      9.188
REMARK  14 active torsions:
REMARK  status: ('A' for Active; 'I' for Inactive)
REMARK    1  A    between atoms: C2_2  and  C3_3 
REMARK    2  A    between atoms: C3_3  and  C10_10 
REMARK    3  A    between atoms: C4_4  and  C5_5 
REMARK    4  A    between atoms: C5_5  and  C6_6 
REMARK    5  A    between atoms: C6_6  and  C7_7 
REMARK    6  A    between atoms: C10_10  and  C11_11 
REMARK    7  A    between atoms: C11_11  and  C12_12 
REMARK    8  A    between atoms: C12_12  and  C13_14 
REMARK    9  A    between atoms: C14_15  and  C15_16 
REMARK   10  A    between atoms: N1_21  and  C20_22 
REMARK   11  A    between atoms: C20_22  and  C21_23 
REMARK   12  A    between atoms: C21_23  and  C22_24 
REMARK   13  A    between atoms: C22_24  and  C23_25 
REMARK   14  A    between atoms: C23_25  and  C24_26 
ROOT
HETATM    1  C15 UNL     1      -4.239  -7.091  32.129  1.00  0.00     0.246 C 
HETATM    2  C16 UNL     1      -5.556  -7.431  32.808  1.00  0.00     0.040 C 
HETATM    3  C17 UNL     1      -6.511  -6.325  32.388  1.00  0.00     0.004 C 
HETATM    4  C18 UNL     1      -5.979  -5.023  32.874  1.00  0.00     0.030 C 
HETATM    5  C19 UNL     1      -4.539  -4.760  32.656  1.00  0.00     0.273 C 
HETATM    6  N1  UNL     1      -3.660  -5.891  32.713  1.00  0.00     0.096 N 
ENDROOT
BRANCH   1   7
HETATM    7  C14 UNL     1      -4.563  -6.758  30.720  1.00  0.00     0.012 C 
HETATM    8  C13 UNL     1      -4.590  -7.524  29.692  1.00  0.00     0.048 C 
BRANCH   8   9
HETATM    9  C12 UNL     1      -4.309  -8.957  29.610  1.00  0.00     0.149 C 
HETATM   10  O1  UNL     1      -5.224  -9.758  29.849  1.00  0.00    -0.293 OA
BRANCH   9  11
HETATM   11  C11 UNL     1      -2.993  -9.471  29.255  1.00  0.00     0.087 C 
BRANCH  11  12
HETATM   12  C10 UNL     1      -1.940  -9.574  30.276  1.00  0.00     0.041 C 
BRANCH  12  13
HETATM   13  C3  UNL     1      -1.104  -8.384  30.552  1.00  0.00    -0.084 C 
HETATM   14  C4  UNL     1      -0.704  -8.228  31.830  1.00  0.00    -0.024 C 
BRANCH  13  15
HETATM   15  C2  UNL     1      -0.742  -7.410  29.516  1.00  0.00     0.029 C 
HETATM   16  C1  UNL     1       0.446  -7.967  28.725  1.00  0.00     0.010 C 
ENDBRANCH  13  15
BRANCH  14  17
HETATM   17  C5  UNL     1       0.101  -7.143  32.371  1.00  0.00     0.028 C 
BRANCH  17  18
HETATM   18  C6  UNL     1       0.976  -7.677  33.496  1.00  0.00     0.007 C 
BRANCH  18  19
HETATM   19  C7  UNL     1       2.393  -7.893  32.998  1.00  0.00    -0.023 C 
HETATM   20  C8  UNL     1       2.692  -6.931  31.856  1.00  0.00     0.009 C 
HETATM   21  C9  UNL     1       3.405  -7.784  34.094  1.00  0.00     0.009 C 
ENDBRANCH  18  19
ENDBRANCH  17  18
ENDBRANCH  14  17
ENDBRANCH  12  13
ENDBRANCH  11  12
ENDBRANCH   9  11
ENDBRANCH   8   9
ENDBRANCH   1   7
BRANCH   6  22
HETATM   22  C20 UNL     1      -3.137  -6.112  34.042  1.00  0.00     0.273 C 
BRANCH  22  23
HETATM   23  C21 UNL     1      -2.465  -4.938  34.653  1.00  0.00     0.030 C 
BRANCH  23  24
HETATM   24  C22 UNL     1      -1.245  -5.379  35.428  1.00  0.00     0.004 C 
BRANCH  24  25
HETATM   25  C23 UNL     1      -1.550  -6.298  36.556  1.00  0.00     0.027 C 
BRANCH  25  26
HETATM   26  C24 UNL     1      -0.340  -7.155  36.864  1.00  0.00     0.102 A 
HETATM   27  C25 UNL     1       0.783  -6.369  37.486  1.00  0.00     0.147 A 
HETATM   28  N2  UNL     1       1.096  -7.027  38.744  1.00  0.00    -0.363 N 
HETATM   29  C26 UNL     1       0.288  -8.005  38.956  1.00  0.00     0.184 A 
ATOM     30  H2  UNL     1       1.852  -6.752  39.371  1.00  0.00     0.162 HD
HETATM   31  N3  UNL     1       0.395  -8.811  40.138  1.00  0.00    -0.064 NA
HETATM   32  N4  UNL     1      -0.643  -8.124  37.896  1.00  0.00    -0.358 N 
ATOM     33  H4  UNL     1      -1.412  -8.793  37.865  1.00  0.00     0.162 HD
ENDBRANCH  25  26
ENDBRANCH  24  25
ENDBRANCH  23  24
ENDBRANCH  22  23
ENDBRANCH   6  22
TORSDOF 14
ENDMDL
MODEL 5
REMARK VINA RESULT: -5.542581338      2.734      4.246
REMARK  14 active torsions:
REMARK  status: ('A' for Active; 'I' for Inactive)
REMARK    1  A    between atoms: C2_2  and  C3_3 
REMARK    2  A    between atoms: C3_3  and  C10_10 
REMARK    3  A    between atoms: C4_4  and  C5_5 
REMARK    4  A    between atoms: C5_5  and  C6_6 
REMARK    5  A    between atoms: C6_6  and  C7_7 
REMARK    6  A    between atoms: C10_10  and  C11_11 
REMARK    7  A    between atoms: C11_11  and  C12_12 
REMARK    8  A    between atoms: C12_12  and  C13_14 
REMARK    9  A    between atoms: C14_15  and  C15_16 
REMARK   10  A    between atoms: N1_21  and  C20_22 
REMARK   11  A    between atoms: C20_22  and  C21_23 
REMARK   12  A    between atoms: C21_23  and  C22_24 
REMARK   13  A    between atoms: C22_24  and  C23_25 
REMARK   14  A    between atoms: C23_25  and  C24_26 
ROOT
HETATM    1  C15 UNL     1       1.294  -6.648  32.707  1.00  0.00     0.246 C 
HETATM    2  C16 UNL     1       1.630  -8.016  33.278  1.00  0.00     0.040 C 
HETATM    3  C17 UNL     1       3.034  -7.871  33.845  1.00  0.00     0.004 C 
HETATM    4  C18 UNL     1       3.961  -7.511  32.738  1.00  0.00     0.030 C 
HETATM    5  C19 UNL     1       3.520  -6.448  31.808  1.00  0.00     0.273 C 
HETATM    6  N1  UNL     1       2.114  -6.369  31.538  1.00  0.00     0.096 N 
ENDROOT
BRANCH   1   7
HETATM    7  C14 UNL     1       1.679  -5.653  33.737  1.00  0.00     0.012 C 
HETATM    8  C13 UNL     1       1.013  -5.236  34.750  1.00  0.00     0.048 C 
BRANCH   8   9
HETATM    9  C12 UNL     1      -0.328  -5.624  35.188  1.00  0.00     0.149 C 
HETATM   10  O1  UNL     1      -1.302  -4.990  34.755  1.00  0.00    -0.293 OA
BRANCH   9  11
HETATM   11  C11 UNL     1      -0.555  -6.728  36.110  1.00  0.00     0.087 C 
BRANCH  11  12
HETATM   12  C10 UNL     1      -0.407  -6.523  37.559  1.00  0.00     0.041 C 
BRANCH  12  13
HETATM   13  C3  UNL     1       0.773  -7.104  38.238  1.00  0.00    -0.084 C 
HETATM   14  C4  UNL     1       1.970  -6.606  37.867  1.00  0.00    -0.024 C 
BRANCH  13  15
HETATM   15  C2  UNL     1       0.668  -8.172  39.239  1.00  0.00     0.029 C 
HETATM   16  C1  UNL     1      -0.772  -8.694  39.236  1.00  0.00     0.010 C 
ENDBRANCH  13  15
BRANCH  14  17
HETATM   17  C5  UNL     1       3.278  -7.011  38.360  1.00  0.00     0.028 C 
BRANCH  17  18
HETATM   18  C6  UNL     1       4.229  -7.181  37.184  1.00  0.00     0.007 C 
BRANCH  18  19
HETATM   19  C7  UNL     1       5.017  -5.904  36.960  1.00  0.00    -0.023 C 
HETATM   20  C8  UNL     1       6.016  -5.707  38.092  1.00  0.00     0.009 C 
HETATM   21  C9  UNL     1       5.683  -5.873  35.621  1.00  0.00     0.009 C 
ENDBRANCH  18  19
ENDBRANCH  17  18
ENDBRANCH  14  17
ENDBRANCH  12  13
ENDBRANCH  11  12
ENDBRANCH   9  11
ENDBRANCH   8   9
ENDBRANCH   1   7
BRANCH   6  22
HETATM   22  C20 UNL     1       1.733  -7.155  30.387  1.00  0.00     0.273 C 
BRANCH  22  23
HETATM   23  C21 UNL     1       0.337  -6.950  29.924  1.00  0.00     0.030 C 
BRANCH  23  24
HETATM   24  C22 UNL     1       0.129  -7.613  28.582  1.00  0.00     0.004 C 
BRANCH  24  25
HETATM   25  C23 UNL     1      -0.482  -8.965  28.669  1.00  0.00     0.027 C 
BRANCH  25  26
HETATM   26  C24 UNL     1      -1.854  -8.870  29.305  1.00  0.00     0.102 A 
HETATM   27  C25 UNL     1      -2.932  -9.477  28.447  1.00  0.00     0.147 A 
HETATM   28  N2  UNL     1      -3.592 -10.480  29.268  1.00  0.00    -0.363 N 
HETATM   29  C26 UNL     1      -3.014 -10.578  30.413  1.00  0.00     0.184 A 
ATOM     30  H2  UNL     1      -4.401 -11.029  28.976  1.00  0.00     0.162 HD
HETATM   31  N3  UNL     1      -3.484 -11.506  31.402  1.00  0.00    -0.064 NA
HETATM   32  N4  UNL     1      -1.925  -9.679  30.503  1.00  0.00    -0.358 N 
ATOM     33  H4  UNL     1      -1.286  -9.611  31.295  1.00  0.00     0.162 HD
ENDBRANCH  25  26
ENDBRANCH  24  25
ENDBRANCH  23  24
ENDBRANCH  22  23
ENDBRANCH   6  22
TORSDOF 14
ENDMDL
