MODEL 1
REMARK VINA RESULT: -4.458389146      0.000      0.000
REMARK  16 active torsions:
REMARK  status: ('A' for Active; 'I' for Inactive)
REMARK    1  A    between atoms: C2_2  and  C3_3 
REMARK    2  A    between atoms: C3_3  and  C4_4 
REMARK    3  A    between atoms: C4_4  and  C5_5 
REMARK    4  A    between atoms: C5_5  and  C6_6 
REMARK    5  A    between atoms: C11_13  and  C12_14 
REMARK    6  A    between atoms: C12_14  and  C13_15 
REMARK    7  A    between atoms: C14_16  and  C15_17 
REMARK    8  A    between atoms: C15_17  and  C17_19 
REMARK    9  A    between atoms: C19_21  and  C20_22 
REMARK   10  A    between atoms: C20_22  and  C21_23 
REMARK   11  A    between atoms: C21_23  and  O2_24 
REMARK   12  A    between atoms: C21_23  and  C22_26 
REMARK   13  A    between atoms: C22_26  and  C26_31 
REMARK   14  A    between atoms: C23_27  and  C24_28 
REMARK   15  A    between atoms: C24_28  and  O3_29 
REMARK   16  A    between atoms: C26_31  and  O4_32 
ROOT
HETATM    1  C5  UNL     1      -0.610  -6.382  29.812  1.00  0.00    -0.020 C 
HETATM    2  C8  UNL     1      -1.827  -5.615  30.230  1.00  0.00     0.135 C 
HETATM    3  N1  UNL     1      -1.792  -5.212  31.637  1.00  0.00    -0.355 N 
HETATM    4  C9  UNL     1      -2.558  -4.089  32.153  1.00  0.00     0.152 C 
HETATM    5  C10 UNL     1      -0.933  -5.998  32.429  1.00  0.00     0.224 C 
HETATM    6  O1  UNL     1      -0.324  -5.443  33.412  1.00  0.00    -0.273 OA
HETATM    7  C11 UNL     1      -0.777  -7.435  32.075  1.00  0.00     0.086 C 
HETATM    8  C19 UNL     1      -0.328  -7.629  30.653  1.00  0.00     0.012 C 
ENDROOT
BRANCH   8   9
HETATM    9  C20 UNL     1      -1.009  -8.809  30.004  1.00  0.00     0.042 C 
BRANCH   9  10
HETATM   10  C21 UNL     1      -2.209  -9.389  30.689  1.00  0.00     0.149 C 
BRANCH  10  11
HETATM   11  O2  UNL     1      -2.163 -10.714  30.924  1.00  0.00    -0.391 OA
ATOM     12  H2  UNL     1      -2.181 -10.970  31.839  1.00  0.00     0.210 HD
ENDBRANCH  10  11
BRANCH  10  13
HETATM   13  C22 UNL     1      -3.421  -9.021  29.898  1.00  0.00    -0.030 C 
HETATM   14  C23 UNL     1      -4.432  -8.327  30.319  1.00  0.00     0.006 C 
BRANCH  14  15
HETATM   15  C24 UNL     1      -4.765  -7.694  31.591  1.00  0.00     0.194 C 
BRANCH  15  16
HETATM   16  O3  UNL     1      -5.156  -8.683  32.522  1.00  0.00    -0.392 OA
HETATM   17  C25 UNL     1      -5.901  -8.078  33.540  1.00  0.00     0.201 C 
ENDBRANCH  15  16
ENDBRANCH  14  15
BRANCH  13  18
HETATM   18  C26 UNL     1      -3.501  -9.525  28.464  1.00  0.00     0.200 C 
BRANCH  18  19
HETATM   19  O4  UNL     1      -4.028 -10.807  28.533  1.00  0.00    -0.397 OA
ATOM     20  H4  UNL     1      -3.448 -11.360  28.021  1.00  0.00     0.209 HD
ENDBRANCH  18  19
ENDBRANCH  13  18
ENDBRANCH  10  13
ENDBRANCH   9  10
ENDBRANCH   8   9
BRANCH   1  21
HETATM   21  C4  UNL     1      -0.967  -6.834  28.372  1.00  0.00     0.011 C 
BRANCH  21  22
HETATM   22  C3  UNL     1      -2.119  -6.038  27.830  1.00  0.00     0.000 C 
BRANCH  22  23
HETATM   23  C2  UNL     1      -2.441  -6.589  26.443  1.00  0.00    -0.005 C 
HETATM   24  C1  UNL     1      -1.423  -7.591  25.992  1.00  0.00     0.005 C 
ENDBRANCH  22  23
ENDBRANCH  21  22
ENDBRANCH   1  21
BRANCH   1  25
HETATM   25  C6  UNL     1       0.566  -5.474  29.789  1.00  0.00     0.007 C 
HETATM   26  C7  UNL     1       1.867  -6.128  29.387  1.00  0.00     0.006 C 
ENDBRANCH   1  25
BRANCH   7  27
HETATM   27  C12 UNL     1       0.078  -8.034  33.133  1.00  0.00     0.041 C 
BRANCH  27  28
HETATM   28  C13 UNL     1       1.539  -7.812  32.925  1.00  0.00    -0.029 C 
HETATM   29  C14 UNL     1       2.489  -7.818  33.817  1.00  0.00    -0.026 C 
BRANCH  29  30
HETATM   30  C15 UNL     1       3.917  -7.594  33.556  1.00  0.00     0.003 C 
HETATM   31  C16 UNL     1       4.134  -7.101  32.132  1.00  0.00     0.014 C 
BRANCH  30  32
HETATM   32  C17 UNL     1       4.634  -6.717  34.511  1.00  0.00     0.003 C 
HETATM   33  C18 UNL     1       4.516  -7.073  35.957  1.00  0.00     0.006 C 
ENDBRANCH  30  32
ENDBRANCH  29  30
ENDBRANCH  27  28
ENDBRANCH   7  27
TORSDOF 16
ENDMDL
MODEL 2
REMARK VINA RESULT: -4.388160654      1.198      1.461
REMARK  16 active torsions:
REMARK  status: ('A' for Active; 'I' for Inactive)
REMARK    1  A    between atoms: C2_2  and  C3_3 
REMARK    2  A    between atoms: C3_3  and  C4_4 
REMARK    3  A    between atoms: C4_4  and  C5_5 
REMARK    4  A    between atoms: C5_5  and  C6_6 
REMARK    5  A    between atoms: C11_13  and  C12_14 
REMARK    6  A    between atoms: C12_14  and  C13_15 
REMARK    7  A    between atoms: C14_16  and  C15_17 
REMARK    8  A    between atoms: C15_17  and  C17_19 
REMARK    9  A    between atoms: C19_21  and  C20_22 
REMARK   10  A    between atoms: C20_22  and  C21_23 
REMARK   11  A    between atoms: C21_23  and  O2_24 
REMARK   12  A    between atoms: C21_23  and  C22_26 
REMARK   13  A    between atoms: C22_26  and  C26_31 
REMARK   14  A    between atoms: C23_27  and  C24_28 
REMARK   15  A    between atoms: C24_28  and  O3_29 
REMARK   16  A    between atoms: C26_31  and  O4_32 
ROOT
HETATM    1  C5  UNL     1      -0.282  -7.062  29.054  1.00  0.00    -0.020 C 
HETATM    2  C8  UNL     1      -1.428  -6.122  28.835  1.00  0.00     0.135 C 
HETATM    3  N1  UNL     1      -1.634  -5.202  29.955  1.00  0.00    -0.355 N 
HETATM    4  C9  UNL     1      -2.311  -3.923  29.809  1.00  0.00     0.152 C 
HETATM    5  C10 UNL     1      -1.096  -5.663  31.172  1.00  0.00     0.224 C 
HETATM    6  O1  UNL     1      -0.633  -4.804  32.004  1.00  0.00    -0.273 OA
HETATM    7  C11 UNL     1      -1.090  -7.130  31.420  1.00  0.00     0.086 C 
HETATM    8  C19 UNL     1      -0.382  -7.893  30.335  1.00  0.00     0.012 C 
ENDROOT
BRANCH   8   9
HETATM    9  C20 UNL     1      -1.081  -9.191  30.011  1.00  0.00     0.042 C 
BRANCH   9  10
HETATM   10  C21 UNL     1      -2.336  -9.516  30.762  1.00  0.00     0.149 C 
BRANCH  10  11
HETATM   11  O2  UNL     1      -2.478 -10.803  31.130  1.00  0.00    -0.391 OA
ATOM     12  H2  UNL     1      -2.584 -10.955  32.063  1.00  0.00     0.210 HD
ENDBRANCH  10  11
BRANCH  10  13
HETATM   13  C22 UNL     1      -3.500  -9.055  29.947  1.00  0.00    -0.030 C 
HETATM   14  C23 UNL     1      -4.483  -8.317  30.361  1.00  0.00     0.006 C 
BRANCH  14  15
HETATM   15  C24 UNL     1      -4.820  -7.707  31.643  1.00  0.00     0.194 C 
BRANCH  15  16
HETATM   16  O3  UNL     1      -5.179  -8.715  32.566  1.00  0.00    -0.392 OA
HETATM   17  C25 UNL     1      -5.942  -8.141  33.589  1.00  0.00     0.201 C 
ENDBRANCH  15  16
ENDBRANCH  14  15
BRANCH  13  18
HETATM   18  C26 UNL     1      -3.562  -9.509  28.496  1.00  0.00     0.200 C 
BRANCH  18  19
HETATM   19  O4  UNL     1      -3.985 -10.830  28.521  1.00  0.00    -0.397 OA
ATOM     20  H4  UNL     1      -4.917 -10.814  28.339  1.00  0.00     0.209 HD
ENDBRANCH  18  19
ENDBRANCH  13  18
ENDBRANCH  10  13
ENDBRANCH   9  10
ENDBRANCH   8   9
BRANCH   1  21
HETATM   21  C4  UNL     1      -0.388  -8.020  27.839  1.00  0.00     0.011 C 
BRANCH  21  22
HETATM   22  C3  UNL     1       0.278  -7.429  26.629  1.00  0.00     0.000 C 
BRANCH  22  23
HETATM   23  C2  UNL     1       1.151  -8.520  26.012  1.00  0.00    -0.005 C 
HETATM   24  C1  UNL     1       1.235  -9.729  26.892  1.00  0.00     0.005 C 
ENDBRANCH  22  23
ENDBRANCH  21  22
ENDBRANCH   1  21
BRANCH   1  25
HETATM   25  C6  UNL     1       0.996  -6.306  29.003  1.00  0.00     0.007 C 
HETATM   26  C7  UNL     1       2.203  -7.064  29.504  1.00  0.00     0.006 C 
ENDBRANCH   1  25
BRANCH   7  27
HETATM   27  C12 UNL     1      -0.584  -7.316  32.805  1.00  0.00     0.041 C 
BRANCH  27  28
HETATM   28  C13 UNL     1       0.814  -7.834  32.872  1.00  0.00    -0.029 C 
HETATM   29  C14 UNL     1       1.871  -7.239  33.350  1.00  0.00    -0.026 C 
BRANCH  29  30
HETATM   30  C15 UNL     1       3.228  -7.798  33.393  1.00  0.00     0.003 C 
HETATM   31  C16 UNL     1       4.132  -7.093  32.389  1.00  0.00     0.014 C 
BRANCH  30  32
HETATM   32  C17 UNL     1       3.884  -7.843  34.721  1.00  0.00     0.003 C 
HETATM   33  C18 UNL     1       4.692  -6.647  35.103  1.00  0.00     0.006 C 
ENDBRANCH  30  32
ENDBRANCH  29  30
ENDBRANCH  27  28
ENDBRANCH   7  27
TORSDOF 16
ENDMDL
MODEL 3
REMARK VINA RESULT: -4.054366113      2.360      6.293
REMARK  16 active torsions:
REMARK  status: ('A' for Active; 'I' for Inactive)
REMARK    1  A    between atoms: C2_2  and  C3_3 
REMARK    2  A    between atoms: C3_3  and  C4_4 
REMARK    3  A    between atoms: C4_4  and  C5_5 
REMARK    4  A    between atoms: C5_5  and  C6_6 
REMARK    5  A    between atoms: C11_13  and  C12_14 
REMARK    6  A    between atoms: C12_14  and  C13_15 
REMARK    7  A    between atoms: C14_16  and  C15_17 
REMARK    8  A    between atoms: C15_17  and  C17_19 
REMARK    9  A    between atoms: C19_21  and  C20_22 
REMARK   10  A    between atoms: C20_22  and  C21_23 
REMARK   11  A    between atoms: C21_23  and  O2_24 
REMARK   12  A    between atoms: C21_23  and  C22_26 
REMARK   13  A    between atoms: C22_26  and  C26_31 
REMARK   14  A    between atoms: C23_27  and  C24_28 
REMARK   15  A    between atoms: C24_28  and  O3_29 
REMARK   16  A    between atoms: C26_31  and  O4_32 
ROOT
HETATM    1  C5  UNL     1      -2.355  -6.120  31.191  1.00  0.00    -0.020 C 
HETATM    2  C8  UNL     1      -1.725  -5.918  29.846  1.00  0.00     0.135 C 
HETATM    3  N1  UNL     1      -2.440  -4.942  29.021  1.00  0.00    -0.355 N 
HETATM    4  C9  UNL     1      -1.805  -4.217  27.933  1.00  0.00     0.152 C 
HETATM    5  C10 UNL     1      -3.784  -4.761  29.398  1.00  0.00     0.224 C 
HETATM    6  O1  UNL     1      -4.312  -3.601  29.255  1.00  0.00    -0.273 OA
HETATM    7  C11 UNL     1      -4.519  -5.932  29.950  1.00  0.00     0.086 C 
HETATM    8  C19 UNL     1      -3.828  -6.532  31.143  1.00  0.00     0.012 C 
ENDROOT
BRANCH   8   9
HETATM    9  C20 UNL     1      -3.904  -8.040  31.140  1.00  0.00     0.042 C 
BRANCH   9  10
HETATM   10  C21 UNL     1      -4.297  -8.717  29.862  1.00  0.00     0.149 C 
BRANCH  10  11
HETATM   11  O2  UNL     1      -5.324  -9.582  29.953  1.00  0.00    -0.391 OA
ATOM     12  H2  UNL     1      -6.175  -9.194  30.122  1.00  0.00     0.210 HD
ENDBRANCH  10  11
BRANCH  10  13
HETATM   13  C22 UNL     1      -3.084  -9.376  29.291  1.00  0.00    -0.030 C 
HETATM   14  C23 UNL     1      -2.585  -9.176  28.111  1.00  0.00     0.006 C 
BRANCH  14  15
HETATM   15  C24 UNL     1      -2.960  -8.328  26.985  1.00  0.00     0.194 C 
BRANCH  15  16
HETATM   16  O3  UNL     1      -1.875  -7.487  26.646  1.00  0.00    -0.392 OA
HETATM   17  C25 UNL     1      -0.681  -8.194  26.826  1.00  0.00     0.201 C 
ENDBRANCH  15  16
ENDBRANCH  14  15
BRANCH  13  18
HETATM   18  C26 UNL     1      -2.369 -10.401  30.161  1.00  0.00     0.200 C 
BRANCH  18  19
HETATM   19  O4  UNL     1      -3.332 -11.324  30.541  1.00  0.00    -0.397 OA
ATOM     20  H4  UNL     1      -3.935 -10.860  31.110  1.00  0.00     0.209 HD
ENDBRANCH  18  19
ENDBRANCH  13  18
ENDBRANCH  10  13
ENDBRANCH   9  10
ENDBRANCH   8   9
BRANCH   1  21
HETATM   21  C4  UNL     1      -1.536  -7.298  31.779  1.00  0.00     0.011 C 
BRANCH  21  22
HETATM   22  C3  UNL     1      -0.218  -7.442  31.073  1.00  0.00     0.000 C 
BRANCH  22  23
HETATM   23  C2  UNL     1       0.874  -7.435  32.141  1.00  0.00    -0.005 C 
HETATM   24  C1  UNL     1       0.450  -8.171  33.375  1.00  0.00     0.005 C 
ENDBRANCH  22  23
ENDBRANCH  21  22
ENDBRANCH   1  21
BRANCH   1  25
HETATM   25  C6  UNL     1      -2.165  -4.899  32.016  1.00  0.00     0.007 C 
HETATM   26  C7  UNL     1      -3.035  -4.825  33.249  1.00  0.00     0.006 C 
ENDBRANCH   1  25
BRANCH   7  27
HETATM   27  C12 UNL     1      -5.924  -5.489  30.145  1.00  0.00     0.041 C 
BRANCH  27  28
HETATM   28  C13 UNL     1      -6.339  -5.413  31.576  1.00  0.00    -0.029 C 
HETATM   29  C14 UNL     1      -7.031  -6.280  32.260  1.00  0.00    -0.026 C 
BRANCH  29  30
HETATM   30  C15 UNL     1      -7.412  -6.156  33.673  1.00  0.00     0.003 C 
HETATM   31  C16 UNL     1      -8.523  -7.138  34.019  1.00  0.00     0.014 C 
BRANCH  30  32
HETATM   32  C17 UNL     1      -6.317  -6.260  34.665  1.00  0.00     0.003 C 
HETATM   33  C18 UNL     1      -5.402  -7.432  34.525  1.00  0.00     0.006 C 
ENDBRANCH  30  32
ENDBRANCH  29  30
ENDBRANCH  27  28
ENDBRANCH   7  27
TORSDOF 16
ENDMDL
MODEL 4
REMARK VINA RESULT: -4.046524890      1.950      5.358
REMARK  16 active torsions:
REMARK  status: ('A' for Active; 'I' for Inactive)
REMARK    1  A    between atoms: C2_2  and  C3_3 
REMARK    2  A    between atoms: C3_3  and  C4_4 
REMARK    3  A    between atoms: C4_4  and  C5_5 
REMARK    4  A    between atoms: C5_5  and  C6_6 
REMARK    5  A    between atoms: C11_13  and  C12_14 
REMARK    6  A    between atoms: C12_14  and  C13_15 
REMARK    7  A    between atoms: C14_16  and  C15_17 
REMARK    8  A    between atoms: C15_17  and  C17_19 
REMARK    9  A    between atoms: C19_21  and  C20_22 
REMARK   10  A    between atoms: C20_22  and  C21_23 
REMARK   11  A    between atoms: C21_23  and  O2_24 
REMARK   12  A    between atoms: C21_23  and  C22_26 
REMARK   13  A    between atoms: C22_26  and  C26_31 
REMARK   14  A    between atoms: C23_27  and  C24_28 
REMARK   15  A    between atoms: C24_28  and  O3_29 
REMARK   16  A    between atoms: C26_31  and  O4_32 
ROOT
HETATM    1  C5  UNL     1       0.303  -6.139  30.969  1.00  0.00    -0.020 C 
HETATM    2  C8  UNL     1       1.232  -5.634  29.907  1.00  0.00     0.135 C 
HETATM    3  N1  UNL     1       0.694  -4.484  29.178  1.00  0.00    -0.355 N 
HETATM    4  C9  UNL     1       1.541  -3.530  28.480  1.00  0.00     0.152 C 
HETATM    5  C10 UNL     1      -0.708  -4.381  29.240  1.00  0.00     0.224 C 
HETATM    6  O1  UNL     1      -1.240  -3.214  29.241  1.00  0.00    -0.273 OA
HETATM    7  C11 UNL     1      -1.498  -5.641  29.307  1.00  0.00     0.086 C 
HETATM    8  C19 UNL     1      -1.092  -6.512  30.463  1.00  0.00     0.012 C 
ENDROOT
BRANCH   8   9
HETATM    9  C20 UNL     1      -1.093  -7.975  30.093  1.00  0.00     0.042 C 
BRANCH   9  10
HETATM   10  C21 UNL     1      -2.118  -8.858  30.738  1.00  0.00     0.149 C 
BRANCH  10  11
HETATM   11  O2  UNL     1      -1.670 -10.053  31.170  1.00  0.00    -0.391 OA
ATOM     12  H2  UNL     1      -2.338 -10.656  31.475  1.00  0.00     0.210 HD
ENDBRANCH  10  11
BRANCH  10  13
HETATM   13  C22 UNL     1      -3.259  -9.020  29.788  1.00  0.00    -0.030 C 
HETATM   14  C23 UNL     1      -4.482  -9.318  30.099  1.00  0.00     0.006 C 
BRANCH  14  15
HETATM   15  C24 UNL     1      -5.167  -9.589  31.358  1.00  0.00     0.194 C 
BRANCH  15  16
HETATM   16  O3  UNL     1      -4.732 -10.830  31.875  1.00  0.00    -0.392 OA
HETATM   17  C25 UNL     1      -5.545 -11.179  32.960  1.00  0.00     0.201 C 
ENDBRANCH  15  16
ENDBRANCH  14  15
BRANCH  13  18
HETATM   18  C26 UNL     1      -2.964  -8.845  28.304  1.00  0.00     0.200 C 
BRANCH  18  19
HETATM   19  O4  UNL     1      -3.585  -9.904  27.658  1.00  0.00    -0.397 OA
ATOM     20  H4  UNL     1      -2.952 -10.612  27.640  1.00  0.00     0.209 HD
ENDBRANCH  18  19
ENDBRANCH  13  18
ENDBRANCH  10  13
ENDBRANCH   9  10
ENDBRANCH   8   9
BRANCH   1  21
HETATM   21  C4  UNL     1       1.009  -7.432  31.455  1.00  0.00     0.011 C 
BRANCH  21  22
HETATM   22  C3  UNL     1       2.227  -7.105  32.270  1.00  0.00     0.000 C 
BRANCH  22  23
HETATM   23  C2  UNL     1       2.194  -7.991  33.514  1.00  0.00    -0.005 C 
HETATM   24  C1  UNL     1       0.798  -8.406  33.864  1.00  0.00     0.005 C 
ENDBRANCH  22  23
ENDBRANCH  21  22
ENDBRANCH   1  21
BRANCH   1  25
HETATM   25  C6  UNL     1       0.227  -5.149  32.074  1.00  0.00     0.007 C 
HETATM   26  C7  UNL     1      -0.961  -5.313  32.993  1.00  0.00     0.006 C 
ENDBRANCH   1  25
BRANCH   7  27
HETATM   27  C12 UNL     1      -2.928  -5.240  29.242  1.00  0.00     0.041 C 
BRANCH  27  28
HETATM   28  C13 UNL     1      -3.614  -5.241  30.567  1.00  0.00    -0.029 C 
HETATM   29  C14 UNL     1      -4.775  -5.748  30.872  1.00  0.00    -0.026 C 
BRANCH  29  30
HETATM   30  C15 UNL     1      -5.406  -5.723  32.198  1.00  0.00     0.003 C 
HETATM   31  C16 UNL     1      -6.822  -6.278  32.131  1.00  0.00     0.014 C 
BRANCH  30  32
HETATM   32  C17 UNL     1      -4.658  -6.373  33.299  1.00  0.00     0.003 C 
HETATM   33  C18 UNL     1      -5.435  -7.305  34.169  1.00  0.00     0.006 C 
ENDBRANCH  30  32
ENDBRANCH  29  30
ENDBRANCH  27  28
ENDBRANCH   7  27
TORSDOF 16
ENDMDL
MODEL 5
REMARK VINA RESULT: -3.920368101      1.971      5.254
REMARK  16 active torsions:
REMARK  status: ('A' for Active; 'I' for Inactive)
REMARK    1  A    between atoms: C2_2  and  C3_3 
REMARK    2  A    between atoms: C3_3  and  C4_4 
REMARK    3  A    between atoms: C4_4  and  C5_5 
REMARK    4  A    between atoms: C5_5  and  C6_6 
REMARK    5  A    between atoms: C11_13  and  C12_14 
REMARK    6  A    between atoms: C12_14  and  C13_15 
REMARK    7  A    between atoms: C14_16  and  C15_17 
REMARK    8  A    between atoms: C15_17  and  C17_19 
REMARK    9  A    between atoms: C19_21  and  C20_22 
REMARK   10  A    between atoms: C20_22  and  C21_23 
REMARK   11  A    between atoms: C21_23  and  O2_24 
REMARK   12  A    between atoms: C21_23  and  C22_26 
REMARK   13  A    between atoms: C22_26  and  C26_31 
REMARK   14  A    between atoms: C23_27  and  C24_28 
REMARK   15  A    between atoms: C24_28  and  O3_29 
REMARK   16  A    between atoms: C26_31  and  O4_32 
ROOT
HETATM    1  C5  UNL     1       0.476  -6.594  32.726  1.00  0.00    -0.020 C 
HETATM    2  C8  UNL     1       1.265  -5.575  31.962  1.00  0.00     0.135 C 
HETATM    3  N1  UNL     1       0.509  -4.350  31.695  1.00  0.00    -0.355 N 
HETATM    4  C9  UNL     1       1.150  -3.072  31.432  1.00  0.00     0.152 C 
HETATM    5  C10 UNL     1      -0.887  -4.527  31.739  1.00  0.00     0.224 C 
HETATM    6  O1  UNL     1      -1.617  -3.558  32.155  1.00  0.00    -0.273 OA
HETATM    7  C11 UNL     1      -1.439  -5.839  31.304  1.00  0.00     0.086 C 
HETATM    8  C19 UNL     1      -0.847  -6.991  32.067  1.00  0.00     0.012 C 
ENDROOT
BRANCH   8   9
HETATM    9  C20 UNL     1      -0.601  -8.188  31.180  1.00  0.00     0.042 C 
BRANCH   9  10
HETATM   10  C21 UNL     1      -1.772  -9.060  30.843  1.00  0.00     0.149 C 
BRANCH  10  11
HETATM   11  O2  UNL     1      -1.677 -10.343  31.239  1.00  0.00    -0.391 OA
ATOM     12  H2  UNL     1      -1.394 -10.959  30.573  1.00  0.00     0.210 HD
ENDBRANCH  10  11
BRANCH  10  13
HETATM   13  C22 UNL     1      -2.016  -8.965  29.372  1.00  0.00    -0.030 C 
HETATM   14  C23 UNL     1      -3.133  -8.645  28.797  1.00  0.00     0.006 C 
BRANCH  14  15
HETATM   15  C24 UNL     1      -4.459  -8.289  29.292  1.00  0.00     0.194 C 
BRANCH  15  16
HETATM   16  O3  UNL     1      -5.105  -9.445  29.785  1.00  0.00    -0.392 OA
HETATM   17  C25 UNL     1      -5.120  -9.394  31.183  1.00  0.00     0.201 C 
ENDBRANCH  15  16
ENDBRANCH  14  15
BRANCH  13  18
HETATM   18  C26 UNL     1      -0.853  -9.299  28.447  1.00  0.00     0.200 C 
BRANCH  18  19
HETATM   19  O4  UNL     1      -1.398  -9.456  27.181  1.00  0.00    -0.397 OA
ATOM     20  H4  UNL     1      -0.695  -9.284  26.566  1.00  0.00     0.209 HD
ENDBRANCH  18  19
ENDBRANCH  13  18
ENDBRANCH  10  13
ENDBRANCH   9  10
ENDBRANCH   8   9
BRANCH   1  21
HETATM   21  C4  UNL     1       1.415  -7.828  32.721  1.00  0.00     0.011 C 
BRANCH  21  22
HETATM   22  C3  UNL     1       2.856  -7.407  32.713  1.00  0.00     0.000 C 
BRANCH  22  23
HETATM   23  C2  UNL     1       3.525  -8.050  33.927  1.00  0.00    -0.005 C 
HETATM   24  C1  UNL     1       3.795  -7.050  35.008  1.00  0.00     0.005 C 
ENDBRANCH  22  23
ENDBRANCH  21  22
ENDBRANCH   1  21
BRANCH   1  25
HETATM   25  C6  UNL     1       0.262  -6.116  34.116  1.00  0.00     0.007 C 
HETATM   26  C7  UNL     1      -0.104  -7.195  35.109  1.00  0.00     0.006 C 
ENDBRANCH   1  25
BRANCH   7  27
HETATM   27  C12 UNL     1      -2.918  -5.701  31.342  1.00  0.00     0.041 C 
BRANCH  27  28
HETATM   28  C13 UNL     1      -3.548  -6.296  32.558  1.00  0.00    -0.029 C 
HETATM   29  C14 UNL     1      -3.924  -5.689  33.648  1.00  0.00    -0.026 C 
BRANCH  29  30
HETATM   30  C15 UNL     1      -4.542  -6.325  34.818  1.00  0.00     0.003 C 
HETATM   31  C16 UNL     1      -5.487  -7.440  34.390  1.00  0.00     0.014 C 
BRANCH  30  32
HETATM   32  C17 UNL     1      -3.619  -6.818  35.868  1.00  0.00     0.003 C 
HETATM   33  C18 UNL     1      -4.251  -7.325  37.122  1.00  0.00     0.006 C 
ENDBRANCH  30  32
ENDBRANCH  29  30
ENDBRANCH  27  28
ENDBRANCH   7  27
TORSDOF 16
ENDMDL
