MODEL 1
REMARK VINA RESULT: -3.940340840      0.000      0.000
REMARK  17 active torsions:
REMARK  status: ('A' for Active; 'I' for Inactive)
REMARK    1  A    between atoms: C2_2  and  C3_3 
REMARK    2  A    between atoms: C3_3  and  C4_4 
REMARK    3  A    between atoms: C4_4  and  C5_5 
REMARK    4  A    between atoms: C5_5  and  N1_6 
REMARK    5  A    between atoms: N1_6  and  C7_8 
REMARK    6  A    between atoms: C7_8  and  C8_9 
REMARK    7  A    between atoms: C7_8  and  C25_29 
REMARK    8  A    between atoms: C8_9  and  C9_10 
REMARK    9  A    between atoms: C9_10  and  C10_11 
REMARK   10  A    between atoms: C10_11  and  C12_13 
REMARK   11  A    between atoms: C13_14  and  C14_15 
REMARK   12  A    between atoms: C14_15  and  C16_17 
REMARK   13  A    between atoms: C16_17  and  C17_18 
REMARK   14  A    between atoms: C17_18  and  C18_19 
REMARK   15  A    between atoms: C21_22  and  C22_23 
REMARK   16  A    between atoms: C22_23  and  O1_24 
REMARK   17  A    between atoms: C25_29  and  O3_32 
ROOT
HETATM    1  C10 UNL     1      -1.932  -6.145  31.382  1.00  0.00     0.007 C 
HETATM    2  C11 UNL     1      -1.190  -4.853  31.683  1.00  0.00     0.014 C 
ENDROOT
BRANCH   1   3
HETATM    3  C9  UNL     1      -1.968  -6.355  29.871  1.00  0.00     0.036 C 
BRANCH   3   4
HETATM    4  C8  UNL     1      -2.928  -7.296  29.340  1.00  0.00    -0.004 C 
BRANCH   4   5
HETATM    5  C7  UNL     1      -2.641  -8.609  28.800  1.00  0.00     0.017 C 
BRANCH   5   6
HETATM    6  N1  UNL     1      -2.566  -8.883  27.411  1.00  0.00    -0.289 NA
HETATM    7  C6  UNL     1      -3.113  -7.804  26.592  1.00  0.00     0.116 C 
BRANCH   6   8
HETATM    8  C5  UNL     1      -1.206  -9.031  26.956  1.00  0.00     0.095 C 
BRANCH   8   9
HETATM    9  C4  UNL     1      -0.152  -8.935  28.007  1.00  0.00     0.015 C 
BRANCH   9  10
HETATM   10  C3  UNL     1       0.851  -7.843  27.900  1.00  0.00     0.001 C 
BRANCH  10  11
HETATM   11  C2  UNL     1       1.550  -7.425  29.136  1.00  0.00    -0.005 C 
HETATM   12  C1  UNL     1       1.662  -5.919  29.306  1.00  0.00     0.005 C 
ENDBRANCH  10  11
ENDBRANCH   9  10
ENDBRANCH   8   9
ENDBRANCH   6   8
ENDBRANCH   5   6
BRANCH   5  13
HETATM   13  C25 UNL     1      -3.345  -9.677  29.614  1.00  0.00     0.087 C 
HETATM   14  C26 UNL     1      -2.457 -10.466  30.502  1.00  0.00     0.051 C 
HETATM   15  C27 UNL     1      -4.550  -9.118  30.344  1.00  0.00     0.051 C 
BRANCH  13  16
HETATM   16  O3  UNL     1      -3.916 -10.588  28.673  1.00  0.00    -0.385 OA
ATOM     17  H3  UNL     1      -4.479 -11.169  29.172  1.00  0.00     0.211 HD
ENDBRANCH  13  16
ENDBRANCH   5  13
ENDBRANCH   4   5
ENDBRANCH   3   4
ENDBRANCH   1   3
BRANCH   1  18
HETATM   18  C12 UNL     1      -1.009  -7.257  31.821  1.00  0.00    -0.026 C 
HETATM   19  C13 UNL     1       0.036  -7.017  32.551  1.00  0.00    -0.025 C 
BRANCH  19  20
HETATM   20  C14 UNL     1       0.950  -8.043  32.986  1.00  0.00     0.014 C 
HETATM   21  C15 UNL     1       0.791  -8.581  34.337  1.00  0.00     0.015 C 
BRANCH  20  22
HETATM   22  C16 UNL     1       2.397  -7.519  32.721  1.00  0.00     0.088 C 
BRANCH  22  23
HETATM   23  C17 UNL     1       2.637  -6.403  33.278  1.00  0.00    -0.177 C 
BRANCH  23  24
HETATM   24  C18 UNL     1       2.908  -5.150  33.903  1.00  0.00     0.059 C 
HETATM   25  C19 UNL     1       1.915  -4.541  34.826  1.00  0.00     0.017 C 
HETATM   26  C20 UNL     1       2.268  -4.605  36.291  1.00  0.00     0.015 C 
HETATM   27  C21 UNL     1       2.696  -5.979  36.684  1.00  0.00     0.079 C 
HETATM   28  C23 UNL     1       3.821  -6.373  35.764  1.00  0.00     0.134 C 
HETATM   29  O2  UNL     1       4.376  -7.463  35.849  1.00  0.00    -0.297 OA
HETATM   30  C24 UNL     1       4.202  -5.350  34.759  1.00  0.00     0.095 C 
BRANCH  27  31
HETATM   31  C22 UNL     1       3.202  -6.019  38.105  1.00  0.00     0.176 C 
BRANCH  31  32
HETATM   32  O1  UNL     1       3.218  -7.305  38.627  1.00  0.00    -0.400 OA
ATOM     33  H1  UNL     1       3.263  -7.312  39.576  1.00  0.00     0.209 HD
ENDBRANCH  31  32
ENDBRANCH  27  31
ENDBRANCH  23  24
ENDBRANCH  22  23
ENDBRANCH  20  22
ENDBRANCH  19  20
ENDBRANCH   1  18
TORSDOF 17
ENDMDL
MODEL 2
REMARK VINA RESULT: -3.901692857      1.972      4.426
REMARK  17 active torsions:
REMARK  status: ('A' for Active; 'I' for Inactive)
REMARK    1  A    between atoms: C2_2  and  C3_3 
REMARK    2  A    between atoms: C3_3  and  C4_4 
REMARK    3  A    between atoms: C4_4  and  C5_5 
REMARK    4  A    between atoms: C5_5  and  N1_6 
REMARK    5  A    between atoms: N1_6  and  C7_8 
REMARK    6  A    between atoms: C7_8  and  C8_9 
REMARK    7  A    between atoms: C7_8  and  C25_29 
REMARK    8  A    between atoms: C8_9  and  C9_10 
REMARK    9  A    between atoms: C9_10  and  C10_11 
REMARK   10  A    between atoms: C10_11  and  C12_13 
REMARK   11  A    between atoms: C13_14  and  C14_15 
REMARK   12  A    between atoms: C14_15  and  C16_17 
REMARK   13  A    between atoms: C16_17  and  C17_18 
REMARK   14  A    between atoms: C17_18  and  C18_19 
REMARK   15  A    between atoms: C21_22  and  C22_23 
REMARK   16  A    between atoms: C22_23  and  O1_24 
REMARK   17  A    between atoms: C25_29  and  O3_32 
ROOT
HETATM    1  C10 UNL     1      -0.945  -6.494  30.161  1.00  0.00     0.007 C 
HETATM    2  C11 UNL     1       0.446  -5.884  30.160  1.00  0.00     0.014 C 
ENDROOT
BRANCH   1   3
HETATM    3  C9  UNL     1      -0.856  -7.929  30.674  1.00  0.00     0.036 C 
BRANCH   3   4
HETATM    4  C8  UNL     1      -1.402  -8.980  29.845  1.00  0.00    -0.004 C 
BRANCH   4   5
HETATM    5  C7  UNL     1      -2.753  -9.059  29.330  1.00  0.00     0.017 C 
BRANCH   5   6
HETATM    6  N1  UNL     1      -3.712  -9.994  29.795  1.00  0.00    -0.289 NA
HETATM    7  C6  UNL     1      -3.187 -10.872  30.838  1.00  0.00     0.116 C 
BRANCH   6   8
HETATM    8  C5  UNL     1      -4.852  -9.351  30.401  1.00  0.00     0.095 C 
BRANCH   8   9
HETATM    9  C4  UNL     1      -4.640  -7.950  30.866  1.00  0.00     0.015 C 
BRANCH   9  10
HETATM   10  C3  UNL     1      -5.540  -7.415  31.922  1.00  0.00     0.001 C 
BRANCH  10  11
HETATM   11  C2  UNL     1      -5.681  -8.199  33.169  1.00  0.00    -0.005 C 
HETATM   12  C1  UNL     1      -5.747  -7.353  34.430  1.00  0.00     0.005 C 
ENDBRANCH  10  11
ENDBRANCH   9  10
ENDBRANCH   8   9
ENDBRANCH   6   8
ENDBRANCH   5   6
BRANCH   5  13
HETATM   13  C25 UNL     1      -2.756  -8.850  27.829  1.00  0.00     0.087 C 
HETATM   14  C26 UNL     1      -3.391  -7.586  27.380  1.00  0.00     0.051 C 
HETATM   15  C27 UNL     1      -1.377  -9.052  27.234  1.00  0.00     0.051 C 
BRANCH  13  16
HETATM   16  O3  UNL     1      -3.520  -9.923  27.275  1.00  0.00    -0.385 OA
ATOM     17  H3  UNL     1      -2.895 -10.595  27.028  1.00  0.00     0.211 HD
ENDBRANCH  13  16
ENDBRANCH   5  13
ENDBRANCH   4   5
ENDBRANCH   3   4
ENDBRANCH   1   3
BRANCH   1  18
HETATM   18  C12 UNL     1      -1.688  -5.814  31.288  1.00  0.00    -0.026 C 
HETATM   19  C13 UNL     1      -1.816  -6.380  32.449  1.00  0.00    -0.025 C 
BRANCH  19  20
HETATM   20  C14 UNL     1      -2.522  -5.774  33.549  1.00  0.00     0.014 C 
HETATM   21  C15 UNL     1      -3.423  -4.659  33.261  1.00  0.00     0.015 C 
BRANCH  20  22
HETATM   22  C16 UNL     1      -1.463  -5.418  34.641  1.00  0.00     0.088 C 
BRANCH  22  23
HETATM   23  C17 UNL     1      -0.639  -6.358  34.867  1.00  0.00    -0.177 C 
BRANCH  23  24
HETATM   24  C18 UNL     1       0.286  -7.413  35.122  1.00  0.00     0.059 C 
HETATM   25  C19 UNL     1       0.669  -8.354  34.038  1.00  0.00     0.017 C 
HETATM   26  C20 UNL     1       2.053  -8.160  33.470  1.00  0.00     0.015 C 
HETATM   27  C21 UNL     1       2.307  -6.727  33.143  1.00  0.00     0.079 C 
HETATM   28  C23 UNL     1       2.040  -5.934  34.395  1.00  0.00     0.134 C 
HETATM   29  O2  UNL     1       2.165  -4.714  34.428  1.00  0.00    -0.297 OA
HETATM   30  C24 UNL     1       1.622  -6.733  35.572  1.00  0.00     0.095 C 
BRANCH  27  31
HETATM   31  C22 UNL     1       3.738  -6.497  32.725  1.00  0.00     0.176 C 
BRANCH  31  32
HETATM   32  O1  UNL     1       4.593  -6.358  33.809  1.00  0.00    -0.400 OA
ATOM     33  H1  UNL     1       5.338  -6.945  33.762  1.00  0.00     0.209 HD
ENDBRANCH  31  32
ENDBRANCH  27  31
ENDBRANCH  23  24
ENDBRANCH  22  23
ENDBRANCH  20  22
ENDBRANCH  19  20
ENDBRANCH   1  18
TORSDOF 17
ENDMDL
MODEL 3
REMARK VINA RESULT: -3.868788210      3.127      9.547
REMARK  17 active torsions:
REMARK  status: ('A' for Active; 'I' for Inactive)
REMARK    1  A    between atoms: C2_2  and  C3_3 
REMARK    2  A    between atoms: C3_3  and  C4_4 
REMARK    3  A    between atoms: C4_4  and  C5_5 
REMARK    4  A    between atoms: C5_5  and  N1_6 
REMARK    5  A    between atoms: N1_6  and  C7_8 
REMARK    6  A    between atoms: C7_8  and  C8_9 
REMARK    7  A    between atoms: C7_8  and  C25_29 
REMARK    8  A    between atoms: C8_9  and  C9_10 
REMARK    9  A    between atoms: C9_10  and  C10_11 
REMARK   10  A    between atoms: C10_11  and  C12_13 
REMARK   11  A    between atoms: C13_14  and  C14_15 
REMARK   12  A    between atoms: C14_15  and  C16_17 
REMARK   13  A    between atoms: C16_17  and  C17_18 
REMARK   14  A    between atoms: C17_18  and  C18_19 
REMARK   15  A    between atoms: C21_22  and  C22_23 
REMARK   16  A    between atoms: C22_23  and  O1_24 
REMARK   17  A    between atoms: C25_29  and  O3_32 
ROOT
HETATM    1  C10 UNL     1       4.394  -7.289  34.865  1.00  0.00     0.007 C 
HETATM    2  C11 UNL     1       5.584  -6.345  34.814  1.00  0.00     0.014 C 
ENDROOT
BRANCH   1   3
HETATM    3  C9  UNL     1       3.265  -6.620  35.643  1.00  0.00     0.036 C 
BRANCH   3   4
HETATM    4  C8  UNL     1       3.615  -5.836  36.806  1.00  0.00    -0.004 C 
BRANCH   4   5
HETATM    5  C7  UNL     1       3.492  -6.244  38.190  1.00  0.00     0.017 C 
BRANCH   5   6
HETATM    6  N1  UNL     1       2.733  -5.530  39.150  1.00  0.00    -0.289 NA
HETATM    7  C6  UNL     1       2.693  -4.094  38.886  1.00  0.00     0.116 C 
BRANCH   6   8
HETATM    8  C5  UNL     1       1.349  -5.935  39.163  1.00  0.00     0.095 C 
BRANCH   8   9
HETATM    9  C4  UNL     1       1.090  -7.383  38.918  1.00  0.00     0.015 C 
BRANCH   9  10
HETATM   10  C3  UNL     1      -0.025  -7.755  38.007  1.00  0.00     0.001 C 
BRANCH  10  11
HETATM   11  C2  UNL     1      -0.597  -6.693  37.150  1.00  0.00    -0.005 C 
HETATM   12  C1  UNL     1      -0.367  -6.905  35.662  1.00  0.00     0.005 C 
ENDBRANCH  10  11
ENDBRANCH   9  10
ENDBRANCH   8   9
ENDBRANCH   6   8
ENDBRANCH   5   6
BRANCH   5  13
HETATM   13  C25 UNL     1       4.819  -6.768  38.702  1.00  0.00     0.087 C 
HETATM   14  C26 UNL     1       4.968  -8.243  38.644  1.00  0.00     0.051 C 
HETATM   15  C27 UNL     1       5.989  -6.040  38.070  1.00  0.00     0.051 C 
BRANCH  13  16
HETATM   16  O3  UNL     1       4.895  -6.393  40.079  1.00  0.00    -0.385 OA
ATOM     17  H3  UNL     1       5.524  -5.681  40.127  1.00  0.00     0.211 HD
ENDBRANCH  13  16
ENDBRANCH   5  13
ENDBRANCH   4   5
ENDBRANCH   3   4
ENDBRANCH   1   3
BRANCH   1  18
HETATM   18  C12 UNL     1       3.828  -7.308  33.464  1.00  0.00    -0.026 C 
HETATM   19  C13 UNL     1       2.552  -7.406  33.254  1.00  0.00    -0.025 C 
BRANCH  19  20
HETATM   20  C14 UNL     1       1.968  -7.437  31.936  1.00  0.00     0.014 C 
HETATM   21  C15 UNL     1       2.323  -6.372  30.999  1.00  0.00     0.015 C 
BRANCH  20  22
HETATM   22  C16 UNL     1       0.423  -7.580  32.118  1.00  0.00     0.088 C 
BRANCH  22  23
HETATM   23  C17 UNL     1      -0.202  -7.720  31.021  1.00  0.00    -0.177 C 
BRANCH  23  24
HETATM   24  C18 UNL     1      -0.903  -7.879  29.789  1.00  0.00     0.059 C 
HETATM   25  C19 UNL     1      -1.296  -9.232  29.317  1.00  0.00     0.017 C 
HETATM   26  C20 UNL     1      -2.764  -9.559  29.438  1.00  0.00     0.015 C 
HETATM   27  C21 UNL     1      -3.283  -9.217  30.794  1.00  0.00     0.079 C 
HETATM   28  C23 UNL     1      -2.955  -7.769  31.043  1.00  0.00     0.134 C 
HETATM   29  O2  UNL     1      -3.260  -7.206  32.088  1.00  0.00    -0.297 OA
HETATM   30  C24 UNL     1      -2.244  -7.084  29.936  1.00  0.00     0.095 C 
BRANCH  27  31
HETATM   31  C22 UNL     1      -4.779  -9.392  30.878  1.00  0.00     0.176 C 
BRANCH  31  32
HETATM   32  O1  UNL     1      -5.345  -9.721  29.654  1.00  0.00    -0.400 OA
ATOM     33  H1  UNL     1      -6.225  -9.379  29.556  1.00  0.00     0.209 HD
ENDBRANCH  31  32
ENDBRANCH  27  31
ENDBRANCH  23  24
ENDBRANCH  22  23
ENDBRANCH  20  22
ENDBRANCH  19  20
ENDBRANCH   1  18
TORSDOF 17
ENDMDL
MODEL 4
REMARK VINA RESULT: -3.810582228      1.308      1.780
REMARK  17 active torsions:
REMARK  status: ('A' for Active; 'I' for Inactive)
REMARK    1  A    between atoms: C2_2  and  C3_3 
REMARK    2  A    between atoms: C3_3  and  C4_4 
REMARK    3  A    between atoms: C4_4  and  C5_5 
REMARK    4  A    between atoms: C5_5  and  N1_6 
REMARK    5  A    between atoms: N1_6  and  C7_8 
REMARK    6  A    between atoms: C7_8  and  C8_9 
REMARK    7  A    between atoms: C7_8  and  C25_29 
REMARK    8  A    between atoms: C8_9  and  C9_10 
REMARK    9  A    between atoms: C9_10  and  C10_11 
REMARK   10  A    between atoms: C10_11  and  C12_13 
REMARK   11  A    between atoms: C13_14  and  C14_15 
REMARK   12  A    between atoms: C14_15  and  C16_17 
REMARK   13  A    between atoms: C16_17  and  C17_18 
REMARK   14  A    between atoms: C17_18  and  C18_19 
REMARK   15  A    between atoms: C21_22  and  C22_23 
REMARK   16  A    between atoms: C22_23  and  O1_24 
REMARK   17  A    between atoms: C25_29  and  O3_32 
ROOT
HETATM    1  C10 UNL     1      -2.872  -6.172  31.390  1.00  0.00     0.007 C 
HETATM    2  C11 UNL     1      -2.895  -4.682  31.687  1.00  0.00     0.014 C 
ENDROOT
BRANCH   1   3
HETATM    3  C9  UNL     1      -2.479  -6.379  29.930  1.00  0.00     0.036 C 
BRANCH   3   4
HETATM    4  C8  UNL     1      -3.242  -7.328  29.150  1.00  0.00    -0.004 C 
BRANCH   4   5
HETATM    5  C7  UNL     1      -2.801  -8.633  28.707  1.00  0.00     0.017 C 
BRANCH   5   6
HETATM    6  N1  UNL     1      -2.626  -8.977  27.342  1.00  0.00    -0.289 NA
HETATM    7  C6  UNL     1      -3.347  -8.084  26.438  1.00  0.00     0.116 C 
BRANCH   6   8
HETATM    8  C5  UNL     1      -1.249  -8.879  26.927  1.00  0.00     0.095 C 
BRANCH   8   9
HETATM    9  C4  UNL     1      -0.228  -9.155  27.979  1.00  0.00     0.015 C 
BRANCH   9  10
HETATM   10  C3  UNL     1       0.836  -8.143  28.210  1.00  0.00     0.001 C 
BRANCH  10  11
HETATM   11  C2  UNL     1       0.514  -6.727  27.926  1.00  0.00    -0.005 C 
HETATM   12  C1  UNL     1       1.586  -5.745  28.369  1.00  0.00     0.005 C 
ENDBRANCH  10  11
ENDBRANCH   9  10
ENDBRANCH   8   9
ENDBRANCH   6   8
ENDBRANCH   5   6
BRANCH   5  13
HETATM   13  C25 UNL     1      -3.440  -9.718  29.551  1.00  0.00     0.087 C 
HETATM   14  C26 UNL     1      -2.513 -10.409  30.481  1.00  0.00     0.051 C 
HETATM   15  C27 UNL     1      -4.695  -9.222  30.242  1.00  0.00     0.051 C 
BRANCH  13  16
HETATM   16  O3  UNL     1      -3.928 -10.703  28.637  1.00  0.00    -0.385 OA
ATOM     17  H3  UNL     1      -4.801 -10.425  28.386  1.00  0.00     0.211 HD
ENDBRANCH  13  16
ENDBRANCH   5  13
ENDBRANCH   4   5
ENDBRANCH   3   4
ENDBRANCH   1   3
BRANCH   1  18
HETATM   18  C12 UNL     1      -1.660  -6.713  32.111  1.00  0.00    -0.026 C 
HETATM   19  C13 UNL     1      -0.647  -7.196  31.459  1.00  0.00    -0.025 C 
BRANCH  19  20
HETATM   20  C14 UNL     1       0.526  -7.731  32.104  1.00  0.00     0.014 C 
HETATM   21  C15 UNL     1       0.395  -8.223  33.475  1.00  0.00     0.015 C 
BRANCH  20  22
HETATM   22  C16 UNL     1       1.661  -6.669  31.958  1.00  0.00     0.088 C 
BRANCH  22  23
HETATM   23  C17 UNL     1       2.787  -7.074  32.382  1.00  0.00    -0.177 C 
BRANCH  23  24
HETATM   24  C18 UNL     1       4.052  -7.530  32.858  1.00  0.00     0.059 C 
HETATM   25  C19 UNL     1       5.251  -6.659  32.756  1.00  0.00     0.017 C 
HETATM   26  C20 UNL     1       5.720  -6.046  34.053  1.00  0.00     0.015 C 
HETATM   27  C21 UNL     1       4.586  -5.428  34.799  1.00  0.00     0.079 C 
HETATM   28  C23 UNL     1       3.534  -6.492  34.968  1.00  0.00     0.134 C 
HETATM   29  O2  UNL     1       2.476  -6.271  35.547  1.00  0.00    -0.297 OA
HETATM   30  C24 UNL     1       3.875  -7.814  34.387  1.00  0.00     0.095 C 
BRANCH  27  31
HETATM   31  C22 UNL     1       5.012  -4.953  36.166  1.00  0.00     0.176 C 
BRANCH  31  32
HETATM   32  O1  UNL     1       4.947  -5.958  37.122  1.00  0.00    -0.400 OA
ATOM     33  H1  UNL     1       5.110  -5.636  38.000  1.00  0.00     0.209 HD
ENDBRANCH  31  32
ENDBRANCH  27  31
ENDBRANCH  23  24
ENDBRANCH  22  23
ENDBRANCH  20  22
ENDBRANCH  19  20
ENDBRANCH   1  18
TORSDOF 17
ENDMDL
MODEL 5
REMARK VINA RESULT: -3.788927525      1.801      3.874
REMARK  17 active torsions:
REMARK  status: ('A' for Active; 'I' for Inactive)
REMARK    1  A    between atoms: C2_2  and  C3_3 
REMARK    2  A    between atoms: C3_3  and  C4_4 
REMARK    3  A    between atoms: C4_4  and  C5_5 
REMARK    4  A    between atoms: C5_5  and  N1_6 
REMARK    5  A    between atoms: N1_6  and  C7_8 
REMARK    6  A    between atoms: C7_8  and  C8_9 
REMARK    7  A    between atoms: C7_8  and  C25_29 
REMARK    8  A    between atoms: C8_9  and  C9_10 
REMARK    9  A    between atoms: C9_10  and  C10_11 
REMARK   10  A    between atoms: C10_11  and  C12_13 
REMARK   11  A    between atoms: C13_14  and  C14_15 
REMARK   12  A    between atoms: C14_15  and  C16_17 
REMARK   13  A    between atoms: C16_17  and  C17_18 
REMARK   14  A    between atoms: C17_18  and  C18_19 
REMARK   15  A    between atoms: C21_22  and  C22_23 
REMARK   16  A    between atoms: C22_23  and  O1_24 
REMARK   17  A    between atoms: C25_29  and  O3_32 
ROOT
HETATM    1  C10 UNL     1      -1.057  -6.703  30.119  1.00  0.00     0.007 C 
HETATM    2  C11 UNL     1      -0.111  -5.870  29.270  1.00  0.00     0.014 C 
ENDROOT
BRANCH   1   3
HETATM    3  C9  UNL     1      -0.553  -8.144  30.152  1.00  0.00     0.036 C 
BRANCH   3   4
HETATM    4  C8  UNL     1      -1.251  -9.124  29.351  1.00  0.00    -0.004 C 
BRANCH   4   5
HETATM    5  C7  UNL     1      -2.654  -9.105  28.993  1.00  0.00     0.017 C 
BRANCH   5   6
HETATM    6  N1  UNL     1      -3.617  -9.976  29.563  1.00  0.00    -0.289 NA
HETATM    7  C6  UNL     1      -3.064 -10.813  30.625  1.00  0.00     0.116 C 
BRANCH   6   8
HETATM    8  C5  UNL     1      -4.698  -9.259  30.191  1.00  0.00     0.095 C 
BRANCH   8   9
HETATM    9  C4  UNL     1      -4.300  -8.187  31.149  1.00  0.00     0.015 C 
BRANCH   9  10
HETATM   10  C3  UNL     1      -4.929  -6.847  31.007  1.00  0.00     0.001 C 
BRANCH  10  11
HETATM   11  C2  UNL     1      -4.375  -5.736  31.812  1.00  0.00    -0.005 C 
HETATM   12  C1  UNL     1      -4.312  -6.022  33.304  1.00  0.00     0.005 C 
ENDBRANCH  10  11
ENDBRANCH   9  10
ENDBRANCH   8   9
ENDBRANCH   6   8
ENDBRANCH   5   6
BRANCH   5  13
HETATM   13  C25 UNL     1      -2.813  -8.882  27.502  1.00  0.00     0.087 C 
HETATM   14  C26 UNL     1      -3.552  -7.649  27.135  1.00  0.00     0.051 C 
HETATM   15  C27 UNL     1      -1.489  -9.006  26.775  1.00  0.00     0.051 C 
BRANCH  13  16
HETATM   16  O3  UNL     1      -3.570  -9.989  27.009  1.00  0.00    -0.385 OA
ATOM     17  H3  UNL     1      -4.419  -9.641  26.758  1.00  0.00     0.211 HD
ENDBRANCH  13  16
ENDBRANCH   5  13
ENDBRANCH   4   5
ENDBRANCH   3   4
ENDBRANCH   1   3
BRANCH   1  18
HETATM   18  C12 UNL     1      -0.818  -6.265  31.545  1.00  0.00    -0.026 C 
HETATM   19  C13 UNL     1      -0.849  -7.115  32.525  1.00  0.00    -0.025 C 
BRANCH  19  20
HETATM   20  C14 UNL     1      -0.637  -6.742  33.901  1.00  0.00     0.014 C 
HETATM   21  C15 UNL     1      -0.284  -5.353  34.193  1.00  0.00     0.015 C 
BRANCH  20  22
HETATM   22  C16 UNL     1       0.386  -7.756  34.504  1.00  0.00     0.088 C 
BRANCH  22  23
HETATM   23  C17 UNL     1       1.480  -7.810  33.860  1.00  0.00    -0.177 C 
BRANCH  23  24
HETATM   24  C18 UNL     1       2.707  -7.869  33.136  1.00  0.00     0.059 C 
HETATM   25  C19 UNL     1       2.859  -7.136  31.852  1.00  0.00     0.017 C 
HETATM   26  C20 UNL     1       3.714  -5.894  31.913  1.00  0.00     0.015 C 
HETATM   27  C21 UNL     1       3.325  -5.026  33.062  1.00  0.00     0.079 C 
HETATM   28  C23 UNL     1       3.391  -5.878  34.302  1.00  0.00     0.134 C 
HETATM   29  O2  UNL     1       3.119  -5.430  35.411  1.00  0.00    -0.297 OA
HETATM   30  C24 UNL     1       3.809  -7.284  34.081  1.00  0.00     0.095 C 
BRANCH  27  31
HETATM   31  C22 UNL     1       4.272  -3.863  33.227  1.00  0.00     0.176 C 
BRANCH  31  32
HETATM   32  O1  UNL     1       5.282  -4.126  34.142  1.00  0.00    -0.400 OA
ATOM     33  H1  UNL     1       6.131  -3.820  33.845  1.00  0.00     0.209 HD
ENDBRANCH  31  32
ENDBRANCH  27  31
ENDBRANCH  23  24
ENDBRANCH  22  23
ENDBRANCH  20  22
ENDBRANCH  19  20
ENDBRANCH   1  18
TORSDOF 17
ENDMDL
