MODEL 1
REMARK VINA RESULT: -6.566188225      0.000      0.000
REMARK  12 active torsions:
REMARK  status: ('A' for Active; 'I' for Inactive)
REMARK    1  A    between atoms: C2_2  and  N1_4 
REMARK    2  A    between atoms: N1_4  and  C4_6 
REMARK    3  A    between atoms: C4_6  and  C5_7 
REMARK    4  A    between atoms: C4_6  and  C6_10 
REMARK    5  A    between atoms: C5_7  and  O1_8 
REMARK    6  A    between atoms: C6_10  and  N3_14 
REMARK    7  A    between atoms: N3_14  and  C7_16 
REMARK    8  A    between atoms: C7_16  and  C8_17 
REMARK    9  A    between atoms: C7_16  and  C11_20 
REMARK   10  A    between atoms: C11_20  and  N4_21 
REMARK   11  A    between atoms: C11_20  and  C12_25 
REMARK   12  A    between atoms: C12_25  and  C13_26 
ROOT
HETATM    1  C7  UNL     1      89.767  45.450  65.165  1.00  0.00     0.117 C 
ENDROOT
BRANCH   1   2
HETATM    2  N3  UNL     1      90.996  46.165  65.192  1.00  0.00    -0.371 N 
ATOM      3  H3  UNL     1      91.096  46.833  65.955  1.00  0.00     0.161 HD
BRANCH   2   4
HETATM    4  C6  UNL     1      92.096  46.081  64.313  1.00  0.00     0.096 C 
HETATM    5  N2  UNL     1      91.944  46.606  63.144  1.00  0.00    -0.387 N 
ATOM      6  H22 UNL     1      92.740  46.546  62.509  1.00  0.00     0.157 HD
ATOM      7  H21 UNL     1      91.061  47.070  62.931  1.00  0.00     0.157 HD
BRANCH   4   8
HETATM    8  C4  UNL     1      93.403  45.395  64.628  1.00  0.00     0.168 C 
BRANCH   8   9
HETATM    9  N1  UNL     1      94.370  46.392  64.843  1.00  0.00    -0.406 N 
ATOM     10  H1  UNL     1      94.579  47.018  64.065  1.00  0.00     0.154 HD
BRANCH   9  11
HETATM   11  C2  UNL     1      95.062  46.593  66.026  1.00  0.00     0.069 C 
HETATM   12  C1  UNL     1      95.480  47.992  66.396  1.00  0.00     0.031 C 
HETATM   13  C3  UNL     1      94.196  46.073  67.205  1.00  0.00     0.031 C 
ENDBRANCH   9  11
ENDBRANCH   8   9
BRANCH   8  14
HETATM   14  C5  UNL     1      93.782  44.503  63.456  1.00  0.00     0.196 C 
BRANCH  14  15
HETATM   15  O1  UNL     1      92.809  43.466  63.471  1.00  0.00    -0.398 OA
ATOM     16  H1  UNL     1      92.422  43.492  62.604  1.00  0.00     0.209 HD
ENDBRANCH  14  15
ENDBRANCH   8  14
ENDBRANCH   4   8
ENDBRANCH   2   4
ENDBRANCH   1   2
BRANCH   1  17
HETATM   17  C8  UNL     1      88.705  46.279  65.938  1.00  0.00     0.002 C 
HETATM   18  C9  UNL     1      87.492  45.422  66.181  1.00  0.00     0.011 C 
HETATM   19  C10 UNL     1      88.397  47.568  65.255  1.00  0.00     0.011 C 
ENDBRANCH   1  17
BRANCH   1  20
HETATM   20  C11 UNL     1      89.723  44.048  65.678  1.00  0.00     0.210 C 
BRANCH  20  21
HETATM   21  N4  UNL     1      89.786  43.188  64.479  1.00  0.00    -0.073 N 
ATOM     22  H43 UNL     1      89.756  43.705  63.601  1.00  0.00     0.274 HD
ATOM     23  H42 UNL     1      90.697  42.755  64.333  1.00  0.00     0.274 HD
ATOM     24  H41 UNL     1      89.026  42.517  64.586  1.00  0.00     0.274 HD
ENDBRANCH  20  21
BRANCH  20  25
HETATM   25  C12 UNL     1      90.810  43.712  66.621  1.00  0.00     0.073 C 
BRANCH  25  26
HETATM   26  C13 UNL     1      90.418  43.909  68.048  1.00  0.00    -0.056 A 
HETATM   27  C14 UNL     1      89.290  43.337  68.592  1.00  0.00     0.007 A 
HETATM   28  C15 UNL     1      88.964  43.554  69.937  1.00  0.00     0.001 A 
HETATM   29  C16 UNL     1      89.782  44.346  70.721  1.00  0.00     0.000 A 
HETATM   30  C17 UNL     1      90.923  44.927  70.182  1.00  0.00     0.001 A 
HETATM   31  C18 UNL     1      91.219  44.692  68.837  1.00  0.00     0.007 A 
ENDBRANCH  25  26
ENDBRANCH  20  25
ENDBRANCH   1  20
TORSDOF 12
ENDMDL
MODEL 2
REMARK VINA RESULT: -6.559108543      0.927      1.588
REMARK  12 active torsions:
REMARK  status: ('A' for Active; 'I' for Inactive)
REMARK    1  A    between atoms: C2_2  and  N1_4 
REMARK    2  A    between atoms: N1_4  and  C4_6 
REMARK    3  A    between atoms: C4_6  and  C5_7 
REMARK    4  A    between atoms: C4_6  and  C6_10 
REMARK    5  A    between atoms: C5_7  and  O1_8 
REMARK    6  A    between atoms: C6_10  and  N3_14 
REMARK    7  A    between atoms: N3_14  and  C7_16 
REMARK    8  A    between atoms: C7_16  and  C8_17 
REMARK    9  A    between atoms: C7_16  and  C11_20 
REMARK   10  A    between atoms: C11_20  and  N4_21 
REMARK   11  A    between atoms: C11_20  and  C12_25 
REMARK   12  A    between atoms: C12_25  and  C13_26 
ROOT
HETATM    1  C7  UNL     1      90.002  44.903  64.948  1.00  0.00     0.117 C 
ENDROOT
BRANCH   1   2
HETATM    2  N3  UNL     1      91.105  45.784  65.111  1.00  0.00    -0.371 N 
ATOM      3  H3  UNL     1      91.065  46.386  65.933  1.00  0.00     0.161 HD
BRANCH   2   4
HETATM    4  C6  UNL     1      92.248  45.944  64.300  1.00  0.00     0.096 C 
HETATM    5  N2  UNL     1      92.129  46.729  63.282  1.00  0.00    -0.387 N 
ATOM      6  H22 UNL     1      92.955  46.845  62.695  1.00  0.00     0.157 HD
ATOM      7  H21 UNL     1      91.238  47.205  63.138  1.00  0.00     0.157 HD
BRANCH   4   8
HETATM    8  C4  UNL     1      93.564  45.240  64.514  1.00  0.00     0.168 C 
BRANCH   8   9
HETATM    9  N1  UNL     1      94.484  46.186  64.995  1.00  0.00    -0.406 N 
ATOM     10  H1  UNL     1      95.322  46.352  64.438  1.00  0.00     0.154 HD
BRANCH   9  11
HETATM   11  C2  UNL     1      94.346  46.912  66.167  1.00  0.00     0.069 C 
HETATM   12  C1  UNL     1      94.386  46.184  67.485  1.00  0.00     0.031 C 
HETATM   13  C3  UNL     1      95.473  47.979  66.227  1.00  0.00     0.031 C 
ENDBRANCH   9  11
ENDBRANCH   8   9
BRANCH   8  14
HETATM   14  C5  UNL     1      94.024  44.649  63.190  1.00  0.00     0.196 C 
BRANCH  14  15
HETATM   15  O1  UNL     1      95.440  44.585  63.302  1.00  0.00    -0.398 OA
ATOM     16  H1  UNL     1      95.728  45.483  63.190  1.00  0.00     0.209 HD
ENDBRANCH  14  15
ENDBRANCH   8  14
ENDBRANCH   4   8
ENDBRANCH   2   4
ENDBRANCH   1   2
BRANCH   1  17
HETATM   17  C8  UNL     1      88.716  45.758  64.782  1.00  0.00     0.002 C 
HETATM   18  C9  UNL     1      88.484  46.020  63.318  1.00  0.00     0.011 C 
HETATM   19  C10 UNL     1      88.758  46.997  65.610  1.00  0.00     0.011 C 
ENDBRANCH   1  17
BRANCH   1  20
HETATM   20  C11 UNL     1      89.734  43.862  65.985  1.00  0.00     0.210 C 
BRANCH  20  21
HETATM   21  N4  UNL     1      89.474  42.616  65.234  1.00  0.00    -0.073 N 
ATOM     22  H43 UNL     1      89.012  42.766  64.337  1.00  0.00     0.274 HD
ATOM     23  H42 UNL     1      90.316  42.177  64.864  1.00  0.00     0.274 HD
ATOM     24  H41 UNL     1      88.947  42.020  65.872  1.00  0.00     0.274 HD
ENDBRANCH  20  21
BRANCH  20  25
HETATM   25  C12 UNL     1      90.836  43.669  66.951  1.00  0.00     0.073 C 
BRANCH  25  26
HETATM   26  C13 UNL     1      90.457  44.059  68.342  1.00  0.00    -0.056 A 
HETATM   27  C14 UNL     1      91.343  44.656  69.211  1.00  0.00     0.007 A 
HETATM   28  C15 UNL     1      90.940  45.000  70.507  1.00  0.00     0.001 A 
HETATM   29  C16 UNL     1      89.644  44.740  70.914  1.00  0.00     0.000 A 
HETATM   30  C17 UNL     1      88.743  44.139  70.044  1.00  0.00     0.001 A 
HETATM   31  C18 UNL     1      89.177  43.807  68.758  1.00  0.00     0.007 A 
ENDBRANCH  25  26
ENDBRANCH  20  25
ENDBRANCH   1  20
TORSDOF 12
ENDMDL
MODEL 3
REMARK VINA RESULT: -6.534802668      1.901      4.032
REMARK  12 active torsions:
REMARK  status: ('A' for Active; 'I' for Inactive)
REMARK    1  A    between atoms: C2_2  and  N1_4 
REMARK    2  A    between atoms: N1_4  and  C4_6 
REMARK    3  A    between atoms: C4_6  and  C5_7 
REMARK    4  A    between atoms: C4_6  and  C6_10 
REMARK    5  A    between atoms: C5_7  and  O1_8 
REMARK    6  A    between atoms: C6_10  and  N3_14 
REMARK    7  A    between atoms: N3_14  and  C7_16 
REMARK    8  A    between atoms: C7_16  and  C8_17 
REMARK    9  A    between atoms: C7_16  and  C11_20 
REMARK   10  A    between atoms: C11_20  and  N4_21 
REMARK   11  A    between atoms: C11_20  and  C12_25 
REMARK   12  A    between atoms: C12_25  and  C13_26 
ROOT
HETATM    1  C7  UNL     1      93.346  46.114  66.359  1.00  0.00     0.117 C 
ENDROOT
BRANCH   1   2
HETATM    2  N3  UNL     1      93.785  44.992  65.605  1.00  0.00    -0.371 N 
ATOM      3  H3  UNL     1      93.993  44.154  66.148  1.00  0.00     0.161 HD
BRANCH   2   4
HETATM    4  C6  UNL     1      93.973  44.872  64.212  1.00  0.00     0.096 C 
HETATM    5  N2  UNL     1      95.184  44.978  63.780  1.00  0.00    -0.387 N 
ATOM      6  H22 UNL     1      95.321  44.891  62.773  1.00  0.00     0.157 HD
ATOM      7  H21 UNL     1      95.932  45.114  64.461  1.00  0.00     0.157 HD
BRANCH   4   8
HETATM    8  C4  UNL     1      92.867  44.671  63.205  1.00  0.00     0.168 C 
BRANCH   8   9
HETATM    9  N1  UNL     1      91.853  43.923  63.825  1.00  0.00    -0.406 N 
ATOM     10  H1  UNL     1      92.138  43.122  64.388  1.00  0.00     0.154 HD
BRANCH   9  11
HETATM   11  C2  UNL     1      90.496  44.185  63.734  1.00  0.00     0.069 C 
HETATM   12  C1  UNL     1      89.760  43.791  62.480  1.00  0.00     0.031 C 
HETATM   13  C3  UNL     1      89.770  43.467  64.905  1.00  0.00     0.031 C 
ENDBRANCH   9  11
ENDBRANCH   8   9
BRANCH   8  14
HETATM   14  C5  UNL     1      93.432  43.940  61.997  1.00  0.00     0.196 C 
BRANCH  14  15
HETATM   15  O1  UNL     1      94.008  44.966  61.198  1.00  0.00    -0.398 OA
ATOM     16  H1  UNL     1      93.290  45.565  61.029  1.00  0.00     0.209 HD
ENDBRANCH  14  15
ENDBRANCH   8  14
ENDBRANCH   4   8
ENDBRANCH   2   4
ENDBRANCH   1   2
BRANCH   1  17
HETATM   17  C8  UNL     1      94.549  46.645  67.187  1.00  0.00     0.002 C 
HETATM   18  C9  UNL     1      94.046  47.179  68.501  1.00  0.00     0.011 C 
HETATM   19  C10 UNL     1      95.366  47.626  66.417  1.00  0.00     0.011 C 
ENDBRANCH   1  17
BRANCH   1  20
HETATM   20  C11 UNL     1      92.180  45.967  67.281  1.00  0.00     0.210 C 
BRANCH  20  21
HETATM   21  N4  UNL     1      91.022  46.508  66.540  1.00  0.00    -0.073 N 
ATOM     22  H43 UNL     1      91.262  46.890  65.625  1.00  0.00     0.274 HD
ATOM     23  H42 UNL     1      90.378  45.792  66.206  1.00  0.00     0.274 HD
ATOM     24  H41 UNL     1      90.591  47.187  67.167  1.00  0.00     0.274 HD
ENDBRANCH  20  21
BRANCH  20  25
HETATM   25  C12 UNL     1      91.920  44.579  67.715  1.00  0.00     0.073 C 
BRANCH  25  26
HETATM   26  C13 UNL     1      90.912  44.498  68.814  1.00  0.00    -0.056 A 
HETATM   27  C14 UNL     1      89.701  43.861  68.664  1.00  0.00     0.007 A 
HETATM   28  C15 UNL     1      88.788  43.814  69.725  1.00  0.00     0.001 A 
HETATM   29  C16 UNL     1      89.109  44.410  70.930  1.00  0.00     0.000 A 
HETATM   30  C17 UNL     1      90.328  45.054  71.093  1.00  0.00     0.001 A 
HETATM   31  C18 UNL     1      91.216  45.084  70.015  1.00  0.00     0.007 A 
ENDBRANCH  25  26
ENDBRANCH  20  25
ENDBRANCH   1  20
TORSDOF 12
ENDMDL
MODEL 4
REMARK VINA RESULT: -6.493681479      2.253      3.910
REMARK  12 active torsions:
REMARK  status: ('A' for Active; 'I' for Inactive)
REMARK    1  A    between atoms: C2_2  and  N1_4 
REMARK    2  A    between atoms: N1_4  and  C4_6 
REMARK    3  A    between atoms: C4_6  and  C5_7 
REMARK    4  A    between atoms: C4_6  and  C6_10 
REMARK    5  A    between atoms: C5_7  and  O1_8 
REMARK    6  A    between atoms: C6_10  and  N3_14 
REMARK    7  A    between atoms: N3_14  and  C7_16 
REMARK    8  A    between atoms: C7_16  and  C8_17 
REMARK    9  A    between atoms: C7_16  and  C11_20 
REMARK   10  A    between atoms: C11_20  and  N4_21 
REMARK   11  A    between atoms: C11_20  and  C12_25 
REMARK   12  A    between atoms: C12_25  and  C13_26 
ROOT
HETATM    1  C7  UNL     1      90.376  44.905  67.257  1.00  0.00     0.117 C 
ENDROOT
BRANCH   1   2
HETATM    2  N3  UNL     1      90.442  43.631  66.631  1.00  0.00    -0.371 N 
ATOM      3  H3  UNL     1      90.939  42.911  67.155  1.00  0.00     0.161 HD
BRANCH   2   4
HETATM    4  C6  UNL     1      89.917  43.219  65.387  1.00  0.00     0.096 C 
HETATM    5  N2  UNL     1      89.059  42.256  65.412  1.00  0.00    -0.387 N 
ATOM      6  H22 UNL     1      88.680  41.958  64.513  1.00  0.00     0.157 HD
ATOM      7  H21 UNL     1      88.789  41.869  66.317  1.00  0.00     0.157 HD
BRANCH   4   8
HETATM    8  C4  UNL     1      90.316  43.791  64.050  1.00  0.00     0.168 C 
BRANCH   8   9
HETATM    9  N1  UNL     1      91.701  44.023  64.078  1.00  0.00    -0.406 N 
ATOM     10  H1  UNL     1      92.283  43.331  64.552  1.00  0.00     0.154 HD
BRANCH   9  11
HETATM   11  C2  UNL     1      92.342  45.114  63.516  1.00  0.00     0.069 C 
HETATM   12  C1  UNL     1      93.134  46.034  64.408  1.00  0.00     0.031 C 
HETATM   13  C3  UNL     1      93.331  44.606  62.431  1.00  0.00     0.031 C 
ENDBRANCH   9  11
ENDBRANCH   8   9
BRANCH   8  14
HETATM   14  C5  UNL     1      89.546  45.083  63.821  1.00  0.00     0.196 C 
BRANCH  14  15
HETATM   15  O1  UNL     1      88.307  44.880  64.489  1.00  0.00    -0.398 OA
ATOM     16  H1  UNL     1      87.716  44.581  63.808  1.00  0.00     0.209 HD
ENDBRANCH  14  15
ENDBRANCH   8  14
ENDBRANCH   4   8
ENDBRANCH   2   4
ENDBRANCH   1   2
BRANCH   1  17
HETATM   17  C8  UNL     1      91.692  45.124  68.054  1.00  0.00     0.002 C 
HETATM   18  C9  UNL     1      92.064  46.581  68.000  1.00  0.00     0.011 C 
HETATM   19  C10 UNL     1      92.780  44.213  67.596  1.00  0.00     0.011 C 
ENDBRANCH   1  17
BRANCH   1  20
HETATM   20  C11 UNL     1      89.231  45.220  68.162  1.00  0.00     0.210 C 
BRANCH  20  21
HETATM   21  N4  UNL     1      88.070  45.421  67.272  1.00  0.00    -0.073 N 
ATOM     22  H43 UNL     1      88.085  46.311  66.773  1.00  0.00     0.274 HD
ATOM     23  H42 UNL     1      88.076  44.821  66.448  1.00  0.00     0.274 HD
ATOM     24  H41 UNL     1      87.249  45.297  67.864  1.00  0.00     0.274 HD
ENDBRANCH  20  21
BRANCH  20  25
HETATM   25  C12 UNL     1      88.944  44.173  69.165  1.00  0.00     0.073 C 
BRANCH  25  26
HETATM   26  C13 UNL     1      88.731  44.730  70.535  1.00  0.00    -0.056 A 
HETATM   27  C14 UNL     1      87.478  44.963  71.053  1.00  0.00     0.007 A 
HETATM   28  C15 UNL     1      87.331  45.488  72.343  1.00  0.00     0.001 A 
HETATM   29  C16 UNL     1      88.454  45.773  73.099  1.00  0.00     0.000 A 
HETATM   30  C17 UNL     1      89.723  45.540  72.585  1.00  0.00     0.001 A 
HETATM   31  C18 UNL     1      89.835  45.016  71.295  1.00  0.00     0.007 A 
ENDBRANCH  25  26
ENDBRANCH  20  25
ENDBRANCH   1  20
TORSDOF 12
ENDMDL
MODEL 5
REMARK VINA RESULT: -6.484867954      1.369      1.619
REMARK  12 active torsions:
REMARK  status: ('A' for Active; 'I' for Inactive)
REMARK    1  A    between atoms: C2_2  and  N1_4 
REMARK    2  A    between atoms: N1_4  and  C4_6 
REMARK    3  A    between atoms: C4_6  and  C5_7 
REMARK    4  A    between atoms: C4_6  and  C6_10 
REMARK    5  A    between atoms: C5_7  and  O1_8 
REMARK    6  A    between atoms: C6_10  and  N3_14 
REMARK    7  A    between atoms: N3_14  and  C7_16 
REMARK    8  A    between atoms: C7_16  and  C8_17 
REMARK    9  A    between atoms: C7_16  and  C11_20 
REMARK   10  A    between atoms: C11_20  and  N4_21 
REMARK   11  A    between atoms: C11_20  and  C12_25 
REMARK   12  A    between atoms: C12_25  and  C13_26 
ROOT
HETATM    1  C7  UNL     1      89.834  44.292  65.642  1.00  0.00     0.117 C 
ENDROOT
BRANCH   1   2
HETATM    2  N3  UNL     1      91.253  44.252  65.591  1.00  0.00    -0.371 N 
ATOM      3  H3  UNL     1      91.723  44.236  66.497  1.00  0.00     0.161 HD
BRANCH   2   4
HETATM    4  C6  UNL     1      92.107  44.229  64.468  1.00  0.00     0.096 C 
HETATM    5  N2  UNL     1      91.594  43.809  63.361  1.00  0.00    -0.387 N 
ATOM      6  H22 UNL     1      92.212  43.793  62.548  1.00  0.00     0.157 HD
ATOM      7  H21 UNL     1      90.609  43.547  63.350  1.00  0.00     0.157 HD
BRANCH   4   8
HETATM    8  C4  UNL     1      93.565  44.617  64.483  1.00  0.00     0.168 C 
BRANCH   8   9
HETATM    9  N1  UNL     1      93.658  45.911  65.022  1.00  0.00    -0.406 N 
ATOM     10  H1  UNL     1      93.000  46.611  64.680  1.00  0.00     0.154 HD
BRANCH   9  11
HETATM   11  C2  UNL     1      94.573  46.315  65.981  1.00  0.00     0.069 C 
HETATM   12  C1  UNL     1      94.942  47.773  66.068  1.00  0.00     0.031 C 
HETATM   13  C3  UNL     1      94.033  45.920  67.382  1.00  0.00     0.031 C 
ENDBRANCH   9  11
ENDBRANCH   8   9
BRANCH   8  14
HETATM   14  C5  UNL     1      94.098  44.573  63.060  1.00  0.00     0.196 C 
BRANCH  14  15
HETATM   15  O1  UNL     1      95.511  44.524  63.211  1.00  0.00    -0.398 OA
ATOM     16  H1  UNL     1      95.719  45.284  63.743  1.00  0.00     0.209 HD
ENDBRANCH  14  15
ENDBRANCH   8  14
ENDBRANCH   4   8
ENDBRANCH   2   4
ENDBRANCH   1   2
BRANCH   1  17
HETATM   17  C8  UNL     1      89.395  45.773  65.812  1.00  0.00     0.002 C 
HETATM   18  C9  UNL     1      90.441  46.509  66.605  1.00  0.00     0.011 C 
HETATM   19  C10 UNL     1      88.023  45.886  66.384  1.00  0.00     0.011 C 
ENDBRANCH   1  17
BRANCH   1  20
HETATM   20  C11 UNL     1      89.112  43.476  66.663  1.00  0.00     0.210 C 
BRANCH  20  21
HETATM   21  N4  UNL     1      88.563  42.319  65.926  1.00  0.00    -0.073 N 
ATOM     22  H43 UNL     1      87.568  42.165  66.088  1.00  0.00     0.274 HD
ATOM     23  H42 UNL     1      88.499  42.467  64.920  1.00  0.00     0.274 HD
ATOM     24  H41 UNL     1      89.149  41.527  66.189  1.00  0.00     0.274 HD
ENDBRANCH  20  21
BRANCH  20  25
HETATM   25  C12 UNL     1      89.958  43.025  67.788  1.00  0.00     0.073 C 
BRANCH  25  26
HETATM   26  C13 UNL     1      89.773  43.852  69.017  1.00  0.00    -0.056 A 
HETATM   27  C14 UNL     1      88.540  44.055  69.595  1.00  0.00     0.007 A 
HETATM   28  C15 UNL     1      88.419  44.842  70.747  1.00  0.00     0.001 A 
HETATM   29  C16 UNL     1      89.545  45.416  71.306  1.00  0.00     0.000 A 
HETATM   30  C17 UNL     1      90.794  45.217  70.731  1.00  0.00     0.001 A 
HETATM   31  C18 UNL     1      90.881  44.428  69.582  1.00  0.00     0.007 A 
ENDBRANCH  25  26
ENDBRANCH  20  25
ENDBRANCH   1  20
TORSDOF 12
ENDMDL
