MODEL 1
REMARK VINA RESULT: -7.366201879      0.000      0.000
REMARK  9 active torsions:
REMARK  status: ('A' for Active; 'I' for Inactive)
REMARK    1  A    between atoms: C1_4  and  N2_5 
REMARK    2  A    between atoms: N2_5  and  C2_7 
REMARK    3  A    between atoms: C5_10  and  C6_11 
REMARK       I    between atoms: C6_11  and  N3_13 
REMARK    4  A    between atoms: N3_13  and  C7_15 
REMARK    5  A    between atoms: C7_15  and  C8_16 
REMARK    6  A    between atoms: C7_15  and  C11_21 
REMARK    7  A    between atoms: C8_16  and  C9_17 
REMARK    8  A    between atoms: C9_17  and  C10_18 
REMARK    9  A    between atoms: C11_21  and  C12_22 
ROOT
HETATM    1  C6  UNL     1      89.797  43.819  64.305  1.00  0.00     0.252 C 
HETATM    2  O1  UNL     1      89.813  42.711  63.691  1.00  0.00    -0.268 OA
HETATM    3  N3  UNL     1      89.782  45.057  63.660  1.00  0.00    -0.352 N 
ATOM      4  H3  UNL     1      89.772  45.922  64.200  1.00  0.00     0.163 HD
ENDROOT
BRANCH   3   5
HETATM    5  C7  UNL     1      89.781  45.096  62.187  1.00  0.00     0.090 C 
BRANCH   5   6
HETATM    6  C8  UNL     1      90.956  45.921  61.781  1.00  0.00     0.034 C 
BRANCH   6   7
HETATM    7  C9  UNL     1      92.224  45.553  62.511  1.00  0.00     0.101 C 
BRANCH   7   8
HETATM    8  C10 UNL     1      92.861  44.419  61.779  1.00  0.00     0.231 C 
HETATM    9  N4  UNL     1      93.063  43.182  62.438  1.00  0.00    -0.062 NA
HETATM   10  O2  UNL     1      93.232  44.537  60.567  1.00  0.00    -0.277 OA
ENDBRANCH   7   8
ENDBRANCH   6   7
ENDBRANCH   5   6
BRANCH   5  11
HETATM   11  C11 UNL     1      88.455  45.659  61.777  1.00  0.00     0.083 C 
BRANCH  11  12
HETATM   12  C12 UNL     1      87.867  44.745  60.763  1.00  0.00     0.027 A 
HETATM   13  C13 UNL     1      88.513  43.629  60.257  1.00  0.00     0.114 A 
HETATM   14  N5  UNL     1      87.694  43.041  59.368  1.00  0.00    -0.360 N 
HETATM   15  C14 UNL     1      86.579  43.780  59.333  1.00  0.00     0.180 A 
ATOM     16  H5  UNL     1      87.885  42.198  58.826  1.00  0.00     0.166 HD
HETATM   17  N6  UNL     1      86.662  44.818  60.172  1.00  0.00    -0.355 N 
ATOM     18  H6  UNL     1      85.948  45.529  60.332  1.00  0.00     0.166 HD
ENDBRANCH  11  12
ENDBRANCH   5  11
ENDBRANCH   3   5
BRANCH   1  19
HETATM   19  C5  UNL     1      89.798  43.754  65.770  1.00  0.00     0.032 A 
HETATM   20  C4  UNL     1      90.357  44.806  66.489  1.00  0.00     0.019 A 
HETATM   21  C3  UNL     1      90.365  44.743  67.854  1.00  0.00     0.030 A 
HETATM   22  C2  UNL     1      89.844  43.681  68.554  1.00  0.00     0.032 A 
HETATM   23  C16 UNL     1      89.301  42.660  67.809  1.00  0.00     0.030 A 
HETATM   24  C15 UNL     1      89.270  42.678  66.427  1.00  0.00     0.019 A 
BRANCH  22  25
HETATM   25  N2  UNL     1      89.863  43.636  69.969  1.00  0.00    -0.353 N 
ATOM     26  H2  UNL     1      89.666  42.764  70.461  1.00  0.00     0.166 HD
BRANCH  25  27
HETATM   27  C1  UNL     1      90.159  44.816  70.690  1.00  0.00     0.173 C 
HETATM   28  N1  UNL     1      91.036  44.770  71.624  1.00  0.00    -0.395 N 
ATOM     29  H12 UNL     1      91.504  43.888  71.831  1.00  0.00     0.156 HD
ATOM     30  H11 UNL     1      91.250  45.622  72.143  1.00  0.00     0.156 HD
ENDBRANCH  25  27
ENDBRANCH  22  25
ENDBRANCH   1  19
TORSDOF 9
ENDMDL
MODEL 2
REMARK VINA RESULT: -7.328188984      2.451      7.571
REMARK  9 active torsions:
REMARK  status: ('A' for Active; 'I' for Inactive)
REMARK    1  A    between atoms: C1_4  and  N2_5 
REMARK    2  A    between atoms: N2_5  and  C2_7 
REMARK    3  A    between atoms: C5_10  and  C6_11 
REMARK       I    between atoms: C6_11  and  N3_13 
REMARK    4  A    between atoms: N3_13  and  C7_15 
REMARK    5  A    between atoms: C7_15  and  C8_16 
REMARK    6  A    between atoms: C7_15  and  C11_21 
REMARK    7  A    between atoms: C8_16  and  C9_17 
REMARK    8  A    between atoms: C9_17  and  C10_18 
REMARK    9  A    between atoms: C11_21  and  C12_22 
ROOT
HETATM    1  C6  UNL     1      90.079  45.805  62.918  1.00  0.00     0.252 C 
HETATM    2  O1  UNL     1      90.685  46.866  62.584  1.00  0.00    -0.268 OA
HETATM    3  N3  UNL     1      90.447  45.019  64.012  1.00  0.00    -0.352 N 
ATOM      4  H3  UNL     1      89.927  44.171  64.237  1.00  0.00     0.163 HD
ENDROOT
BRANCH   3   5
HETATM    5  C7  UNL     1      91.596  45.433  64.835  1.00  0.00     0.090 C 
BRANCH   5   6
HETATM    6  C8  UNL     1      92.707  44.486  64.524  1.00  0.00     0.034 C 
BRANCH   6   7
HETATM    7  C9  UNL     1      93.627  44.982  63.437  1.00  0.00     0.101 C 
BRANCH   7   8
HETATM    8  C10 UNL     1      93.645  43.961  62.350  1.00  0.00     0.231 C 
HETATM    9  N4  UNL     1      92.443  43.315  61.972  1.00  0.00    -0.062 NA
HETATM   10  O2  UNL     1      94.723  43.651  61.748  1.00  0.00    -0.277 OA
ENDBRANCH   7   8
ENDBRANCH   6   7
ENDBRANCH   5   6
BRANCH   5  11
HETATM   11  C11 UNL     1      91.133  45.402  66.259  1.00  0.00     0.083 C 
BRANCH  11  12
HETATM   12  C12 UNL     1      92.278  45.803  67.118  1.00  0.00     0.027 A 
HETATM   13  C13 UNL     1      92.808  45.013  68.124  1.00  0.00     0.114 A 
HETATM   14  N5  UNL     1      93.825  45.686  68.690  1.00  0.00    -0.360 N 
HETATM   15  C14 UNL     1      93.913  46.855  68.046  1.00  0.00     0.180 A 
ATOM     16  H5  UNL     1      94.414  45.368  69.460  1.00  0.00     0.166 HD
HETATM   17  N6  UNL     1      92.984  46.948  67.087  1.00  0.00    -0.355 N 
ATOM     18  H6  UNL     1      92.839  47.735  66.455  1.00  0.00     0.166 HD
ENDBRANCH  11  12
ENDBRANCH   5  11
ENDBRANCH   3   5
BRANCH   1  19
HETATM   19  C5  UNL     1      88.938  45.414  62.083  1.00  0.00     0.032 A 
HETATM   20  C4  UNL     1      87.704  46.018  62.306  1.00  0.00     0.019 A 
HETATM   21  C3  UNL     1      86.639  45.648  61.534  1.00  0.00     0.030 A 
HETATM   22  C2  UNL     1      86.730  44.701  60.542  1.00  0.00     0.032 A 
HETATM   23  C16 UNL     1      87.965  44.127  60.352  1.00  0.00     0.030 A 
HETATM   24  C15 UNL     1      89.072  44.467  61.107  1.00  0.00     0.019 A 
BRANCH  22  25
HETATM   25  N2  UNL     1      85.613  44.333  59.754  1.00  0.00    -0.353 N 
ATOM     26  H2  UNL     1      84.676  44.645  60.008  1.00  0.00     0.166 HD
BRANCH  25  27
HETATM   27  C1  UNL     1      85.816  43.528  58.609  1.00  0.00     0.173 C 
HETATM   28  N1  UNL     1      85.626  44.039  57.448  1.00  0.00    -0.395 N 
ATOM     29  H12 UNL     1      85.334  45.013  57.369  1.00  0.00     0.156 HD
ATOM     30  H11 UNL     1      85.773  43.458  56.622  1.00  0.00     0.156 HD
ENDBRANCH  25  27
ENDBRANCH  22  25
ENDBRANCH   1  19
TORSDOF 9
ENDMDL
MODEL 3
REMARK VINA RESULT: -7.246028909      4.170      6.470
REMARK  9 active torsions:
REMARK  status: ('A' for Active; 'I' for Inactive)
REMARK    1  A    between atoms: C1_4  and  N2_5 
REMARK    2  A    between atoms: N2_5  and  C2_7 
REMARK    3  A    between atoms: C5_10  and  C6_11 
REMARK       I    between atoms: C6_11  and  N3_13 
REMARK    4  A    between atoms: N3_13  and  C7_15 
REMARK    5  A    between atoms: C7_15  and  C8_16 
REMARK    6  A    between atoms: C7_15  and  C11_21 
REMARK    7  A    between atoms: C8_16  and  C9_17 
REMARK    8  A    between atoms: C9_17  and  C10_18 
REMARK    9  A    between atoms: C11_21  and  C12_22 
ROOT
HETATM    1  C6  UNL     1      92.525  45.062  66.500  1.00  0.00     0.252 C 
HETATM    2  O1  UNL     1      92.636  44.095  67.311  1.00  0.00    -0.268 OA
HETATM    3  N3  UNL     1      91.459  45.201  65.609  1.00  0.00    -0.352 N 
ATOM      4  H3  UNL     1      91.416  45.998  64.974  1.00  0.00     0.163 HD
ENDROOT
BRANCH   3   5
HETATM    5  C7  UNL     1      90.397  44.179  65.599  1.00  0.00     0.090 C 
BRANCH   5   6
HETATM    6  C8  UNL     1      90.238  43.744  64.180  1.00  0.00     0.034 C 
BRANCH   6   7
HETATM    7  C9  UNL     1      91.014  44.594  63.204  1.00  0.00     0.101 C 
BRANCH   7   8
HETATM    8  C10 UNL     1      92.158  43.782  62.699  1.00  0.00     0.231 C 
HETATM    9  N4  UNL     1      93.423  43.881  63.327  1.00  0.00    -0.062 NA
HETATM   10  O2  UNL     1      92.026  42.994  61.708  1.00  0.00    -0.277 OA
ENDBRANCH   7   8
ENDBRANCH   6   7
ENDBRANCH   5   6
BRANCH   5  11
HETATM   11  C11 UNL     1      89.181  44.822  66.191  1.00  0.00     0.083 C 
BRANCH  11  12
HETATM   12  C12 UNL     1      89.055  44.347  67.594  1.00  0.00     0.027 A 
HETATM   13  C13 UNL     1      88.226  44.930  68.539  1.00  0.00     0.114 A 
HETATM   14  N5  UNL     1      88.363  44.249  69.689  1.00  0.00    -0.360 N 
HETATM   15  C14 UNL     1      89.251  43.277  69.452  1.00  0.00     0.180 A 
ATOM     16  H5  UNL     1      87.884  44.436  70.570  1.00  0.00     0.166 HD
HETATM   17  N6  UNL     1      89.683  43.317  68.187  1.00  0.00    -0.355 N 
ATOM     18  H6  UNL     1      90.360  42.688  67.755  1.00  0.00     0.166 HD
ENDBRANCH  11  12
ENDBRANCH   5  11
ENDBRANCH   3   5
BRANCH   1  19
HETATM   19  C5  UNL     1      93.593  46.067  66.529  1.00  0.00     0.032 A 
HETATM   20  C4  UNL     1      93.580  47.090  65.586  1.00  0.00     0.019 A 
HETATM   21  C3  UNL     1      94.579  48.021  65.609  1.00  0.00     0.030 A 
HETATM   22  C2  UNL     1      95.603  47.994  66.525  1.00  0.00     0.032 A 
HETATM   23  C16 UNL     1      95.582  46.968  67.440  1.00  0.00     0.030 A 
HETATM   24  C15 UNL     1      94.594  46.002  67.459  1.00  0.00     0.019 A 
BRANCH  22  25
HETATM   25  N2  UNL     1      96.629  48.970  66.530  1.00  0.00    -0.353 N 
ATOM     26  H2  UNL     1      96.519  49.839  66.007  1.00  0.00     0.166 HD
BRANCH  25  27
HETATM   27  C1  UNL     1      97.809  48.722  67.270  1.00  0.00     0.173 C 
HETATM   28  N1  UNL     1      98.542  49.714  67.620  1.00  0.00    -0.395 N 
ATOM     29  H12 UNL     1      98.265  50.661  67.361  1.00  0.00     0.156 HD
ATOM     30  H11 UNL     1      99.393  49.536  68.154  1.00  0.00     0.156 HD
ENDBRANCH  25  27
ENDBRANCH  22  25
ENDBRANCH   1  19
TORSDOF 9
ENDMDL
MODEL 4
REMARK VINA RESULT: -7.185279098      4.167      6.215
REMARK  9 active torsions:
REMARK  status: ('A' for Active; 'I' for Inactive)
REMARK    1  A    between atoms: C1_4  and  N2_5 
REMARK    2  A    between atoms: N2_5  and  C2_7 
REMARK    3  A    between atoms: C5_10  and  C6_11 
REMARK       I    between atoms: C6_11  and  N3_13 
REMARK    4  A    between atoms: N3_13  and  C7_15 
REMARK    5  A    between atoms: C7_15  and  C8_16 
REMARK    6  A    between atoms: C7_15  and  C11_21 
REMARK    7  A    between atoms: C8_16  and  C9_17 
REMARK    8  A    between atoms: C9_17  and  C10_18 
REMARK    9  A    between atoms: C11_21  and  C12_22 
ROOT
HETATM    1  C6  UNL     1      92.624  44.995  65.968  1.00  0.00     0.252 C 
HETATM    2  O1  UNL     1      92.758  43.957  66.683  1.00  0.00    -0.268 OA
HETATM    3  N3  UNL     1      91.582  45.173  65.056  1.00  0.00    -0.352 N 
ATOM      4  H3  UNL     1      91.520  46.026  64.502  1.00  0.00     0.163 HD
ENDROOT
BRANCH   3   5
HETATM    5  C7  UNL     1      90.574  44.109  64.906  1.00  0.00     0.090 C 
BRANCH   5   6
HETATM    6  C8  UNL     1      90.547  43.748  63.458  1.00  0.00     0.034 C 
BRANCH   6   7
HETATM    7  C9  UNL     1      91.296  44.725  62.586  1.00  0.00     0.101 C 
BRANCH   7   8
HETATM    8  C10 UNL     1      92.571  44.078  62.162  1.00  0.00     0.231 C 
HETATM    9  N4  UNL     1      93.148  44.410  60.912  1.00  0.00    -0.062 NA
HETATM   10  O2  UNL     1      93.161  43.227  62.903  1.00  0.00    -0.277 OA
ENDBRANCH   7   8
ENDBRANCH   6   7
ENDBRANCH   5   6
BRANCH   5  11
HETATM   11  C11 UNL     1      89.286  44.665  65.431  1.00  0.00     0.083 C 
BRANCH  11  12
HETATM   12  C12 UNL     1      89.133  44.207  66.836  1.00  0.00     0.027 A 
HETATM   13  C13 UNL     1      88.352  44.850  67.782  1.00  0.00     0.114 A 
HETATM   14  N5  UNL     1      88.446  44.167  68.935  1.00  0.00    -0.360 N 
HETATM   15  C14 UNL     1      89.263  43.134  68.700  1.00  0.00     0.180 A 
ATOM     16  H5  UNL     1      87.985  44.391  69.817  1.00  0.00     0.166 HD
HETATM   17  N6  UNL     1      89.692  43.138  67.432  1.00  0.00    -0.355 N 
ATOM     18  H6  UNL     1      90.321  42.461  67.001  1.00  0.00     0.166 HD
ENDBRANCH  11  12
ENDBRANCH   5  11
ENDBRANCH   3   5
BRANCH   1  19
HETATM   19  C5  UNL     1      93.639  46.040  66.136  1.00  0.00     0.032 A 
HETATM   20  C4  UNL     1      94.579  45.907  67.154  1.00  0.00     0.019 A 
HETATM   21  C3  UNL     1      95.520  46.885  67.316  1.00  0.00     0.030 A 
HETATM   22  C2  UNL     1      95.582  48.000  66.515  1.00  0.00     0.032 A 
HETATM   23  C16 UNL     1      94.636  48.096  65.521  1.00  0.00     0.030 A 
HETATM   24  C15 UNL     1      93.664  47.134  65.317  1.00  0.00     0.019 A 
BRANCH  22  25
HETATM   25  N2  UNL     1      96.565  49.001  66.700  1.00  0.00    -0.353 N 
ATOM     26  H2  UNL     1      96.377  49.967  66.431  1.00  0.00     0.166 HD
BRANCH  25  27
HETATM   27  C1  UNL     1      97.812  48.642  67.264  1.00  0.00     0.173 C 
HETATM   28  N1  UNL     1      98.595  49.568  67.680  1.00  0.00    -0.395 N 
ATOM     29  H12 UNL     1      98.308  50.544  67.599  1.00  0.00     0.156 HD
ATOM     30  H11 UNL     1      99.494  49.310  68.087  1.00  0.00     0.156 HD
ENDBRANCH  25  27
ENDBRANCH  22  25
ENDBRANCH   1  19
TORSDOF 9
ENDMDL
MODEL 5
REMARK VINA RESULT: -7.155194392      4.315      6.554
REMARK  9 active torsions:
REMARK  status: ('A' for Active; 'I' for Inactive)
REMARK    1  A    between atoms: C1_4  and  N2_5 
REMARK    2  A    between atoms: N2_5  and  C2_7 
REMARK    3  A    between atoms: C5_10  and  C6_11 
REMARK       I    between atoms: C6_11  and  N3_13 
REMARK    4  A    between atoms: N3_13  and  C7_15 
REMARK    5  A    between atoms: C7_15  and  C8_16 
REMARK    6  A    between atoms: C7_15  and  C11_21 
REMARK    7  A    between atoms: C8_16  and  C9_17 
REMARK    8  A    between atoms: C9_17  and  C10_18 
REMARK    9  A    between atoms: C11_21  and  C12_22 
ROOT
HETATM    1  C6  UNL     1      92.668  45.234  66.209  1.00  0.00     0.252 C 
HETATM    2  O1  UNL     1      92.791  44.184  66.907  1.00  0.00    -0.268 OA
HETATM    3  N3  UNL     1      91.576  45.480  65.373  1.00  0.00    -0.352 N 
ATOM      4  H3  UNL     1      91.526  46.340  64.829  1.00  0.00     0.163 HD
ENDROOT
BRANCH   3   5
HETATM    5  C7  UNL     1      90.499  44.479  65.291  1.00  0.00     0.090 C 
BRANCH   5   6
HETATM    6  C8  UNL     1      90.178  44.316  63.842  1.00  0.00     0.034 C 
BRANCH   6   7
HETATM    7  C9  UNL     1      91.373  44.506  62.941  1.00  0.00     0.101 C 
BRANCH   7   8
HETATM    8  C10 UNL     1      91.151  45.744  62.140  1.00  0.00     0.231 C 
HETATM    9  N4  UNL     1      91.384  45.730  60.743  1.00  0.00    -0.062 NA
HETATM   10  O2  UNL     1      90.752  46.824  62.684  1.00  0.00    -0.277 OA
ENDBRANCH   7   8
ENDBRANCH   6   7
ENDBRANCH   5   6
BRANCH   5  11
HETATM   11  C11 UNL     1      89.368  44.999  66.123  1.00  0.00     0.083 C 
BRANCH  11  12
HETATM   12  C12 UNL     1      89.471  44.379  67.469  1.00  0.00     0.027 A 
HETATM   13  C13 UNL     1      88.940  43.142  67.796  1.00  0.00     0.114 A 
HETATM   14  N5  UNL     1      89.218  42.897  69.088  1.00  0.00    -0.360 N 
HETATM   15  C14 UNL     1      89.901  43.957  69.537  1.00  0.00     0.180 A 
ATOM     16  H5  UNL     1      88.960  42.067  69.622  1.00  0.00     0.166 HD
HETATM   17  N6  UNL     1      90.066  44.868  68.572  1.00  0.00    -0.355 N 
ATOM     18  H6  UNL     1      90.550  45.762  68.655  1.00  0.00     0.166 HD
ENDBRANCH  11  12
ENDBRANCH   5  11
ENDBRANCH   3   5
BRANCH   1  19
HETATM   19  C5  UNL     1      93.752  46.216  66.308  1.00  0.00     0.032 A 
HETATM   20  C4  UNL     1      93.708  47.350  65.504  1.00  0.00     0.019 A 
HETATM   21  C3  UNL     1      94.722  48.262  65.592  1.00  0.00     0.030 A 
HETATM   22  C2  UNL     1      95.791  48.109  66.442  1.00  0.00     0.032 A 
HETATM   23  C16 UNL     1      95.800  46.975  67.220  1.00  0.00     0.030 A 
HETATM   24  C15 UNL     1      94.798  46.024  67.168  1.00  0.00     0.019 A 
BRANCH  22  25
HETATM   25  N2  UNL     1      96.832  49.066  66.516  1.00  0.00    -0.353 N 
ATOM     26  H2  UNL     1      96.763  49.945  66.003  1.00  0.00     0.166 HD
BRANCH  25  27
HETATM   27  C1  UNL     1      97.967  48.786  67.312  1.00  0.00     0.173 C 
HETATM   28  N1  UNL     1      98.703  49.758  67.707  1.00  0.00    -0.395 N 
ATOM     29  H12 UNL     1      98.460  50.713  67.443  1.00  0.00     0.156 HD
ATOM     30  H11 UNL     1      99.522  49.556  68.282  1.00  0.00     0.156 HD
ENDBRANCH  25  27
ENDBRANCH  22  25
ENDBRANCH   1  19
TORSDOF 9
ENDMDL
