MODEL 1
REMARK VINA RESULT: -7.336759548      0.000      0.000
REMARK  10 active torsions:
REMARK  status: ('A' for Active; 'I' for Inactive)
REMARK    1  A    between atoms: C2_2  and  C3_3 
REMARK    2  A    between atoms: C3_3  and  C4_4 
REMARK    3  A    between atoms: C4_4  and  C5_5 
REMARK    4  A    between atoms: C4_4  and  O2_10 
REMARK    5  A    between atoms: C5_5  and  N1_6 
REMARK    6  A    between atoms: N1_6  and  C6_8 
REMARK    7  A    between atoms: O2_10  and  C7_11 
REMARK    8  A    between atoms: C11_15  and  C12_16 
REMARK    9  A    between atoms: C12_16  and  C13_17 
REMARK   10  A    between atoms: C15_21  and  N3_22 
ROOT
HETATM    1  C7  UNL     1      92.617  44.922  67.680  1.00  0.00     0.070 A 
HETATM    2  C8  UNL     1      93.151  45.583  68.796  1.00  0.00     0.037 A 
HETATM    3  C9  UNL     1      92.441  45.549  69.973  1.00  0.00     0.003 A 
HETATM    4  C10 UNL     1      91.237  44.895  70.087  1.00  0.00     0.007 A 
HETATM    5  C11 UNL     1      90.700  44.239  68.991  1.00  0.00    -0.051 A 
HETATM    6  C17 UNL     1      91.413  44.275  67.818  1.00  0.00     0.044 A 
ENDROOT
BRANCH   5   7
HETATM    7  C12 UNL     1      89.430  43.508  69.074  1.00  0.00     0.082 C 
BRANCH   7   8
HETATM    8  C13 UNL     1      88.297  44.098  68.363  1.00  0.00     0.006 A 
HETATM    9  C14 UNL     1      87.634  45.185  68.948  1.00  0.00     0.117 A 
HETATM   10  N2  UNL     1      86.611  45.819  68.363  1.00  0.00    -0.202 N 
HETATM   11  C15 UNL     1      86.201  45.395  67.158  1.00  0.00     0.677 A 
ATOM     12  H2  UNL     1      86.154  46.607  68.822  1.00  0.00     0.183 HD
HETATM   13  N4  UNL     1      86.804  44.360  66.559  1.00  0.00    -0.177 N 
HETATM   14  C16 UNL     1      87.852  43.691  67.135  1.00  0.00     0.122 A 
ATOM     15  H4  UNL     1      86.471  44.060  65.642  1.00  0.00     0.185 HD
HETATM   16  N5  UNL     1      88.316  42.699  66.487  1.00  0.00    -0.385 N 
ATOM     17  H52 UNL     1      89.096  42.201  66.915  1.00  0.00     0.157 HD
ATOM     18  H51 UNL     1      87.985  42.395  65.571  1.00  0.00     0.157 HD
BRANCH  11  19
HETATM   19  N3  UNL     1      85.216  45.986  66.564  1.00  0.00    -0.234 N 
ATOM     20  H32 UNL     1      85.311  46.964  66.290  1.00  0.00     0.174 HD
ATOM     21  H31 UNL     1      84.353  45.476  66.375  1.00  0.00     0.174 HD
ENDBRANCH  11  19
ENDBRANCH   7   8
ENDBRANCH   5   7
BRANCH   1  22
HETATM   22  O2  UNL     1      93.314  44.955  66.523  1.00  0.00    -0.344 OA
BRANCH  22  23
HETATM   23  C4  UNL     1      93.188  45.883  65.444  1.00  0.00     0.150 C 
BRANCH  23  24
HETATM   24  C3  UNL     1      94.576  46.481  65.325  1.00  0.00     0.060 C 
BRANCH  24  25
HETATM   25  C2  UNL     1      94.833  47.711  66.056  1.00  0.00    -0.034 C 
HETATM   26  C1  UNL     1      95.875  47.813  66.852  1.00  0.00     0.007 C 
ENDBRANCH  24  25
ENDBRANCH  23  24
BRANCH  23  27
HETATM   27  C5  UNL     1      92.798  45.033  64.259  1.00  0.00     0.154 C 
BRANCH  27  28
HETATM   28  N1  UNL     1      93.580  45.241  63.080  1.00  0.00    -0.366 N 
ATOM     29  H1  UNL     1      94.151  46.082  62.993  1.00  0.00     0.161 HD
BRANCH  28  30
HETATM   30  C6  UNL     1      93.569  44.282  62.024  1.00  0.00     0.348 C 
HETATM   31  O1  UNL     1      93.296  43.095  62.316  1.00  0.00    -0.284 OA
ENDBRANCH  28  30
ENDBRANCH  27  28
ENDBRANCH  23  27
ENDBRANCH  22  23
ENDBRANCH   1  22
TORSDOF 10
ENDMDL
MODEL 2
REMARK VINA RESULT: -7.309900305      3.518      6.370
REMARK  10 active torsions:
REMARK  status: ('A' for Active; 'I' for Inactive)
REMARK    1  A    between atoms: C2_2  and  C3_3 
REMARK    2  A    between atoms: C3_3  and  C4_4 
REMARK    3  A    between atoms: C4_4  and  C5_5 
REMARK    4  A    between atoms: C4_4  and  O2_10 
REMARK    5  A    between atoms: C5_5  and  N1_6 
REMARK    6  A    between atoms: N1_6  and  C6_8 
REMARK    7  A    between atoms: O2_10  and  C7_11 
REMARK    8  A    between atoms: C11_15  and  C12_16 
REMARK    9  A    between atoms: C12_16  and  C13_17 
REMARK   10  A    between atoms: C15_21  and  N3_22 
ROOT
HETATM    1  C7  UNL     1      89.705  44.880  64.776  1.00  0.00     0.070 A 
HETATM    2  C8  UNL     1      88.710  44.863  65.765  1.00  0.00     0.037 A 
HETATM    3  C9  UNL     1      89.087  44.615  67.063  1.00  0.00     0.003 A 
HETATM    4  C10 UNL     1      90.396  44.384  67.416  1.00  0.00     0.007 A 
HETATM    5  C11 UNL     1      91.387  44.398  66.447  1.00  0.00    -0.051 A 
HETATM    6  C17 UNL     1      91.005  44.648  65.152  1.00  0.00     0.044 A 
ENDROOT
BRANCH   5   7
HETATM    7  C12 UNL     1      92.799  44.181  66.784  1.00  0.00     0.082 C 
BRANCH   7   8
HETATM    8  C13 UNL     1      93.661  45.363  66.745  1.00  0.00     0.006 A 
HETATM    9  C14 UNL     1      94.239  45.728  65.521  1.00  0.00     0.117 A 
HETATM   10  N2  UNL     1      95.010  46.810  65.372  1.00  0.00    -0.202 N 
HETATM   11  C15 UNL     1      95.241  47.584  66.442  1.00  0.00     0.677 A 
ATOM     12  H2  UNL     1      95.414  47.042  64.464  1.00  0.00     0.183 HD
HETATM   13  N4  UNL     1      94.710  47.277  67.633  1.00  0.00    -0.177 N 
HETATM   14  C16 UNL     1      93.917  46.174  67.816  1.00  0.00     0.122 A 
ATOM     15  H4  UNL     1      94.901  47.884  68.429  1.00  0.00     0.185 HD
HETATM   16  N5  UNL     1      93.504  45.964  69.002  1.00  0.00    -0.385 N 
ATOM     17  H52 UNL     1      92.914  45.143  69.139  1.00  0.00     0.157 HD
ATOM     18  H51 UNL     1      93.695  46.568  69.801  1.00  0.00     0.157 HD
BRANCH  11  19
HETATM   19  N3  UNL     1      95.982  48.639  66.332  1.00  0.00    -0.234 N 
ATOM     20  H32 UNL     1      96.023  49.130  65.439  1.00  0.00     0.174 HD
ATOM     21  H31 UNL     1      96.518  48.973  67.132  1.00  0.00     0.174 HD
ENDBRANCH  11  19
ENDBRANCH   7   8
ENDBRANCH   5   7
BRANCH   1  22
HETATM   22  O2  UNL     1      89.334  45.125  63.499  1.00  0.00    -0.344 OA
BRANCH  22  23
HETATM   23  C4  UNL     1      89.993  44.725  62.297  1.00  0.00     0.150 C 
BRANCH  23  24
HETATM   24  C3  UNL     1      88.851  44.356  61.370  1.00  0.00     0.060 C 
BRANCH  24  25
HETATM   25  C2  UNL     1      87.657  45.183  61.427  1.00  0.00    -0.034 C 
HETATM   26  C1  UNL     1      86.775  45.155  60.452  1.00  0.00     0.007 C 
ENDBRANCH  24  25
ENDBRANCH  23  24
BRANCH  23  27
HETATM   27  C5  UNL     1      90.752  45.952  61.855  1.00  0.00     0.154 C 
BRANCH  27  28
HETATM   28  N1  UNL     1      92.156  45.928  62.128  1.00  0.00    -0.366 N 
ATOM     29  H1  UNL     1      92.620  46.772  62.465  1.00  0.00     0.161 HD
BRANCH  28  30
HETATM   30  C6  UNL     1      92.913  44.734  61.931  1.00  0.00     0.348 C 
HETATM   31  O1  UNL     1      93.226  44.429  60.758  1.00  0.00    -0.284 OA
ENDBRANCH  28  30
ENDBRANCH  27  28
ENDBRANCH  23  27
ENDBRANCH  22  23
ENDBRANCH   1  22
TORSDOF 10
ENDMDL
MODEL 3
REMARK VINA RESULT: -7.278049742      2.310      3.080
REMARK  10 active torsions:
REMARK  status: ('A' for Active; 'I' for Inactive)
REMARK    1  A    between atoms: C2_2  and  C3_3 
REMARK    2  A    between atoms: C3_3  and  C4_4 
REMARK    3  A    between atoms: C4_4  and  C5_5 
REMARK    4  A    between atoms: C4_4  and  O2_10 
REMARK    5  A    between atoms: C5_5  and  N1_6 
REMARK    6  A    between atoms: N1_6  and  C6_8 
REMARK    7  A    between atoms: O2_10  and  C7_11 
REMARK    8  A    between atoms: C11_15  and  C12_16 
REMARK    9  A    between atoms: C12_16  and  C13_17 
REMARK   10  A    between atoms: C15_21  and  N3_22 
ROOT
HETATM    1  C7  UNL     1      92.878  46.670  67.931  1.00  0.00     0.070 A 
HETATM    2  C8  UNL     1      93.178  46.085  69.170  1.00  0.00     0.037 A 
HETATM    3  C9  UNL     1      92.237  45.266  69.747  1.00  0.00     0.003 A 
HETATM    4  C10 UNL     1      91.023  45.008  69.154  1.00  0.00     0.007 A 
HETATM    5  C11 UNL     1      90.716  45.582  67.930  1.00  0.00    -0.051 A 
HETATM    6  C17 UNL     1      91.660  46.398  67.357  1.00  0.00     0.044 A 
ENDROOT
BRANCH   5   7
HETATM    7  C12 UNL     1      89.444  45.314  67.250  1.00  0.00     0.082 C 
BRANCH   7   8
HETATM    8  C13 UNL     1      89.537  44.715  65.918  1.00  0.00     0.006 A 
HETATM    9  C14 UNL     1      89.556  45.564  64.803  1.00  0.00     0.117 A 
HETATM   10  N2  UNL     1      89.676  45.118  63.548  1.00  0.00    -0.202 N 
HETATM   11  C15 UNL     1      89.785  43.797  63.346  1.00  0.00     0.677 A 
ATOM     12  H2  UNL     1      89.685  45.769  62.762  1.00  0.00     0.183 HD
HETATM   13  N4  UNL     1      89.773  42.946  64.380  1.00  0.00    -0.177 N 
HETATM   14  C16 UNL     1      89.649  43.373  65.676  1.00  0.00     0.122 A 
ATOM     15  H4  UNL     1      89.858  41.946  64.196  1.00  0.00     0.185 HD
HETATM   16  N5  UNL     1      89.609  42.468  66.570  1.00  0.00    -0.385 N 
ATOM     17  H52 UNL     1      89.518  42.785  67.535  1.00  0.00     0.157 HD
ATOM     18  H51 UNL     1      89.693  41.467  66.390  1.00  0.00     0.157 HD
BRANCH  11  19
HETATM   19  N3  UNL     1      89.904  43.333  62.144  1.00  0.00    -0.234 N 
ATOM     20  H32 UNL     1      90.479  42.507  61.981  1.00  0.00     0.174 HD
ATOM     21  H31 UNL     1      89.426  43.793  61.369  1.00  0.00     0.174 HD
ENDBRANCH  11  19
ENDBRANCH   7   8
ENDBRANCH   5   7
BRANCH   1  22
HETATM   22  O2  UNL     1      93.803  47.475  67.363  1.00  0.00    -0.344 OA
BRANCH  22  23
HETATM   23  C4  UNL     1      94.327  47.417  66.036  1.00  0.00     0.150 C 
BRANCH  23  24
HETATM   24  C3  UNL     1      95.529  48.340  66.087  1.00  0.00     0.060 C 
BRANCH  24  25
HETATM   25  C2  UNL     1      96.513  48.092  67.128  1.00  0.00    -0.034 C 
HETATM   26  C1  UNL     1      97.637  48.774  67.165  1.00  0.00     0.007 C 
ENDBRANCH  24  25
ENDBRANCH  23  24
BRANCH  23  27
HETATM   27  C5  UNL     1      94.694  45.966  65.837  1.00  0.00     0.154 C 
BRANCH  27  28
HETATM   28  N1  UNL     1      94.787  45.545  64.474  1.00  0.00    -0.366 N 
ATOM     29  H1  UNL     1      95.652  45.698  63.955  1.00  0.00     0.161 HD
BRANCH  28  30
HETATM   30  C6  UNL     1      93.680  44.913  63.832  1.00  0.00     0.348 C 
HETATM   31  O1  UNL     1      92.818  44.368  64.559  1.00  0.00    -0.284 OA
ENDBRANCH  28  30
ENDBRANCH  27  28
ENDBRANCH  23  27
ENDBRANCH  22  23
ENDBRANCH   1  22
TORSDOF 10
ENDMDL
MODEL 4
REMARK VINA RESULT: -7.260547413      2.415      3.411
REMARK  10 active torsions:
REMARK  status: ('A' for Active; 'I' for Inactive)
REMARK    1  A    between atoms: C2_2  and  C3_3 
REMARK    2  A    between atoms: C3_3  and  C4_4 
REMARK    3  A    between atoms: C4_4  and  C5_5 
REMARK    4  A    between atoms: C4_4  and  O2_10 
REMARK    5  A    between atoms: C5_5  and  N1_6 
REMARK    6  A    between atoms: N1_6  and  C6_8 
REMARK    7  A    between atoms: O2_10  and  C7_11 
REMARK    8  A    between atoms: C11_15  and  C12_16 
REMARK    9  A    between atoms: C12_16  and  C13_17 
REMARK   10  A    between atoms: C15_21  and  N3_22 
ROOT
HETATM    1  C7  UNL     1      91.395  44.348  66.723  1.00  0.00     0.070 A 
HETATM    2  C8  UNL     1      90.513  44.045  65.675  1.00  0.00     0.037 A 
HETATM    3  C9  UNL     1      89.259  43.582  65.994  1.00  0.00     0.003 A 
HETATM    4  C10 UNL     1      88.849  43.407  67.295  1.00  0.00     0.007 A 
HETATM    5  C11 UNL     1      89.712  43.703  68.338  1.00  0.00    -0.051 A 
HETATM    6  C17 UNL     1      90.964  44.166  68.014  1.00  0.00     0.044 A 
ENDROOT
BRANCH   5   7
HETATM    7  C12 UNL     1      89.307  43.555  69.741  1.00  0.00     0.082 C 
BRANCH   7   8
HETATM    8  C13 UNL     1      89.088  44.797  70.484  1.00  0.00     0.006 A 
HETATM    9  C14 UNL     1      87.905  45.512  70.254  1.00  0.00     0.117 A 
HETATM   10  N2  UNL     1      87.592  46.637  70.907  1.00  0.00    -0.202 N 
HETATM   11  C15 UNL     1      88.451  47.102  71.826  1.00  0.00     0.677 A 
ATOM     12  H2  UNL     1      86.721  47.129  70.710  1.00  0.00     0.183 HD
HETATM   13  N4  UNL     1      89.594  46.453  72.081  1.00  0.00    -0.177 N 
HETATM   14  C16 UNL     1      89.942  45.299  71.427  1.00  0.00     0.122 A 
ATOM     15  H4  UNL     1      90.228  46.829  72.787  1.00  0.00     0.185 HD
HETATM   16  N5  UNL     1      91.071  44.796  71.726  1.00  0.00    -0.385 N 
ATOM     17  H52 UNL     1      91.330  43.938  71.240  1.00  0.00     0.157 HD
ATOM     18  H51 UNL     1      91.708  45.171  72.430  1.00  0.00     0.157 HD
BRANCH  11  19
HETATM   19  N3  UNL     1      88.179  48.186  72.477  1.00  0.00    -0.234 N 
ATOM     20  H32 UNL     1      88.610  49.064  72.189  1.00  0.00     0.174 HD
ATOM     21  H31 UNL     1      87.539  48.159  73.271  1.00  0.00     0.174 HD
ENDBRANCH  11  19
ENDBRANCH   7   8
ENDBRANCH   5   7
BRANCH   1  22
HETATM   22  O2  UNL     1      92.629  44.804  66.410  1.00  0.00    -0.344 OA
BRANCH  22  23
HETATM   23  C4  UNL     1      92.978  45.858  65.512  1.00  0.00     0.150 C 
BRANCH  23  24
HETATM   24  C3  UNL     1      93.653  46.879  66.407  1.00  0.00     0.060 C 
BRANCH  24  25
HETATM   25  C2  UNL     1      94.872  47.495  65.908  1.00  0.00    -0.034 C 
HETATM   26  C1  UNL     1      95.823  47.864  66.738  1.00  0.00     0.007 C 
ENDBRANCH  24  25
ENDBRANCH  23  24
BRANCH  23  27
HETATM   27  C5  UNL     1      93.918  45.215  64.521  1.00  0.00     0.154 C 
BRANCH  27  28
HETATM   28  N1  UNL     1      93.566  45.395  63.146  1.00  0.00    -0.366 N 
ATOM     29  H1  UNL     1      93.350  46.329  62.798  1.00  0.00     0.161 HD
BRANCH  28  30
HETATM   30  C6  UNL     1      93.513  44.279  62.259  1.00  0.00     0.348 C 
HETATM   31  O1  UNL     1      93.879  44.456  61.075  1.00  0.00    -0.284 OA
ENDBRANCH  28  30
ENDBRANCH  27  28
ENDBRANCH  23  27
ENDBRANCH  22  23
ENDBRANCH   1  22
TORSDOF 10
ENDMDL
MODEL 5
REMARK VINA RESULT: -7.235037169      2.634      6.736
REMARK  10 active torsions:
REMARK  status: ('A' for Active; 'I' for Inactive)
REMARK    1  A    between atoms: C2_2  and  C3_3 
REMARK    2  A    between atoms: C3_3  and  C4_4 
REMARK    3  A    between atoms: C4_4  and  C5_5 
REMARK    4  A    between atoms: C4_4  and  O2_10 
REMARK    5  A    between atoms: C5_5  and  N1_6 
REMARK    6  A    between atoms: N1_6  and  C6_8 
REMARK    7  A    between atoms: O2_10  and  C7_11 
REMARK    8  A    between atoms: C11_15  and  C12_16 
REMARK    9  A    between atoms: C12_16  and  C13_17 
REMARK   10  A    between atoms: C15_21  and  N3_22 
ROOT
HETATM    1  C7  UNL     1      89.362  45.619  69.095  1.00  0.00     0.070 A 
HETATM    2  C8  UNL     1      89.397  45.680  70.496  1.00  0.00     0.037 A 
HETATM    3  C9  UNL     1      90.567  45.341  71.132  1.00  0.00     0.003 A 
HETATM    4  C10 UNL     1      91.691  44.947  70.444  1.00  0.00     0.007 A 
HETATM    5  C11 UNL     1      91.667  44.882  69.060  1.00  0.00    -0.051 A 
HETATM    6  C17 UNL     1      90.496  45.223  68.429  1.00  0.00     0.044 A 
ENDROOT
BRANCH   5   7
HETATM    7  C12 UNL     1      92.850  44.491  68.284  1.00  0.00     0.082 C 
BRANCH   7   8
HETATM    8  C13 UNL     1      93.567  45.574  67.611  1.00  0.00     0.006 A 
HETATM    9  C14 UNL     1      94.054  46.635  68.385  1.00  0.00     0.117 A 
HETATM   10  N2  UNL     1      94.754  47.653  67.872  1.00  0.00    -0.202 N 
HETATM   11  C15 UNL     1      95.002  47.658  66.554  1.00  0.00     0.677 A 
ATOM     12  H2  UNL     1      95.091  48.408  68.469  1.00  0.00     0.183 HD
HETATM   13  N4  UNL     1      94.558  46.665  65.773  1.00  0.00    -0.177 N 
HETATM   14  C16 UNL     1      93.837  45.611  66.270  1.00  0.00     0.122 A 
ATOM     15  H4  UNL     1      94.763  46.695  64.774  1.00  0.00     0.185 HD
HETATM   16  N5  UNL     1      93.436  44.749  65.424  1.00  0.00    -0.385 N 
ATOM     17  H52 UNL     1      92.900  43.964  65.794  1.00  0.00     0.157 HD
ATOM     18  H51 UNL     1      93.637  44.777  64.424  1.00  0.00     0.157 HD
BRANCH  11  19
HETATM   19  N3  UNL     1      95.677  48.628  66.026  1.00  0.00    -0.234 N 
ATOM     20  H32 UNL     1      96.056  48.519  65.085  1.00  0.00     0.174 HD
ATOM     21  H31 UNL     1      95.827  49.491  66.548  1.00  0.00     0.174 HD
ENDBRANCH  11  19
ENDBRANCH   7   8
ENDBRANCH   5   7
BRANCH   1  22
HETATM   22  O2  UNL     1      88.212  45.953  68.469  1.00  0.00    -0.344 OA
BRANCH  22  23
HETATM   23  C4  UNL     1      87.070  45.130  68.225  1.00  0.00     0.150 C 
BRANCH  23  24
HETATM   24  C3  UNL     1      85.908  46.102  68.299  1.00  0.00     0.060 C 
BRANCH  24  25
HETATM   25  C2  UNL     1      85.735  46.835  69.543  1.00  0.00    -0.034 C 
HETATM   26  C1  UNL     1      85.468  46.200  70.663  1.00  0.00     0.007 C 
ENDBRANCH  24  25
ENDBRANCH  23  24
BRANCH  23  27
HETATM   27  C5  UNL     1      87.296  44.570  66.841  1.00  0.00     0.154 C 
BRANCH  27  28
HETATM   28  N1  UNL     1      87.600  43.174  66.793  1.00  0.00    -0.366 N 
ATOM     29  H1  UNL     1      86.886  42.492  67.050  1.00  0.00     0.161 HD
BRANCH  28  30
HETATM   30  C6  UNL     1      88.894  42.727  66.390  1.00  0.00     0.348 C 
HETATM   31  O1  UNL     1      89.455  41.855  67.092  1.00  0.00    -0.284 OA
ENDBRANCH  28  30
ENDBRANCH  27  28
ENDBRANCH  23  27
ENDBRANCH  22  23
ENDBRANCH   1  22
TORSDOF 10
ENDMDL
