MODEL 1
REMARK VINA RESULT: -8.483547251      0.000      0.000
REMARK  9 active torsions:
REMARK  status: ('A' for Active; 'I' for Inactive)
REMARK    1  A    between atoms: C3_3  and  O1_4 
REMARK    2  A    between atoms: O1_4  and  C4_5 
REMARK    3  A    between atoms: C6_7  and  C7_8 
REMARK    4  A    between atoms: C8_9  and  C9_10 
REMARK    5  A    between atoms: C9_10  and  C10_11 
REMARK    6  A    between atoms: C10_11  and  O2_12 
REMARK    7  A    between atoms: C10_11  and  C11_14 
REMARK    8  A    between atoms: C22_27  and  O5_28 
REMARK    9  A    between atoms: C24_30  and  O6_31 
ROOT
HETATM    1  C1  UNL     1     -35.257  44.793  65.265  1.00  0.00     0.099 C 
HETATM    2  C2  UNL     1     -34.936  45.774  65.916  1.00  0.00    -0.161 C 
HETATM    3  C3  UNL     1     -34.578  46.948  66.699  1.00  0.00     0.255 C 
ENDROOT
BRANCH   3   4
HETATM    4  O1  UNL     1     -34.042  47.907  65.863  1.00  0.00    -0.337 OA
BRANCH   4   5
HETATM    5  C4  UNL     1     -32.735  48.308  65.719  1.00  0.00     0.106 A 
HETATM    6  C5  UNL     1     -31.785  47.588  65.021  1.00  0.00     0.052 A 
HETATM    7  C6  UNL     1     -30.485  48.003  64.887  1.00  0.00    -0.023 A 
HETATM    8  C21 UNL     1     -30.132  49.196  65.483  1.00  0.00     0.051 A 
HETATM    9  C22 UNL     1     -31.045  49.937  66.181  1.00  0.00     0.105 A 
HETATM   10  C24 UNL     1     -32.370  49.499  66.310  1.00  0.00     0.135 A 
BRANCH   7  11
HETATM   11  C7  UNL     1     -29.435  47.293  64.165  1.00  0.00    -0.033 A 
HETATM   12  C8  UNL     1     -29.046  47.235  62.938  1.00  0.00    -0.019 A 
HETATM   13  C13 UNL     1     -27.875  46.297  62.868  1.00  0.00    -0.016 A 
HETATM   14  C14 UNL     1     -27.096  45.897  61.776  1.00  0.00     0.052 A 
HETATM   15  C18 UNL     1     -27.623  45.830  64.115  1.00  0.00    -0.040 A 
HETATM   16  C15 UNL     1     -26.038  45.006  61.931  1.00  0.00     0.105 A 
HETATM   17  C16 UNL     1     -25.775  44.526  63.197  1.00  0.00     0.105 A 
HETATM   18  O4  UNL     1     -25.109  44.434  61.070  1.00  0.00    -0.323 OA
HETATM   19  C17 UNL     1     -26.551  44.931  64.257  1.00  0.00     0.048 A 
HETATM   20  O3  UNL     1     -24.679  43.663  63.069  1.00  0.00    -0.323 OA
HETATM   21  C20 UNL     1     -24.534  43.285  61.713  1.00  0.00     0.352 C 
HETATM   22  C19 UNL     1     -28.566  46.392  65.051  1.00  0.00     0.080 A 
BRANCH  12  23
HETATM   23  C9  UNL     1     -29.504  47.863  61.711  1.00  0.00     0.017 C 
BRANCH  23  24
HETATM   24  C10 UNL     1     -30.005  47.081  60.574  1.00  0.00     0.141 C 
BRANCH  24  25
HETATM   25  O2  UNL     1     -30.459  47.869  59.490  1.00  0.00    -0.392 OA
ATOM     26  H2  UNL     1     -31.226  47.518  59.053  1.00  0.00     0.210 HD
ENDBRANCH  24  25
BRANCH  24  27
HETATM   27  C11 UNL     1     -31.373  46.409  61.012  1.00  0.00     0.031 C 
HETATM   28  C12 UNL     1     -31.226  44.927  61.038  1.00  0.00     0.008 C 
ENDBRANCH  24  27
ENDBRANCH  23  24
ENDBRANCH  12  23
ENDBRANCH   7  11
BRANCH   9  29
HETATM   29  O5  UNL     1     -30.693  51.142  66.785  1.00  0.00    -0.353 OA
HETATM   30  C23 UNL     1     -29.766  51.973  66.138  1.00  0.00     0.210 C 
ENDBRANCH   9  29
BRANCH  10  31
HETATM   31  O6  UNL     1     -33.269  50.277  67.027  1.00  0.00    -0.351 OA
HETATM   32  C25 UNL     1     -34.038  51.306  66.420  1.00  0.00     0.210 C 
ENDBRANCH  10  31
ENDBRANCH   4   5
ENDBRANCH   3   4
TORSDOF 9
ENDMDL
MODEL 2
REMARK VINA RESULT: -8.368674523      3.129      7.099
REMARK  9 active torsions:
REMARK  status: ('A' for Active; 'I' for Inactive)
REMARK    1  A    between atoms: C3_3  and  O1_4 
REMARK    2  A    between atoms: O1_4  and  C4_5 
REMARK    3  A    between atoms: C6_7  and  C7_8 
REMARK    4  A    between atoms: C8_9  and  C9_10 
REMARK    5  A    between atoms: C9_10  and  C10_11 
REMARK    6  A    between atoms: C10_11  and  O2_12 
REMARK    7  A    between atoms: C10_11  and  C11_14 
REMARK    8  A    between atoms: C22_27  and  O5_28 
REMARK    9  A    between atoms: C24_30  and  O6_31 
ROOT
HETATM    1  C1  UNL     1     -35.630  39.044  66.287  1.00  0.00     0.099 C 
HETATM    2  C2  UNL     1     -34.871  39.997  66.348  1.00  0.00    -0.161 C 
HETATM    3  C3  UNL     1     -33.972  41.138  66.445  1.00  0.00     0.255 C 
ENDROOT
BRANCH   3   4
HETATM    4  O1  UNL     1     -34.352  42.097  65.528  1.00  0.00    -0.337 OA
BRANCH   4   5
HETATM    5  C4  UNL     1     -33.572  42.881  64.710  1.00  0.00     0.106 A 
HETATM    6  C5  UNL     1     -33.109  44.133  65.064  1.00  0.00     0.052 A 
HETATM    7  C6  UNL     1     -32.333  44.902  64.236  1.00  0.00    -0.023 A 
HETATM    8  C21 UNL     1     -32.010  44.382  63.000  1.00  0.00     0.051 A 
HETATM    9  C22 UNL     1     -32.450  43.145  62.614  1.00  0.00     0.105 A 
HETATM   10  C24 UNL     1     -33.243  42.372  63.472  1.00  0.00     0.135 A 
BRANCH   7  11
HETATM   11  C7  UNL     1     -31.811  46.228  64.547  1.00  0.00    -0.033 A 
HETATM   12  C8  UNL     1     -30.698  46.845  64.344  1.00  0.00    -0.019 A 
HETATM   13  C13 UNL     1     -30.822  48.225  64.925  1.00  0.00    -0.016 A 
HETATM   14  C14 UNL     1     -29.902  49.280  64.965  1.00  0.00     0.052 A 
HETATM   15  C18 UNL     1     -32.058  48.355  65.465  1.00  0.00    -0.040 A 
HETATM   16  C15 UNL     1     -30.224  50.497  65.559  1.00  0.00     0.105 A 
HETATM   17  C16 UNL     1     -31.481  50.637  66.111  1.00  0.00     0.105 A 
HETATM   18  O4  UNL     1     -29.551  51.697  65.753  1.00  0.00    -0.323 OA
HETATM   19  C17 UNL     1     -32.370  49.589  66.063  1.00  0.00     0.048 A 
HETATM   20  O3  UNL     1     -31.536  51.936  66.632  1.00  0.00    -0.323 OA
HETATM   21  C20 UNL     1     -30.223  52.439  66.783  1.00  0.00     0.352 C 
HETATM   22  C19 UNL     1     -32.801  47.130  65.294  1.00  0.00     0.080 A 
BRANCH  12  23
HETATM   23  C9  UNL     1     -29.447  46.473  63.707  1.00  0.00     0.017 C 
BRANCH  23  24
HETATM   24  C10 UNL     1     -28.259  46.094  64.482  1.00  0.00     0.141 C 
BRANCH  24  25
HETATM   25  O2  UNL     1     -27.035  46.400  63.843  1.00  0.00    -0.392 OA
ATOM     26  H2  UNL     1     -26.267  46.132  64.333  1.00  0.00     0.210 HD
ENDBRANCH  24  25
BRANCH  24  27
HETATM   27  C11 UNL     1     -28.171  44.511  64.493  1.00  0.00     0.031 C 
HETATM   28  C12 UNL     1     -28.889  43.970  65.680  1.00  0.00     0.008 C 
ENDBRANCH  24  27
ENDBRANCH  23  24
ENDBRANCH  12  23
ENDBRANCH   7  11
BRANCH   9  29
HETATM   29  O5  UNL     1     -32.127  42.616  61.367  1.00  0.00    -0.353 OA
HETATM   30  C23 UNL     1     -31.317  43.371  60.505  1.00  0.00     0.210 C 
ENDBRANCH   9  29
BRANCH  10  31
HETATM   31  O6  UNL     1     -33.672  41.121  63.046  1.00  0.00    -0.351 OA
HETATM   32  C25 UNL     1     -35.019  40.864  62.676  1.00  0.00     0.210 C 
ENDBRANCH  10  31
ENDBRANCH   4   5
ENDBRANCH   3   4
TORSDOF 9
ENDMDL
MODEL 3
REMARK VINA RESULT: -8.230683611      3.174      6.980
REMARK  9 active torsions:
REMARK  status: ('A' for Active; 'I' for Inactive)
REMARK    1  A    between atoms: C3_3  and  O1_4 
REMARK    2  A    between atoms: O1_4  and  C4_5 
REMARK    3  A    between atoms: C6_7  and  C7_8 
REMARK    4  A    between atoms: C8_9  and  C9_10 
REMARK    5  A    between atoms: C9_10  and  C10_11 
REMARK    6  A    between atoms: C10_11  and  O2_12 
REMARK    7  A    between atoms: C10_11  and  C11_14 
REMARK    8  A    between atoms: C22_27  and  O5_28 
REMARK    9  A    between atoms: C24_30  and  O6_31 
ROOT
HETATM    1  C1  UNL     1     -33.909  38.569  65.957  1.00  0.00     0.099 C 
HETATM    2  C2  UNL     1     -33.833  39.753  66.243  1.00  0.00    -0.161 C 
HETATM    3  C3  UNL     1     -33.758  41.161  66.603  1.00  0.00     0.255 C 
ENDROOT
BRANCH   3   4
HETATM    4  O1  UNL     1     -34.190  41.927  65.540  1.00  0.00    -0.337 OA
BRANCH   4   5
HETATM    5  C4  UNL     1     -33.471  42.750  64.706  1.00  0.00     0.106 A 
HETATM    6  C5  UNL     1     -33.008  43.998  65.074  1.00  0.00     0.052 A 
HETATM    7  C6  UNL     1     -32.292  44.807  64.228  1.00  0.00    -0.023 A 
HETATM    8  C21 UNL     1     -32.031  44.331  62.960  1.00  0.00     0.051 A 
HETATM    9  C22 UNL     1     -32.472  43.099  62.560  1.00  0.00     0.105 A 
HETATM   10  C24 UNL     1     -33.204  42.286  63.436  1.00  0.00     0.135 A 
BRANCH   7  11
HETATM   11  C7  UNL     1     -31.775  46.131  64.552  1.00  0.00    -0.033 A 
HETATM   12  C8  UNL     1     -30.632  46.718  64.451  1.00  0.00    -0.019 A 
HETATM   13  C13 UNL     1     -30.784  48.119  64.972  1.00  0.00    -0.016 A 
HETATM   14  C14 UNL     1     -29.848  49.155  65.077  1.00  0.00     0.052 A 
HETATM   15  C18 UNL     1     -32.067  48.292  65.372  1.00  0.00    -0.040 A 
HETATM   16  C15 UNL     1     -30.202  50.397  65.595  1.00  0.00     0.105 A 
HETATM   17  C16 UNL     1     -31.507  50.582  66.004  1.00  0.00     0.105 A 
HETATM   18  O4  UNL     1     -29.525  51.589  65.822  1.00  0.00    -0.323 OA
HETATM   19  C17 UNL     1     -32.411  49.552  65.893  1.00  0.00     0.048 A 
HETATM   20  O3  UNL     1     -31.586  51.899  66.475  1.00  0.00    -0.323 OA
HETATM   21  C20 UNL     1     -30.285  52.380  66.751  1.00  0.00     0.352 C 
HETATM   22  C19 UNL     1     -32.816  47.078  65.160  1.00  0.00     0.080 A 
BRANCH  12  23
HETATM   23  C9  UNL     1     -29.330  46.299  63.964  1.00  0.00     0.017 C 
BRANCH  23  24
HETATM   24  C10 UNL     1     -29.084  46.005  62.546  1.00  0.00     0.141 C 
BRANCH  24  25
HETATM   25  O2  UNL     1     -27.714  45.890  62.213  1.00  0.00    -0.392 OA
ATOM     26  H2  UNL     1     -27.544  45.321  61.472  1.00  0.00     0.210 HD
ENDBRANCH  24  25
BRANCH  24  27
HETATM   27  C11 UNL     1     -29.458  47.299  61.711  1.00  0.00     0.031 C 
HETATM   28  C12 UNL     1     -30.587  46.999  60.788  1.00  0.00     0.008 C 
ENDBRANCH  24  27
ENDBRANCH  23  24
ENDBRANCH  12  23
ENDBRANCH   7  11
BRANCH   9  29
HETATM   29  O5  UNL     1     -32.212  42.615  61.280  1.00  0.00    -0.353 OA
HETATM   30  C23 UNL     1     -31.390  43.370  60.430  1.00  0.00     0.210 C 
ENDBRANCH   9  29
BRANCH  10  31
HETATM   31  O6  UNL     1     -33.636  41.041  62.995  1.00  0.00    -0.351 OA
HETATM   32  C25 UNL     1     -34.999  40.769  62.702  1.00  0.00     0.210 C 
ENDBRANCH  10  31
ENDBRANCH   4   5
ENDBRANCH   3   4
TORSDOF 9
ENDMDL
MODEL 4
REMARK VINA RESULT: -8.195889441      2.850      7.801
REMARK  9 active torsions:
REMARK  status: ('A' for Active; 'I' for Inactive)
REMARK    1  A    between atoms: C3_3  and  O1_4 
REMARK    2  A    between atoms: O1_4  and  C4_5 
REMARK    3  A    between atoms: C6_7  and  C7_8 
REMARK    4  A    between atoms: C8_9  and  C9_10 
REMARK    5  A    between atoms: C9_10  and  C10_11 
REMARK    6  A    between atoms: C10_11  and  O2_12 
REMARK    7  A    between atoms: C10_11  and  C11_14 
REMARK    8  A    between atoms: C22_27  and  O5_28 
REMARK    9  A    between atoms: C24_30  and  O6_31 
ROOT
HETATM    1  C1  UNL     1     -27.126  43.113  65.004  1.00  0.00     0.099 C 
HETATM    2  C2  UNL     1     -26.698  44.127  64.476  1.00  0.00    -0.161 C 
HETATM    3  C3  UNL     1     -26.167  45.333  63.859  1.00  0.00     0.255 C 
ENDROOT
BRANCH   3   4
HETATM    4  O1  UNL     1     -27.018  46.389  64.117  1.00  0.00    -0.337 OA
BRANCH   4   5
HETATM    5  C4  UNL     1     -28.306  46.598  63.686  1.00  0.00     0.106 A 
HETATM    6  C5  UNL     1     -29.423  46.140  64.357  1.00  0.00     0.052 A 
HETATM    7  C6  UNL     1     -30.702  46.358  63.912  1.00  0.00    -0.023 A 
HETATM    8  C21 UNL     1     -30.857  47.069  62.740  1.00  0.00     0.051 A 
HETATM    9  C22 UNL     1     -29.775  47.539  62.048  1.00  0.00     0.105 A 
HETATM   10  C24 UNL     1     -28.474  47.308  62.516  1.00  0.00     0.135 A 
BRANCH   7  11
HETATM   11  C7  UNL     1     -31.921  45.905  64.572  1.00  0.00    -0.033 A 
HETATM   12  C8  UNL     1     -32.561  44.789  64.646  1.00  0.00    -0.019 A 
HETATM   13  C13 UNL     1     -33.767  45.005  65.515  1.00  0.00    -0.016 A 
HETATM   14  C14 UNL     1     -34.775  44.116  65.908  1.00  0.00     0.052 A 
HETATM   15  C18 UNL     1     -33.775  46.296  65.927  1.00  0.00    -0.040 A 
HETATM   16  C15 UNL     1     -35.818  44.526  66.733  1.00  0.00     0.105 A 
HETATM   17  C16 UNL     1     -35.833  45.838  67.156  1.00  0.00     0.105 A 
HETATM   18  O4  UNL     1     -36.933  43.902  67.280  1.00  0.00    -0.323 OA
HETATM   19  C17 UNL     1     -34.835  46.697  66.760  1.00  0.00     0.048 A 
HETATM   20  O3  UNL     1     -36.973  45.978  67.959  1.00  0.00    -0.323 OA
HETATM   21  C20 UNL     1     -37.866  44.911  67.699  1.00  0.00     0.352 C 
HETATM   22  C19 UNL     1     -32.636  46.993  65.382  1.00  0.00     0.080 A 
BRANCH  12  23
HETATM   23  C9  UNL     1     -32.343  43.468  64.083  1.00  0.00     0.017 C 
BRANCH  23  24
HETATM   24  C10 UNL     1     -32.582  43.176  62.664  1.00  0.00     0.141 C 
BRANCH  24  25
HETATM   25  O2  UNL     1     -32.848  41.813  62.395  1.00  0.00    -0.392 OA
ATOM     26  H2  UNL     1     -32.344  41.456  61.674  1.00  0.00     0.210 HD
ENDBRANCH  24  25
BRANCH  24  27
HETATM   27  C11 UNL     1     -31.206  43.340  61.895  1.00  0.00     0.031 C 
HETATM   28  C12 UNL     1     -31.433  44.000  60.580  1.00  0.00     0.008 C 
ENDBRANCH  24  27
ENDBRANCH  23  24
ENDBRANCH  12  23
ENDBRANCH   7  11
BRANCH   9  29
HETATM   29  O5  UNL     1     -29.926  48.257  60.864  1.00  0.00    -0.353 OA
HETATM   30  C23 UNL     1     -30.321  47.570  59.706  1.00  0.00     0.210 C 
ENDBRANCH   9  29
BRANCH  10  31
HETATM   31  O6  UNL     1     -27.400  47.799  61.785  1.00  0.00    -0.351 OA
HETATM   32  C25 UNL     1     -26.784  47.056  60.743  1.00  0.00     0.210 C 
ENDBRANCH  10  31
ENDBRANCH   4   5
ENDBRANCH   3   4
TORSDOF 9
ENDMDL
MODEL 5
REMARK VINA RESULT: -8.161509874      3.525      6.774
REMARK  9 active torsions:
REMARK  status: ('A' for Active; 'I' for Inactive)
REMARK    1  A    between atoms: C3_3  and  O1_4 
REMARK    2  A    between atoms: O1_4  and  C4_5 
REMARK    3  A    between atoms: C6_7  and  C7_8 
REMARK    4  A    between atoms: C8_9  and  C9_10 
REMARK    5  A    between atoms: C9_10  and  C10_11 
REMARK    6  A    between atoms: C10_11  and  O2_12 
REMARK    7  A    between atoms: C10_11  and  C11_14 
REMARK    8  A    between atoms: C22_27  and  O5_28 
REMARK    9  A    between atoms: C24_30  and  O6_31 
ROOT
HETATM    1  C1  UNL     1     -29.786  47.575  60.437  1.00  0.00     0.099 C 
HETATM    2  C2  UNL     1     -29.339  47.564  61.572  1.00  0.00    -0.161 C 
HETATM    3  C3  UNL     1     -28.807  47.527  62.927  1.00  0.00     0.255 C 
ENDROOT
BRANCH   3   4
HETATM    4  O1  UNL     1     -29.674  48.184  63.776  1.00  0.00    -0.337 OA
BRANCH   4   5
HETATM    5  C4  UNL     1     -30.880  47.766  64.287  1.00  0.00     0.106 A 
HETATM    6  C5  UNL     1     -31.241  46.438  64.413  1.00  0.00     0.052 A 
HETATM    7  C6  UNL     1     -32.449  46.039  64.926  1.00  0.00    -0.023 A 
HETATM    8  C21 UNL     1     -33.326  47.023  65.329  1.00  0.00     0.051 A 
HETATM    9  C22 UNL     1     -33.004  48.348  65.222  1.00  0.00     0.105 A 
HETATM   10  C24 UNL     1     -31.766  48.740  64.695  1.00  0.00     0.135 A 
BRANCH   7  11
HETATM   11  C7  UNL     1     -32.890  44.658  65.086  1.00  0.00    -0.033 A 
HETATM   12  C8  UNL     1     -32.608  43.535  64.521  1.00  0.00    -0.019 A 
HETATM   13  C13 UNL     1     -33.432  42.466  65.181  1.00  0.00    -0.016 A 
HETATM   14  C14 UNL     1     -33.494  41.088  64.939  1.00  0.00     0.052 A 
HETATM   15  C18 UNL     1     -34.190  43.041  66.146  1.00  0.00    -0.040 A 
HETATM   16  C15 UNL     1     -34.335  40.262  65.678  1.00  0.00     0.105 A 
HETATM   17  C16 UNL     1     -35.111  40.840  66.662  1.00  0.00     0.105 A 
HETATM   18  O4  UNL     1     -34.615  38.901  65.677  1.00  0.00    -0.323 OA
HETATM   19  C17 UNL     1     -35.036  42.195  66.885  1.00  0.00     0.048 A 
HETATM   20  O3  UNL     1     -35.850  39.800  67.239  1.00  0.00    -0.323 OA
HETATM   21  C20 UNL     1     -35.857  38.687  66.366  1.00  0.00     0.352 C 
HETATM   22  C19 UNL     1     -33.940  44.461  66.186  1.00  0.00     0.080 A 
BRANCH  12  23
HETATM   23  C9  UNL     1     -31.711  43.152  63.445  1.00  0.00     0.017 C 
BRANCH  23  24
HETATM   24  C10 UNL     1     -31.921  43.593  62.060  1.00  0.00     0.141 C 
BRANCH  24  25
HETATM   25  O2  UNL     1     -32.293  42.553  61.176  1.00  0.00    -0.392 OA
ATOM     26  H2  UNL     1     -31.611  42.303  60.565  1.00  0.00     0.210 HD
ENDBRANCH  24  25
BRANCH  24  27
HETATM   27  C11 UNL     1     -30.506  43.972  61.452  1.00  0.00     0.031 C 
HETATM   28  C12 UNL     1     -29.455  43.856  62.500  1.00  0.00     0.008 C 
ENDBRANCH  24  27
ENDBRANCH  23  24
ENDBRANCH  12  23
ENDBRANCH   7  11
BRANCH   9  29
HETATM   29  O5  UNL     1     -33.888  49.346  65.627  1.00  0.00    -0.353 OA
HETATM   30  C23 UNL     1     -34.185  49.466  66.993  1.00  0.00     0.210 C 
ENDBRANCH   9  29
BRANCH  10  31
HETATM   31  O6  UNL     1     -31.475  50.095  64.599  1.00  0.00    -0.351 OA
HETATM   32  C25 UNL     1     -30.744  50.788  65.601  1.00  0.00     0.210 C 
ENDBRANCH  10  31
ENDBRANCH   4   5
ENDBRANCH   3   4
TORSDOF 9
ENDMDL
