MODEL 1
REMARK VINA RESULT: -8.581974759      0.000      0.000
REMARK  11 active torsions:
REMARK  status: ('A' for Active; 'I' for Inactive)
REMARK    1  A    between atoms: C2_2  and  O1_3 
REMARK    2  A    between atoms: O1_3  and  C3_4 
REMARK    3  A    between atoms: C7_9  and  C8_10 
REMARK    4  A    between atoms: C8_10  and  N2_11 
REMARK    5  A    between atoms: N2_11  and  C9_12 
REMARK    6  A    between atoms: N2_11  and  C11_14 
REMARK    7  A    between atoms: C11_14  and  O2_15 
REMARK    8  A    between atoms: C11_14  and  C12_17 
REMARK    9  A    between atoms: C20_26  and  O3_27 
REMARK   10  A    between atoms: C22_30  and  O4_31 
REMARK   11  A    between atoms: O4_31  and  C23_32 
ROOT
HETATM    1  C3  UNL     1     -34.939  39.055  66.447  1.00  0.00     0.103 A 
HETATM    2  C4  UNL     1     -35.295  38.987  65.176  1.00  0.00     0.063 A 
HETATM    3  C5  UNL     1     -34.739  39.825  64.245  1.00  0.00     0.059 A 
HETATM    4  C6  UNL     1     -35.232  39.607  62.901  1.00  0.00     0.100 C 
HETATM    5  N1  UNL     1     -35.588  39.380  61.841  1.00  0.00    -0.191 NA
HETATM    6  C7  UNL     1     -33.806  40.778  64.515  1.00  0.00     0.003 A 
HETATM    7  C21 UNL     1     -33.428  40.814  65.916  1.00  0.00     0.054 A 
HETATM    8  C22 UNL     1     -33.968  39.985  66.888  1.00  0.00     0.102 A 
ENDROOT
BRANCH   6   9
HETATM    9  C8  UNL     1     -33.612  41.983  63.840  1.00  0.00     0.111 C 
BRANCH   9  10
HETATM   10  N2  UNL     1     -32.572  42.858  63.505  1.00  0.00    -0.316 N 
BRANCH  10  11
HETATM   11  C9  UNL     1     -32.046  43.024  62.201  1.00  0.00     0.067 C 
HETATM   12  C10 UNL     1     -30.869  43.794  61.842  1.00  0.00     0.055 C 
ENDBRANCH  10  11
BRANCH  10  13
HETATM   13  C11 UNL     1     -32.178  43.777  64.510  1.00  0.00     0.159 C 
BRANCH  13  14
HETATM   14  O2  UNL     1     -31.194  43.277  65.245  1.00  0.00    -0.345 OA
ATOM     15  H2  UNL     1     -31.407  43.323  66.169  1.00  0.00     0.219 HD
ENDBRANCH  13  14
BRANCH  13  16
HETATM   16  C12 UNL     1     -32.451  45.070  65.021  1.00  0.00     0.056 A 
HETATM   17  C13 UNL     1     -33.756  45.361  65.441  1.00  0.00    -0.044 A 
HETATM   18  C14 UNL     1     -34.745  44.231  65.600  1.00  0.00     0.049 C 
HETATM   19  C15 UNL     1     -34.239  46.647  65.594  1.00  0.00     0.016 A 
HETATM   20  C16 UNL     1     -33.425  47.742  65.330  1.00  0.00    -0.038 A 
HETATM   21  C17 UNL     1     -33.964  49.123  65.427  1.00  0.00     0.050 C 
HETATM   22  C18 UNL     1     -32.154  47.455  64.926  1.00  0.00     0.084 A 
HETATM   23  C19 UNL     1     -31.292  48.597  64.668  1.00  0.00     0.103 C 
HETATM   24  C20 UNL     1     -31.675  46.187  64.778  1.00  0.00     0.102 A 
HETATM   25  N3  UNL     1     -30.614  49.502  64.411  1.00  0.00    -0.191 NA
BRANCH  24  26
HETATM   26  O3  UNL     1     -30.343  45.938  64.389  1.00  0.00    -0.358 OA
ATOM     27  H3  UNL     1     -29.767  46.693  64.374  1.00  0.00     0.217 HD
ENDBRANCH  24  26
ENDBRANCH  13  16
ENDBRANCH  10  13
ENDBRANCH   9  10
ENDBRANCH   6   9
BRANCH   1  28
HETATM   28  O1  UNL     1     -35.539  38.227  67.432  1.00  0.00    -0.349 OA
BRANCH  28  29
HETATM   29  C2  UNL     1     -35.881  36.895  67.169  1.00  0.00     0.171 C 
HETATM   30  C1  UNL     1     -34.990  35.892  67.900  1.00  0.00     0.034 C 
ENDBRANCH  28  29
ENDBRANCH   1  28
BRANCH   8  31
HETATM   31  O4  UNL     1     -33.734  39.952  68.184  1.00  0.00    -0.349 OA
BRANCH  31  32
HETATM   32  C23 UNL     1     -33.347  40.189  69.403  1.00  0.00     0.171 C 
HETATM   33  C24 UNL     1     -32.754  41.493  69.797  1.00  0.00     0.034 C 
ENDBRANCH  31  32
ENDBRANCH   8  31
TORSDOF 11
ENDMDL
MODEL 2
REMARK VINA RESULT: -8.524979840      1.995      3.029
REMARK  11 active torsions:
REMARK  status: ('A' for Active; 'I' for Inactive)
REMARK    1  A    between atoms: C2_2  and  O1_3 
REMARK    2  A    between atoms: O1_3  and  C3_4 
REMARK    3  A    between atoms: C7_9  and  C8_10 
REMARK    4  A    between atoms: C8_10  and  N2_11 
REMARK    5  A    between atoms: N2_11  and  C9_12 
REMARK    6  A    between atoms: N2_11  and  C11_14 
REMARK    7  A    between atoms: C11_14  and  O2_15 
REMARK    8  A    between atoms: C11_14  and  C12_17 
REMARK    9  A    between atoms: C20_26  and  O3_27 
REMARK   10  A    between atoms: C22_30  and  O4_31 
REMARK   11  A    between atoms: O4_31  and  C23_32 
ROOT
HETATM    1  C3  UNL     1     -34.343  39.095  66.805  1.00  0.00     0.103 A 
HETATM    2  C4  UNL     1     -34.721  38.957  65.546  1.00  0.00     0.063 A 
HETATM    3  C5  UNL     1     -34.493  39.952  64.632  1.00  0.00     0.059 A 
HETATM    4  C6  UNL     1     -34.958  39.631  63.299  1.00  0.00     0.100 C 
HETATM    5  N1  UNL     1     -35.278  39.337  62.243  1.00  0.00    -0.191 NA
HETATM    6  C7  UNL     1     -33.885  41.137  64.908  1.00  0.00     0.003 A 
HETATM    7  C21 UNL     1     -33.471  41.248  66.294  1.00  0.00     0.054 A 
HETATM    8  C22 UNL     1     -33.684  40.266  67.250  1.00  0.00     0.102 A 
ENDROOT
BRANCH   6   9
HETATM    9  C8  UNL     1     -34.101  42.363  64.277  1.00  0.00     0.111 C 
BRANCH   9  10
HETATM   10  N2  UNL     1     -33.475  43.605  64.125  1.00  0.00    -0.316 N 
BRANCH  10  11
HETATM   11  C9  UNL     1     -33.769  44.756  64.897  1.00  0.00     0.067 C 
HETATM   12  C10 UNL     1     -35.071  45.128  65.421  1.00  0.00     0.055 C 
ENDBRANCH  10  11
BRANCH  10  13
HETATM   13  C11 UNL     1     -32.336  43.634  63.283  1.00  0.00     0.159 C 
BRANCH  13  14
HETATM   14  O2  UNL     1     -32.323  42.585  62.473  1.00  0.00    -0.345 OA
ATOM     15  H2  UNL     1     -31.438  42.389  62.188  1.00  0.00     0.219 HD
ENDBRANCH  13  14
BRANCH  13  16
HETATM   16  C12 UNL     1     -31.183  44.400  62.976  1.00  0.00     0.056 A 
HETATM   17  C13 UNL     1     -30.231  44.606  63.982  1.00  0.00    -0.044 A 
HETATM   18  C14 UNL     1     -30.315  43.791  65.251  1.00  0.00     0.049 C 
HETATM   19  C15 UNL     1     -29.284  45.613  63.943  1.00  0.00     0.016 A 
HETATM   20  C16 UNL     1     -29.236  46.492  62.868  1.00  0.00    -0.038 A 
HETATM   21  C17 UNL     1     -28.265  47.617  62.857  1.00  0.00     0.050 C 
HETATM   22  C18 UNL     1     -30.162  46.285  61.887  1.00  0.00     0.084 A 
HETATM   23  C19 UNL     1     -30.102  47.190  60.751  1.00  0.00     0.103 C 
HETATM   24  C20 UNL     1     -31.093  45.290  61.924  1.00  0.00     0.102 A 
HETATM   25  N3  UNL     1     -30.094  47.939  59.865  1.00  0.00    -0.191 NA
BRANCH  24  26
HETATM   26  O3  UNL     1     -32.010  45.094  60.871  1.00  0.00    -0.358 OA
ATOM     27  H3  UNL     1     -32.929  45.128  61.109  1.00  0.00     0.217 HD
ENDBRANCH  24  26
ENDBRANCH  13  16
ENDBRANCH  10  13
ENDBRANCH   9  10
ENDBRANCH   6   9
BRANCH   1  28
HETATM   28  O1  UNL     1     -34.613  38.094  67.776  1.00  0.00    -0.349 OA
BRANCH  28  29
HETATM   29  C2  UNL     1     -34.394  36.736  67.518  1.00  0.00     0.171 C 
HETATM   30  C1  UNL     1     -35.681  35.914  67.496  1.00  0.00     0.034 C 
ENDBRANCH  28  29
ENDBRANCH   1  28
BRANCH   8  31
HETATM   31  O4  UNL     1     -33.390  40.269  68.534  1.00  0.00    -0.349 OA
BRANCH  31  32
HETATM   32  C23 UNL     1     -33.106  40.586  69.762  1.00  0.00     0.171 C 
HETATM   33  C24 UNL     1     -32.742  41.975  70.148  1.00  0.00     0.034 C 
ENDBRANCH  31  32
ENDBRANCH   8  31
TORSDOF 11
ENDMDL
MODEL 3
REMARK VINA RESULT: -8.481553731      2.407      3.284
REMARK  11 active torsions:
REMARK  status: ('A' for Active; 'I' for Inactive)
REMARK    1  A    between atoms: C2_2  and  O1_3 
REMARK    2  A    between atoms: O1_3  and  C3_4 
REMARK    3  A    between atoms: C7_9  and  C8_10 
REMARK    4  A    between atoms: C8_10  and  N2_11 
REMARK    5  A    between atoms: N2_11  and  C9_12 
REMARK    6  A    between atoms: N2_11  and  C11_14 
REMARK    7  A    between atoms: C11_14  and  O2_15 
REMARK    8  A    between atoms: C11_14  and  C12_17 
REMARK    9  A    between atoms: C20_26  and  O3_27 
REMARK   10  A    between atoms: C22_30  and  O4_31 
REMARK   11  A    between atoms: O4_31  and  C23_32 
ROOT
HETATM    1  C3  UNL     1     -34.693  39.509  66.711  1.00  0.00     0.103 A 
HETATM    2  C4  UNL     1     -34.987  39.690  65.435  1.00  0.00     0.063 A 
HETATM    3  C5  UNL     1     -34.271  40.569  64.667  1.00  0.00     0.059 A 
HETATM    4  C6  UNL     1     -34.717  40.633  63.291  1.00  0.00     0.100 C 
HETATM    5  N1  UNL     1     -35.045  40.626  62.197  1.00  0.00    -0.191 NA
HETATM    6  C7  UNL     1     -33.229  41.321  65.113  1.00  0.00     0.003 A 
HETATM    7  C21 UNL     1     -32.924  41.087  66.512  1.00  0.00     0.054 A 
HETATM    8  C22 UNL     1     -33.626  40.208  67.324  1.00  0.00     0.102 A 
ENDROOT
BRANCH   6   9
HETATM    9  C8  UNL     1     -32.831  42.573  64.644  1.00  0.00     0.111 C 
BRANCH   9  10
HETATM   10  N2  UNL     1     -31.990  43.127  63.672  1.00  0.00    -0.316 N 
BRANCH  10  11
HETATM   11  C9  UNL     1     -32.306  43.229  62.295  1.00  0.00     0.067 C 
HETATM   12  C10 UNL     1     -31.360  43.208  61.194  1.00  0.00     0.055 C 
ENDBRANCH  10  11
BRANCH  10  13
HETATM   13  C11 UNL     1     -30.844  43.810  64.150  1.00  0.00     0.159 C 
BRANCH  13  14
HETATM   14  O2  UNL     1     -30.538  43.414  65.378  1.00  0.00    -0.345 OA
ATOM     15  H2  UNL     1     -29.994  44.059  65.814  1.00  0.00     0.219 HD
ENDBRANCH  13  14
BRANCH  13  16
HETATM   16  C12 UNL     1     -29.876  44.778  63.781  1.00  0.00     0.056 A 
HETATM   17  C13 UNL     1     -30.298  46.095  63.560  1.00  0.00    -0.044 A 
HETATM   18  C14 UNL     1     -31.689  46.501  63.986  1.00  0.00     0.049 C 
HETATM   19  C15 UNL     1     -29.561  47.023  62.849  1.00  0.00     0.016 A 
HETATM   20  C16 UNL     1     -28.329  46.678  62.306  1.00  0.00    -0.038 A 
HETATM   21  C17 UNL     1     -27.569  47.653  61.482  1.00  0.00     0.050 C 
HETATM   22  C18 UNL     1     -27.919  45.396  62.527  1.00  0.00     0.084 A 
HETATM   23  C19 UNL     1     -26.622  45.036  61.979  1.00  0.00     0.103 C 
HETATM   24  C20 UNL     1     -28.644  44.481  63.232  1.00  0.00     0.102 A 
HETATM   25  N3  UNL     1     -25.611  44.726  61.501  1.00  0.00    -0.191 NA
BRANCH  24  26
HETATM   26  O3  UNL     1     -28.164  43.176  63.464  1.00  0.00    -0.358 OA
ATOM     27  H3  UNL     1     -27.381  43.110  63.997  1.00  0.00     0.217 HD
ENDBRANCH  24  26
ENDBRANCH  13  16
ENDBRANCH  10  13
ENDBRANCH   9  10
ENDBRANCH   6   9
BRANCH   1  28
HETATM   28  O1  UNL     1     -35.455  38.638  67.534  1.00  0.00    -0.349 OA
BRANCH  28  29
HETATM   29  C2  UNL     1     -35.801  37.346  67.120  1.00  0.00     0.171 C 
HETATM   30  C1  UNL     1     -35.000  36.255  67.827  1.00  0.00     0.034 C 
ENDBRANCH  28  29
ENDBRANCH   1  28
BRANCH   8  31
HETATM   31  O4  UNL     1     -33.468  39.944  68.605  1.00  0.00    -0.349 OA
BRANCH  31  32
HETATM   32  C23 UNL     1     -33.326  39.998  69.896  1.00  0.00     0.171 C 
HETATM   33  C24 UNL     1     -33.023  41.272  70.598  1.00  0.00     0.034 C 
ENDBRANCH  31  32
ENDBRANCH   8  31
TORSDOF 11
ENDMDL
MODEL 4
REMARK VINA RESULT: -8.463680315      3.349      5.078
REMARK  11 active torsions:
REMARK  status: ('A' for Active; 'I' for Inactive)
REMARK    1  A    between atoms: C2_2  and  O1_3 
REMARK    2  A    between atoms: O1_3  and  C3_4 
REMARK    3  A    between atoms: C7_9  and  C8_10 
REMARK    4  A    between atoms: C8_10  and  N2_11 
REMARK    5  A    between atoms: N2_11  and  C9_12 
REMARK    6  A    between atoms: N2_11  and  C11_14 
REMARK    7  A    between atoms: C11_14  and  O2_15 
REMARK    8  A    between atoms: C11_14  and  C12_17 
REMARK    9  A    between atoms: C20_26  and  O3_27 
REMARK   10  A    between atoms: C22_30  and  O4_31 
REMARK   11  A    between atoms: O4_31  and  C23_32 
ROOT
HETATM    1  C3  UNL     1     -33.545  42.503  64.133  1.00  0.00     0.103 A 
HETATM    2  C4  UNL     1     -32.647  42.937  63.265  1.00  0.00     0.063 A 
HETATM    3  C5  UNL     1     -31.402  43.332  63.681  1.00  0.00     0.059 A 
HETATM    4  C6  UNL     1     -30.541  43.765  62.600  1.00  0.00     0.100 C 
HETATM    5  N1  UNL     1     -29.858  44.046  61.730  1.00  0.00    -0.191 NA
HETATM    6  C7  UNL     1     -30.975  43.326  64.972  1.00  0.00     0.003 A 
HETATM    7  C21 UNL     1     -31.981  42.830  65.895  1.00  0.00     0.054 A 
HETATM    8  C22 UNL     1     -33.251  42.423  65.515  1.00  0.00     0.102 A 
ENDROOT
BRANCH   6   9
HETATM    9  C8  UNL     1     -30.037  44.177  65.555  1.00  0.00     0.111 C 
BRANCH   9  10
HETATM   10  N2  UNL     1     -28.699  44.555  65.395  1.00  0.00    -0.316 N 
BRANCH  10  11
HETATM   11  C9  UNL     1     -27.598  43.666  65.454  1.00  0.00     0.067 C 
HETATM   12  C10 UNL     1     -27.010  42.953  64.334  1.00  0.00     0.055 C 
ENDBRANCH  10  11
BRANCH  10  13
HETATM   13  C11 UNL     1     -28.471  45.878  64.939  1.00  0.00     0.159 C 
BRANCH  13  14
HETATM   14  O2  UNL     1     -27.933  46.619  65.897  1.00  0.00    -0.345 OA
ATOM     15  H2  UNL     1     -27.386  47.302  65.528  1.00  0.00     0.219 HD
ENDBRANCH  13  14
BRANCH  13  16
HETATM   16  C12 UNL     1     -28.602  46.713  63.802  1.00  0.00     0.056 A 
HETATM   17  C13 UNL     1     -29.881  47.161  63.445  1.00  0.00    -0.044 A 
HETATM   18  C14 UNL     1     -31.021  46.980  64.420  1.00  0.00     0.049 C 
HETATM   19  C15 UNL     1     -30.198  47.645  62.190  1.00  0.00     0.016 A 
HETATM   20  C16 UNL     1     -29.228  47.711  61.196  1.00  0.00    -0.038 A 
HETATM   21  C17 UNL     1     -29.584  48.165  59.826  1.00  0.00     0.050 C 
HETATM   22  C18 UNL     1     -27.984  47.279  61.548  1.00  0.00     0.084 A 
HETATM   23  C19 UNL     1     -26.962  47.364  60.517  1.00  0.00     0.103 C 
HETATM   24  C20 UNL     1     -27.670  46.804  62.787  1.00  0.00     0.102 A 
HETATM   25  N3  UNL     1     -26.153  47.382  59.686  1.00  0.00    -0.191 NA
BRANCH  24  26
HETATM   26  O3  UNL     1     -26.360  46.399  63.116  1.00  0.00    -0.358 OA
ATOM     27  H3  UNL     1     -25.696  47.077  63.085  1.00  0.00     0.217 HD
ENDBRANCH  24  26
ENDBRANCH  13  16
ENDBRANCH  10  13
ENDBRANCH   9  10
ENDBRANCH   6   9
BRANCH   1  28
HETATM   28  O1  UNL     1     -34.854  42.135  63.726  1.00  0.00    -0.349 OA
BRANCH  28  29
HETATM   29  C2  UNL     1     -35.076  41.206  62.703  1.00  0.00     0.171 C 
HETATM   30  C1  UNL     1     -34.934  39.758  63.167  1.00  0.00     0.034 C 
ENDBRANCH  28  29
ENDBRANCH   1  28
BRANCH   8  31
HETATM   31  O4  UNL     1     -34.251  41.995  66.259  1.00  0.00    -0.349 OA
BRANCH  31  32
HETATM   32  C23 UNL     1     -35.029  41.350  67.075  1.00  0.00     0.171 C 
HETATM   33  C24 UNL     1     -35.340  39.909  66.886  1.00  0.00     0.034 C 
ENDBRANCH  31  32
ENDBRANCH   8  31
TORSDOF 11
ENDMDL
MODEL 5
REMARK VINA RESULT: -8.415829986      2.530      3.700
REMARK  11 active torsions:
REMARK  status: ('A' for Active; 'I' for Inactive)
REMARK    1  A    between atoms: C2_2  and  O1_3 
REMARK    2  A    between atoms: O1_3  and  C3_4 
REMARK    3  A    between atoms: C7_9  and  C8_10 
REMARK    4  A    between atoms: C8_10  and  N2_11 
REMARK    5  A    between atoms: N2_11  and  C9_12 
REMARK    6  A    between atoms: N2_11  and  C11_14 
REMARK    7  A    between atoms: C11_14  and  O2_15 
REMARK    8  A    between atoms: C11_14  and  C12_17 
REMARK    9  A    between atoms: C20_26  and  O3_27 
REMARK   10  A    between atoms: C22_30  and  O4_31 
REMARK   11  A    between atoms: O4_31  and  C23_32 
ROOT
HETATM    1  C3  UNL     1     -34.065  40.231  66.623  1.00  0.00     0.103 A 
HETATM    2  C4  UNL     1     -34.575  40.122  65.408  1.00  0.00     0.063 A 
HETATM    3  C5  UNL     1     -34.121  40.908  64.382  1.00  0.00     0.059 A 
HETATM    4  C6  UNL     1     -34.779  40.648  63.118  1.00  0.00     0.100 C 
HETATM    5  N1  UNL     1     -35.266  40.389  62.119  1.00  0.00    -0.191 NA
HETATM    6  C7  UNL     1     -33.144  41.847  64.496  1.00  0.00     0.003 A 
HETATM    7  C21 UNL     1     -32.596  41.930  65.837  1.00  0.00     0.054 A 
HETATM    8  C22 UNL     1     -33.029  41.154  66.903  1.00  0.00     0.102 A 
ENDROOT
BRANCH   6   9
HETATM    9  C8  UNL     1     -33.009  43.019  63.752  1.00  0.00     0.111 C 
BRANCH   9  10
HETATM   10  N2  UNL     1     -32.404  44.278  63.850  1.00  0.00    -0.316 N 
BRANCH  10  11
HETATM   11  C9  UNL     1     -32.815  45.303  64.736  1.00  0.00     0.067 C 
HETATM   12  C10 UNL     1     -34.127  45.437  65.343  1.00  0.00     0.055 C 
ENDBRANCH  10  11
BRANCH  10  13
HETATM   13  C11 UNL     1     -31.178  44.439  63.157  1.00  0.00     0.159 C 
BRANCH  13  14
HETATM   14  O2  UNL     1     -30.771  43.286  62.647  1.00  0.00    -0.345 OA
ATOM     15  H2  UNL     1     -31.163  43.137  61.794  1.00  0.00     0.219 HD
ENDBRANCH  13  14
BRANCH  13  16
HETATM   16  C12 UNL     1     -30.212  45.410  62.793  1.00  0.00     0.056 A 
HETATM   17  C13 UNL     1     -30.429  46.167  61.635  1.00  0.00    -0.044 A 
HETATM   18  C14 UNL     1     -31.788  46.129  60.976  1.00  0.00     0.049 C 
HETATM   19  C15 UNL     1     -29.428  46.853  60.972  1.00  0.00     0.016 A 
HETATM   20  C16 UNL     1     -28.121  46.820  61.444  1.00  0.00    -0.038 A 
HETATM   21  C17 UNL     1     -27.033  47.499  60.694  1.00  0.00     0.050 C 
HETATM   22  C18 UNL     1     -27.914  46.086  62.574  1.00  0.00     0.084 A 
HETATM   23  C19 UNL     1     -26.552  46.064  63.082  1.00  0.00     0.103 C 
HETATM   24  C20 UNL     1     -28.902  45.412  63.231  1.00  0.00     0.102 A 
HETATM   25  N3  UNL     1     -25.459  46.001  63.466  1.00  0.00    -0.191 NA
BRANCH  24  26
HETATM   26  O3  UNL     1     -28.647  44.693  64.415  1.00  0.00    -0.358 OA
ATOM     27  H3  UNL     1     -27.855  44.930  64.883  1.00  0.00     0.217 HD
ENDBRANCH  24  26
ENDBRANCH  13  16
ENDBRANCH  10  13
ENDBRANCH   9  10
ENDBRANCH   6   9
BRANCH   1  28
HETATM   28  O1  UNL     1     -34.556  39.458  67.707  1.00  0.00    -0.349 OA
BRANCH  28  29
HETATM   29  C2  UNL     1     -34.221  38.108  67.865  1.00  0.00     0.171 C 
HETATM   30  C1  UNL     1     -35.327  37.159  67.409  1.00  0.00     0.034 C 
ENDBRANCH  28  29
ENDBRANCH   1  28
BRANCH   8  31
HETATM   31  O4  UNL     1     -32.639  41.167  68.161  1.00  0.00    -0.349 OA
BRANCH  31  32
HETATM   32  C23 UNL     1     -32.335  41.485  69.384  1.00  0.00     0.171 C 
HETATM   33  C24 UNL     1     -33.178  41.068  70.535  1.00  0.00     0.034 C 
ENDBRANCH  31  32
ENDBRANCH   8  31
TORSDOF 11
ENDMDL
