MODEL 1
REMARK VINA RESULT: -6.707659734      0.000      0.000
REMARK  10 active torsions:
REMARK  status: ('A' for Active; 'I' for Inactive)
REMARK    1  A    between atoms: C4_4  and  C5_5 
REMARK    2  A    between atoms: C5_5  and  C6_6 
REMARK    3  A    between atoms: C6_6  and  C7_7 
REMARK    4  A    between atoms: C9_9  and  O1_10 
REMARK    5  A    between atoms: C11_13  and  O2_14 
REMARK    6  A    between atoms: C17_22  and  N1_23 
REMARK    7  A    between atoms: C20_26  and  C21_27 
REMARK    8  A    between atoms: C21_27  and  O4_28 
REMARK    9  A    between atoms: C23_31  and  C24_32 
REMARK   10  A    between atoms: C24_32  and  O5_33 
ROOT
HETATM    1  C7  UNL     1      -3.356   1.375 -26.472  1.00  0.00    -0.013 C 
HETATM    2  C8  UNL     1      -3.301   1.401 -27.960  1.00  0.00     0.018 C 
HETATM    3  C9  UNL     1      -4.699   1.378 -25.843  1.00  0.00     0.129 C 
HETATM    4  C10 UNL     1      -5.568   2.533 -26.336  1.00  0.00     0.074 C 
HETATM    5  C11 UNL     1      -5.600   3.601 -25.332  1.00  0.00     0.105 C 
HETATM    6  C12 UNL     1      -5.310   4.919 -25.976  1.00  0.00     0.058 C 
HETATM    7  C13 UNL     1      -6.720   5.295 -26.470  1.00  0.00     0.178 C 
HETATM    8  O3  UNL     1      -7.635   4.697 -25.642  1.00  0.00    -0.368 OA
HETATM    9  C14 UNL     1      -6.992   3.904 -24.748  1.00  0.00     0.128 C 
HETATM   10  C15 UNL     1      -6.824   4.758 -23.520  1.00  0.00     0.016 C 
HETATM   11  C16 UNL     1      -7.888   4.922 -22.754  1.00  0.00     0.012 C 
HETATM   12  C17 UNL     1      -9.191   4.257 -23.142  1.00  0.00     0.275 C 
HETATM   13  C20 UNL     1      -8.782   2.864 -23.525  1.00  0.00    -0.021 C 
HETATM   14  C22 UNL     1      -7.719   2.723 -24.300  1.00  0.00     0.025 C 
HETATM   15  C23 UNL     1      -4.374   5.010 -27.092  1.00  0.00    -0.006 A 
HETATM   16  C25 UNL     1      -3.254   6.062 -26.790  1.00  0.00     0.019 A 
HETATM   17  C26 UNL     1      -3.029   4.551 -27.094  1.00  0.00     0.006 A 
HETATM   18  C27 UNL     1      -2.370   3.758 -26.090  1.00  0.00    -0.035 A 
HETATM   19  C28 UNL     1      -1.656   4.631 -25.015  1.00  0.00     0.016 C 
HETATM   20  C29 UNL     1      -1.305   2.738 -26.593  1.00  0.00     0.016 A 
HETATM   21  C30 UNL     1      -2.496   2.408 -25.801  1.00  0.00     0.005 A 
ENDROOT
BRANCH   5  22
HETATM   22  O2  UNL     1      -4.897   3.349 -24.149  1.00  0.00    -0.385 OA
ATOM     23  H2  UNL     1      -4.674   4.112 -23.629  1.00  0.00     0.210 HD
ENDBRANCH   5  22
BRANCH  13  24
HETATM   24  C21 UNL     1      -9.579   1.720 -23.016  1.00  0.00     0.200 C 
BRANCH  24  25
HETATM   25  O4  UNL     1      -8.945   1.125 -21.905  1.00  0.00    -0.397 OA
ATOM     26  H4  UNL     1      -9.541   1.066 -21.169  1.00  0.00     0.209 HD
ENDBRANCH  24  25
ENDBRANCH  13  24
BRANCH   3  27
HETATM   27  O1  UNL     1      -5.479   0.255 -26.056  1.00  0.00    -0.395 OA
ATOM     28  H1  UNL     1      -6.400   0.409 -26.230  1.00  0.00     0.210 HD
ENDBRANCH   3  27
BRANCH  15  29
HETATM   29  C24 UNL     1      -4.971   5.369 -28.477  1.00  0.00     0.174 C 
BRANCH  29  30
HETATM   30  O5  UNL     1      -4.842   4.323 -29.378  1.00  0.00    -0.400 OA
ATOM     31  H5  UNL     1      -5.681   4.069 -29.744  1.00  0.00     0.209 HD
ENDBRANCH  29  30
ENDBRANCH  15  29
BRANCH  12  32
HETATM   32  N1  UNL     1     -10.148   4.283 -22.090  1.00  0.00     0.092 N 
HETATM   33  C18 UNL     1     -11.481   4.367 -22.676  1.00  0.00     0.310 C 
HETATM   34  C19 UNL     1      -9.917   5.419 -21.209  1.00  0.00     0.310 C 
ENDBRANCH  12  32
BRANCH   1  35
HETATM   35  C6  UNL     1      -2.646   0.064 -26.107  1.00  0.00     0.016 C 
BRANCH  35  36
HETATM   36  C5  UNL     1      -2.687  -0.428 -24.759  1.00  0.00     0.028 C 
BRANCH  36  37
HETATM   37  C4  UNL     1      -2.688  -1.886 -24.491  1.00  0.00    -0.025 C 
HETATM   38  C2  UNL     1      -1.781  -2.786 -24.375  1.00  0.00    -0.091 C 
HETATM   39  C1  UNL     1      -2.206  -4.232 -24.087  1.00  0.00     0.042 C 
HETATM   40  C3  UNL     1      -0.338  -2.580 -24.464  1.00  0.00     0.042 C 
ENDBRANCH  36  37
ENDBRANCH  35  36
ENDBRANCH   1  35
TORSDOF 10
ENDMDL
MODEL 2
REMARK VINA RESULT: -6.666907077      2.866      4.794
REMARK  10 active torsions:
REMARK  status: ('A' for Active; 'I' for Inactive)
REMARK    1  A    between atoms: C4_4  and  C5_5 
REMARK    2  A    between atoms: C5_5  and  C6_6 
REMARK    3  A    between atoms: C6_6  and  C7_7 
REMARK    4  A    between atoms: C9_9  and  O1_10 
REMARK    5  A    between atoms: C11_13  and  O2_14 
REMARK    6  A    between atoms: C17_22  and  N1_23 
REMARK    7  A    between atoms: C20_26  and  C21_27 
REMARK    8  A    between atoms: C21_27  and  O4_28 
REMARK    9  A    between atoms: C23_31  and  C24_32 
REMARK   10  A    between atoms: C24_32  and  O5_33 
ROOT
HETATM    1  C7  UNL     1      -1.946  -0.450 -25.112  1.00  0.00    -0.013 C 
HETATM    2  C8  UNL     1      -1.598  -1.390 -26.213  1.00  0.00     0.018 C 
HETATM    3  C9  UNL     1      -2.970   0.582 -25.400  1.00  0.00     0.129 C 
HETATM    4  C10 UNL     1      -2.636   1.402 -26.644  1.00  0.00     0.074 C 
HETATM    5  C11 UNL     1      -2.093   2.707 -26.254  1.00  0.00     0.105 C 
HETATM    6  C12 UNL     1      -0.832   2.983 -27.008  1.00  0.00     0.058 C 
HETATM    7  C13 UNL     1      -1.416   3.577 -28.304  1.00  0.00     0.178 C 
HETATM    8  O3  UNL     1      -2.620   4.157 -28.003  1.00  0.00    -0.368 OA
HETATM    9  C14 UNL     1      -2.928   3.920 -26.702  1.00  0.00     0.128 C 
HETATM   10  C15 UNL     1      -2.447   5.138 -25.959  1.00  0.00     0.016 C 
HETATM   11  C16 UNL     1      -3.197   6.223 -26.038  1.00  0.00     0.012 C 
HETATM   12  C17 UNL     1      -4.472   6.186 -26.853  1.00  0.00     0.275 C 
HETATM   13  C20 UNL     1      -5.115   4.889 -26.454  1.00  0.00    -0.021 C 
HETATM   14  C22 UNL     1      -4.347   3.813 -26.389  1.00  0.00     0.025 C 
HETATM   15  C23 UNL     1       0.082   1.898 -27.350  1.00  0.00    -0.006 A 
HETATM   16  C25 UNL     1       1.527   2.208 -26.831  1.00  0.00     0.019 A 
HETATM   17  C26 UNL     1       0.661   0.975 -26.437  1.00  0.00     0.006 A 
HETATM   18  C27 UNL     1       0.342   0.799 -25.045  1.00  0.00    -0.035 A 
HETATM   19  C28 UNL     1       1.235   1.674 -24.114  1.00  0.00     0.016 C 
HETATM   20  C29 UNL     1       0.431  -0.652 -24.487  1.00  0.00     0.016 A 
HETATM   21  C30 UNL     1      -0.762   0.203 -24.455  1.00  0.00     0.005 A 
ENDROOT
BRANCH   5  22
HETATM   22  O2  UNL     1      -2.031   2.957 -24.879  1.00  0.00    -0.385 OA
ATOM     23  H2  UNL     1      -2.516   3.714 -24.572  1.00  0.00     0.210 HD
ENDBRANCH   5  22
BRANCH  13  24
HETATM   24  C21 UNL     1      -6.567   4.876 -26.146  1.00  0.00     0.200 C 
BRANCH  24  25
HETATM   25  O4  UNL     1      -7.069   3.557 -26.164  1.00  0.00    -0.397 OA
ATOM     26  H4  UNL     1      -7.666   3.435 -26.892  1.00  0.00     0.209 HD
ENDBRANCH  24  25
ENDBRANCH  13  24
BRANCH   3  27
HETATM   27  O1  UNL     1      -4.255   0.123 -25.635  1.00  0.00    -0.395 OA
ATOM     28  H1  UNL     1      -4.959   0.738 -25.466  1.00  0.00     0.210 HD
ENDBRANCH   3  27
BRANCH  15  29
HETATM   29  C24 UNL     1       0.208   1.538 -28.852  1.00  0.00     0.174 C 
BRANCH  29  30
HETATM   30  O5  UNL     1       0.183   0.167 -29.055  1.00  0.00    -0.400 OA
ATOM     31  H5  UNL     1       0.541  -0.070 -29.902  1.00  0.00     0.209 HD
ENDBRANCH  29  30
ENDBRANCH  15  29
BRANCH  12  32
HETATM   32  N1  UNL     1      -5.305   7.313 -26.610  1.00  0.00     0.092 N 
HETATM   33  C18 UNL     1      -5.532   8.005 -27.874  1.00  0.00     0.310 C 
HETATM   34  C19 UNL     1      -4.684   8.217 -25.651  1.00  0.00     0.310 C 
ENDBRANCH  12  32
BRANCH   1  35
HETATM   35  C6  UNL     1      -2.474  -1.370 -24.003  1.00  0.00     0.016 C 
BRANCH  35  36
HETATM   36  C5  UNL     1      -2.901  -2.705 -24.314  1.00  0.00     0.028 C 
BRANCH  36  37
HETATM   37  C4  UNL     1      -2.108  -3.873 -23.862  1.00  0.00    -0.025 C 
HETATM   38  C2  UNL     1      -1.330  -4.716 -24.437  1.00  0.00    -0.091 C 
HETATM   39  C1  UNL     1      -0.680  -5.818 -23.592  1.00  0.00     0.042 C 
HETATM   40  C3  UNL     1      -0.962  -4.733 -25.850  1.00  0.00     0.042 C 
ENDBRANCH  36  37
ENDBRANCH  35  36
ENDBRANCH   1  35
TORSDOF 10
ENDMDL
MODEL 3
REMARK VINA RESULT: -6.613445652      8.440     10.730
REMARK  10 active torsions:
REMARK  status: ('A' for Active; 'I' for Inactive)
REMARK    1  A    between atoms: C4_4  and  C5_5 
REMARK    2  A    between atoms: C5_5  and  C6_6 
REMARK    3  A    between atoms: C6_6  and  C7_7 
REMARK    4  A    between atoms: C9_9  and  O1_10 
REMARK    5  A    between atoms: C11_13  and  O2_14 
REMARK    6  A    between atoms: C17_22  and  N1_23 
REMARK    7  A    between atoms: C20_26  and  C21_27 
REMARK    8  A    between atoms: C21_27  and  O4_28 
REMARK    9  A    between atoms: C23_31  and  C24_32 
REMARK   10  A    between atoms: C24_32  and  O5_33 
ROOT
HETATM    1  C7  UNL     1       2.921  -2.279 -23.827  1.00  0.00    -0.013 C 
HETATM    2  C8  UNL     1       2.887  -1.722 -25.207  1.00  0.00     0.018 C 
HETATM    3  C9  UNL     1       2.445  -1.402 -22.730  1.00  0.00     0.129 C 
HETATM    4  C10 UNL     1       3.151  -0.048 -22.719  1.00  0.00     0.074 C 
HETATM    5  C11 UNL     1       4.178  -0.026 -21.672  1.00  0.00     0.105 C 
HETATM    6  C12 UNL     1       5.470   0.476 -22.233  1.00  0.00     0.058 C 
HETATM    7  C13 UNL     1       5.252   1.995 -22.098  1.00  0.00     0.178 C 
HETATM    8  O3  UNL     1       4.395   2.211 -21.050  1.00  0.00    -0.368 OA
HETATM    9  C14 UNL     1       3.957   1.020 -20.566  1.00  0.00     0.128 C 
HETATM   10  C15 UNL     1       4.875   0.706 -19.415  1.00  0.00     0.016 C 
HETATM   11  C16 UNL     1       4.661   1.354 -18.283  1.00  0.00     0.012 C 
HETATM   12  C17 UNL     1       3.528   2.355 -18.205  1.00  0.00     0.275 C 
HETATM   13  C20 UNL     1       2.379   1.649 -18.864  1.00  0.00    -0.021 C 
HETATM   14  C22 UNL     1       2.614   1.014 -20.001  1.00  0.00     0.025 C 
HETATM   15  C23 UNL     1       5.852   0.170 -23.608  1.00  0.00    -0.006 A 
HETATM   16  C25 UNL     1       7.267  -0.500 -23.653  1.00  0.00     0.019 A 
HETATM   17  C26 UNL     1       5.944  -1.128 -24.181  1.00  0.00     0.006 A 
HETATM   18  C27 UNL     1       5.517  -2.375 -23.603  1.00  0.00    -0.035 A 
HETATM   19  C28 UNL     1       6.653  -3.079 -22.802  1.00  0.00     0.016 C 
HETATM   20  C29 UNL     1       4.957  -3.445 -24.586  1.00  0.00     0.016 A 
HETATM   21  C30 UNL     1       4.239  -2.885 -23.434  1.00  0.00     0.005 A 
ENDROOT
BRANCH   5  22
HETATM   22  O2  UNL     1       4.278  -1.181 -20.890  1.00  0.00    -0.385 OA
ATOM     23  H2  UNL     1       4.999  -1.763 -21.099  1.00  0.00     0.210 HD
ENDBRANCH   5  22
BRANCH  13  24
HETATM   24  C21 UNL     1       1.046   1.690 -18.212  1.00  0.00     0.200 C 
BRANCH  24  25
HETATM   25  O4  UNL     1       0.320   0.512 -18.486  1.00  0.00    -0.397 OA
ATOM     26  H4  UNL     1      -0.540   0.545 -18.083  1.00  0.00     0.209 HD
ENDBRANCH  24  25
ENDBRANCH  13  24
BRANCH   3  27
HETATM   27  O1  UNL     1       1.099  -1.080 -22.743  1.00  0.00    -0.395 OA
ATOM     28  H1  UNL     1       0.724  -0.806 -21.914  1.00  0.00     0.210 HD
ENDBRANCH   3  27
BRANCH  15  29
HETATM   29  C24 UNL     1       5.881   1.356 -24.605  1.00  0.00     0.174 C 
BRANCH  29  30
HETATM   30  O5  UNL     1       4.887   1.244 -25.565  1.00  0.00    -0.400 OA
ATOM     31  H5  UNL     1       5.205   0.819 -26.353  1.00  0.00     0.209 HD
ENDBRANCH  29  30
ENDBRANCH  15  29
BRANCH  12  32
HETATM   32  N1  UNL     1       3.242   2.748 -16.868  1.00  0.00     0.092 N 
HETATM   33  C18 UNL     1       2.997   4.186 -16.848  1.00  0.00     0.310 C 
HETATM   34  C19 UNL     1       4.351   2.418 -15.984  1.00  0.00     0.310 C 
ENDBRANCH  12  32
BRANCH   1  35
HETATM   35  C6  UNL     1       2.003  -3.506 -23.908  1.00  0.00     0.016 C 
BRANCH  35  36
HETATM   36  C5  UNL     1       1.063  -3.634 -24.985  1.00  0.00     0.028 C 
BRANCH  36  37
HETATM   37  C4  UNL     1      -0.394  -3.537 -24.726  1.00  0.00    -0.025 C 
HETATM   38  C2  UNL     1      -1.299  -4.354 -24.325  1.00  0.00    -0.091 C 
HETATM   39  C1  UNL     1      -2.740  -3.850 -24.183  1.00  0.00     0.042 C 
HETATM   40  C3  UNL     1      -1.101  -5.751 -23.952  1.00  0.00     0.042 C 
ENDBRANCH  36  37
ENDBRANCH  35  36
ENDBRANCH   1  35
TORSDOF 10
ENDMDL
MODEL 4
REMARK VINA RESULT: -6.244609219      5.087      9.559
REMARK  10 active torsions:
REMARK  status: ('A' for Active; 'I' for Inactive)
REMARK    1  A    between atoms: C4_4  and  C5_5 
REMARK    2  A    between atoms: C5_5  and  C6_6 
REMARK    3  A    between atoms: C6_6  and  C7_7 
REMARK    4  A    between atoms: C9_9  and  O1_10 
REMARK    5  A    between atoms: C11_13  and  O2_14 
REMARK    6  A    between atoms: C17_22  and  N1_23 
REMARK    7  A    between atoms: C20_26  and  C21_27 
REMARK    8  A    between atoms: C21_27  and  O4_28 
REMARK    9  A    between atoms: C23_31  and  C24_32 
REMARK   10  A    between atoms: C24_32  and  O5_33 
ROOT
HETATM    1  C7  UNL     1       1.532   3.622 -22.066  1.00  0.00    -0.013 C 
HETATM    2  C8  UNL     1       1.891   3.733 -20.625  1.00  0.00     0.018 C 
HETATM    3  C9  UNL     1       0.634   2.509 -22.458  1.00  0.00     0.129 C 
HETATM    4  C10 UNL     1       1.151   1.151 -21.986  1.00  0.00     0.074 C 
HETATM    5  C11 UNL     1       1.772   0.435 -23.105  1.00  0.00     0.105 C 
HETATM    6  C12 UNL     1       3.116  -0.081 -22.699  1.00  0.00     0.058 C 
HETATM    7  C13 UNL     1       2.706  -1.408 -22.033  1.00  0.00     0.178 C 
HETATM    8  O3  UNL     1       1.537  -1.832 -22.609  1.00  0.00    -0.368 OA
HETATM    9  C14 UNL     1       1.093  -0.893 -23.484  1.00  0.00     0.128 C 
HETATM   10  C15 UNL     1       1.613  -1.335 -24.826  1.00  0.00     0.016 C 
HETATM   11  C16 UNL     1       0.974  -2.328 -25.419  1.00  0.00     0.012 C 
HETATM   12  C17 UNL     1      -0.221  -2.955 -24.734  1.00  0.00     0.275 C 
HETATM   13  C20 UNL     1      -1.011  -1.777 -24.242  1.00  0.00    -0.021 C 
HETATM   14  C22 UNL     1      -0.352  -0.798 -23.643  1.00  0.00     0.025 C 
HETATM   15  C23 UNL     1       3.955   0.676 -21.777  1.00  0.00    -0.006 A 
HETATM   16  C25 UNL     1       5.370   0.932 -22.399  1.00  0.00     0.019 A 
HETATM   17  C26 UNL     1       4.365   2.028 -21.938  1.00  0.00     0.006 A 
HETATM   18  C27 UNL     1       3.907   2.973 -22.922  1.00  0.00    -0.035 A 
HETATM   19  C28 UNL     1       4.788   2.966 -24.208  1.00  0.00     0.016 C 
HETATM   20  C29 UNL     1       3.814   4.461 -22.472  1.00  0.00     0.016 A 
HETATM   21  C30 UNL     1       2.706   3.659 -23.004  1.00  0.00     0.005 A 
ENDROOT
BRANCH   5  22
HETATM   22  O2  UNL     1       1.733   1.083 -24.343  1.00  0.00    -0.385 OA
ATOM     23  H2  UNL     1       2.286   0.716 -25.022  1.00  0.00     0.210 HD
ENDBRANCH   5  22
BRANCH  13  24
HETATM   24  C21 UNL     1      -2.480  -1.763 -24.454  1.00  0.00     0.200 C 
BRANCH  24  25
HETATM   25  O4  UNL     1      -3.058  -0.618 -23.866  1.00  0.00    -0.397 OA
ATOM     26  H4  UNL     1      -3.266   0.031 -24.528  1.00  0.00     0.209 HD
ENDBRANCH  24  25
ENDBRANCH  13  24
BRANCH   3  27
HETATM   27  O1  UNL     1      -0.661   2.564 -21.970  1.00  0.00    -0.395 OA
ATOM     28  H1  UNL     1      -0.965   1.797 -21.498  1.00  0.00     0.210 HD
ENDBRANCH   3  27
BRANCH  15  29
HETATM   29  C24 UNL     1       4.182   0.061 -20.373  1.00  0.00     0.174 C 
BRANCH  29  30
HETATM   30  O5  UNL     1       3.525   0.778 -19.385  1.00  0.00    -0.400 OA
ATOM     31  H5  UNL     1       2.699   0.375 -19.148  1.00  0.00     0.209 HD
ENDBRANCH  29  30
ENDBRANCH  15  29
BRANCH  12  32
HETATM   32  N1  UNL     1      -0.967  -3.795 -25.606  1.00  0.00     0.092 N 
HETATM   33  C18 UNL     1      -1.107  -5.106 -24.981  1.00  0.00     0.310 C 
HETATM   34  C19 UNL     1      -0.300  -3.925 -26.894  1.00  0.00     0.310 C 
ENDBRANCH  12  32
BRANCH   1  35
HETATM   35  C6  UNL     1       0.825   4.951 -22.367  1.00  0.00     0.016 C 
BRANCH  35  36
HETATM   36  C5  UNL     1       0.652   5.387 -23.723  1.00  0.00     0.028 C 
BRANCH  36  37
HETATM   37  C4  UNL     1      -0.655   5.224 -24.404  1.00  0.00    -0.025 C 
HETATM   38  C2  UNL     1      -1.126   4.408 -25.276  1.00  0.00    -0.091 C 
HETATM   39  C1  UNL     1      -2.577   4.581 -25.742  1.00  0.00     0.042 C 
HETATM   40  C3  UNL     1      -0.422   3.280 -25.878  1.00  0.00     0.042 C 
ENDBRANCH  36  37
ENDBRANCH  35  36
ENDBRANCH   1  35
TORSDOF 10
ENDMDL
MODEL 5
REMARK VINA RESULT: -6.209100786      5.468      7.727
REMARK  10 active torsions:
REMARK  status: ('A' for Active; 'I' for Inactive)
REMARK    1  A    between atoms: C4_4  and  C5_5 
REMARK    2  A    between atoms: C5_5  and  C6_6 
REMARK    3  A    between atoms: C6_6  and  C7_7 
REMARK    4  A    between atoms: C9_9  and  O1_10 
REMARK    5  A    between atoms: C11_13  and  O2_14 
REMARK    6  A    between atoms: C17_22  and  N1_23 
REMARK    7  A    between atoms: C20_26  and  C21_27 
REMARK    8  A    between atoms: C21_27  and  O4_28 
REMARK    9  A    between atoms: C23_31  and  C24_32 
REMARK   10  A    between atoms: C24_32  and  O5_33 
ROOT
HETATM    1  C7  UNL     1       0.275  -0.460 -25.801  1.00  0.00    -0.013 C 
HETATM    2  C8  UNL     1      -1.096  -0.277 -26.352  1.00  0.00     0.018 C 
HETATM    3  C9  UNL     1       0.450  -0.272 -24.341  1.00  0.00     0.129 C 
HETATM    4  C10 UNL     1      -0.085   1.075 -23.860  1.00  0.00     0.074 C 
HETATM    5  C11 UNL     1       1.025   2.009 -23.649  1.00  0.00     0.105 C 
HETATM    6  C12 UNL     1       0.734   3.312 -24.323  1.00  0.00     0.058 C 
HETATM    7  C13 UNL     1      -0.101   4.003 -23.227  1.00  0.00     0.178 C 
HETATM    8  O3  UNL     1       0.291   3.501 -22.013  1.00  0.00    -0.368 OA
HETATM    9  C14 UNL     1       1.193   2.504 -22.201  1.00  0.00     0.128 C 
HETATM   10  C15 UNL     1       2.538   3.167 -22.071  1.00  0.00     0.016 C 
HETATM   11  C16 UNL     1       2.955   3.443 -20.847  1.00  0.00     0.012 C 
HETATM   12  C17 UNL     1       2.076   3.086 -19.667  1.00  0.00     0.275 C 
HETATM   13  C20 UNL     1       1.609   1.693 -19.976  1.00  0.00    -0.021 C 
HETATM   14  C22 UNL     1       1.189   1.440 -21.205  1.00  0.00     0.025 C 
HETATM   15  C23 UNL     1      -0.007   3.349 -25.580  1.00  0.00    -0.006 A 
HETATM   16  C25 UNL     1       0.799   4.127 -26.674  1.00  0.00     0.019 A 
HETATM   17  C26 UNL     1       0.330   2.646 -26.768  1.00  0.00     0.006 A 
HETATM   18  C27 UNL     1       1.339   1.633 -26.934  1.00  0.00    -0.035 A 
HETATM   19  C28 UNL     1       2.713   2.228 -27.367  1.00  0.00     0.016 C 
HETATM   20  C29 UNL     1       1.025   0.493 -27.948  1.00  0.00     0.016 A 
HETATM   21  C30 UNL     1       1.344   0.309 -26.527  1.00  0.00     0.005 A 
ENDROOT
BRANCH   5  22
HETATM   22  O2  UNL     1       2.307   1.497 -23.874  1.00  0.00    -0.385 OA
ATOM     23  H2  UNL     1       2.856   1.998 -24.465  1.00  0.00     0.210 HD
ENDBRANCH   5  22
BRANCH  13  24
HETATM   24  C21 UNL     1       1.647   0.671 -18.900  1.00  0.00     0.200 C 
BRANCH  24  25
HETATM   25  O4  UNL     1       0.346   0.387 -18.435  1.00  0.00    -0.397 OA
ATOM     26  H4  UNL     1       0.377  -0.046 -17.590  1.00  0.00     0.209 HD
ENDBRANCH  24  25
ENDBRANCH  13  24
BRANCH   3  27
HETATM   27  O1  UNL     1      -0.179  -1.195 -23.524  1.00  0.00    -0.395 OA
ATOM     28  H1  UNL     1       0.383  -1.696 -22.944  1.00  0.00     0.210 HD
ENDBRANCH   3  27
BRANCH  15  29
HETATM   29  C24 UNL     1      -1.426   3.968 -25.536  1.00  0.00     0.174 C 
BRANCH  29  30
HETATM   30  O5  UNL     1      -2.411   2.994 -25.490  1.00  0.00    -0.400 OA
ATOM     31  H5  UNL     1      -2.505   2.629 -24.618  1.00  0.00     0.209 HD
ENDBRANCH  29  30
ENDBRANCH  15  29
BRANCH  12  32
HETATM   32  N1  UNL     1       2.770   3.174 -18.428  1.00  0.00     0.092 N 
HETATM   33  C18 UNL     1       2.433   4.446 -17.796  1.00  0.00     0.310 C 
HETATM   34  C19 UNL     1       4.209   3.085 -18.634  1.00  0.00     0.310 C 
ENDBRANCH  12  32
BRANCH   1  35
HETATM   35  C6  UNL     1       0.616  -1.915 -26.153  1.00  0.00     0.016 C 
BRANCH  35  36
HETATM   36  C5  UNL     1      -0.433  -2.861 -26.405  1.00  0.00     0.028 C 
BRANCH  36  37
HETATM   37  C4  UNL     1      -0.569  -4.074 -25.563  1.00  0.00    -0.025 C 
HETATM   38  C2  UNL     1      -1.394  -4.460 -24.659  1.00  0.00    -0.091 C 
HETATM   39  C1  UNL     1      -1.183  -5.830 -24.002  1.00  0.00     0.042 C 
HETATM   40  C3  UNL     1      -2.566  -3.730 -24.185  1.00  0.00     0.042 C 
ENDBRANCH  36  37
ENDBRANCH  35  36
ENDBRANCH   1  35
TORSDOF 10
ENDMDL
