MODEL 1
REMARK VINA RESULT: -7.423785203      0.000      0.000
REMARK  9 active torsions:
REMARK  status: ('A' for Active; 'I' for Inactive)
REMARK    1  A    between atoms: C2_2  and  C4_4 
REMARK    2  A    between atoms: C4_4  and  C5_6 
REMARK    3  A    between atoms: C5_6  and  O2_7 
REMARK    4  A    between atoms: C5_6  and  C6_9 
REMARK    5  A    between atoms: C6_9  and  O3_10 
REMARK    6  A    between atoms: C6_9  and  C7_12 
REMARK    7  A    between atoms: C15_20  and  C16_21 
REMARK    8  A    between atoms: C25_30  and  O4_31 
REMARK    9  A    between atoms: C29_36  and  O5_37 
ROOT
HETATM    1  C7  UNL     1       0.365  -0.776 -24.302  1.00  0.00     0.157 C 
HETATM    2  C8  UNL     1       0.940  -1.719 -25.311  1.00  0.00     0.045 C 
HETATM    3  C9  UNL     1       2.489  -1.634 -25.290  1.00  0.00    -0.025 C 
HETATM    4  C10 UNL     1       2.670  -0.130 -25.435  1.00  0.00     0.016 C 
HETATM    5  C11 UNL     1       3.179  -2.442 -26.292  1.00  0.00     0.009 C 
HETATM    6  C12 UNL     1       4.045  -3.564 -25.798  1.00  0.00     0.020 C 
HETATM    7  C13 UNL     1       5.182  -3.998 -26.669  1.00  0.00     0.013 C 
HETATM    8  C14 UNL     1       5.012  -3.967 -28.123  1.00  0.00    -0.005 C 
HETATM    9  C15 UNL     1       4.474  -5.214 -28.748  1.00  0.00    -0.007 C 
HETATM   10  C19 UNL     1       3.567  -4.716 -29.883  1.00  0.00     0.006 C 
HETATM   11  C20 UNL     1       2.889  -3.549 -29.123  1.00  0.00     0.006 C 
HETATM   12  C21 UNL     1       4.070  -2.923 -28.531  1.00  0.00    -0.002 C 
HETATM   13  C22 UNL     1       3.835  -1.825 -27.481  1.00  0.00    -0.039 C 
HETATM   14  C23 UNL     1       5.191  -1.215 -27.270  1.00  0.00     0.015 C 
HETATM   15  C24 UNL     1       3.018  -0.823 -28.258  1.00  0.00     0.015 C 
HETATM   16  C25 UNL     1       4.676  -3.366 -24.447  1.00  0.00     0.123 C 
HETATM   17  C26 UNL     1       4.132  -2.282 -23.613  1.00  0.00     0.046 C 
HETATM   18  C27 UNL     1       2.688  -2.104 -23.845  1.00  0.00     0.016 C 
HETATM   19  C28 UNL     1       1.918  -3.317 -23.471  1.00  0.00     0.021 C 
HETATM   20  C29 UNL     1       2.165  -1.056 -22.848  1.00  0.00     0.266 C 
HETATM   21  O6  UNL     1       0.848  -0.792 -23.046  1.00  0.00    -0.353 OA
ENDROOT
BRANCH   1  22
HETATM   22  C6  UNL     1      -1.135  -1.109 -24.205  1.00  0.00     0.183 C 
BRANCH  22  23
HETATM   23  C5  UNL     1      -1.550  -2.115 -25.229  1.00  0.00     0.219 C 
BRANCH  23  24
HETATM   24  C4  UNL     1      -2.072  -3.301 -24.499  1.00  0.00     0.161 C 
HETATM   25  O1  UNL     1      -2.802  -3.141 -23.545  1.00  0.00    -0.295 OA
BRANCH  24  26
HETATM   26  C2  UNL     1      -1.719  -4.684 -24.914  1.00  0.00     0.050 C 
HETATM   27  C1  UNL     1      -0.779  -4.654 -26.100  1.00  0.00     0.017 C 
HETATM   28  C3  UNL     1      -1.069  -5.466 -23.822  1.00  0.00     0.017 C 
ENDBRANCH  24  26
ENDBRANCH  23  24
BRANCH  23  29
HETATM   29  O2  UNL     1      -2.574  -1.599 -26.003  1.00  0.00    -0.385 OA
ATOM     30  H2  UNL     1      -3.311  -2.196 -25.954  1.00  0.00     0.210 HD
ENDBRANCH  23  29
ENDBRANCH  22  23
BRANCH  22  31
HETATM   31  O3  UNL     1      -1.871   0.066 -24.268  1.00  0.00    -0.390 OA
ATOM     32  H3  UNL     1      -2.495   0.152 -23.557  1.00  0.00     0.210 HD
ENDBRANCH  22  31
ENDBRANCH   1  22
BRANCH  20  33
HETATM   33  O5  UNL     1       2.208  -1.747 -21.595  1.00  0.00    -0.370 OA
ATOM     34  H5  UNL     1       2.321  -1.046 -20.964  1.00  0.00     0.212 HD
ENDBRANCH  20  33
BRANCH  16  35
HETATM   35  O4  UNL     1       4.642  -4.566 -23.694  1.00  0.00    -0.395 OA
ATOM     36  H4  UNL     1       5.184  -5.234 -24.097  1.00  0.00     0.210 HD
ENDBRANCH  16  35
BRANCH   9  37
HETATM   37  C16 UNL     1       5.499  -6.149 -29.272  1.00  0.00    -0.018 C 
HETATM   38  C17 UNL     1       5.298  -6.616 -30.674  1.00  0.00     0.010 C 
HETATM   39  C18 UNL     1       5.610  -7.386 -28.392  1.00  0.00     0.010 C 
ENDBRANCH   9  37
TORSDOF 9
ENDMDL
MODEL 2
REMARK VINA RESULT: -6.965677805     13.766     18.004
REMARK  9 active torsions:
REMARK  status: ('A' for Active; 'I' for Inactive)
REMARK    1  A    between atoms: C2_2  and  C4_4 
REMARK    2  A    between atoms: C4_4  and  C5_6 
REMARK    3  A    between atoms: C5_6  and  O2_7 
REMARK    4  A    between atoms: C5_6  and  C6_9 
REMARK    5  A    between atoms: C6_9  and  O3_10 
REMARK    6  A    between atoms: C6_9  and  C7_12 
REMARK    7  A    between atoms: C15_20  and  C16_21 
REMARK    8  A    between atoms: C25_30  and  O4_31 
REMARK    9  A    between atoms: C29_36  and  O5_37 
ROOT
HETATM    1  C7  UNL     1     -10.587   6.000 -22.862  1.00  0.00     0.157 C 
HETATM    2  C8  UNL     1     -11.348   6.378 -24.092  1.00  0.00     0.045 C 
HETATM    3  C9  UNL     1     -11.601   7.910 -24.106  1.00  0.00    -0.025 C 
HETATM    4  C10 UNL     1     -12.212   8.086 -22.724  1.00  0.00     0.016 C 
HETATM    5  C11 UNL     1     -12.415   8.405 -25.213  1.00  0.00     0.009 C 
HETATM    6  C12 UNL     1     -11.755   9.326 -26.197  1.00  0.00     0.020 C 
HETATM    7  C13 UNL     1     -12.628  10.290 -26.938  1.00  0.00     0.013 C 
HETATM    8  C14 UNL     1     -13.979   9.873 -27.319  1.00  0.00    -0.005 C 
HETATM    9  C15 UNL     1     -14.112   9.218 -28.656  1.00  0.00    -0.007 C 
HETATM   10  C19 UNL     1     -15.183   8.136 -28.450  1.00  0.00     0.006 C 
HETATM   11  C20 UNL     1     -14.706   7.616 -27.072  1.00  0.00     0.006 C 
HETATM   12  C21 UNL     1     -14.522   8.891 -26.379  1.00  0.00    -0.002 C 
HETATM   13  C22 UNL     1     -13.823   8.856 -25.011  1.00  0.00    -0.039 C 
HETATM   14  C23 UNL     1     -14.021  10.237 -24.456  1.00  0.00     0.015 C 
HETATM   15  C24 UNL     1     -14.721   7.932 -24.226  1.00  0.00     0.015 C 
HETATM   16  C25 UNL     1     -10.643  10.182 -25.657  1.00  0.00     0.123 C 
HETATM   17  C26 UNL     1     -10.092   9.806 -24.345  1.00  0.00     0.046 C 
HETATM   18  C27 UNL     1     -10.133   8.346 -24.149  1.00  0.00     0.016 C 
HETATM   19  C28 UNL     1      -9.298   7.634 -25.149  1.00  0.00     0.021 C 
HETATM   20  C29 UNL     1      -9.422   8.018 -22.826  1.00  0.00     0.266 C 
HETATM   21  O6  UNL     1      -9.476   6.691 -22.546  1.00  0.00    -0.353 OA
ENDROOT
BRANCH   1  22
HETATM   22  C6  UNL     1     -10.157   4.533 -23.055  1.00  0.00     0.183 C 
BRANCH  22  23
HETATM   23  C5  UNL     1      -8.929   4.419 -23.899  1.00  0.00     0.219 C 
BRANCH  23  24
HETATM   24  C4  UNL     1      -8.035   3.424 -23.250  1.00  0.00     0.161 C 
HETATM   25  O1  UNL     1      -7.145   3.806 -22.521  1.00  0.00    -0.295 OA
BRANCH  24  26
HETATM   26  C2  UNL     1      -8.208   1.965 -23.473  1.00  0.00     0.050 C 
HETATM   27  C1  UNL     1      -6.903   1.342 -23.919  1.00  0.00     0.017 C 
HETATM   28  C3  UNL     1      -8.678   1.246 -22.253  1.00  0.00     0.017 C 
ENDBRANCH  24  26
ENDBRANCH  23  24
BRANCH  23  29
HETATM   29  O2  UNL     1      -9.268   3.943 -25.153  1.00  0.00    -0.385 OA
ATOM     30  H2  UNL     1      -9.342   2.997 -25.101  1.00  0.00     0.210 HD
ENDBRANCH  23  29
ENDBRANCH  22  23
BRANCH  22  31
HETATM   31  O3  UNL     1     -11.227   3.802 -23.550  1.00  0.00    -0.390 OA
ATOM     32  H3  UNL     1     -11.691   3.319 -22.877  1.00  0.00     0.210 HD
ENDBRANCH  22  31
ENDBRANCH   1  22
BRANCH  20  33
HETATM   33  O5  UNL     1      -8.044   8.265 -23.125  1.00  0.00    -0.370 OA
ATOM     34  H5  UNL     1      -7.825   7.568 -23.733  1.00  0.00     0.212 HD
ENDBRANCH  20  33
BRANCH  16  35
HETATM   35  O4  UNL     1      -9.572  10.260 -26.583  1.00  0.00    -0.395 OA
ATOM     36  H4  UNL     1      -9.039  11.029 -26.419  1.00  0.00     0.210 HD
ENDBRANCH  16  35
BRANCH   9  37
HETATM   37  C16 UNL     1     -14.492  10.123 -29.767  1.00  0.00    -0.018 C 
HETATM   38  C17 UNL     1     -15.677   9.706 -30.571  1.00  0.00     0.010 C 
HETATM   39  C18 UNL     1     -13.332  10.316 -30.734  1.00  0.00     0.010 C 
ENDBRANCH   9  37
TORSDOF 9
ENDMDL
MODEL 3
REMARK VINA RESULT: -6.790173415     13.071     16.850
REMARK  9 active torsions:
REMARK  status: ('A' for Active; 'I' for Inactive)
REMARK    1  A    between atoms: C2_2  and  C4_4 
REMARK    2  A    between atoms: C4_4  and  C5_6 
REMARK    3  A    between atoms: C5_6  and  O2_7 
REMARK    4  A    between atoms: C5_6  and  C6_9 
REMARK    5  A    between atoms: C6_9  and  O3_10 
REMARK    6  A    between atoms: C6_9  and  C7_12 
REMARK    7  A    between atoms: C15_20  and  C16_21 
REMARK    8  A    between atoms: C25_30  and  O4_31 
REMARK    9  A    between atoms: C29_36  and  O5_37 
ROOT
HETATM    1  C7  UNL     1     -11.336   9.383 -26.415  1.00  0.00     0.157 C 
HETATM    2  C8  UNL     1     -10.517   8.140 -26.269  1.00  0.00     0.045 C 
HETATM    3  C9  UNL     1     -10.198   7.891 -24.771  1.00  0.00    -0.025 C 
HETATM    4  C10 UNL     1      -9.627   9.251 -24.396  1.00  0.00     0.016 C 
HETATM    5  C11 UNL     1      -9.325   6.753 -24.493  1.00  0.00     0.009 C 
HETATM    6  C12 UNL     1      -9.910   5.608 -23.719  1.00  0.00     0.020 C 
HETATM    7  C13 UNL     1      -8.972   4.758 -22.922  1.00  0.00     0.013 C 
HETATM    8  C14 UNL     1      -7.628   4.505 -23.445  1.00  0.00    -0.005 C 
HETATM    9  C15 UNL     1      -7.478   3.297 -24.313  1.00  0.00    -0.007 C 
HETATM   10  C19 UNL     1      -6.463   3.717 -25.386  1.00  0.00     0.006 C 
HETATM   11  C20 UNL     1      -7.009   5.140 -25.657  1.00  0.00     0.006 C 
HETATM   12  C21 UNL     1      -7.160   5.611 -24.282  1.00  0.00    -0.002 C 
HETATM   13  C22 UNL     1      -7.907   6.938 -24.068  1.00  0.00    -0.039 C 
HETATM   14  C23 UNL     1      -7.669   7.271 -22.624  1.00  0.00     0.015 C 
HETATM   15  C24 UNL     1      -7.078   7.896 -24.885  1.00  0.00     0.015 C 
HETATM   16  C25 UNL     1     -11.002   5.957 -22.745  1.00  0.00     0.123 C 
HETATM   17  C26 UNL     1     -11.614   7.289 -22.883  1.00  0.00     0.046 C 
HETATM   18  C27 UNL     1     -11.643   7.719 -24.293  1.00  0.00     0.016 C 
HETATM   19  C28 UNL     1     -12.473   6.813 -25.126  1.00  0.00     0.021 C 
HETATM   20  C29 UNL     1     -12.413   9.047 -24.375  1.00  0.00     0.266 C 
HETATM   21  O6  UNL     1     -12.426   9.539 -25.640  1.00  0.00    -0.353 OA
ENDROOT
BRANCH   1  22
HETATM   22  C6  UNL     1     -11.823   9.411 -27.876  1.00  0.00     0.183 C 
BRANCH  22  23
HETATM   23  C5  UNL     1     -13.311   9.314 -27.968  1.00  0.00     0.219 C 
BRANCH  23  24
HETATM   24  C4  UNL     1     -13.718   9.949 -29.251  1.00  0.00     0.161 C 
HETATM   25  O1  UNL     1     -13.241   9.551 -30.291  1.00  0.00    -0.295 OA
BRANCH  24  26
HETATM   26  C2  UNL     1     -14.700  11.063 -29.286  1.00  0.00     0.050 C 
HETATM   27  C1  UNL     1     -15.936  10.652 -30.057  1.00  0.00     0.017 C 
HETATM   28  C3  UNL     1     -15.123  11.504 -27.924  1.00  0.00     0.017 C 
ENDBRANCH  24  26
ENDBRANCH  23  24
BRANCH  23  29
HETATM   29  O2  UNL     1     -13.691   7.984 -28.006  1.00  0.00    -0.385 OA
ATOM     30  H2  UNL     1     -12.916   7.459 -28.166  1.00  0.00     0.210 HD
ENDBRANCH  23  29
ENDBRANCH  22  23
BRANCH  22  31
HETATM   31  O3  UNL     1     -11.168   8.423 -28.597  1.00  0.00    -0.390 OA
ATOM     32  H3  UNL     1     -10.265   8.304 -28.328  1.00  0.00     0.210 HD
ENDBRANCH  22  31
ENDBRANCH   1  22
BRANCH  20  33
HETATM   33  O5  UNL     1     -13.767   8.657 -24.128  1.00  0.00    -0.370 OA
ATOM     34  H5  UNL     1     -14.128   9.403 -23.664  1.00  0.00     0.212 HD
ENDBRANCH  20  33
BRANCH  16  35
HETATM   35  O4  UNL     1     -12.036   4.988 -22.779  1.00  0.00    -0.395 OA
ATOM     36  H4  UNL     1     -12.464   4.921 -21.933  1.00  0.00     0.210 HD
ENDBRANCH  16  35
BRANCH   9  37
HETATM   37  C16 UNL     1      -7.021   2.071 -23.615  1.00  0.00    -0.018 C 
HETATM   38  C17 UNL     1      -6.202   1.126 -24.427  1.00  0.00     0.010 C 
HETATM   39  C18 UNL     1      -8.202   1.288 -23.059  1.00  0.00     0.010 C 
ENDBRANCH   9  37
TORSDOF 9
ENDMDL
MODEL 4
REMARK VINA RESULT: -6.777226497      0.897      1.137
REMARK  9 active torsions:
REMARK  status: ('A' for Active; 'I' for Inactive)
REMARK    1  A    between atoms: C2_2  and  C4_4 
REMARK    2  A    between atoms: C4_4  and  C5_6 
REMARK    3  A    between atoms: C5_6  and  O2_7 
REMARK    4  A    between atoms: C5_6  and  C6_9 
REMARK    5  A    between atoms: C6_9  and  O3_10 
REMARK    6  A    between atoms: C6_9  and  C7_12 
REMARK    7  A    between atoms: C15_20  and  C16_21 
REMARK    8  A    between atoms: C25_30  and  O4_31 
REMARK    9  A    between atoms: C29_36  and  O5_37 
ROOT
HETATM    1  C7  UNL     1       0.088  -0.657 -24.126  1.00  0.00     0.157 C 
HETATM    2  C8  UNL     1       0.849  -1.643 -24.954  1.00  0.00     0.045 C 
HETATM    3  C9  UNL     1       2.346  -1.238 -25.012  1.00  0.00    -0.025 C 
HETATM    4  C10 UNL     1       2.209   0.211 -25.453  1.00  0.00     0.016 C 
HETATM    5  C11 UNL     1       3.192  -2.070 -25.864  1.00  0.00     0.009 C 
HETATM    6  C12 UNL     1       4.273  -2.868 -25.196  1.00  0.00     0.020 C 
HETATM    7  C13 UNL     1       5.477  -3.223 -26.011  1.00  0.00     0.013 C 
HETATM    8  C14 UNL     1       5.307  -3.517 -27.435  1.00  0.00    -0.005 C 
HETATM    9  C15 UNL     1       5.044  -4.947 -27.784  1.00  0.00    -0.007 C 
HETATM   10  C19 UNL     1       4.054  -4.882 -28.957  1.00  0.00     0.006 C 
HETATM   11  C20 UNL     1       3.146  -3.752 -28.412  1.00  0.00     0.006 C 
HETATM   12  C21 UNL     1       4.168  -2.792 -28.000  1.00  0.00    -0.002 C 
HETATM   13  C22 UNL     1       3.706  -1.579 -27.176  1.00  0.00    -0.039 C 
HETATM   14  C23 UNL     1       4.904  -0.674 -27.141  1.00  0.00     0.015 C 
HETATM   15  C24 UNL     1       2.698  -0.942 -28.100  1.00  0.00     0.015 C 
HETATM   16  C25 UNL     1       4.846  -2.280 -23.936  1.00  0.00     0.123 C 
HETATM   17  C26 UNL     1       4.086  -1.188 -23.307  1.00  0.00     0.046 C 
HETATM   18  C27 UNL     1       2.636  -1.361 -23.512  1.00  0.00     0.016 C 
HETATM   19  C28 UNL     1       2.137  -2.608 -22.879  1.00  0.00     0.021 C 
HETATM   20  C29 UNL     1       1.904  -0.267 -22.718  1.00  0.00     0.266 C 
HETATM   21  O6  UNL     1       0.561  -0.324 -22.910  1.00  0.00    -0.353 OA
ENDROOT
BRANCH   1  22
HETATM   22  C6  UNL     1      -1.310  -1.266 -23.906  1.00  0.00     0.183 C 
BRANCH  22  23
HETATM   23  C5  UNL     1      -1.700  -2.182 -25.020  1.00  0.00     0.219 C 
BRANCH  23  24
HETATM   24  C4  UNL     1      -2.190  -3.445 -24.405  1.00  0.00     0.161 C 
HETATM   25  O1  UNL     1      -2.984  -3.394 -23.491  1.00  0.00    -0.295 OA
BRANCH  24  26
HETATM   26  C2  UNL     1      -1.728  -4.772 -24.887  1.00  0.00     0.050 C 
HETATM   27  C1  UNL     1      -0.815  -4.609 -26.083  1.00  0.00     0.017 C 
HETATM   28  C3  UNL     1      -0.996  -5.544 -23.840  1.00  0.00     0.017 C 
ENDBRANCH  24  26
ENDBRANCH  23  24
BRANCH  23  29
HETATM   29  O2  UNL     1      -2.738  -1.623 -25.743  1.00  0.00    -0.385 OA
ATOM     30  H2  UNL     1      -3.388  -1.304 -25.129  1.00  0.00     0.210 HD
ENDBRANCH  23  29
ENDBRANCH  22  23
BRANCH  22  31
HETATM   31  O3  UNL     1      -2.227  -0.246 -23.695  1.00  0.00    -0.390 OA
ATOM     32  H3  UNL     1      -3.128  -0.547 -23.713  1.00  0.00     0.210 HD
ENDBRANCH  22  31
ENDBRANCH   1  22
BRANCH  20  33
HETATM   33  O5  UNL     1       2.088  -0.671 -21.357  1.00  0.00    -0.370 OA
ATOM     34  H5  UNL     1       1.206  -0.655 -21.004  1.00  0.00     0.212 HD
ENDBRANCH  20  33
BRANCH  16  35
HETATM   35  O4  UNL     1       5.063  -3.288 -22.963  1.00  0.00    -0.395 OA
ATOM     36  H4  UNL     1       4.470  -3.183 -22.229  1.00  0.00     0.210 HD
ENDBRANCH  16  35
BRANCH   9  37
HETATM   37  C16 UNL     1       6.243  -5.736 -28.157  1.00  0.00    -0.018 C 
HETATM   38  C17 UNL     1       6.950  -6.417 -27.034  1.00  0.00     0.010 C 
HETATM   39  C18 UNL     1       7.264  -4.868 -28.879  1.00  0.00     0.010 C 
ENDBRANCH   9  37
TORSDOF 9
ENDMDL
MODEL 5
REMARK VINA RESULT: -6.742217409      1.763      2.814
REMARK  9 active torsions:
REMARK  status: ('A' for Active; 'I' for Inactive)
REMARK    1  A    between atoms: C2_2  and  C4_4 
REMARK    2  A    between atoms: C4_4  and  C5_6 
REMARK    3  A    between atoms: C5_6  and  O2_7 
REMARK    4  A    between atoms: C5_6  and  C6_9 
REMARK    5  A    between atoms: C6_9  and  O3_10 
REMARK    6  A    between atoms: C6_9  and  C7_12 
REMARK    7  A    between atoms: C15_20  and  C16_21 
REMARK    8  A    between atoms: C25_30  and  O4_31 
REMARK    9  A    between atoms: C29_36  and  O5_37 
ROOT
HETATM    1  C7  UNL     1       1.997  -1.683 -26.614  1.00  0.00     0.157 C 
HETATM    2  C8  UNL     1       2.519  -3.025 -27.017  1.00  0.00     0.045 C 
HETATM    3  C9  UNL     1       4.070  -3.030 -26.949  1.00  0.00    -0.025 C 
HETATM    4  C10 UNL     1       4.371  -1.792 -27.781  1.00  0.00     0.016 C 
HETATM    5  C11 UNL     1       4.718  -4.257 -27.405  1.00  0.00     0.009 C 
HETATM    6  C12 UNL     1       5.481  -5.053 -26.387  1.00  0.00     0.020 C 
HETATM    7  C13 UNL     1       6.601  -5.916 -26.879  1.00  0.00     0.013 C 
HETATM    8  C14 UNL     1       6.469  -6.574 -28.181  1.00  0.00    -0.005 C 
HETATM    9  C15 UNL     1       5.850  -7.935 -28.167  1.00  0.00    -0.007 C 
HETATM   10  C19 UNL     1       5.011  -7.989 -29.453  1.00  0.00     0.006 C 
HETATM   11  C20 UNL     1       4.409  -6.564 -29.380  1.00  0.00     0.006 C 
HETATM   12  C21 UNL     1       5.621  -5.801 -29.089  1.00  0.00    -0.002 C 
HETATM   13  C22 UNL     1       5.448  -4.322 -28.704  1.00  0.00    -0.039 C 
HETATM   14  C23 UNL     1       6.842  -3.765 -28.729  1.00  0.00     0.015 C 
HETATM   15  C24 UNL     1       4.730  -3.769 -29.910  1.00  0.00     0.015 C 
HETATM   16  C25 UNL     1       6.094  -4.269 -25.259  1.00  0.00     0.123 C 
HETATM   17  C26 UNL     1       5.617  -2.889 -25.073  1.00  0.00     0.046 C 
HETATM   18  C27 UNL     1       4.197  -2.762 -25.446  1.00  0.00     0.016 C 
HETATM   19  C28 UNL     1       3.326  -3.602 -24.586  1.00  0.00     0.021 C 
HETATM   20  C29 UNL     1       3.734  -1.337 -25.099  1.00  0.00     0.266 C 
HETATM   21  O6  UNL     1       2.447  -1.125 -25.475  1.00  0.00    -0.353 OA
ENDROOT
BRANCH   1  22
HETATM   22  C6  UNL     1       0.473  -1.843 -26.457  1.00  0.00     0.183 C 
BRANCH  22  23
HETATM   23  C5  UNL     1       0.066  -3.279 -26.398  1.00  0.00     0.219 C 
BRANCH  23  24
HETATM   24  C4  UNL     1      -0.463  -3.534 -25.031  1.00  0.00     0.161 C 
HETATM   25  O1  UNL     1      -0.024  -2.904 -24.094  1.00  0.00    -0.295 OA
BRANCH  24  26
HETATM   26  C2  UNL     1      -1.524  -4.546 -24.788  1.00  0.00     0.050 C 
HETATM   27  C1  UNL     1      -1.016  -5.628 -23.860  1.00  0.00     0.017 C 
HETATM   28  C3  UNL     1      -2.757  -3.957 -24.189  1.00  0.00     0.017 C 
ENDBRANCH  24  26
ENDBRANCH  23  24
BRANCH  23  29
HETATM   29  O2  UNL     1      -0.950  -3.515 -27.306  1.00  0.00    -0.385 OA
ATOM     30  H2  UNL     1      -1.311  -4.376 -27.130  1.00  0.00     0.210 HD
ENDBRANCH  23  29
ENDBRANCH  22  23
BRANCH  22  31
HETATM   31  O3  UNL     1      -0.169  -1.138 -27.466  1.00  0.00    -0.390 OA
ATOM     32  H3  UNL     1      -0.048  -0.198 -27.398  1.00  0.00     0.210 HD
ENDBRANCH  22  31
ENDBRANCH   1  22
BRANCH  20  33
HETATM   33  O5  UNL     1       3.693  -1.345 -23.669  1.00  0.00    -0.370 OA
ATOM     34  H5  UNL     1       3.212  -0.552 -23.460  1.00  0.00     0.212 HD
ENDBRANCH  20  33
BRANCH  16  35
HETATM   35  O4  UNL     1       5.948  -4.959 -24.029  1.00  0.00    -0.395 OA
ATOM     36  H4  UNL     1       5.883  -4.348 -23.305  1.00  0.00     0.210 HD
ENDBRANCH  16  35
BRANCH   9  37
HETATM   37  C16 UNL     1       6.811  -9.064 -28.124  1.00  0.00    -0.018 C 
HETATM   38  C17 UNL     1       7.161  -9.672 -29.439  1.00  0.00     0.010 C 
HETATM   39  C18 UNL     1       6.297 -10.182 -27.228  1.00  0.00     0.010 C 
ENDBRANCH   9  37
TORSDOF 9
ENDMDL
