MODEL 1
REMARK VINA RESULT: -6.958105926      0.000      0.000
REMARK  8 active torsions:
REMARK  status: ('A' for Active; 'I' for Inactive)
REMARK    1  A    between atoms: C2_2  and  C3_3 
REMARK    2  A    between atoms: C2_2  and  C10_13 
REMARK    3  A    between atoms: C3_3  and  C4_4 
REMARK    4  A    between atoms: C4_4  and  O2_6 
REMARK    5  A    between atoms: O2_6  and  C5_7 
REMARK    6  A    between atoms: C22_25  and  C23_26 
REMARK    7  A    between atoms: C22_25  and  C24_29 
REMARK    8  A    between atoms: C27_34  and  O8_35 
ROOT
HETATM    1  C10 UNL     1     -10.442   6.537 -23.124  1.00  0.00    -0.001 C 
HETATM    2  C11 UNL     1     -11.973   6.369 -23.408  1.00  0.00     0.011 C 
HETATM    3  C12 UNL     1     -11.539   6.980 -24.680  1.00  0.00     0.002 C 
HETATM    4  C13 UNL     1     -12.262   7.454 -25.787  1.00  0.00     0.030 C 
HETATM    5  C14 UNL     1     -11.503   8.538 -26.544  1.00  0.00    -0.006 C 
HETATM    6  C15 UNL     1     -10.418   9.214 -25.783  1.00  0.00     0.006 C 
HETATM    7  C16 UNL     1      -9.669   8.352 -24.817  1.00  0.00     0.010 C 
HETATM    8  C17 UNL     1     -10.645   7.815 -23.791  1.00  0.00    -0.036 C 
HETATM    9  C18 UNL     1     -11.119   8.876 -22.941  1.00  0.00     0.016 C 
HETATM   10  C19 UNL     1     -12.535   9.469 -27.140  1.00  0.00     0.019 C 
HETATM   11  C20 UNL     1     -13.805   9.198 -26.556  1.00  0.00     0.016 C 
HETATM   12  C21 UNL     1     -14.080  10.186 -25.426  1.00  0.00     0.020 C 
HETATM   13  C22 UNL     1     -15.090   9.039 -27.206  1.00  0.00     0.146 C 
HETATM   14  C25 UNL     1     -15.849   8.267 -26.125  1.00  0.00     0.036 C 
HETATM   15  C26 UNL     1     -14.782   7.763 -25.116  1.00  0.00     0.041 C 
HETATM   16  C27 UNL     1     -13.631   7.770 -25.991  1.00  0.00     0.071 C 
ENDROOT
BRANCH   1  17
HETATM   17  C2  UNL     1     -10.016   6.203 -21.786  1.00  0.00    -0.005 C 
HETATM   18  C1  UNL     1      -8.500   6.527 -21.583  1.00  0.00     0.011 C 
BRANCH  17  19
HETATM   19  C3  UNL     1     -10.303   4.853 -21.200  1.00  0.00     0.115 C 
BRANCH  19  20
HETATM   20  C4  UNL     1     -10.038   3.782 -22.261  1.00  0.00     0.259 C 
HETATM   21  O1  UNL     1     -10.998   3.238 -22.864  1.00  0.00    -0.265 OA
BRANCH  20  22
HETATM   22  O2  UNL     1      -8.759   3.401 -22.569  1.00  0.00    -0.316 OA
BRANCH  22  23
HETATM   23  C5  UNL     1      -8.295   3.060 -23.857  1.00  0.00     0.136 C 
HETATM   24  C6  UNL     1      -7.212   2.036 -23.834  1.00  0.00     0.059 C 
HETATM   25  C7  UNL     1      -6.008   2.571 -24.585  1.00  0.00     0.170 C 
HETATM   26  O3  UNL     1      -6.469   2.925 -25.858  1.00  0.00    -0.391 OA
HETATM   27  C8  UNL     1      -7.042   4.187 -25.735  1.00  0.00     0.170 C 
HETATM   28  C9  UNL     1      -7.849   4.368 -24.493  1.00  0.00     0.059 C 
ENDBRANCH  22  23
ENDBRANCH  20  22
ENDBRANCH  19  20
ENDBRANCH  17  19
ENDBRANCH   1  17
BRANCH  16  29
HETATM   29  O8  UNL     1     -14.175   6.893 -27.005  1.00  0.00    -0.389 OA
ATOM     30  H8  UNL     1     -14.208   6.007 -26.666  1.00  0.00     0.210 HD
ENDBRANCH  16  29
BRANCH  13  31
HETATM   31  C23 UNL     1     -15.212   8.501 -28.555  1.00  0.00     0.193 C 
HETATM   32  O4  UNL     1     -14.458   8.811 -29.460  1.00  0.00    -0.647 OA
HETATM   33  O5  UNL     1     -16.239   7.599 -28.805  1.00  0.00    -0.647 OA
ENDBRANCH  13  31
BRANCH  13  34
HETATM   34  C24 UNL     1     -15.830  10.357 -27.370  1.00  0.00     0.193 C 
HETATM   35  O6  UNL     1     -16.967  10.498 -26.897  1.00  0.00    -0.647 OA
HETATM   36  O7  UNL     1     -15.205  11.407 -28.058  1.00  0.00    -0.647 OA
ENDBRANCH  13  34
TORSDOF 8
ENDMDL
MODEL 2
REMARK VINA RESULT: -6.619869877      3.426      6.542
REMARK  8 active torsions:
REMARK  status: ('A' for Active; 'I' for Inactive)
REMARK    1  A    between atoms: C2_2  and  C3_3 
REMARK    2  A    between atoms: C2_2  and  C10_13 
REMARK    3  A    between atoms: C3_3  and  C4_4 
REMARK    4  A    between atoms: C4_4  and  O2_6 
REMARK    5  A    between atoms: O2_6  and  C5_7 
REMARK    6  A    between atoms: C22_25  and  C23_26 
REMARK    7  A    between atoms: C22_25  and  C24_29 
REMARK    8  A    between atoms: C27_34  and  O8_35 
ROOT
HETATM    1  C10 UNL     1      -6.272   3.611 -24.242  1.00  0.00    -0.001 C 
HETATM    2  C11 UNL     1      -6.519   5.123 -24.565  1.00  0.00     0.011 C 
HETATM    3  C12 UNL     1      -7.480   4.935 -23.461  1.00  0.00     0.002 C 
HETATM    4  C13 UNL     1      -8.473   5.773 -22.928  1.00  0.00     0.030 C 
HETATM    5  C14 UNL     1      -9.601   4.981 -22.276  1.00  0.00    -0.006 C 
HETATM    6  C15 UNL     1      -9.712   3.558 -22.692  1.00  0.00     0.006 C 
HETATM    7  C16 UNL     1      -8.419   2.864 -22.981  1.00  0.00     0.010 C 
HETATM    8  C17 UNL     1      -7.721   3.591 -24.112  1.00  0.00    -0.036 C 
HETATM    9  C18 UNL     1      -8.439   3.412 -25.346  1.00  0.00     0.016 C 
HETATM   10  C19 UNL     1     -10.867   5.792 -22.443  1.00  0.00     0.019 C 
HETATM   11  C20 UNL     1     -10.637   6.834 -23.386  1.00  0.00     0.016 C 
HETATM   12  C21 UNL     1     -11.143   6.413 -24.761  1.00  0.00     0.020 C 
HETATM   13  C22 UNL     1     -10.987   8.237 -23.294  1.00  0.00     0.146 C 
HETATM   14  C25 UNL     1     -10.016   8.828 -24.317  1.00  0.00     0.036 C 
HETATM   15  C26 UNL     1      -8.969   7.722 -24.618  1.00  0.00     0.041 C 
HETATM   16  C27 UNL     1      -9.096   6.960 -23.395  1.00  0.00     0.071 C 
ENDROOT
BRANCH   1  17
HETATM   17  C2  UNL     1      -5.371   2.922 -25.135  1.00  0.00    -0.005 C 
HETATM   18  C1  UNL     1      -5.104   3.768 -26.422  1.00  0.00     0.011 C 
BRANCH  17  19
HETATM   19  C3  UNL     1      -5.622   1.499 -25.536  1.00  0.00     0.115 C 
BRANCH  19  20
HETATM   20  C4  UNL     1      -4.413   0.981 -26.319  1.00  0.00     0.259 C 
HETATM   21  O1  UNL     1      -4.565   0.494 -27.469  1.00  0.00    -0.265 OA
BRANCH  20  22
HETATM   22  O2  UNL     1      -3.153   1.040 -25.785  1.00  0.00    -0.316 OA
BRANCH  22  23
HETATM   23  C5  UNL     1      -2.244  -0.036 -25.713  1.00  0.00     0.136 C 
HETATM   24  C6  UNL     1      -2.781  -1.205 -24.960  1.00  0.00     0.059 C 
HETATM   25  C7  UNL     1      -1.815  -1.563 -23.847  1.00  0.00     0.170 C 
HETATM   26  O3  UNL     1      -0.574  -1.766 -24.459  1.00  0.00    -0.391 OA
HETATM   27  C8  UNL     1      -0.009  -0.506 -24.639  1.00  0.00     0.170 C 
HETATM   28  C9  UNL     1      -0.981   0.534 -25.085  1.00  0.00     0.059 C 
ENDBRANCH  22  23
ENDBRANCH  20  22
ENDBRANCH  19  20
ENDBRANCH  17  19
ENDBRANCH   1  17
BRANCH  16  29
HETATM   29  O8  UNL     1      -8.800   8.043 -22.482  1.00  0.00    -0.389 OA
ATOM     30  H8  UNL     1      -8.562   7.682 -21.637  1.00  0.00     0.210 HD
ENDBRANCH  16  29
BRANCH  13  31
HETATM   31  C23 UNL     1     -11.046   8.937 -22.018  1.00  0.00     0.193 C 
HETATM   32  O4  UNL     1     -11.458   8.415 -20.996  1.00  0.00    -0.647 OA
HETATM   33  O5  UNL     1     -10.614  10.257 -21.979  1.00  0.00    -0.647 OA
ENDBRANCH  13  31
BRANCH  13  34
HETATM   34  C24 UNL     1     -12.380   8.528 -23.830  1.00  0.00     0.193 C 
HETATM   35  O6  UNL     1     -12.560   9.458 -24.629  1.00  0.00    -0.647 OA
HETATM   36  O7  UNL     1     -13.451   7.727 -23.410  1.00  0.00    -0.647 OA
ENDBRANCH  13  34
TORSDOF 8
ENDMDL
MODEL 3
REMARK VINA RESULT: -6.524641014     16.172     21.977
REMARK  8 active torsions:
REMARK  status: ('A' for Active; 'I' for Inactive)
REMARK    1  A    between atoms: C2_2  and  C3_3 
REMARK    2  A    between atoms: C2_2  and  C10_13 
REMARK    3  A    between atoms: C3_3  and  C4_4 
REMARK    4  A    between atoms: C4_4  and  O2_6 
REMARK    5  A    between atoms: O2_6  and  C5_7 
REMARK    6  A    between atoms: C22_25  and  C23_26 
REMARK    7  A    between atoms: C22_25  and  C24_29 
REMARK    8  A    between atoms: C27_34  and  O8_35 
ROOT
HETATM    1  C10 UNL     1       4.716  -3.098 -25.373  1.00  0.00    -0.001 C 
HETATM    2  C11 UNL     1       4.739  -4.617 -24.995  1.00  0.00     0.011 C 
HETATM    3  C12 UNL     1       5.878  -4.567 -25.931  1.00  0.00     0.002 C 
HETATM    4  C13 UNL     1       6.677  -5.577 -26.491  1.00  0.00     0.030 C 
HETATM    5  C14 UNL     1       7.272  -5.158 -27.832  1.00  0.00    -0.006 C 
HETATM    6  C15 UNL     1       6.588  -4.029 -28.515  1.00  0.00     0.006 C 
HETATM    7  C16 UNL     1       6.023  -2.974 -27.617  1.00  0.00     0.010 C 
HETATM    8  C17 UNL     1       4.996  -3.613 -26.705  1.00  0.00    -0.036 C 
HETATM    9  C18 UNL     1       3.837  -4.019 -27.456  1.00  0.00     0.016 C 
HETATM   10  C19 UNL     1       7.415  -6.412 -28.665  1.00  0.00     0.019 C 
HETATM   11  C20 UNL     1       6.686  -7.470 -28.051  1.00  0.00     0.016 C 
HETATM   12  C21 UNL     1       5.317  -7.610 -28.709  1.00  0.00     0.020 C 
HETATM   13  C22 UNL     1       7.101  -8.836 -27.804  1.00  0.00     0.146 C 
HETATM   14  C25 UNL     1       6.121  -9.223 -26.695  1.00  0.00     0.036 C 
HETATM   15  C26 UNL     1       5.487  -7.899 -26.189  1.00  0.00     0.041 C 
HETATM   16  C27 UNL     1       6.534  -6.986 -26.591  1.00  0.00     0.071 C 
ENDROOT
BRANCH   1  17
HETATM   17  C2  UNL     1       3.607  -2.340 -24.843  1.00  0.00    -0.005 C 
HETATM   18  C1  UNL     1       3.483  -0.956 -25.559  1.00  0.00     0.011 C 
BRANCH  17  19
HETATM   19  C3  UNL     1       3.448  -2.136 -23.367  1.00  0.00     0.115 C 
BRANCH  19  20
HETATM   20  C4  UNL     1       1.956  -2.129 -23.022  1.00  0.00     0.259 C 
HETATM   21  O1  UNL     1       1.384  -1.053 -22.712  1.00  0.00    -0.265 OA
BRANCH  20  22
HETATM   22  O2  UNL     1       1.225  -3.287 -23.047  1.00  0.00    -0.316 OA
BRANCH  22  23
HETATM   23  C5  UNL     1       0.009  -3.472 -23.739  1.00  0.00     0.136 C 
HETATM   24  C6  UNL     1      -0.883  -4.475 -23.091  1.00  0.00     0.059 C 
HETATM   25  C7  UNL     1      -1.248  -5.541 -24.106  1.00  0.00     0.170 C 
HETATM   26  O3  UNL     1      -1.802  -4.866 -25.198  1.00  0.00    -0.391 OA
HETATM   27  C8  UNL     1      -0.734  -4.404 -25.963  1.00  0.00     0.170 C 
HETATM   28  C9  UNL     1       0.399  -3.865 -25.156  1.00  0.00     0.059 C 
ENDBRANCH  22  23
ENDBRANCH  20  22
ENDBRANCH  19  20
ENDBRANCH  17  19
ENDBRANCH   1  17
BRANCH  16  29
HETATM   29  O8  UNL     1       7.612  -7.625 -25.867  1.00  0.00    -0.389 OA
ATOM     30  H8  UNL     1       7.406  -8.544 -25.749  1.00  0.00     0.210 HD
ENDBRANCH  16  29
BRANCH  13  31
HETATM   31  C23 UNL     1       8.493  -9.188 -27.553  1.00  0.00     0.193 C 
HETATM   32  O4  UNL     1       9.427  -8.558 -28.018  1.00  0.00    -0.647 OA
HETATM   33  O5  UNL     1       8.750 -10.293 -26.750  1.00  0.00    -0.647 OA
ENDBRANCH  13  31
BRANCH  13  34
HETATM   34  C24 UNL     1       6.792  -9.762 -28.970  1.00  0.00     0.193 C 
HETATM   35  O6  UNL     1       6.009 -10.712 -28.824  1.00  0.00    -0.647 OA
HETATM   36  O7  UNL     1       7.400  -9.520 -30.210  1.00  0.00    -0.647 OA
ENDBRANCH  13  34
TORSDOF 8
ENDMDL
MODEL 4
REMARK VINA RESULT: -6.508497569      2.762      4.137
REMARK  8 active torsions:
REMARK  status: ('A' for Active; 'I' for Inactive)
REMARK    1  A    between atoms: C2_2  and  C3_3 
REMARK    2  A    between atoms: C2_2  and  C10_13 
REMARK    3  A    between atoms: C3_3  and  C4_4 
REMARK    4  A    between atoms: C4_4  and  O2_6 
REMARK    5  A    between atoms: O2_6  and  C5_7 
REMARK    6  A    between atoms: C22_25  and  C23_26 
REMARK    7  A    between atoms: C22_25  and  C24_29 
REMARK    8  A    between atoms: C27_34  and  O8_35 
ROOT
HETATM    1  C10 UNL     1      -9.080   4.491 -24.152  1.00  0.00    -0.001 C 
HETATM    2  C11 UNL     1     -10.548   5.033 -24.215  1.00  0.00     0.011 C 
HETATM    3  C12 UNL     1      -9.803   6.270 -24.519  1.00  0.00     0.002 C 
HETATM    4  C13 UNL     1     -10.218   7.604 -24.661  1.00  0.00     0.030 C 
HETATM    5  C14 UNL     1      -9.100   8.589 -24.338  1.00  0.00    -0.006 C 
HETATM    6  C15 UNL     1      -7.979   8.046 -23.526  1.00  0.00     0.006 C 
HETATM    7  C16 UNL     1      -7.627   6.615 -23.780  1.00  0.00     0.010 C 
HETATM    8  C17 UNL     1      -8.837   5.756 -23.475  1.00  0.00    -0.036 C 
HETATM    9  C18 UNL     1      -9.108   5.751 -22.061  1.00  0.00     0.016 C 
HETATM   10  C19 UNL     1      -9.751   9.831 -23.772  1.00  0.00     0.019 C 
HETATM   11  C20 UNL     1     -11.111   9.548 -23.459  1.00  0.00     0.016 C 
HETATM   12  C21 UNL     1     -11.247   9.225 -21.975  1.00  0.00     0.020 C 
HETATM   13  C22 UNL     1     -12.295  10.326 -23.763  1.00  0.00     0.146 C 
HETATM   14  C25 UNL     1     -13.369   9.244 -23.647  1.00  0.00     0.036 C 
HETATM   15  C26 UNL     1     -12.622   7.883 -23.639  1.00  0.00     0.041 C 
HETATM   16  C27 UNL     1     -11.410   8.293 -24.312  1.00  0.00     0.071 C 
ENDROOT
BRANCH   1  17
HETATM   17  C2  UNL     1      -8.939   3.121 -23.720  1.00  0.00    -0.005 C 
HETATM   18  C1  UNL     1     -10.125   2.702 -22.792  1.00  0.00     0.011 C 
BRANCH  17  19
HETATM   19  C3  UNL     1      -7.657   2.631 -23.116  1.00  0.00     0.115 C 
BRANCH  19  20
HETATM   20  C4  UNL     1      -6.792   2.011 -24.217  1.00  0.00     0.259 C 
HETATM   21  O1  UNL     1      -6.342   0.844 -24.086  1.00  0.00    -0.265 OA
BRANCH  20  22
HETATM   22  O2  UNL     1      -6.496   2.713 -25.355  1.00  0.00    -0.316 OA
BRANCH  22  23
HETATM   23  C5  UNL     1      -5.663   3.850 -25.422  1.00  0.00     0.136 C 
HETATM   24  C6  UNL     1      -6.105   4.837 -26.448  1.00  0.00     0.059 C 
HETATM   25  C7  UNL     1      -4.953   5.119 -27.393  1.00  0.00     0.170 C 
HETATM   26  O3  UNL     1      -3.883   5.529 -26.591  1.00  0.00    -0.391 OA
HETATM   27  C8  UNL     1      -3.288   4.370 -26.099  1.00  0.00     0.170 C 
HETATM   28  C9  UNL     1      -4.263   3.318 -25.688  1.00  0.00     0.059 C 
ENDBRANCH  22  23
ENDBRANCH  20  22
ENDBRANCH  19  20
ENDBRANCH  17  19
ENDBRANCH   1  17
BRANCH  16  29
HETATM   29  O8  UNL     1     -12.038   8.795 -25.515  1.00  0.00    -0.389 OA
ATOM     30  H8  UNL     1     -12.399   8.066 -26.005  1.00  0.00     0.210 HD
ENDBRANCH  16  29
BRANCH  13  31
HETATM   31  C23 UNL     1     -12.385  11.166 -24.950  1.00  0.00     0.193 C 
HETATM   32  O4  UNL     1     -11.422  11.743 -25.424  1.00  0.00    -0.647 OA
HETATM   33  O5  UNL     1     -13.628  11.308 -25.554  1.00  0.00    -0.647 OA
ENDBRANCH  13  31
BRANCH  13  34
HETATM   34  C24 UNL     1     -12.618  11.345 -22.682  1.00  0.00     0.193 C 
HETATM   35  O6  UNL     1     -11.752  12.143 -22.296  1.00  0.00    -0.647 OA
HETATM   36  O7  UNL     1     -13.909  11.370 -22.135  1.00  0.00    -0.647 OA
ENDBRANCH  13  34
TORSDOF 8
ENDMDL
MODEL 5
REMARK VINA RESULT: -6.454503820      3.483      6.446
REMARK  8 active torsions:
REMARK  status: ('A' for Active; 'I' for Inactive)
REMARK    1  A    between atoms: C2_2  and  C3_3 
REMARK    2  A    between atoms: C2_2  and  C10_13 
REMARK    3  A    between atoms: C3_3  and  C4_4 
REMARK    4  A    between atoms: C4_4  and  O2_6 
REMARK    5  A    between atoms: O2_6  and  C5_7 
REMARK    6  A    between atoms: C22_25  and  C23_26 
REMARK    7  A    between atoms: C22_25  and  C24_29 
REMARK    8  A    between atoms: C27_34  and  O8_35 
ROOT
HETATM    1  C10 UNL     1      -6.682   3.499 -24.199  1.00  0.00    -0.001 C 
HETATM    2  C11 UNL     1      -6.833   4.991 -24.650  1.00  0.00     0.011 C 
HETATM    3  C12 UNL     1      -7.745   4.978 -23.490  1.00  0.00     0.002 C 
HETATM    4  C13 UNL     1      -8.643   5.936 -22.991  1.00  0.00     0.030 C 
HETATM    5  C14 UNL     1      -9.791   5.296 -22.216  1.00  0.00    -0.006 C 
HETATM    6  C15 UNL     1     -10.029   3.855 -22.493  1.00  0.00     0.006 C 
HETATM    7  C16 UNL     1      -8.808   3.038 -22.777  1.00  0.00     0.010 C 
HETATM    8  C17 UNL     1      -8.120   3.604 -24.001  1.00  0.00    -0.036 C 
HETATM    9  C18 UNL     1      -8.915   3.374 -25.179  1.00  0.00     0.016 C 
HETATM   10  C19 UNL     1     -11.000   6.186 -22.398  1.00  0.00     0.019 C 
HETATM   11  C20 UNL     1     -10.743   7.119 -23.444  1.00  0.00     0.016 C 
HETATM   12  C21 UNL     1     -11.353   6.618 -24.749  1.00  0.00     0.020 C 
HETATM   13  C22 UNL     1     -10.984   8.547 -23.466  1.00  0.00     0.146 C 
HETATM   14  C25 UNL     1     -10.027   8.967 -24.584  1.00  0.00     0.036 C 
HETATM   15  C26 UNL     1      -9.082   7.759 -24.829  1.00  0.00     0.041 C 
HETATM   16  C27 UNL     1      -9.200   7.122 -23.537  1.00  0.00     0.071 C 
ENDROOT
BRANCH   1  17
HETATM   17  C2  UNL     1      -5.885   2.664 -25.066  1.00  0.00    -0.005 C 
HETATM   18  C1  UNL     1      -5.942   1.170 -24.611  1.00  0.00     0.011 C 
BRANCH  17  19
HETATM   19  C3  UNL     1      -4.463   3.018 -25.383  1.00  0.00     0.115 C 
BRANCH  19  20
HETATM   20  C4  UNL     1      -3.828   1.872 -26.176  1.00  0.00     0.259 C 
HETATM   21  O1  UNL     1      -4.318   1.517 -27.278  1.00  0.00    -0.265 OA
BRANCH  20  22
HETATM   22  O2  UNL     1      -2.722   1.219 -25.700  1.00  0.00    -0.316 OA
BRANCH  22  23
HETATM   23  C5  UNL     1      -2.451  -0.156 -25.861  1.00  0.00     0.136 C 
HETATM   24  C6  UNL     1      -2.948  -0.985 -24.727  1.00  0.00     0.059 C 
HETATM   25  C7  UNL     1      -1.798  -1.802 -24.169  1.00  0.00     0.170 C 
HETATM   26  O3  UNL     1      -1.271  -2.519 -25.247  1.00  0.00    -0.391 OA
HETATM   27  C8  UNL     1      -0.419  -1.650 -25.924  1.00  0.00     0.170 C 
HETATM   28  C9  UNL     1      -0.944  -0.260 -26.046  1.00  0.00     0.059 C 
ENDBRANCH  22  23
ENDBRANCH  20  22
ENDBRANCH  19  20
ENDBRANCH  17  19
ENDBRANCH   1  17
BRANCH  16  29
HETATM   29  O8  UNL     1      -8.776   8.255 -22.743  1.00  0.00    -0.389 OA
ATOM     30  H8  UNL     1      -9.529   8.623 -22.297  1.00  0.00     0.210 HD
ENDBRANCH  16  29
BRANCH  13  31
HETATM   31  C23 UNL     1     -10.922   9.361 -22.259  1.00  0.00     0.193 C 
HETATM   32  O4  UNL     1     -11.363   8.986 -21.187  1.00  0.00    -0.647 OA
HETATM   33  O5  UNL     1     -10.335  10.617 -22.350  1.00  0.00    -0.647 OA
ENDBRANCH  13  31
BRANCH  13  34
HETATM   34  C24 UNL     1     -12.377   8.899 -23.962  1.00  0.00     0.193 C 
HETATM   35  O6  UNL     1     -13.371   8.329 -23.489  1.00  0.00    -0.647 OA
HETATM   36  O7  UNL     1     -12.518   9.878 -24.955  1.00  0.00    -0.647 OA
ENDBRANCH  13  34
TORSDOF 8
ENDMDL
