MODEL 1
REMARK VINA RESULT: -5.737814956      0.000      0.000
REMARK  13 active torsions:
REMARK  status: ('A' for Active; 'I' for Inactive)
REMARK    1  A    between atoms: C2_2  and  C4_4 
REMARK    2  A    between atoms: C4_4  and  O2_6 
REMARK    3  A    between atoms: O2_6  and  C5_7 
REMARK    4  A    between atoms: C7_9  and  C19_23 
REMARK    5  A    between atoms: C9_11  and  C10_12 
REMARK    6  A    between atoms: C10_12  and  O3_13 
REMARK    7  A    between atoms: C16_20  and  C17_21 
REMARK    8  A    between atoms: C21_25  and  C22_26 
REMARK    9  A    between atoms: C25_29  and  O4_30 
REMARK   10  A    between atoms: C26_32  and  O5_33 
REMARK   11  A    between atoms: C27_35  and  N1_36 
REMARK   12  A    between atoms: N1_36  and  C28_39 
REMARK   13  A    between atoms: C28_39  and  C29_40 
ROOT
HETATM    1  C5  UNL     1      -1.250  -1.588 -25.704  1.00  0.00     0.140 C 
HETATM    2  C6  UNL     1      -2.401  -2.084 -24.793  1.00  0.00     0.043 C 
HETATM    3  C7  UNL     1      -2.582  -0.599 -24.476  1.00  0.00    -0.025 C 
HETATM    4  C8  UNL     1      -3.440  -0.021 -25.517  1.00  0.00     0.016 C 
HETATM    5  C9  UNL     1      -1.097  -0.549 -24.632  1.00  0.00     0.059 C 
ENDROOT
BRANCH   1   6
HETATM    6  O2  UNL     1      -0.223  -2.559 -25.767  1.00  0.00    -0.312 OA
BRANCH   6   7
HETATM    7  C4  UNL     1      -0.505  -3.893 -25.533  1.00  0.00     0.288 C 
HETATM    8  O1  UNL     1      -0.863  -4.575 -26.556  1.00  0.00    -0.260 OA
BRANCH   7   9
HETATM    9  C2  UNL     1      -0.409  -4.508 -24.221  1.00  0.00     0.004 C 
HETATM   10  C1  UNL     1      -1.122  -5.575 -23.959  1.00  0.00     0.024 C 
HETATM   11  C3  UNL     1       0.481  -3.934 -23.204  1.00  0.00     0.054 C 
ENDBRANCH   7   9
ENDBRANCH   6   7
ENDBRANCH   1   6
BRANCH   5  12
HETATM   12  C10 UNL     1      -0.479   0.746 -24.880  1.00  0.00     0.076 C 
HETATM   13  C11 UNL     1      -0.185   0.842 -26.388  1.00  0.00     0.044 C 
HETATM   14  C12 UNL     1       0.947   1.849 -26.643  1.00  0.00    -0.002 C 
HETATM   15  C13 UNL     1       1.551   1.453 -27.985  1.00  0.00     0.011 C 
HETATM   16  C14 UNL     1       1.960   1.629 -25.607  1.00  0.00     0.029 A 
HETATM   17  C15 UNL     1       1.886   0.219 -24.998  1.00  0.00     0.031 C 
HETATM   18  C26 UNL     1       1.344   2.212 -24.288  1.00  0.00     0.108 A 
HETATM   19  C27 UNL     1       2.668   2.589 -24.801  1.00  0.00     0.233 A 
HETATM   20  C16 UNL     1       0.832   0.816 -24.110  1.00  0.00     0.032 C 
BRANCH  12  21
HETATM   21  O3  UNL     1      -1.353   1.763 -24.627  1.00  0.00    -0.388 OA
ATOM     22  H3  UNL     1      -0.944   2.443 -24.106  1.00  0.00     0.210 HD
ENDBRANCH  12  21
BRANCH  20  23
HETATM   23  C17 UNL     1       0.844   0.291 -22.751  1.00  0.00     0.030 C 
HETATM   24  C18 UNL     1       2.139  -0.407 -22.322  1.00  0.00     0.018 C 
HETATM   25  C19 UNL     1       2.981   0.684 -21.645  1.00  0.00    -0.029 C 
HETATM   26  C20 UNL     1       3.911  -0.045 -20.717  1.00  0.00     0.016 C 
HETATM   27  C21 UNL     1       1.960   1.504 -20.965  1.00  0.00     0.027 C 
HETATM   28  C25 UNL     1       0.595   1.114 -21.568  1.00  0.00     0.128 C 
BRANCH  27  29
HETATM   29  C22 UNL     1       1.935   1.475 -19.472  1.00  0.00    -0.015 C 
HETATM   30  C23 UNL     1       0.874   0.741 -18.784  1.00  0.00     0.010 C 
HETATM   31  C24 UNL     1       1.957   2.908 -18.901  1.00  0.00     0.010 C 
ENDBRANCH  27  29
BRANCH  28  32
HETATM   32  O4  UNL     1      -0.261   2.166 -21.617  1.00  0.00    -0.395 OA
ATOM     33  H4  UNL     1      -0.036   2.956 -22.094  1.00  0.00     0.210 HD
ENDBRANCH  28  32
ENDBRANCH  20  23
BRANCH  18  34
HETATM   34  O5  UNL     1       0.423   3.274 -24.460  1.00  0.00    -0.386 OA
ATOM     35  H5  UNL     1       0.052   3.629 -23.661  1.00  0.00     0.210 HD
ENDBRANCH  18  34
BRANCH  19  36
HETATM   36  N1  UNL     1       2.921   3.859 -25.433  1.00  0.00    -0.067 N 
ATOM     37  H12 UNL     1       3.418   3.729 -26.314  1.00  0.00     0.277 HD
ATOM     38  H11 UNL     1       2.054   4.264 -25.783  1.00  0.00     0.277 HD
BRANCH  36  39
HETATM   39  C28 UNL     1       3.609   4.791 -24.603  1.00  0.00     0.232 C 
BRANCH  39  40
HETATM   40  C29 UNL     1       4.162   4.042 -23.403  1.00  0.00     0.023 C 
HETATM   41  C30 UNL     1       3.702   4.664 -22.106  1.00  0.00     0.007 C 
ENDBRANCH  39  40
ENDBRANCH  36  39
ENDBRANCH  19  36
ENDBRANCH   5  12
TORSDOF 13
ENDMDL
MODEL 2
REMARK VINA RESULT: -5.682909671      0.802      1.217
REMARK  13 active torsions:
REMARK  status: ('A' for Active; 'I' for Inactive)
REMARK    1  A    between atoms: C2_2  and  C4_4 
REMARK    2  A    between atoms: C4_4  and  O2_6 
REMARK    3  A    between atoms: O2_6  and  C5_7 
REMARK    4  A    between atoms: C7_9  and  C19_23 
REMARK    5  A    between atoms: C9_11  and  C10_12 
REMARK    6  A    between atoms: C10_12  and  O3_13 
REMARK    7  A    between atoms: C16_20  and  C17_21 
REMARK    8  A    between atoms: C21_25  and  C22_26 
REMARK    9  A    between atoms: C25_29  and  O4_30 
REMARK   10  A    between atoms: C26_32  and  O5_33 
REMARK   11  A    between atoms: C27_35  and  N1_36 
REMARK   12  A    between atoms: N1_36  and  C28_39 
REMARK   13  A    between atoms: C28_39  and  C29_40 
ROOT
HETATM    1  C5  UNL     1      -1.256  -1.583 -25.708  1.00  0.00     0.140 C 
HETATM    2  C6  UNL     1      -2.401  -2.084 -24.792  1.00  0.00     0.043 C 
HETATM    3  C7  UNL     1      -2.588  -0.601 -24.474  1.00  0.00    -0.025 C 
HETATM    4  C8  UNL     1      -3.452  -0.026 -25.511  1.00  0.00     0.016 C 
HETATM    5  C9  UNL     1      -1.103  -0.543 -24.636  1.00  0.00     0.059 C 
ENDROOT
BRANCH   1   6
HETATM    6  O2  UNL     1      -0.224  -2.549 -25.775  1.00  0.00    -0.312 OA
BRANCH   6   7
HETATM    7  C4  UNL     1      -0.500  -3.885 -25.542  1.00  0.00     0.288 C 
HETATM    8  O1  UNL     1      -0.854  -4.569 -26.565  1.00  0.00    -0.260 OA
BRANCH   7   9
HETATM    9  C2  UNL     1      -0.402  -4.499 -24.230  1.00  0.00     0.004 C 
HETATM   10  C1  UNL     1      -1.115  -5.565 -23.966  1.00  0.00     0.024 C 
HETATM   11  C3  UNL     1       0.491  -3.927 -23.215  1.00  0.00     0.054 C 
ENDBRANCH   7   9
ENDBRANCH   6   7
ENDBRANCH   1   6
BRANCH   5  12
HETATM   12  C10 UNL     1      -0.492   0.754 -24.886  1.00  0.00     0.076 C 
HETATM   13  C11 UNL     1      -0.199   0.849 -26.394  1.00  0.00     0.044 C 
HETATM   14  C12 UNL     1       0.927   1.862 -26.651  1.00  0.00    -0.002 C 
HETATM   15  C13 UNL     1       1.532   1.467 -27.993  1.00  0.00     0.011 C 
HETATM   16  C14 UNL     1       1.942   1.649 -25.615  1.00  0.00     0.029 A 
HETATM   17  C15 UNL     1       1.876   0.239 -25.005  1.00  0.00     0.031 C 
HETATM   18  C26 UNL     1       1.324   2.230 -24.297  1.00  0.00     0.108 A 
HETATM   19  C27 UNL     1       2.646   2.614 -24.811  1.00  0.00     0.233 A 
HETATM   20  C16 UNL     1       0.820   0.832 -24.117  1.00  0.00     0.032 C 
BRANCH  12  21
HETATM   21  O3  UNL     1      -1.371   1.767 -24.633  1.00  0.00    -0.388 OA
ATOM     22  H3  UNL     1      -1.866   1.599 -23.841  1.00  0.00     0.210 HD
ENDBRANCH  12  21
BRANCH  20  23
HETATM   23  C17 UNL     1       0.834   0.309 -22.757  1.00  0.00     0.030 C 
HETATM   24  C18 UNL     1       2.128  -0.396 -22.333  1.00  0.00     0.018 C 
HETATM   25  C19 UNL     1       2.978   0.692 -21.661  1.00  0.00    -0.029 C 
HETATM   26  C20 UNL     1       3.909  -0.040 -20.736  1.00  0.00     0.016 C 
HETATM   27  C21 UNL     1       1.964   1.518 -20.978  1.00  0.00     0.027 C 
HETATM   28  C25 UNL     1       0.595   1.134 -21.574  1.00  0.00     0.128 C 
BRANCH  27  29
HETATM   29  C22 UNL     1       1.946   1.491 -19.485  1.00  0.00    -0.015 C 
HETATM   30  C23 UNL     1       0.896   0.747 -18.791  1.00  0.00     0.010 C 
HETATM   31  C24 UNL     1       1.956   2.924 -18.915  1.00  0.00     0.010 C 
ENDBRANCH  27  29
BRANCH  28  32
HETATM   32  O4  UNL     1      -0.256   2.190 -21.620  1.00  0.00    -0.395 OA
ATOM     33  H4  UNL     1      -1.191   2.059 -21.719  1.00  0.00     0.210 HD
ENDBRANCH  28  32
ENDBRANCH  20  23
BRANCH  18  34
HETATM   34  O5  UNL     1       0.398   3.287 -24.470  1.00  0.00    -0.386 OA
ATOM     35  H5  UNL     1       0.350   3.652 -25.345  1.00  0.00     0.210 HD
ENDBRANCH  18  34
BRANCH  19  36
HETATM   36  N1  UNL     1       2.892   3.884 -25.444  1.00  0.00    -0.067 N 
ATOM     37  H12 UNL     1       2.058   4.208 -25.935  1.00  0.00     0.277 HD
ATOM     38  H11 UNL     1       2.978   4.622 -24.746  1.00  0.00     0.277 HD
BRANCH  36  39
HETATM   39  C28 UNL     1       4.018   3.886 -26.317  1.00  0.00     0.232 C 
BRANCH  39  40
HETATM   40  C29 UNL     1       3.631   4.613 -27.593  1.00  0.00     0.023 C 
HETATM   41  C30 UNL     1       2.263   5.240 -27.476  1.00  0.00     0.007 C 
ENDBRANCH  39  40
ENDBRANCH  36  39
ENDBRANCH  19  36
ENDBRANCH   5  12
TORSDOF 13
ENDMDL
MODEL 3
REMARK VINA RESULT: -5.454414212      3.183      5.515
REMARK  13 active torsions:
REMARK  status: ('A' for Active; 'I' for Inactive)
REMARK    1  A    between atoms: C2_2  and  C4_4 
REMARK    2  A    between atoms: C4_4  and  O2_6 
REMARK    3  A    between atoms: O2_6  and  C5_7 
REMARK    4  A    between atoms: C7_9  and  C19_23 
REMARK    5  A    between atoms: C9_11  and  C10_12 
REMARK    6  A    between atoms: C10_12  and  O3_13 
REMARK    7  A    between atoms: C16_20  and  C17_21 
REMARK    8  A    between atoms: C21_25  and  C22_26 
REMARK    9  A    between atoms: C25_29  and  O4_30 
REMARK   10  A    between atoms: C26_32  and  O5_33 
REMARK   11  A    between atoms: C27_35  and  N1_36 
REMARK   12  A    between atoms: N1_36  and  C28_39 
REMARK   13  A    between atoms: C28_39  and  C29_40 
ROOT
HETATM    1  C5  UNL     1      -1.418  -2.739 -25.123  1.00  0.00     0.140 C 
HETATM    2  C6  UNL     1      -1.376  -4.144 -25.774  1.00  0.00     0.043 C 
HETATM    3  C7  UNL     1      -0.300  -4.428 -24.726  1.00  0.00    -0.025 C 
HETATM    4  C8  UNL     1      -0.976  -4.844 -23.492  1.00  0.00     0.016 C 
HETATM    5  C9  UNL     1       0.049  -2.989 -24.927  1.00  0.00     0.059 C 
ENDROOT
BRANCH   1   6
HETATM    6  O2  UNL     1      -1.748  -1.760 -26.091  1.00  0.00    -0.312 OA
BRANCH   6   7
HETATM    7  C4  UNL     1      -2.487  -0.646 -25.736  1.00  0.00     0.288 C 
HETATM    8  O1  UNL     1      -3.506  -0.867 -24.992  1.00  0.00    -0.260 OA
BRANCH   7   9
HETATM    9  C2  UNL     1      -2.152   0.700 -26.164  1.00  0.00     0.004 C 
HETATM   10  C1  UNL     1      -0.940   0.955 -26.590  1.00  0.00     0.024 C 
HETATM   11  C3  UNL     1      -3.166   1.760 -26.116  1.00  0.00     0.054 C 
ENDBRANCH   7   9
ENDBRANCH   6   7
ENDBRANCH   1   6
BRANCH   5  12
HETATM   12  C10 UNL     1       0.826  -2.323 -23.891  1.00  0.00     0.076 C 
HETATM   13  C11 UNL     1       0.091  -1.021 -23.522  1.00  0.00     0.044 C 
HETATM   14  C12 UNL     1       1.077  -0.011 -22.916  1.00  0.00    -0.002 C 
HETATM   15  C13 UNL     1       0.446   1.359 -23.139  1.00  0.00     0.011 C 
HETATM   16  C14 UNL     1       2.306  -0.079 -23.712  1.00  0.00     0.029 A 
HETATM   17  C15 UNL     1       2.065  -0.640 -25.124  1.00  0.00     0.031 C 
HETATM   18  C26 UNL     1       2.991  -1.431 -23.310  1.00  0.00     0.108 A 
HETATM   19  C27 UNL     1       3.677  -0.131 -23.276  1.00  0.00     0.233 A 
HETATM   20  C16 UNL     1       2.197  -1.978 -24.456  1.00  0.00     0.032 C 
BRANCH  12  21
HETATM   21  O3  UNL     1       0.841  -3.056 -22.741  1.00  0.00    -0.388 OA
ATOM     22  H3  UNL     1       1.226  -2.563 -22.027  1.00  0.00     0.210 HD
ENDBRANCH  12  21
BRANCH  20  23
HETATM   23  C17 UNL     1       2.857  -2.983 -25.278  1.00  0.00     0.030 C 
HETATM   24  C18 UNL     1       3.696  -2.440 -26.440  1.00  0.00     0.018 C 
HETATM   25  C19 UNL     1       5.122  -2.313 -25.885  1.00  0.00    -0.029 C 
HETATM   26  C20 UNL     1       6.027  -2.383 -27.082  1.00  0.00     0.016 C 
HETATM   27  C21 UNL     1       5.219  -3.473 -24.978  1.00  0.00     0.027 C 
HETATM   28  C25 UNL     1       3.783  -3.981 -24.744  1.00  0.00     0.128 C 
BRANCH  27  29
HETATM   29  C22 UNL     1       6.142  -4.579 -25.370  1.00  0.00    -0.015 C 
HETATM   30  C23 UNL     1       5.589  -5.881 -25.742  1.00  0.00     0.010 C 
HETATM   31  C24 UNL     1       7.200  -4.818 -24.274  1.00  0.00     0.010 C 
ENDBRANCH  27  29
BRANCH  28  32
HETATM   32  O4  UNL     1       3.617  -4.487 -23.495  1.00  0.00    -0.395 OA
ATOM     33  H4  UNL     1       4.366  -4.726 -22.962  1.00  0.00     0.210 HD
ENDBRANCH  28  32
ENDBRANCH  20  23
BRANCH  18  34
HETATM   34  O5  UNL     1       2.723  -1.885 -21.997  1.00  0.00    -0.386 OA
ATOM     35  H5  UNL     1       3.468  -1.904 -21.408  1.00  0.00     0.210 HD
ENDBRANCH  18  34
BRANCH  19  36
HETATM   36  N1  UNL     1       3.961   0.562 -22.046  1.00  0.00    -0.067 N 
ATOM     37  H12 UNL     1       3.281   0.312 -21.328  1.00  0.00     0.277 HD
ATOM     38  H11 UNL     1       4.809   0.195 -21.615  1.00  0.00     0.277 HD
BRANCH  36  39
HETATM   39  C28 UNL     1       4.043   1.978 -22.186  1.00  0.00     0.232 C 
BRANCH  39  40
HETATM   40  C29 UNL     1       3.302   2.616 -21.024  1.00  0.00     0.023 C 
HETATM   41  C30 UNL     1       2.842   1.578 -20.028  1.00  0.00     0.007 C 
ENDBRANCH  39  40
ENDBRANCH  36  39
ENDBRANCH  19  36
ENDBRANCH   5  12
TORSDOF 13
ENDMDL
MODEL 4
REMARK VINA RESULT: -5.387849340      2.361      5.268
REMARK  13 active torsions:
REMARK  status: ('A' for Active; 'I' for Inactive)
REMARK    1  A    between atoms: C2_2  and  C4_4 
REMARK    2  A    between atoms: C4_4  and  O2_6 
REMARK    3  A    between atoms: O2_6  and  C5_7 
REMARK    4  A    between atoms: C7_9  and  C19_23 
REMARK    5  A    between atoms: C9_11  and  C10_12 
REMARK    6  A    between atoms: C10_12  and  O3_13 
REMARK    7  A    between atoms: C16_20  and  C17_21 
REMARK    8  A    between atoms: C21_25  and  C22_26 
REMARK    9  A    between atoms: C25_29  and  O4_30 
REMARK   10  A    between atoms: C26_32  and  O5_33 
REMARK   11  A    between atoms: C27_35  and  N1_36 
REMARK   12  A    between atoms: N1_36  and  C28_39 
REMARK   13  A    between atoms: C28_39  and  C29_40 
ROOT
HETATM    1  C5  UNL     1      -0.079  -2.970 -26.222  1.00  0.00     0.140 C 
HETATM    2  C6  UNL     1       0.053  -3.592 -27.634  1.00  0.00     0.043 C 
HETATM    3  C7  UNL     1       1.164  -2.557 -27.818  1.00  0.00    -0.025 C 
HETATM    4  C8  UNL     1       2.402  -3.129 -27.275  1.00  0.00     0.016 C 
HETATM    5  C9  UNL     1       0.298  -1.709 -26.944  1.00  0.00     0.059 C 
ENDROOT
BRANCH   1   6
HETATM    6  O2  UNL     1      -1.420  -3.043 -25.778  1.00  0.00    -0.312 OA
BRANCH   6   7
HETATM    7  C4  UNL     1      -1.726  -3.646 -24.571  1.00  0.00     0.288 C 
HETATM    8  O1  UNL     1      -2.872  -3.355 -24.077  1.00  0.00    -0.260 OA
BRANCH   7   9
HETATM    9  C2  UNL     1      -0.826  -4.556 -23.886  1.00  0.00     0.004 C 
HETATM   10  C1  UNL     1      -1.058  -5.844 -23.933  1.00  0.00     0.024 C 
HETATM   11  C3  UNL     1       0.331  -4.030 -23.151  1.00  0.00     0.054 C 
ENDBRANCH   7   9
ENDBRANCH   6   7
ENDBRANCH   1   6
BRANCH   5  12
HETATM   12  C10 UNL     1       0.912  -0.574 -26.270  1.00  0.00     0.076 C 
HETATM   13  C11 UNL     1       1.665  -1.113 -25.040  1.00  0.00     0.044 C 
HETATM   14  C12 UNL     1       1.826  -0.004 -23.989  1.00  0.00    -0.002 C 
HETATM   15  C13 UNL     1       2.012  -0.725 -22.660  1.00  0.00     0.011 C 
HETATM   16  C14 UNL     1       0.556   0.726 -23.937  1.00  0.00     0.029 A 
HETATM   17  C15 UNL     1      -0.627  -0.110 -24.452  1.00  0.00     0.031 C 
HETATM   18  C26 UNL     1       0.506   1.577 -25.253  1.00  0.00     0.108 A 
HETATM   19  C27 UNL     1       0.316   2.145 -23.911  1.00  0.00     0.233 A 
HETATM   20  C16 UNL     1      -0.188   0.371 -25.805  1.00  0.00     0.032 C 
BRANCH  12  21
HETATM   21  O3  UNL     1       1.874  -0.002 -27.049  1.00  0.00    -0.388 OA
ATOM     22  H3  UNL     1       2.607  -0.593 -27.175  1.00  0.00     0.210 HD
ENDBRANCH  12  21
BRANCH  20  23
HETATM   23  C17 UNL     1      -1.290   0.623 -26.725  1.00  0.00     0.030 C 
HETATM   24  C18 UNL     1      -2.640   0.938 -26.070  1.00  0.00     0.018 C 
HETATM   25  C19 UNL     1      -2.694   2.469 -25.972  1.00  0.00    -0.029 C 
HETATM   26  C20 UNL     1      -4.156   2.816 -25.924  1.00  0.00     0.016 C 
HETATM   27  C21 UNL     1      -2.005   2.896 -27.205  1.00  0.00     0.027 C 
HETATM   28  C25 UNL     1      -1.259   1.663 -27.753  1.00  0.00     0.128 C 
BRANCH  27  29
HETATM   29  C22 UNL     1      -2.829   3.560 -28.259  1.00  0.00    -0.015 C 
HETATM   30  C23 UNL     1      -3.205   2.810 -29.457  1.00  0.00     0.010 C 
HETATM   31  C24 UNL     1      -2.163   4.873 -28.721  1.00  0.00     0.010 C 
ENDBRANCH  27  29
BRANCH  28  32
HETATM   32  O4  UNL     1      -0.098   2.001 -28.368  1.00  0.00    -0.395 OA
ATOM     33  H4  UNL     1       0.632   2.355 -27.874  1.00  0.00     0.210 HD
ENDBRANCH  28  32
ENDBRANCH  20  23
BRANCH  18  34
HETATM   34  O5  UNL     1       1.762   1.959 -25.781  1.00  0.00    -0.386 OA
ATOM     35  H5  UNL     1       2.097   2.796 -25.480  1.00  0.00     0.210 HD
ENDBRANCH  18  34
BRANCH  19  36
HETATM   36  N1  UNL     1       1.328   2.931 -23.252  1.00  0.00    -0.067 N 
ATOM     37  H12 UNL     1       2.228   2.450 -23.276  1.00  0.00     0.277 HD
ATOM     38  H11 UNL     1       1.559   3.755 -23.806  1.00  0.00     0.277 HD
BRANCH  36  39
HETATM   39  C28 UNL     1       0.995   3.302 -21.918  1.00  0.00     0.232 C 
BRANCH  39  40
HETATM   40  C29 UNL     1       2.006   2.668 -20.980  1.00  0.00     0.023 C 
HETATM   41  C30 UNL     1       1.341   1.720 -20.011  1.00  0.00     0.007 C 
ENDBRANCH  39  40
ENDBRANCH  36  39
ENDBRANCH  19  36
ENDBRANCH   5  12
TORSDOF 13
ENDMDL
MODEL 5
REMARK VINA RESULT: -5.358269085      2.429      7.000
REMARK  13 active torsions:
REMARK  status: ('A' for Active; 'I' for Inactive)
REMARK    1  A    between atoms: C2_2  and  C4_4 
REMARK    2  A    between atoms: C4_4  and  O2_6 
REMARK    3  A    between atoms: O2_6  and  C5_7 
REMARK    4  A    between atoms: C7_9  and  C19_23 
REMARK    5  A    between atoms: C9_11  and  C10_12 
REMARK    6  A    between atoms: C10_12  and  O3_13 
REMARK    7  A    between atoms: C16_20  and  C17_21 
REMARK    8  A    between atoms: C21_25  and  C22_26 
REMARK    9  A    between atoms: C25_29  and  O4_30 
REMARK   10  A    between atoms: C26_32  and  O5_33 
REMARK   11  A    between atoms: C27_35  and  N1_36 
REMARK   12  A    between atoms: N1_36  and  C28_39 
REMARK   13  A    between atoms: C28_39  and  C29_40 
ROOT
HETATM    1  C5  UNL     1       2.214   2.358 -22.171  1.00  0.00     0.140 C 
HETATM    2  C6  UNL     1       2.493   3.654 -22.972  1.00  0.00     0.043 C 
HETATM    3  C7  UNL     1       1.220   3.276 -23.730  1.00  0.00    -0.025 C 
HETATM    4  C8  UNL     1       0.077   3.799 -22.973  1.00  0.00     0.016 C 
HETATM    5  C9  UNL     1       1.685   1.876 -23.491  1.00  0.00     0.059 C 
ENDROOT
BRANCH   1   6
HETATM    6  O2  UNL     1       3.431   1.773 -21.749  1.00  0.00    -0.312 OA
BRANCH   6   7
HETATM    7  C4  UNL     1       3.603   1.390 -20.430  1.00  0.00     0.288 C 
HETATM    8  O1  UNL     1       4.527   2.003 -19.788  1.00  0.00    -0.260 OA
BRANCH   7   9
HETATM    9  C2  UNL     1       2.803   0.363 -19.789  1.00  0.00     0.004 C 
HETATM   10  C1  UNL     1       3.211  -0.881 -19.819  1.00  0.00     0.024 C 
HETATM   11  C3  UNL     1       1.549   0.724 -19.114  1.00  0.00     0.054 C 
ENDBRANCH   7   9
ENDBRANCH   6   7
ENDBRANCH   1   6
BRANCH   5  12
HETATM   12  C10 UNL     1       0.707   0.803 -23.598  1.00  0.00     0.076 C 
HETATM   13  C11 UNL     1       1.353  -0.474 -23.031  1.00  0.00     0.044 C 
HETATM   14  C12 UNL     1       0.669  -1.718 -23.619  1.00  0.00    -0.002 C 
HETATM   15  C13 UNL     1       1.693  -2.842 -23.497  1.00  0.00     0.011 C 
HETATM   16  C14 UNL     1       0.451  -1.456 -25.044  1.00  0.00     0.029 A 
HETATM   17  C15 UNL     1       1.401  -0.381 -25.599  1.00  0.00     0.031 C 
HETATM   18  C26 UNL     1      -0.726  -0.421 -25.103  1.00  0.00     0.108 A 
HETATM   19  C27 UNL     1      -0.720  -1.688 -25.848  1.00  0.00     0.233 A 
HETATM   20  C16 UNL     1       0.381   0.586 -25.069  1.00  0.00     0.032 C 
BRANCH  12  21
HETATM   21  O3  UNL     1      -0.370   1.039 -22.795  1.00  0.00    -0.388 OA
ATOM     22  H3  UNL     1      -0.106   1.455 -21.983  1.00  0.00     0.210 HD
ENDBRANCH  12  21
BRANCH  20  23
HETATM   23  C17 UNL     1       0.206   1.769 -25.901  1.00  0.00     0.030 C 
HETATM   24  C18 UNL     1       0.924   1.739 -27.254  1.00  0.00     0.018 C 
HETATM   25  C19 UNL     1      -0.109   1.188 -28.248  1.00  0.00    -0.029 C 
HETATM   26  C20 UNL     1       0.316   1.703 -29.595  1.00  0.00     0.016 C 
HETATM   27  C21 UNL     1      -1.374   1.760 -27.748  1.00  0.00     0.027 C 
HETATM   28  C25 UNL     1      -1.102   2.273 -26.319  1.00  0.00     0.128 C 
BRANCH  27  29
HETATM   29  C22 UNL     1      -2.042   2.796 -28.591  1.00  0.00    -0.015 C 
HETATM   30  C23 UNL     1      -1.980   4.201 -28.189  1.00  0.00     0.010 C 
HETATM   31  C24 UNL     1      -3.527   2.440 -28.813  1.00  0.00     0.010 C 
ENDBRANCH  27  29
BRANCH  28  32
HETATM   32  O4  UNL     1      -2.188   2.146 -25.516  1.00  0.00    -0.395 OA
ATOM     33  H4  UNL     1      -2.721   1.360 -25.536  1.00  0.00     0.210 HD
ENDBRANCH  28  32
ENDBRANCH  20  23
BRANCH  18  34
HETATM   34  O5  UNL     1      -1.647  -0.480 -24.030  1.00  0.00    -0.386 OA
ATOM     35  H5  UNL     1      -1.285  -0.743 -23.192  1.00  0.00     0.210 HD
ENDBRANCH  18  34
BRANCH  19  36
HETATM   36  N1  UNL     1      -1.523  -2.820 -25.458  1.00  0.00    -0.067 N 
ATOM     37  H12 UNL     1      -1.709  -2.799 -24.455  1.00  0.00     0.277 HD
ATOM     38  H11 UNL     1      -2.474  -2.723 -25.812  1.00  0.00     0.277 HD
BRANCH  36  39
HETATM   39  C28 UNL     1      -0.972  -4.077 -25.839  1.00  0.00     0.232 C 
BRANCH  39  40
HETATM   40  C29 UNL     1      -1.587  -5.152 -24.961  1.00  0.00     0.023 C 
HETATM   41  C30 UNL     1      -1.012  -5.119 -23.565  1.00  0.00     0.007 C 
ENDBRANCH  39  40
ENDBRANCH  36  39
ENDBRANCH  19  36
ENDBRANCH   5  12
TORSDOF 13
ENDMDL
