MODEL 1
REMARK VINA RESULT: -6.392545553      0.000      0.000
REMARK  11 active torsions:
REMARK  status: ('A' for Active; 'I' for Inactive)
REMARK    1  A    between atoms: C2_2  and  C3_3 
REMARK    2  A    between atoms: C3_3  and  O1_4 
REMARK    3  A    between atoms: C10_14  and  N1_15 
REMARK    4  A    between atoms: C14_19  and  C15_20 
REMARK    5  A    between atoms: C17_22  and  C18_23 
REMARK    6  A    between atoms: C18_23  and  C19_24 
REMARK    7  A    between atoms: C19_24  and  O2_25 
REMARK    8  A    between atoms: N4_33  and  C23_34 
REMARK    9  A    between atoms: C23_34  and  O3_35 
REMARK   10  A    between atoms: C23_34  and  N5_37 
REMARK   11  A    between atoms: N5_37  and  O4_39 
ROOT
HETATM    1  C3  UNL     1      21.886  -8.450  -3.315  1.00  0.00     0.136 C 
HETATM    2  C4  UNL     1      22.097  -7.256  -4.229  1.00  0.00     0.067 C 
HETATM    3  C5  UNL     1      21.179  -6.079  -3.899  1.00  0.00     0.013 C 
HETATM    4  C6  UNL     1      21.963  -4.822  -3.937  1.00  0.00     0.085 C 
HETATM    5  C7  UNL     1      21.799  -3.967  -5.115  1.00  0.00     0.249 C 
HETATM    6  F1  UNL     1      23.110  -3.738  -5.622  1.00  0.00    -0.206 F 
HETATM    7  F2  UNL     1      21.494  -2.640  -4.723  1.00  0.00    -0.206 F 
HETATM    8  C8  UNL     1      20.971  -4.378  -6.213  1.00  0.00     0.088 C 
HETATM    9  C9  UNL     1      20.141  -3.149  -6.682  1.00  0.00     0.018 C 
HETATM   10  C10 UNL     1      20.078  -5.576  -6.124  1.00  0.00     0.247 C 
HETATM   11  C14 UNL     1      19.935  -6.140  -4.753  1.00  0.00     0.041 C 
HETATM   12  C21 UNL     1      19.568  -7.607  -4.811  1.00  0.00     0.038 C 
HETATM   13  C22 UNL     1      19.364  -8.270  -3.495  1.00  0.00     0.131 C 
HETATM   14  N4  UNL     1      20.621  -8.619  -2.779  1.00  0.00    -0.314 N 
ENDROOT
BRANCH  11  15
HETATM   15  C15 UNL     1      18.798  -5.447  -4.074  1.00  0.00     0.039 A 
HETATM   16  C16 UNL     1      17.593  -5.034  -4.559  1.00  0.00     0.054 A 
HETATM   17  C17 UNL     1      16.902  -4.428  -3.518  1.00  0.00     0.029 A 
HETATM   18  N2  UNL     1      17.686  -4.488  -2.447  1.00  0.00    -0.305 N 
HETATM   19  N3  UNL     1      18.827  -5.105  -2.774  1.00  0.00    -0.304 N 
ATOM     20  H2  UNL     1      17.455  -4.123  -1.523  1.00  0.00     0.186 HD
ATOM     21  H3  UNL     1      19.600  -5.288  -2.135  1.00  0.00     0.186 HD
BRANCH  17  22
HETATM   22  C18 UNL     1      15.514  -3.876  -3.618  1.00  0.00     0.084 C 
BRANCH  22  23
HETATM   23  C19 UNL     1      15.444  -2.573  -2.804  1.00  0.00     0.173 C 
BRANCH  23  24
HETATM   24  O2  UNL     1      15.087  -1.489  -3.536  1.00  0.00    -0.396 OA
HETATM   25  C20 UNL     1      15.083  -1.640  -4.905  1.00  0.00     0.201 C 
ENDBRANCH  23  24
ENDBRANCH  22  23
ENDBRANCH  17  22
ENDBRANCH  11  15
BRANCH  10  26
HETATM   26  N1  UNL     1      20.547  -6.608  -7.100  1.00  0.00     0.095 N 
HETATM   27  C11 UNL     1      21.719  -6.148  -7.837  1.00  0.00     0.275 C 
HETATM   28  C12 UNL     1      21.155  -6.580  -9.168  1.00  0.00     0.060 C 
HETATM   29  C13 UNL     1      19.857  -6.469  -8.399  1.00  0.00     0.275 C 
ENDBRANCH  10  26
BRANCH   1  30
HETATM   30  C2  UNL     1      23.065  -8.637  -2.403  1.00  0.00     0.056 C 
HETATM   31  C1  UNL     1      23.630 -10.039  -2.741  1.00  0.00     0.010 C 
ENDBRANCH   1  30
BRANCH   1  32
HETATM   32  O1  UNL     1      22.026  -9.605  -4.230  1.00  0.00    -0.371 OA
ATOM     33  H1  UNL     1      21.397 -10.217  -3.868  1.00  0.00     0.212 HD
ENDBRANCH   1  32
BRANCH  14  34
HETATM   34  C23 UNL     1      20.302  -9.080  -1.502  1.00  0.00     0.241 C 
BRANCH  34  35
HETATM   35  O3  UNL     1      19.879  -8.167  -0.636  1.00  0.00    -0.331 OA
ATOM     36  H3  UNL     1      18.962  -8.214  -0.391  1.00  0.00     0.221 HD
ENDBRANCH  34  35
BRANCH  34  37
HETATM   37  N5  UNL     1      20.349 -10.372  -0.965  1.00  0.00    -0.231 N 
ATOM     38  H5  UNL     1      20.906 -10.584  -0.137  1.00  0.00     0.198 HD
BRANCH  37  39
HETATM   39  O4  UNL     1      19.591 -11.372  -1.617  1.00  0.00    -0.282 OA
HETATM   40  C24 UNL     1      18.361 -11.430  -0.942  1.00  0.00     0.237 C 
ENDBRANCH  37  39
ENDBRANCH  34  37
ENDBRANCH  14  34
TORSDOF 11
ENDMDL
MODEL 2
REMARK VINA RESULT: -6.353806739      1.205      1.259
REMARK  11 active torsions:
REMARK  status: ('A' for Active; 'I' for Inactive)
REMARK    1  A    between atoms: C2_2  and  C3_3 
REMARK    2  A    between atoms: C3_3  and  O1_4 
REMARK    3  A    between atoms: C10_14  and  N1_15 
REMARK    4  A    between atoms: C14_19  and  C15_20 
REMARK    5  A    between atoms: C17_22  and  C18_23 
REMARK    6  A    between atoms: C18_23  and  C19_24 
REMARK    7  A    between atoms: C19_24  and  O2_25 
REMARK    8  A    between atoms: N4_33  and  C23_34 
REMARK    9  A    between atoms: C23_34  and  O3_35 
REMARK   10  A    between atoms: C23_34  and  N5_37 
REMARK   11  A    between atoms: N5_37  and  O4_39 
ROOT
HETATM    1  C3  UNL     1      21.773  -7.670  -3.469  1.00  0.00     0.136 C 
HETATM    2  C4  UNL     1      21.842  -6.510  -4.447  1.00  0.00     0.067 C 
HETATM    3  C5  UNL     1      20.691  -5.519  -4.283  1.00  0.00     0.013 C 
HETATM    4  C6  UNL     1      21.222  -4.136  -4.345  1.00  0.00     0.085 C 
HETATM    5  C7  UNL     1      21.016  -3.395  -5.591  1.00  0.00     0.249 C 
HETATM    6  F1  UNL     1      22.304  -2.944  -5.999  1.00  0.00    -0.206 F 
HETATM    7  F2  UNL     1      20.429  -2.135  -5.325  1.00  0.00    -0.206 F 
HETATM    8  C8  UNL     1      20.393  -4.020  -6.724  1.00  0.00     0.088 C 
HETATM    9  C9  UNL     1      19.395  -3.004  -7.350  1.00  0.00     0.018 C 
HETATM   10  C10 UNL     1      19.738  -5.362  -6.625  1.00  0.00     0.247 C 
HETATM   11  C14 UNL     1      19.570  -5.867  -5.234  1.00  0.00     0.041 C 
HETATM   12  C21 UNL     1      19.495  -7.379  -5.217  1.00  0.00     0.038 C 
HETATM   13  C22 UNL     1      19.292  -7.996  -3.878  1.00  0.00     0.131 C 
HETATM   14  N4  UNL     1      20.515  -8.053  -3.033  1.00  0.00    -0.314 N 
ENDROOT
BRANCH  11  15
HETATM   15  C15 UNL     1      18.262  -5.374  -4.707  1.00  0.00     0.039 A 
HETATM   16  C16 UNL     1      17.983  -4.466  -3.730  1.00  0.00     0.054 A 
HETATM   17  C17 UNL     1      16.602  -4.376  -3.615  1.00  0.00     0.029 A 
HETATM   18  N2  UNL     1      16.085  -5.212  -4.510  1.00  0.00    -0.305 N 
HETATM   19  N3  UNL     1      17.079  -5.812  -5.174  1.00  0.00    -0.304 N 
ATOM     20  H2  UNL     1      15.090  -5.370  -4.665  1.00  0.00     0.186 HD
ATOM     21  H3  UNL     1      16.958  -6.496  -5.920  1.00  0.00     0.186 HD
BRANCH  17  22
HETATM   22  C18 UNL     1      15.878  -3.454  -2.684  1.00  0.00     0.084 C 
BRANCH  22  23
HETATM   23  C19 UNL     1      15.356  -2.253  -3.490  1.00  0.00     0.173 C 
BRANCH  23  24
HETATM   24  O2  UNL     1      15.031  -2.553  -4.772  1.00  0.00    -0.396 OA
HETATM   25  C20 UNL     1      14.562  -1.518  -5.551  1.00  0.00     0.201 C 
ENDBRANCH  23  24
ENDBRANCH  22  23
ENDBRANCH  17  22
ENDBRANCH  11  15
BRANCH  10  26
HETATM   26  N1  UNL     1      20.488  -6.335  -7.479  1.00  0.00     0.095 N 
HETATM   27  C11 UNL     1      21.622  -5.699  -8.139  1.00  0.00     0.275 C 
HETATM   28  C12 UNL     1      21.287  -6.299  -9.481  1.00  0.00     0.060 C 
HETATM   29  C13 UNL     1      19.919  -6.399  -8.842  1.00  0.00     0.275 C 
ENDBRANCH  10  26
BRANCH   1  30
HETATM   30  C2  UNL     1      22.870  -7.573  -2.449  1.00  0.00     0.056 C 
HETATM   31  C1  UNL     1      24.048  -6.878  -3.174  1.00  0.00     0.010 C 
ENDBRANCH   1  30
BRANCH   1  32
HETATM   32  O1  UNL     1      22.217  -8.824  -4.283  1.00  0.00    -0.371 OA
ATOM     33  H1  UNL     1      21.710  -8.708  -5.077  1.00  0.00     0.212 HD
ENDBRANCH   1  32
BRANCH  14  34
HETATM   34  C23 UNL     1      20.166  -8.497  -1.758  1.00  0.00     0.241 C 
BRANCH  34  35
HETATM   35  O3  UNL     1      19.543  -7.619  -0.981  1.00  0.00    -0.331 OA
ATOM     36  H3  UNL     1      19.349  -7.905  -0.096  1.00  0.00     0.221 HD
ENDBRANCH  34  35
BRANCH  34  37
HETATM   37  N5  UNL     1      20.359  -9.740  -1.145  1.00  0.00    -0.231 N 
ATOM     38  H5  UNL     1      20.113  -9.894  -0.167  1.00  0.00     0.198 HD
BRANCH  37  39
HETATM   39  O4  UNL     1      20.909 -10.774  -1.936  1.00  0.00    -0.282 OA
HETATM   40  C24 UNL     1      19.832 -11.597  -2.304  1.00  0.00     0.237 C 
ENDBRANCH  37  39
ENDBRANCH  34  37
ENDBRANCH  14  34
TORSDOF 11
ENDMDL
MODEL 3
REMARK VINA RESULT: -6.285759087      1.145      1.184
REMARK  11 active torsions:
REMARK  status: ('A' for Active; 'I' for Inactive)
REMARK    1  A    between atoms: C2_2  and  C3_3 
REMARK    2  A    between atoms: C3_3  and  O1_4 
REMARK    3  A    between atoms: C10_14  and  N1_15 
REMARK    4  A    between atoms: C14_19  and  C15_20 
REMARK    5  A    between atoms: C17_22  and  C18_23 
REMARK    6  A    between atoms: C18_23  and  C19_24 
REMARK    7  A    between atoms: C19_24  and  O2_25 
REMARK    8  A    between atoms: N4_33  and  C23_34 
REMARK    9  A    between atoms: C23_34  and  O3_35 
REMARK   10  A    between atoms: C23_34  and  N5_37 
REMARK   11  A    between atoms: N5_37  and  O4_39 
ROOT
HETATM    1  C3  UNL     1      21.942  -8.613  -2.767  1.00  0.00     0.136 C 
HETATM    2  C4  UNL     1      22.275  -7.493  -3.738  1.00  0.00     0.067 C 
HETATM    3  C5  UNL     1      21.213  -6.395  -3.773  1.00  0.00     0.013 C 
HETATM    4  C6  UNL     1      21.879  -5.070  -3.771  1.00  0.00     0.085 C 
HETATM    5  C7  UNL     1      21.943  -4.351  -5.044  1.00  0.00     0.249 C 
HETATM    6  F1  UNL     1      23.316  -4.033  -5.250  1.00  0.00    -0.206 F 
HETATM    7  F2  UNL     1      21.445  -3.034  -4.893  1.00  0.00    -0.206 F 
HETATM    8  C8  UNL     1      21.447  -4.948  -6.253  1.00  0.00     0.088 C 
HETATM    9  C9  UNL     1      20.662  -3.863  -7.043  1.00  0.00     0.018 C 
HETATM   10  C10 UNL     1      20.659  -6.220  -6.239  1.00  0.00     0.247 C 
HETATM   11  C14 UNL     1      20.227  -6.666  -4.885  1.00  0.00     0.041 C 
HETATM   12  C21 UNL     1      20.005  -8.163  -4.858  1.00  0.00     0.038 C 
HETATM   13  C22 UNL     1      19.536  -8.719  -3.559  1.00  0.00     0.131 C 
HETATM   14  N4  UNL     1      20.601  -8.864  -2.531  1.00  0.00    -0.314 N 
ENDROOT
BRANCH  11  15
HETATM   15  C15 UNL     1      18.906  -6.038  -4.580  1.00  0.00     0.039 A 
HETATM   16  C16 UNL     1      18.557  -5.115  -3.639  1.00  0.00     0.054 A 
HETATM   17  C17 UNL     1      17.195  -4.876  -3.764  1.00  0.00     0.029 A 
HETATM   18  N2  UNL     1      16.758  -5.641  -4.759  1.00  0.00    -0.305 N 
HETATM   19  N3  UNL     1      17.784  -6.339  -5.257  1.00  0.00    -0.304 N 
ATOM     20  H2  UNL     1      15.794  -5.688  -5.089  1.00  0.00     0.186 HD
ATOM     21  H3  UNL     1      17.725  -6.999  -6.032  1.00  0.00     0.186 HD
BRANCH  17  22
HETATM   22  C18 UNL     1      16.421  -3.890  -2.946  1.00  0.00     0.084 C 
BRANCH  22  23
HETATM   23  C19 UNL     1      15.663  -2.949  -3.899  1.00  0.00     0.173 C 
BRANCH  23  24
HETATM   24  O2  UNL     1      16.350  -2.643  -5.027  1.00  0.00    -0.396 OA
HETATM   25  C20 UNL     1      15.605  -2.265  -6.122  1.00  0.00     0.201 C 
ENDBRANCH  23  24
ENDBRANCH  22  23
ENDBRANCH  17  22
ENDBRANCH  11  15
BRANCH  10  26
HETATM   26  N1  UNL     1      21.435  -7.283  -6.949  1.00  0.00     0.095 N 
HETATM   27  C11 UNL     1      22.702  -6.767  -7.455  1.00  0.00     0.275 C 
HETATM   28  C12 UNL     1      22.510  -7.391  -8.815  1.00  0.00     0.060 C 
HETATM   29  C13 UNL     1      21.062  -7.354  -8.377  1.00  0.00     0.275 C 
ENDBRANCH  10  26
BRANCH   1  30
HETATM   30  C2  UNL     1      22.871  -8.588  -1.587  1.00  0.00     0.056 C 
HETATM   31  C1  UNL     1      23.589  -9.960  -1.598  1.00  0.00     0.010 C 
ENDBRANCH   1  30
BRANCH   1  32
HETATM   32  O1  UNL     1      22.395  -9.826  -3.484  1.00  0.00    -0.371 OA
ATOM     33  H1  UNL     1      22.428  -9.521  -4.382  1.00  0.00     0.212 HD
ENDBRANCH   1  32
BRANCH  14  34
HETATM   34  C23 UNL     1      20.016  -9.235  -1.321  1.00  0.00     0.241 C 
BRANCH  34  35
HETATM   35  O3  UNL     1      19.749  -8.251  -0.471  1.00  0.00    -0.331 OA
ATOM     36  H3  UNL     1      19.408  -8.510   0.378  1.00  0.00     0.221 HD
ENDBRANCH  34  35
BRANCH  34  37
HETATM   37  N5  UNL     1      19.647 -10.498  -0.840  1.00  0.00    -0.231 N 
ATOM     38  H5  UNL     1      20.338 -11.234  -0.695  1.00  0.00     0.198 HD
BRANCH  37  39
HETATM   39  O4  UNL     1      18.277 -10.710  -0.563  1.00  0.00    -0.282 OA
HETATM   40  C24 UNL     1      18.106 -12.102  -0.493  1.00  0.00     0.237 C 
ENDBRANCH  37  39
ENDBRANCH  34  37
ENDBRANCH  14  34
TORSDOF 11
ENDMDL
MODEL 4
REMARK VINA RESULT: -6.256624810      4.868      7.878
REMARK  11 active torsions:
REMARK  status: ('A' for Active; 'I' for Inactive)
REMARK    1  A    between atoms: C2_2  and  C3_3 
REMARK    2  A    between atoms: C3_3  and  O1_4 
REMARK    3  A    between atoms: C10_14  and  N1_15 
REMARK    4  A    between atoms: C14_19  and  C15_20 
REMARK    5  A    between atoms: C17_22  and  C18_23 
REMARK    6  A    between atoms: C18_23  and  C19_24 
REMARK    7  A    between atoms: C19_24  and  O2_25 
REMARK    8  A    between atoms: N4_33  and  C23_34 
REMARK    9  A    between atoms: C23_34  and  O3_35 
REMARK   10  A    between atoms: C23_34  and  N5_37 
REMARK   11  A    between atoms: N5_37  and  O4_39 
ROOT
HETATM    1  C3  UNL     1      20.168  -1.897  -8.736  1.00  0.00     0.136 C 
HETATM    2  C4  UNL     1      19.252  -3.108  -8.701  1.00  0.00     0.067 C 
HETATM    3  C5  UNL     1      17.823  -2.766  -8.282  1.00  0.00     0.013 C 
HETATM    4  C6  UNL     1      16.870  -3.476  -9.168  1.00  0.00     0.085 C 
HETATM    5  C7  UNL     1      16.209  -4.664  -8.624  1.00  0.00     0.249 C 
HETATM    6  F1  UNL     1      16.456  -5.714  -9.555  1.00  0.00    -0.206 F 
HETATM    7  F2  UNL     1      14.806  -4.567  -8.789  1.00  0.00    -0.206 F 
HETATM    8  C8  UNL     1      16.536  -5.155  -7.315  1.00  0.00     0.088 C 
HETATM    9  C9  UNL     1      15.213  -5.555  -6.602  1.00  0.00     0.018 C 
HETATM   10  C10 UNL     1      17.393  -4.372  -6.370  1.00  0.00     0.247 C 
HETATM   11  C14 UNL     1      17.659  -2.969  -6.794  1.00  0.00     0.041 C 
HETATM   12  C21 UNL     1      18.947  -2.459  -6.183  1.00  0.00     0.038 C 
HETATM   13  C22 UNL     1      19.298  -1.050  -6.511  1.00  0.00     0.131 C 
HETATM   14  N4  UNL     1      19.874  -0.858  -7.869  1.00  0.00    -0.314 N 
ENDROOT
BRANCH  11  15
HETATM   15  C15 UNL     1      16.567  -2.100  -6.263  1.00  0.00     0.039 A 
HETATM   16  C16 UNL     1      15.899  -1.060  -6.838  1.00  0.00     0.054 A 
HETATM   17  C17 UNL     1      14.983  -0.579  -5.912  1.00  0.00     0.029 A 
HETATM   18  N2  UNL     1      15.111  -1.324  -4.819  1.00  0.00    -0.305 N 
HETATM   19  N3  UNL     1      16.059  -2.244  -5.026  1.00  0.00    -0.304 N 
ATOM     20  H2  UNL     1      14.572  -1.212  -3.960  1.00  0.00     0.186 HD
ATOM     21  H3  UNL     1      16.352  -2.948  -4.348  1.00  0.00     0.186 HD
BRANCH  17  22
HETATM   22  C18 UNL     1      14.016   0.535  -6.164  1.00  0.00     0.084 C 
BRANCH  22  23
HETATM   23  C19 UNL     1      14.490   1.329  -7.394  1.00  0.00     0.173 C 
BRANCH  23  24
HETATM   24  O2  UNL     1      13.626   1.288  -8.438  1.00  0.00    -0.396 OA
HETATM   25  C20 UNL     1      14.060   0.644  -9.576  1.00  0.00     0.201 C 
ENDBRANCH  23  24
ENDBRANCH  22  23
ENDBRANCH  17  22
ENDBRANCH  11  15
BRANCH  10  26
HETATM   26  N1  UNL     1      18.661  -5.125  -6.123  1.00  0.00     0.095 N 
HETATM   27  C11 UNL     1      18.663  -6.406  -6.820  1.00  0.00     0.275 C 
HETATM   28  C12 UNL     1      19.146  -7.161  -5.607  1.00  0.00     0.060 C 
HETATM   29  C13 UNL     1      18.564  -5.954  -4.904  1.00  0.00     0.275 C 
ENDBRANCH  10  26
BRANCH   1  30
HETATM   30  C2  UNL     1      20.537  -1.549 -10.150  1.00  0.00     0.056 C 
HETATM   31  C1  UNL     1      22.058  -1.819 -10.258  1.00  0.00     0.010 C 
ENDBRANCH   1  30
BRANCH   1  32
HETATM   32  O1  UNL     1      21.447  -2.427  -8.211  1.00  0.00    -0.371 OA
ATOM     33  H1  UNL     1      21.203  -2.690  -7.332  1.00  0.00     0.212 HD
ENDBRANCH   1  32
BRANCH  14  34
HETATM   34  C23 UNL     1      20.008   0.507  -8.116  1.00  0.00     0.241 C 
BRANCH  34  35
HETATM   35  O3  UNL     1      21.171   1.053  -7.781  1.00  0.00    -0.331 OA
ATOM     36  H3  UNL     1      21.383   1.880  -8.199  1.00  0.00     0.221 HD
ENDBRANCH  34  35
BRANCH  34  37
HETATM   37  N5  UNL     1      19.107   1.422  -8.674  1.00  0.00    -0.231 N 
ATOM     38  H5  UNL     1      19.370   2.394  -8.838  1.00  0.00     0.198 HD
BRANCH  37  39
HETATM   39  O4  UNL     1      17.818   0.944  -9.002  1.00  0.00    -0.282 OA
HETATM   40  C24 UNL     1      17.729   0.996 -10.403  1.00  0.00     0.237 C 
ENDBRANCH  37  39
ENDBRANCH  34  37
ENDBRANCH  14  34
TORSDOF 11
ENDMDL
MODEL 5
REMARK VINA RESULT: -6.211342112      1.922      2.496
REMARK  11 active torsions:
REMARK  status: ('A' for Active; 'I' for Inactive)
REMARK    1  A    between atoms: C2_2  and  C3_3 
REMARK    2  A    between atoms: C3_3  and  O1_4 
REMARK    3  A    between atoms: C10_14  and  N1_15 
REMARK    4  A    between atoms: C14_19  and  C15_20 
REMARK    5  A    between atoms: C17_22  and  C18_23 
REMARK    6  A    between atoms: C18_23  and  C19_24 
REMARK    7  A    between atoms: C19_24  and  O2_25 
REMARK    8  A    between atoms: N4_33  and  C23_34 
REMARK    9  A    between atoms: C23_34  and  O3_35 
REMARK   10  A    between atoms: C23_34  and  N5_37 
REMARK   11  A    between atoms: N5_37  and  O4_39 
ROOT
HETATM    1  C3  UNL     1      21.849  -9.524  -2.386  1.00  0.00     0.136 C 
HETATM    2  C4  UNL     1      22.806  -8.791  -3.310  1.00  0.00     0.067 C 
HETATM    3  C5  UNL     1      22.453  -7.315  -3.488  1.00  0.00     0.013 C 
HETATM    4  C6  UNL     1      23.690  -6.503  -3.405  1.00  0.00     0.085 C 
HETATM    5  C7  UNL     1      24.249  -6.002  -4.663  1.00  0.00     0.249 C 
HETATM    6  F1  UNL     1      25.608  -6.427  -4.688  1.00  0.00    -0.206 F 
HETATM    7  F2  UNL     1      24.469  -4.606  -4.584  1.00  0.00    -0.206 F 
HETATM    8  C8  UNL     1      23.657  -6.355  -5.923  1.00  0.00     0.088 C 
HETATM    9  C9  UNL     1      23.619  -5.081  -6.814  1.00  0.00     0.018 C 
HETATM   10  C10 UNL     1      22.339  -7.060  -6.006  1.00  0.00     0.247 C 
HETATM   11  C14 UNL     1      21.595  -7.135  -4.718  1.00  0.00     0.041 C 
HETATM   12  C21 UNL     1      20.647  -8.315  -4.714  1.00  0.00     0.038 C 
HETATM   13  C22 UNL     1      19.822  -8.471  -3.485  1.00  0.00     0.131 C 
HETATM   14  N4  UNL     1      20.547  -9.055  -2.325  1.00  0.00    -0.314 N 
ENDROOT
BRANCH  11  15
HETATM   15  C15 UNL     1      20.746  -5.912  -4.592  1.00  0.00     0.039 A 
HETATM   16  C16 UNL     1      19.912  -5.312  -5.488  1.00  0.00     0.054 A 
HETATM   17  C17 UNL     1      19.369  -4.189  -4.877  1.00  0.00     0.029 A 
HETATM   18  N2  UNL     1      19.873  -4.136  -3.649  1.00  0.00    -0.305 N 
HETATM   19  N3  UNL     1      20.699  -5.173  -3.469  1.00  0.00    -0.304 N 
ATOM     20  H2  UNL     1      19.663  -3.419  -2.954  1.00  0.00     0.186 HD
ATOM     21  H3  UNL     1      21.213  -5.372  -2.612  1.00  0.00     0.186 HD
BRANCH  17  22
HETATM   22  C18 UNL     1      18.365  -3.274  -5.506  1.00  0.00     0.084 C 
BRANCH  22  23
HETATM   23  C19 UNL     1      16.955  -3.789  -5.172  1.00  0.00     0.173 C 
BRANCH  23  24
HETATM   24  O2  UNL     1      16.831  -4.266  -3.909  1.00  0.00    -0.396 OA
HETATM   25  C20 UNL     1      15.924  -3.628  -3.092  1.00  0.00     0.201 C 
ENDBRANCH  23  24
ENDBRANCH  22  23
ENDBRANCH  17  22
ENDBRANCH  11  15
BRANCH  10  26
HETATM   26  N1  UNL     1      22.548  -8.415  -6.604  1.00  0.00     0.095 N 
HETATM   27  C11 UNL     1      23.951  -8.642  -6.931  1.00  0.00     0.275 C 
HETATM   28  C12 UNL     1      23.632  -9.177  -8.305  1.00  0.00     0.060 C 
HETATM   29  C13 UNL     1      22.362  -8.388  -8.070  1.00  0.00     0.275 C 
ENDBRANCH  10  26
BRANCH   1  30
HETATM   30  C2  UNL     1      22.526  -9.883  -1.094  1.00  0.00     0.056 C 
HETATM   31  C1  UNL     1      23.981 -10.249  -1.479  1.00  0.00     0.010 C 
ENDBRANCH   1  30
BRANCH   1  32
HETATM   32  O1  UNL     1      21.705 -10.848  -3.031  1.00  0.00    -0.371 OA
ATOM     33  H1  UNL     1      22.101 -11.423  -2.387  1.00  0.00     0.212 HD
ENDBRANCH   1  32
BRANCH  14  34
HETATM   34  C23 UNL     1      19.724  -8.999  -1.201  1.00  0.00     0.241 C 
BRANCH  34  35
HETATM   35  O3  UNL     1      19.659  -7.828  -0.579  1.00  0.00    -0.331 OA
ATOM     36  H3  UNL     1      18.819  -7.602  -0.197  1.00  0.00     0.221 HD
ENDBRANCH  34  35
BRANCH  34  37
HETATM   37  N5  UNL     1      18.933  -9.988  -0.605  1.00  0.00    -0.231 N 
ATOM     38  H5  UNL     1      18.270  -9.762   0.137  1.00  0.00     0.198 HD
BRANCH  37  39
HETATM   39  O4  UNL     1      19.089 -11.313  -1.073  1.00  0.00    -0.282 OA
HETATM   40  C24 UNL     1      18.137 -12.084  -0.386  1.00  0.00     0.237 C 
ENDBRANCH  37  39
ENDBRANCH  34  37
ENDBRANCH  14  34
TORSDOF 11
ENDMDL
