MODEL 1
REMARK VINA RESULT: -6.436870523      0.000      0.000
REMARK  11 active torsions:
REMARK  status: ('A' for Active; 'I' for Inactive)
REMARK    1  A    between atoms: O1_2  and  C2_3 
REMARK    2  A    between atoms: C5_6  and  N1_7 
REMARK    3  A    between atoms: C6_8  and  C7_9 
REMARK    4  A    between atoms: C11_13  and  N2_14 
REMARK    5  A    between atoms: N2_14  and  C12_16 
REMARK    6  A    between atoms: C17_21  and  C18_22 
REMARK    7  A    between atoms: C19_25  and  N4_26 
REMARK    8  A    between atoms: N4_26  and  C20_27 
REMARK    9  A    between atoms: C20_27  and  O3_28 
REMARK   10  A    between atoms: C20_27  and  C21_30 
REMARK   11  A    between atoms: C21_30  and  C22_31 
ROOT
HETATM    1  N1  UNL     1      18.869  -3.871  -5.161  1.00  0.00    -0.296 N 
HETATM    2  C6  UNL     1      17.553  -3.719  -5.179  1.00  0.00     0.025 A 
HETATM    3  C10 UNL     1      17.024  -2.663  -5.908  1.00  0.00     0.056 A 
HETATM    4  C11 UNL     1      17.765  -1.750  -6.620  1.00  0.00     0.050 A 
HETATM    5  C17 UNL     1      19.147  -1.911  -6.598  1.00  0.00     0.114 A 
HETATM    6  C19 UNL     1      19.690  -2.974  -5.863  1.00  0.00     0.206 A 
ENDROOT
BRANCH   6   7
HETATM    7  N4  UNL     1      20.885  -3.135  -5.758  1.00  0.00    -0.362 NA
BRANCH   7   8
HETATM    8  C20 UNL     1      22.177  -3.306  -5.650  1.00  0.00     0.227 C 
BRANCH   8   9
HETATM    9  O3  UNL     1      22.951  -2.257  -5.528  1.00  0.00    -0.337 OA
ATOM     10  H3  UNL     1      23.722  -2.312  -4.975  1.00  0.00     0.220 HD
ENDBRANCH   8   9
BRANCH   8  11
HETATM   11  C21 UNL     1      22.948  -4.568  -5.634  1.00  0.00     0.171 C 
HETATM   12  C23 UNL     1      22.984  -5.284  -4.330  1.00  0.00     0.075 C 
HETATM   13  C24 UNL     1      24.409  -5.531  -4.016  1.00  0.00    -0.007 C 
HETATM   14  C25 UNL     1      25.147  -4.942  -4.930  1.00  0.00     0.080 C 
HETATM   15  N5  UNL     1      24.370  -4.281  -5.890  1.00  0.00    -0.377 N 
ATOM     16  H5  UNL     1      24.731  -3.696  -6.644  1.00  0.00     0.160 HD
BRANCH  11  17
HETATM   17  C22 UNL     1      22.551  -5.572  -6.686  1.00  0.00     0.390 C 
HETATM   18  F1  UNL     1      23.442  -5.798  -7.653  1.00  0.00    -0.211 F 
HETATM   19  F2  UNL     1      22.174  -6.780  -6.123  1.00  0.00    -0.211 F 
ENDBRANCH  11  17
ENDBRANCH   8  11
ENDBRANCH   7   8
ENDBRANCH   6   7
BRANCH   1  20
HETATM   20  C5  UNL     1      19.440  -4.967  -4.483  1.00  0.00    -0.000 C 
HETATM   21  C4  UNL     1      19.507  -5.089  -3.030  1.00  0.00     0.056 C 
HETATM   22  C3  UNL     1      19.888  -6.576  -2.798  1.00  0.00     0.038 C 
HETATM   23  C2  UNL     1      19.267  -7.306  -3.963  1.00  0.00     0.126 C 
HETATM   24  C26 UNL     1      19.124  -6.335  -5.085  1.00  0.00     0.085 C 
BRANCH  23  25
HETATM   25  O1  UNL     1      20.082  -8.388  -4.258  1.00  0.00    -0.390 OA
HETATM   26  C1  UNL     1      21.179  -8.483  -3.421  1.00  0.00     0.202 C 
ENDBRANCH  23  25
ENDBRANCH   1  20
BRANCH   5  27
HETATM   27  C18 UNL     1      19.945  -0.940  -7.304  1.00  0.00     0.272 C 
HETATM   28  N3  UNL     1      20.773  -1.231  -8.409  1.00  0.00    -0.057 NA
HETATM   29  O2  UNL     1      19.927   0.275  -6.945  1.00  0.00    -0.271 OA
ENDBRANCH   5  27
BRANCH   2  30
HETATM   30  C7  UNL     1      16.619  -4.560  -4.476  1.00  0.00     0.036 A 
HETATM   31  C8  UNL     1      16.052  -3.870  -3.179  1.00  0.00     0.011 A 
HETATM   32  C9  UNL     1      15.210  -4.447  -4.208  1.00  0.00     0.011 A 
ENDBRANCH   2  30
BRANCH   4  33
HETATM   33  N2  UNL     1      17.052  -0.789  -7.389  1.00  0.00    -0.384 N 
ATOM     34  H2  UNL     1      17.017  -0.876  -8.405  1.00  0.00     0.160 HD
BRANCH  33  35
HETATM   35  C12 UNL     1      16.361   0.339  -6.721  1.00  0.00     0.081 C 
HETATM   36  C13 UNL     1      15.805   1.255  -7.742  1.00  0.00     0.025 C 
HETATM   37  C14 UNL     1      14.334   1.370  -7.450  1.00  0.00     0.002 C 
HETATM   38  C15 UNL     1      13.975   0.054  -6.848  1.00  0.00     0.002 C 
HETATM   39  C16 UNL     1      15.171  -0.210  -5.954  1.00  0.00     0.025 C 
ENDBRANCH  33  35
ENDBRANCH   4  33
TORSDOF 11
ENDMDL
MODEL 2
REMARK VINA RESULT: -6.405510221      2.996      7.216
REMARK  11 active torsions:
REMARK  status: ('A' for Active; 'I' for Inactive)
REMARK    1  A    between atoms: O1_2  and  C2_3 
REMARK    2  A    between atoms: C5_6  and  N1_7 
REMARK    3  A    between atoms: C6_8  and  C7_9 
REMARK    4  A    between atoms: C11_13  and  N2_14 
REMARK    5  A    between atoms: N2_14  and  C12_16 
REMARK    6  A    between atoms: C17_21  and  C18_22 
REMARK    7  A    between atoms: C19_25  and  N4_26 
REMARK    8  A    between atoms: N4_26  and  C20_27 
REMARK    9  A    between atoms: C20_27  and  O3_28 
REMARK   10  A    between atoms: C20_27  and  C21_30 
REMARK   11  A    between atoms: C21_30  and  C22_31 
ROOT
HETATM    1  N1  UNL     1      17.513  -2.370  -6.257  1.00  0.00    -0.296 N 
HETATM    2  C6  UNL     1      17.011  -3.365  -5.541  1.00  0.00     0.025 A 
HETATM    3  C10 UNL     1      17.893  -4.207  -4.877  1.00  0.00     0.056 A 
HETATM    4  C11 UNL     1      19.262  -4.089  -4.903  1.00  0.00     0.050 A 
HETATM    5  C17 UNL     1      19.787  -3.043  -5.657  1.00  0.00     0.114 A 
HETATM    6  C19 UNL     1      18.904  -2.190  -6.332  1.00  0.00     0.206 A 
ENDROOT
BRANCH   6   7
HETATM    7  N4  UNL     1      19.298  -1.298  -7.048  1.00  0.00    -0.362 NA
BRANCH   7   8
HETATM    8  C20 UNL     1      19.730  -0.334  -7.819  1.00  0.00     0.227 C 
BRANCH   8   9
HETATM    9  O3  UNL     1      20.708   0.428  -7.401  1.00  0.00    -0.337 OA
ATOM     10  H3  UNL     1      20.549   1.355  -7.266  1.00  0.00     0.220 HD
ENDBRANCH   8   9
BRANCH   8  11
HETATM   11  C21 UNL     1      19.269   0.050  -9.171  1.00  0.00     0.171 C 
HETATM   12  C23 UNL     1      18.794  -1.067 -10.031  1.00  0.00     0.075 C 
HETATM   13  C24 UNL     1      19.539  -0.975 -11.306  1.00  0.00    -0.007 C 
HETATM   14  C25 UNL     1      20.433  -0.019 -11.199  1.00  0.00     0.080 C 
HETATM   15  N5  UNL     1      20.399   0.597  -9.942  1.00  0.00    -0.377 N 
ATOM     16  H5  UNL     1      21.052   1.310  -9.613  1.00  0.00     0.160 HD
BRANCH  11  17
HETATM   17  C22 UNL     1      18.210   1.123  -9.205  1.00  0.00     0.390 C 
HETATM   18  F1  UNL     1      17.167   0.898 -10.006  1.00  0.00    -0.211 F 
HETATM   19  F2  UNL     1      17.752   1.428  -7.935  1.00  0.00    -0.211 F 
ENDBRANCH  11  17
ENDBRANCH   8  11
ENDBRANCH   7   8
ENDBRANCH   6   7
BRANCH   1  20
HETATM   20  C5  UNL     1      16.648  -1.458  -6.895  1.00  0.00    -0.000 C 
HETATM   21  C4  UNL     1      15.847  -1.774  -8.073  1.00  0.00     0.056 C 
HETATM   22  C3  UNL     1      14.841  -0.596  -8.167  1.00  0.00     0.038 C 
HETATM   23  C2  UNL     1      14.623  -0.178  -6.735  1.00  0.00     0.126 C 
HETATM   24  C26 UNL     1      15.827  -0.579  -5.954  1.00  0.00     0.085 C 
BRANCH  23  25
HETATM   25  O1  UNL     1      14.381   1.188  -6.732  1.00  0.00    -0.390 OA
HETATM   26  C1  UNL     1      13.628   1.606  -7.813  1.00  0.00     0.202 C 
ENDBRANCH  23  25
ENDBRANCH   1  20
BRANCH   5  27
HETATM   27  C18 UNL     1      21.222  -2.927  -5.732  1.00  0.00     0.272 C 
HETATM   28  N3  UNL     1      22.089  -3.949  -6.175  1.00  0.00    -0.057 NA
HETATM   29  O2  UNL     1      21.787  -1.846  -5.394  1.00  0.00    -0.271 OA
ENDBRANCH   5  27
BRANCH   2  30
HETATM   30  C7  UNL     1      15.607  -3.660  -5.415  1.00  0.00     0.036 A 
HETATM   31  C8  UNL     1      15.154  -4.828  -6.368  1.00  0.00     0.011 A 
HETATM   32  C9  UNL     1      14.887  -4.813  -4.943  1.00  0.00     0.011 A 
ENDBRANCH   2  30
BRANCH   4  33
HETATM   33  N2  UNL     1      20.009  -4.980  -4.085  1.00  0.00    -0.384 N 
ATOM     34  H2  UNL     1      20.522  -4.622  -3.279  1.00  0.00     0.160 HD
BRANCH  33  35
HETATM   35  C12 UNL     1      20.047  -6.428  -4.398  1.00  0.00     0.081 C 
HETATM   36  C13 UNL     1      21.392  -6.967  -4.095  1.00  0.00     0.025 C 
HETATM   37  C14 UNL     1      21.184  -8.107  -3.136  1.00  0.00     0.002 C 
HETATM   38  C15 UNL     1      19.959  -7.728  -2.375  1.00  0.00     0.002 C 
HETATM   39  C16 UNL     1      19.085  -7.149  -3.471  1.00  0.00     0.025 C 
ENDBRANCH  33  35
ENDBRANCH   4  33
TORSDOF 11
ENDMDL
MODEL 3
REMARK VINA RESULT: -6.401981600      2.373      4.575
REMARK  11 active torsions:
REMARK  status: ('A' for Active; 'I' for Inactive)
REMARK    1  A    between atoms: O1_2  and  C2_3 
REMARK    2  A    between atoms: C5_6  and  N1_7 
REMARK    3  A    between atoms: C6_8  and  C7_9 
REMARK    4  A    between atoms: C11_13  and  N2_14 
REMARK    5  A    between atoms: N2_14  and  C12_16 
REMARK    6  A    between atoms: C17_21  and  C18_22 
REMARK    7  A    between atoms: C19_25  and  N4_26 
REMARK    8  A    between atoms: N4_26  and  C20_27 
REMARK    9  A    between atoms: C20_27  and  O3_28 
REMARK   10  A    between atoms: C20_27  and  C21_30 
REMARK   11  A    between atoms: C21_30  and  C22_31 
ROOT
HETATM    1  N1  UNL     1      18.227  -3.552  -6.404  1.00  0.00    -0.296 N 
HETATM    2  C6  UNL     1      17.582  -2.973  -7.406  1.00  0.00     0.025 A 
HETATM    3  C10 UNL     1      16.293  -2.511  -7.178  1.00  0.00     0.056 A 
HETATM    4  C11 UNL     1      15.624  -2.608  -5.981  1.00  0.00     0.050 A 
HETATM    5  C17 UNL     1      16.303  -3.219  -4.931  1.00  0.00     0.114 A 
HETATM    6  C19 UNL     1      17.604  -3.689  -5.153  1.00  0.00     0.206 A 
ENDROOT
BRANCH   6   7
HETATM    7  N4  UNL     1      18.227  -4.278  -4.298  1.00  0.00    -0.362 NA
BRANCH   7   8
HETATM    8  C20 UNL     1      18.895  -4.912  -3.370  1.00  0.00     0.227 C 
BRANCH   8   9
HETATM    9  O3  UNL     1      18.677  -4.618  -2.113  1.00  0.00    -0.337 OA
ATOM     10  H3  UNL     1      19.190  -5.050  -1.441  1.00  0.00     0.220 HD
ENDBRANCH   8   9
BRANCH   8  11
HETATM   11  C21 UNL     1      19.911  -5.976  -3.521  1.00  0.00     0.171 C 
HETATM   12  C23 UNL     1      19.654  -6.962  -4.606  1.00  0.00     0.075 C 
HETATM   13  C24 UNL     1      19.731  -8.306  -3.991  1.00  0.00    -0.007 C 
HETATM   14  C25 UNL     1      19.885  -8.164  -2.694  1.00  0.00     0.080 C 
HETATM   15  N5  UNL     1      19.928  -6.818  -2.312  1.00  0.00    -0.377 N 
ATOM     16  H5  UNL     1      19.965  -6.476  -1.351  1.00  0.00     0.160 HD
BRANCH  11  17
HETATM   17  C22 UNL     1      21.328  -5.489  -3.685  1.00  0.00     0.390 C 
HETATM   18  F1  UNL     1      22.024  -6.024  -4.690  1.00  0.00    -0.211 F 
HETATM   19  F2  UNL     1      21.386  -4.108  -3.774  1.00  0.00    -0.211 F 
ENDBRANCH  11  17
ENDBRANCH   8  11
ENDBRANCH   7   8
ENDBRANCH   6   7
BRANCH   1  20
HETATM   20  C5  UNL     1      19.559  -3.978  -6.580  1.00  0.00    -0.000 C 
HETATM   21  C4  UNL     1      19.973  -5.014  -7.521  1.00  0.00     0.056 C 
HETATM   22  C3  UNL     1      21.516  -4.866  -7.585  1.00  0.00     0.038 C 
HETATM   23  C2  UNL     1      21.759  -3.396  -7.348  1.00  0.00     0.126 C 
HETATM   24  C26 UNL     1      20.601  -2.861  -6.577  1.00  0.00     0.085 C 
BRANCH  23  25
HETATM   25  O1  UNL     1      22.974  -3.276  -6.690  1.00  0.00    -0.390 OA
HETATM   26  C1  UNL     1      23.844  -4.315  -6.967  1.00  0.00     0.202 C 
ENDBRANCH  23  25
ENDBRANCH   1  20
BRANCH   5  27
HETATM   27  C18 UNL     1      15.604  -3.369  -3.679  1.00  0.00     0.272 C 
HETATM   28  N3  UNL     1      15.308  -2.311  -2.793  1.00  0.00    -0.057 NA
HETATM   29  O2  UNL     1      15.200  -4.512  -3.314  1.00  0.00    -0.271 OA
ENDBRANCH   5  27
BRANCH   2  30
HETATM   30  C7  UNL     1      18.111  -2.803  -8.735  1.00  0.00     0.036 A 
HETATM   31  C8  UNL     1      17.459  -3.796  -9.769  1.00  0.00     0.011 A 
HETATM   32  C9  UNL     1      17.526  -2.362  -9.973  1.00  0.00     0.011 A 
ENDBRANCH   2  30
BRANCH   4  33
HETATM   33  N2  UNL     1      14.344  -1.994  -5.898  1.00  0.00    -0.384 N 
ATOM     34  H2  UNL     1      13.501  -2.565  -5.959  1.00  0.00     0.160 HD
BRANCH  33  35
HETATM   35  C12 UNL     1      14.229  -0.526  -5.725  1.00  0.00     0.081 C 
HETATM   36  C13 UNL     1      15.499   0.122  -6.121  1.00  0.00     0.025 C 
HETATM   37  C14 UNL     1      15.147   1.133  -7.177  1.00  0.00     0.002 C 
HETATM   38  C15 UNL     1      13.955   0.552  -7.858  1.00  0.00     0.002 C 
HETATM   39  C16 UNL     1      13.174  -0.008  -6.685  1.00  0.00     0.025 C 
ENDBRANCH  33  35
ENDBRANCH   4  33
TORSDOF 11
ENDMDL
MODEL 4
REMARK VINA RESULT: -6.315938890      2.273      4.735
REMARK  11 active torsions:
REMARK  status: ('A' for Active; 'I' for Inactive)
REMARK    1  A    between atoms: O1_2  and  C2_3 
REMARK    2  A    between atoms: C5_6  and  N1_7 
REMARK    3  A    between atoms: C6_8  and  C7_9 
REMARK    4  A    between atoms: C11_13  and  N2_14 
REMARK    5  A    between atoms: N2_14  and  C12_16 
REMARK    6  A    between atoms: C17_21  and  C18_22 
REMARK    7  A    between atoms: C19_25  and  N4_26 
REMARK    8  A    between atoms: N4_26  and  C20_27 
REMARK    9  A    between atoms: C20_27  and  O3_28 
REMARK   10  A    between atoms: C20_27  and  C21_30 
REMARK   11  A    between atoms: C21_30  and  C22_31 
ROOT
HETATM    1  N1  UNL     1      19.426  -3.000  -6.505  1.00  0.00    -0.296 N 
HETATM    2  C6  UNL     1      19.373  -1.869  -7.193  1.00  0.00     0.025 A 
HETATM    3  C10 UNL     1      18.193  -1.139  -7.168  1.00  0.00     0.056 A 
HETATM    4  C11 UNL     1      17.061  -1.500  -6.477  1.00  0.00     0.050 A 
HETATM    5  C17 UNL     1      17.118  -2.690  -5.757  1.00  0.00     0.114 A 
HETATM    6  C19 UNL     1      18.306  -3.433  -5.778  1.00  0.00     0.206 A 
ENDROOT
BRANCH   6   7
HETATM    7  N4  UNL     1      18.402  -4.502  -5.219  1.00  0.00    -0.362 NA
BRANCH   7   8
HETATM    8  C20 UNL     1      18.513  -5.655  -4.612  1.00  0.00     0.227 C 
BRANCH   8   9
HETATM    9  O3  UNL     1      17.779  -6.661  -5.014  1.00  0.00    -0.337 OA
ATOM     10  H3  UNL     1      17.840  -7.492  -4.556  1.00  0.00     0.220 HD
ENDBRANCH   8   9
BRANCH   8  11
HETATM   11  C21 UNL     1      19.393  -6.028  -3.482  1.00  0.00     0.171 C 
HETATM   12  C23 UNL     1      20.721  -6.583  -3.858  1.00  0.00     0.075 C 
HETATM   13  C24 UNL     1      20.866  -7.871  -3.143  1.00  0.00    -0.007 C 
HETATM   14  C25 UNL     1      19.740  -8.131  -2.519  1.00  0.00     0.080 C 
HETATM   15  N5  UNL     1      18.780  -7.132  -2.723  1.00  0.00    -0.377 N 
ATOM     16  H5  UNL     1      17.813  -7.164  -2.398  1.00  0.00     0.160 HD
BRANCH  11  17
HETATM   17  C22 UNL     1      19.633  -4.936  -2.472  1.00  0.00     0.390 C 
HETATM   18  F1  UNL     1      20.482  -3.973  -2.834  1.00  0.00    -0.211 F 
HETATM   19  F2  UNL     1      18.447  -4.362  -2.048  1.00  0.00    -0.211 F 
ENDBRANCH  11  17
ENDBRANCH   8  11
ENDBRANCH   7   8
ENDBRANCH   6   7
BRANCH   1  20
HETATM   20  C5  UNL     1      20.627  -3.736  -6.456  1.00  0.00    -0.000 C 
HETATM   21  C4  UNL     1      21.173  -4.492  -7.580  1.00  0.00     0.056 C 
HETATM   22  C3  UNL     1      22.626  -4.815  -7.142  1.00  0.00     0.038 C 
HETATM   23  C2  UNL     1      23.020  -3.648  -6.270  1.00  0.00     0.126 C 
HETATM   24  C26 UNL     1      21.772  -3.057  -5.708  1.00  0.00     0.085 C 
BRANCH  23  25
HETATM   25  O1  UNL     1      23.898  -4.125  -5.308  1.00  0.00    -0.390 OA
HETATM   26  C1  UNL     1      23.995  -5.505  -5.302  1.00  0.00     0.202 C 
ENDBRANCH  23  25
ENDBRANCH   1  20
BRANCH   5  27
HETATM   27  C18 UNL     1      15.928  -3.108  -5.060  1.00  0.00     0.272 C 
HETATM   28  N3  UNL     1      15.773  -3.100  -3.657  1.00  0.00    -0.057 NA
HETATM   29  O2  UNL     1      14.921  -3.512  -5.715  1.00  0.00    -0.271 OA
ENDBRANCH   5  27
BRANCH   2  30
HETATM   30  C7  UNL     1      20.449  -1.343  -7.993  1.00  0.00     0.036 A 
HETATM   31  C8  UNL     1      20.211  -1.563  -9.534  1.00  0.00     0.011 A 
HETATM   32  C9  UNL     1      20.524  -0.272  -8.952  1.00  0.00     0.011 A 
ENDBRANCH   2  30
BRANCH   4  33
HETATM   33  N2  UNL     1      15.973  -0.584  -6.484  1.00  0.00    -0.384 N 
ATOM     34  H2  UNL     1      15.253  -0.645  -5.763  1.00  0.00     0.160 HD
BRANCH  33  35
HETATM   35  C12 UNL     1      15.879   0.458  -7.534  1.00  0.00     0.081 C 
HETATM   36  C13 UNL     1      15.159  -0.083  -8.708  1.00  0.00     0.025 C 
HETATM   37  C14 UNL     1      14.004   0.846  -8.962  1.00  0.00     0.002 C 
HETATM   38  C15 UNL     1      13.656   1.374  -7.611  1.00  0.00     0.002 C 
HETATM   39  C16 UNL     1      15.029   1.599  -7.007  1.00  0.00     0.025 C 
ENDBRANCH  33  35
ENDBRANCH   4  33
TORSDOF 11
ENDMDL
MODEL 5
REMARK VINA RESULT: -6.262616631      3.268      6.394
REMARK  11 active torsions:
REMARK  status: ('A' for Active; 'I' for Inactive)
REMARK    1  A    between atoms: O1_2  and  C2_3 
REMARK    2  A    between atoms: C5_6  and  N1_7 
REMARK    3  A    between atoms: C6_8  and  C7_9 
REMARK    4  A    between atoms: C11_13  and  N2_14 
REMARK    5  A    between atoms: N2_14  and  C12_16 
REMARK    6  A    between atoms: C17_21  and  C18_22 
REMARK    7  A    between atoms: C19_25  and  N4_26 
REMARK    8  A    between atoms: N4_26  and  C20_27 
REMARK    9  A    between atoms: C20_27  and  O3_28 
REMARK   10  A    between atoms: C20_27  and  C21_30 
REMARK   11  A    between atoms: C21_30  and  C22_31 
ROOT
HETATM    1  N1  UNL     1      22.422  -6.648  -4.136  1.00  0.00    -0.296 N 
HETATM    2  C6  UNL     1      22.798  -5.755  -5.039  1.00  0.00     0.025 A 
HETATM    3  C10 UNL     1      21.918  -4.731  -5.357  1.00  0.00     0.056 A 
HETATM    4  C11 UNL     1      20.670  -4.567  -4.804  1.00  0.00     0.050 A 
HETATM    5  C17 UNL     1      20.276  -5.507  -3.857  1.00  0.00     0.114 A 
HETATM    6  C19 UNL     1      21.159  -6.546  -3.531  1.00  0.00     0.206 A 
ENDROOT
BRANCH   6   7
HETATM    7  N4  UNL     1      20.855  -7.426  -2.758  1.00  0.00    -0.362 NA
BRANCH   7   8
HETATM    8  C20 UNL     1      20.520  -8.372  -1.920  1.00  0.00     0.227 C 
BRANCH   8   9
HETATM    9  O3  UNL     1      19.738  -8.085  -0.911  1.00  0.00    -0.337 OA
ATOM     10  H3  UNL     1      19.111  -7.376  -0.998  1.00  0.00     0.220 HD
ENDBRANCH   8   9
BRANCH   8  11
HETATM   11  C21 UNL     1      20.901  -9.802  -1.935  1.00  0.00     0.171 C 
HETATM   12  C23 UNL     1      20.954 -10.439  -3.279  1.00  0.00     0.075 C 
HETATM   13  C24 UNL     1      20.112 -11.654  -3.211  1.00  0.00    -0.007 C 
HETATM   14  C25 UNL     1      19.525 -11.690  -2.037  1.00  0.00     0.080 C 
HETATM   15  N5  UNL     1      19.872 -10.594  -1.238  1.00  0.00    -0.377 N 
ATOM     16  H5  UNL     1      19.477 -10.379  -0.323  1.00  0.00     0.160 HD
BRANCH  11  17
HETATM   17  C22 UNL     1      22.195 -10.126  -1.233  1.00  0.00     0.390 C 
HETATM   18  F1  UNL     1      23.128 -10.735  -1.968  1.00  0.00    -0.211 F 
HETATM   19  F2  UNL     1      22.745  -9.007  -0.634  1.00  0.00    -0.211 F 
ENDBRANCH  11  17
ENDBRANCH   8  11
ENDBRANCH   7   8
ENDBRANCH   6   7
BRANCH   1  20
HETATM   20  C5  UNL     1      23.313  -7.667  -3.742  1.00  0.00    -0.000 C 
HETATM   21  C4  UNL     1      23.810  -8.712  -4.632  1.00  0.00     0.056 C 
HETATM   22  C3  UNL     1      24.987  -9.345  -3.843  1.00  0.00     0.038 C 
HETATM   23  C2  UNL     1      25.539  -8.207  -3.021  1.00  0.00     0.126 C 
HETATM   24  C26 UNL     1      24.444  -7.215  -2.821  1.00  0.00     0.085 C 
BRANCH  23  25
HETATM   25  O1  UNL     1      26.032  -8.745  -1.842  1.00  0.00    -0.390 OA
HETATM   26  C1  UNL     1      26.453 -10.055  -1.980  1.00  0.00     0.202 C 
ENDBRANCH  23  25
ENDBRANCH   1  20
BRANCH   5  27
HETATM   27  C18 UNL     1      18.955  -5.378  -3.295  1.00  0.00     0.272 C 
HETATM   28  N3  UNL     1      17.816  -6.075  -3.752  1.00  0.00    -0.057 NA
HETATM   29  O2  UNL     1      18.758  -4.601  -2.315  1.00  0.00    -0.271 OA
ENDBRANCH   5  27
BRANCH   2  30
HETATM   30  C7  UNL     1      24.056  -5.777  -5.742  1.00  0.00     0.036 A 
HETATM   31  C8  UNL     1      23.896  -6.234  -7.240  1.00  0.00     0.011 A 
HETATM   32  C9  UNL     1      24.573  -5.015  -6.847  1.00  0.00     0.011 A 
ENDBRANCH   2  30
BRANCH   4  33
HETATM   33  N2  UNL     1      19.940  -3.404  -5.175  1.00  0.00    -0.384 N 
ATOM     34  H2  UNL     1      20.040  -2.546  -4.633  1.00  0.00     0.160 HD
BRANCH  33  35
HETATM   35  C12 UNL     1      19.033  -3.435  -6.347  1.00  0.00     0.081 C 
HETATM   36  C13 UNL     1      17.664  -3.061  -5.925  1.00  0.00     0.025 C 
HETATM   37  C14 UNL     1      17.259  -1.897  -6.787  1.00  0.00     0.002 C 
HETATM   38  C15 UNL     1      18.541  -1.198  -7.086  1.00  0.00     0.002 C 
HETATM   39  C16 UNL     1      19.477  -2.367  -7.330  1.00  0.00     0.025 C 
ENDBRANCH  33  35
ENDBRANCH   4  33
TORSDOF 11
ENDMDL
