MODEL 1
REMARK VINA RESULT: -6.222441549      0.000      0.000
REMARK  7 active torsions:
REMARK  status: ('A' for Active; 'I' for Inactive)
REMARK    1  A    between atoms: S1_2  and  C2_3 
REMARK    2  A    between atoms: C4_10  and  N3_11 
REMARK    3  A    between atoms: N3_11  and  N4_13 
REMARK    4  A    between atoms: C5_18  and  O4_20 
REMARK    5  A    between atoms: C7_22  and  O5_23 
REMARK    6  A    between atoms: C7_22  and  N6_25 
REMARK       I    between atoms: N6_25  and  C8_27 
REMARK    7  A    between atoms: C8_27  and  C9_29 
ROOT
HETATM    1  C2  UNL     1      16.224  17.813  -1.965  1.00  0.00     0.128 C 
HETATM    2  N1  UNL     1      15.870  16.609  -2.314  1.00  0.00    -0.256 N 
ATOM      3  H1  UNL     1      14.906  16.314  -2.467  1.00  0.00     0.195 HD
HETATM    4  O1  UNL     1      16.982  15.778  -2.449  1.00  0.00    -0.235 OA
HETATM    5  C3  UNL     1      17.955  16.358  -1.600  1.00  0.00     0.270 C 
HETATM    6  N2  UNL     1      17.798  15.909  -0.269  1.00  0.00    -0.319 N 
ATOM      7  H2  UNL     1      17.191  16.332   0.432  1.00  0.00     0.166 HD
HETATM    8  C4  UNL     1      18.563  14.854  -0.083  1.00  0.00     0.200 C 
HETATM    9  N5  UNL     1      19.263  14.560  -1.296  1.00  0.00    -0.325 N 
ATOM     10  H5  UNL     1      19.617  13.663  -1.627  1.00  0.00     0.165 HD
HETATM   11  C5  UNL     1      19.344  15.885  -1.948  1.00  0.00     0.189 C 
HETATM   12  C6  UNL     1      20.371  16.654  -1.145  1.00  0.00     0.076 C 
HETATM   13  C7  UNL     1      17.696  17.807  -1.836  1.00  0.00     0.245 C 
ENDROOT
BRANCH  11  14
HETATM   14  O4  UNL     1      19.596  15.794  -3.283  1.00  0.00    -0.366 OA
ATOM     15  H4  UNL     1      20.499  15.961  -3.529  1.00  0.00     0.212 HD
ENDBRANCH  11  14
BRANCH  13  16
HETATM   16  O5  UNL     1      18.195  18.079  -3.128  1.00  0.00    -0.361 OA
ATOM     17  H5  UNL     1      18.907  17.465  -3.264  1.00  0.00     0.213 HD
ENDBRANCH  13  16
BRANCH  13  18
HETATM   18  N6  UNL     1      18.155  18.719  -0.872  1.00  0.00    -0.319 N 
HETATM   19  C8  UNL     1      18.525  20.051  -1.116  1.00  0.00     0.230 C 
HETATM   20  O6  UNL     1      18.479  20.540  -2.255  1.00  0.00    -0.273 OA
ATOM     21  H6  UNL     1      18.224  18.385   0.089  1.00  0.00     0.166 HD
BRANCH  19  22
HETATM   22  C9  UNL     1      18.996  20.939   0.009  1.00  0.00     0.188 C 
HETATM   23  S2  UNL     1      20.650  20.477   0.542  1.00  0.00    -0.088 SA
ENDBRANCH  19  22
ENDBRANCH  13  18
BRANCH   8  24
HETATM   24  N3  UNL     1      18.692  14.100   1.120  1.00  0.00    -0.211 N 
ATOM     25  H3  UNL     1      17.857  13.866   1.656  1.00  0.00     0.196 HD
BRANCH  24  26
HETATM   26  N4  UNL     1      19.923  13.681   1.570  1.00  0.00    -0.036 N 
HETATM   27  O2  UNL     1      20.099  12.507   1.912  1.00  0.00    -0.516 OA
HETATM   28  O3  UNL     1      20.945  14.600   1.625  1.00  0.00    -0.516 OA
ENDBRANCH  24  26
ENDBRANCH   8  24
BRANCH   1  29
HETATM   29  S1  UNL     1      15.011  19.093  -1.720  1.00  0.00    -0.114 SA
HETATM   30  C1  UNL     1      15.087  20.311  -3.092  1.00  0.00     0.097 C 
ENDBRANCH   1  29
TORSDOF 7
ENDMDL
MODEL 2
REMARK VINA RESULT: -6.049873927      1.615      2.052
REMARK  7 active torsions:
REMARK  status: ('A' for Active; 'I' for Inactive)
REMARK    1  A    between atoms: S1_2  and  C2_3 
REMARK    2  A    between atoms: C4_10  and  N3_11 
REMARK    3  A    between atoms: N3_11  and  N4_13 
REMARK    4  A    between atoms: C5_18  and  O4_20 
REMARK    5  A    between atoms: C7_22  and  O5_23 
REMARK    6  A    between atoms: C7_22  and  N6_25 
REMARK       I    between atoms: N6_25  and  C8_27 
REMARK    7  A    between atoms: C8_27  and  C9_29 
ROOT
HETATM    1  C2  UNL     1      17.500  18.748  -1.333  1.00  0.00     0.128 C 
HETATM    2  N1  UNL     1      16.405  18.095  -1.071  1.00  0.00    -0.256 N 
ATOM      3  H1  UNL     1      15.578  18.505  -0.637  1.00  0.00     0.195 HD
HETATM    4  O1  UNL     1      16.511  16.760  -1.461  1.00  0.00    -0.235 OA
HETATM    5  C3  UNL     1      17.900  16.494  -1.420  1.00  0.00     0.270 C 
HETATM    6  N2  UNL     1      18.307  16.132  -0.116  1.00  0.00    -0.319 N 
ATOM      7  H2  UNL     1      18.589  16.779   0.620  1.00  0.00     0.166 HD
HETATM    8  C4  UNL     1      18.264  14.820  -0.006  1.00  0.00     0.200 C 
HETATM    9  N5  UNL     1      17.820  14.258  -1.244  1.00  0.00    -0.325 N 
ATOM     10  H5  UNL     1      17.328  13.380  -1.407  1.00  0.00     0.165 HD
HETATM   11  C5  UNL     1      18.254  15.273  -2.230  1.00  0.00     0.189 C 
HETATM   12  C6  UNL     1      19.757  15.120  -2.310  1.00  0.00     0.076 C 
HETATM   13  C7  UNL     1      18.441  17.782  -1.939  1.00  0.00     0.245 C 
ENDROOT
BRANCH  11  14
HETATM   14  O4  UNL     1      17.592  15.164  -3.415  1.00  0.00    -0.366 OA
ATOM     15  H4  UNL     1      17.728  14.343  -3.872  1.00  0.00     0.212 HD
ENDBRANCH  11  14
BRANCH  13  16
HETATM   16  O5  UNL     1      18.157  17.787  -3.321  1.00  0.00    -0.361 OA
ATOM     17  H5  UNL     1      18.815  17.232  -3.722  1.00  0.00     0.213 HD
ENDBRANCH  13  16
BRANCH  13  18
HETATM   18  N6  UNL     1      19.782  18.090  -1.657  1.00  0.00    -0.319 N 
HETATM   19  C8  UNL     1      20.597  18.956  -2.404  1.00  0.00     0.230 C 
HETATM   20  O6  UNL     1      20.175  19.533  -3.417  1.00  0.00    -0.273 OA
ATOM     21  H6  UNL     1      20.199  17.647  -0.839  1.00  0.00     0.166 HD
BRANCH  19  22
HETATM   22  C9  UNL     1      22.026  19.215  -1.994  1.00  0.00     0.188 C 
HETATM   23  S2  UNL     1      22.260  18.885  -0.242  1.00  0.00    -0.088 SA
ENDBRANCH  19  22
ENDBRANCH  13  18
BRANCH   8  24
HETATM   24  N3  UNL     1      18.592  14.053   1.150  1.00  0.00    -0.211 N 
ATOM     25  H3  UNL     1      17.849  13.753   1.780  1.00  0.00     0.196 HD
BRANCH  24  26
HETATM   26  N4  UNL     1      19.894  13.710   1.430  1.00  0.00    -0.036 N 
HETATM   27  O2  UNL     1      20.184  12.549   1.738  1.00  0.00    -0.516 OA
HETATM   28  O3  UNL     1      20.858  14.689   1.357  1.00  0.00    -0.516 OA
ENDBRANCH  24  26
ENDBRANCH   8  24
BRANCH   1  29
HETATM   29  S1  UNL     1      17.653  20.478  -0.943  1.00  0.00    -0.114 SA
HETATM   30  C1  UNL     1      18.807  20.712   0.466  1.00  0.00     0.097 C 
ENDBRANCH   1  29
TORSDOF 7
ENDMDL
MODEL 3
REMARK VINA RESULT: -5.561567883      1.383      1.578
REMARK  7 active torsions:
REMARK  status: ('A' for Active; 'I' for Inactive)
REMARK    1  A    between atoms: S1_2  and  C2_3 
REMARK    2  A    between atoms: C4_10  and  N3_11 
REMARK    3  A    between atoms: N3_11  and  N4_13 
REMARK    4  A    between atoms: C5_18  and  O4_20 
REMARK    5  A    between atoms: C7_22  and  O5_23 
REMARK    6  A    between atoms: C7_22  and  N6_25 
REMARK       I    between atoms: N6_25  and  C8_27 
REMARK    7  A    between atoms: C8_27  and  C9_29 
ROOT
HETATM    1  C2  UNL     1      16.878  16.438  -1.326  1.00  0.00     0.128 C 
HETATM    2  N1  UNL     1      16.951  15.216  -1.769  1.00  0.00    -0.256 N 
ATOM      3  H1  UNL     1      16.177  14.551  -1.757  1.00  0.00     0.195 HD
HETATM    4  O1  UNL     1      18.224  14.935  -2.262  1.00  0.00    -0.235 OA
HETATM    5  C3  UNL     1      19.073  15.826  -1.562  1.00  0.00     0.270 C 
HETATM    6  N2  UNL     1      19.452  15.287  -0.312  1.00  0.00    -0.319 N 
ATOM      7  H2  UNL     1      18.929  15.381   0.558  1.00  0.00     0.166 HD
HETATM    8  C4  UNL     1      20.591  14.642  -0.455  1.00  0.00     0.200 C 
HETATM    9  N5  UNL     1      21.014  14.729  -1.819  1.00  0.00    -0.325 N 
ATOM     10  H5  UNL     1      21.594  14.081  -2.349  1.00  0.00     0.165 HD
HETATM   11  C5  UNL     1      20.396  15.997  -2.265  1.00  0.00     0.189 C 
HETATM   12  C6  UNL     1      21.205  17.084  -1.592  1.00  0.00     0.076 C 
HETATM   13  C7  UNL     1      18.213  17.043  -1.516  1.00  0.00     0.245 C 
ENDROOT
BRANCH  11  14
HETATM   14  O4  UNL     1      20.312  16.087  -3.621  1.00  0.00    -0.366 OA
ATOM     15  H4  UNL     1      20.620  15.320  -4.090  1.00  0.00     0.212 HD
ENDBRANCH  11  14
BRANCH  13  16
HETATM   16  O5  UNL     1      18.215  17.563  -2.827  1.00  0.00    -0.361 OA
ATOM     17  H5  UNL     1      18.804  18.307  -2.808  1.00  0.00     0.213 HD
ENDBRANCH  13  16
BRANCH  13  18
HETATM   18  N6  UNL     1      18.506  18.014  -0.544  1.00  0.00    -0.319 N 
HETATM   19  C8  UNL     1      18.543  19.401  -0.758  1.00  0.00     0.230 C 
HETATM   20  O6  UNL     1      18.317  19.892  -1.874  1.00  0.00    -0.273 OA
ATOM     21  H6  UNL     1      18.708  17.683   0.399  1.00  0.00     0.166 HD
BRANCH  19  22
HETATM   22  C9  UNL     1      18.863  20.348   0.372  1.00  0.00     0.188 C 
HETATM   23  S2  UNL     1      20.640  20.495   0.603  1.00  0.00    -0.088 SA
ENDBRANCH  19  22
ENDBRANCH  13  18
BRANCH   8  24
HETATM   24  N3  UNL     1      21.311  13.952   0.565  1.00  0.00    -0.211 N 
ATOM     25  H3  UNL     1      22.213  14.314   0.873  1.00  0.00     0.196 HD
BRANCH  24  26
HETATM   26  N4  UNL     1      20.810  12.807   1.139  1.00  0.00    -0.036 N 
HETATM   27  O2  UNL     1      19.829  12.859   1.889  1.00  0.00    -0.516 OA
HETATM   28  O3  UNL     1      21.427  11.611   0.856  1.00  0.00    -0.516 OA
ENDBRANCH  24  26
ENDBRANCH   8  24
BRANCH   1  29
HETATM   29  S1  UNL     1      15.366  17.077  -0.637  1.00  0.00    -0.114 SA
HETATM   30  C1  UNL     1      14.999  18.733  -1.341  1.00  0.00     0.097 C 
ENDBRANCH   1  29
TORSDOF 7
ENDMDL
MODEL 4
REMARK VINA RESULT: -5.558335801      3.220      5.793
REMARK  7 active torsions:
REMARK  status: ('A' for Active; 'I' for Inactive)
REMARK    1  A    between atoms: S1_2  and  C2_3 
REMARK    2  A    between atoms: C4_10  and  N3_11 
REMARK    3  A    between atoms: N3_11  and  N4_13 
REMARK    4  A    between atoms: C5_18  and  O4_20 
REMARK    5  A    between atoms: C7_22  and  O5_23 
REMARK    6  A    between atoms: C7_22  and  N6_25 
REMARK       I    between atoms: N6_25  and  C8_27 
REMARK    7  A    between atoms: C8_27  and  C9_29 
ROOT
HETATM    1  C2  UNL     1      22.162  14.131  -1.001  1.00  0.00     0.128 C 
HETATM    2  N1  UNL     1      21.494  13.042  -1.254  1.00  0.00    -0.256 N 
ATOM      3  H1  UNL     1      21.889  12.213  -1.698  1.00  0.00     0.195 HD
HETATM    4  O1  UNL     1      20.168  13.158  -0.838  1.00  0.00    -0.235 OA
HETATM    5  C3  UNL     1      19.913  14.550  -0.870  1.00  0.00     0.270 C 
HETATM    6  N2  UNL     1      19.530  14.965  -2.165  1.00  0.00    -0.319 N 
ATOM      7  H2  UNL     1      20.166  15.243  -2.912  1.00  0.00     0.166 HD
HETATM    8  C4  UNL     1      18.216  14.933  -2.250  1.00  0.00     0.200 C 
HETATM    9  N5  UNL     1      17.674  14.491  -1.002  1.00  0.00    -0.325 N 
ATOM     10  H5  UNL     1      16.795  14.006  -0.825  1.00  0.00     0.165 HD
HETATM   11  C5  UNL     1      18.711  14.913  -0.035  1.00  0.00     0.189 C 
HETATM   12  C6  UNL     1      18.574  16.417   0.053  1.00  0.00     0.076 C 
HETATM   13  C7  UNL     1      21.216  15.078  -0.374  1.00  0.00     0.245 C 
ENDROOT
BRANCH  11  14
HETATM   14  O4  UNL     1      18.620  14.248   1.150  1.00  0.00    -0.366 OA
ATOM     15  H4  UNL     1      17.956  13.569   1.174  1.00  0.00     0.212 HD
ENDBRANCH  11  14
BRANCH  13  16
HETATM   16  O5  UNL     1      21.245  14.789   1.007  1.00  0.00    -0.361 OA
ATOM     17  H5  UNL     1      20.540  14.171   1.156  1.00  0.00     0.213 HD
ENDBRANCH  13  16
BRANCH  13  18
HETATM   18  N6  UNL     1      21.531  16.417  -0.657  1.00  0.00    -0.319 N 
HETATM   19  C8  UNL     1      22.328  17.257   0.137  1.00  0.00     0.230 C 
HETATM   20  O6  UNL     1      22.830  16.861   1.199  1.00  0.00    -0.273 OA
ATOM     21  H6  UNL     1      21.147  16.814  -1.515  1.00  0.00     0.166 HD
BRANCH  19  22
HETATM   22  C9  UNL     1      22.602  18.681  -0.280  1.00  0.00     0.188 C 
HETATM   23  S2  UNL     1      21.898  19.841   0.900  1.00  0.00    -0.088 SA
ENDBRANCH  19  22
ENDBRANCH  13  18
BRANCH   8  24
HETATM   24  N3  UNL     1      17.430  15.273  -3.390  1.00  0.00    -0.211 N 
ATOM     25  H3  UNL     1      17.596  14.793  -4.274  1.00  0.00     0.196 HD
BRANCH  24  26
HETATM   26  N4  UNL     1      16.451  16.236  -3.319  1.00  0.00    -0.036 N 
HETATM   27  O2  UNL     1      16.295  17.041  -4.244  1.00  0.00    -0.516 OA
HETATM   28  O3  UNL     1      15.655  16.277  -2.198  1.00  0.00    -0.516 OA
ENDBRANCH  24  26
ENDBRANCH   8  24
BRANCH   1  29
HETATM   29  S1  UNL     1      23.885  14.270  -1.424  1.00  0.00    -0.114 SA
HETATM   30  C1  UNL     1      24.582  12.614  -1.804  1.00  0.00     0.097 C 
ENDBRANCH   1  29
TORSDOF 7
ENDMDL
MODEL 5
REMARK VINA RESULT: -5.551758918      3.057      5.568
REMARK  7 active torsions:
REMARK  status: ('A' for Active; 'I' for Inactive)
REMARK    1  A    between atoms: S1_2  and  C2_3 
REMARK    2  A    between atoms: C4_10  and  N3_11 
REMARK    3  A    between atoms: N3_11  and  N4_13 
REMARK    4  A    between atoms: C5_18  and  O4_20 
REMARK    5  A    between atoms: C7_22  and  O5_23 
REMARK    6  A    between atoms: C7_22  and  N6_25 
REMARK       I    between atoms: N6_25  and  C8_27 
REMARK    7  A    between atoms: C8_27  and  C9_29 
ROOT
HETATM    1  C2  UNL     1      21.808  14.618  -1.244  1.00  0.00     0.128 C 
HETATM    2  N1  UNL     1      21.243  13.476  -1.513  1.00  0.00    -0.256 N 
ATOM      3  H1  UNL     1      21.709  12.697  -1.978  1.00  0.00     0.195 HD
HETATM    4  O1  UNL     1      19.917  13.458  -1.081  1.00  0.00    -0.235 OA
HETATM    5  C3  UNL     1      19.532  14.820  -1.081  1.00  0.00     0.270 C 
HETATM    6  N2  UNL     1      19.095  15.222  -2.364  1.00  0.00    -0.319 N 
ATOM      7  H2  UNL     1      19.693  15.574  -3.111  1.00  0.00     0.166 HD
HETATM    8  C4  UNL     1      17.789  15.068  -2.436  1.00  0.00     0.200 C 
HETATM    9  N5  UNL     1      17.307  14.552  -1.192  1.00  0.00    -0.325 N 
ATOM     10  H5  UNL     1      16.479  13.982  -1.016  1.00  0.00     0.165 HD
HETATM   11  C5  UNL     1      18.311  15.051  -0.227  1.00  0.00     0.189 C 
HETATM   12  C6  UNL     1      18.033  16.533  -0.106  1.00  0.00     0.076 C 
HETATM   13  C7  UNL     1      20.785  15.459  -0.588  1.00  0.00     0.245 C 
ENDROOT
BRANCH  11  14
HETATM   14  O4  UNL     1      18.297  14.357   0.945  1.00  0.00    -0.366 OA
ATOM     15  H4  UNL     1      17.900  14.818   1.674  1.00  0.00     0.212 HD
ENDBRANCH  11  14
BRANCH  13  16
HETATM   16  O5  UNL     1      20.858  15.147   0.786  1.00  0.00    -0.361 OA
ATOM     17  H5  UNL     1      20.180  15.665   1.204  1.00  0.00     0.213 HD
ENDBRANCH  13  16
BRANCH  13  18
HETATM   18  N6  UNL     1      20.968  16.827  -0.847  1.00  0.00    -0.319 N 
HETATM   19  C8  UNL     1      21.782  17.699  -0.105  1.00  0.00     0.230 C 
HETATM   20  O6  UNL     1      22.423  17.308   0.882  1.00  0.00    -0.273 OA
ATOM     21  H6  UNL     1      20.467  17.222  -1.642  1.00  0.00     0.166 HD
BRANCH  19  22
HETATM   22  C9  UNL     1      21.904  19.153  -0.489  1.00  0.00     0.188 C 
HETATM   23  S2  UNL     1      21.674  20.216   0.943  1.00  0.00    -0.088 SA
ENDBRANCH  19  22
ENDBRANCH  13  18
BRANCH   8  24
HETATM   24  N3  UNL     1      16.961  15.354  -3.560  1.00  0.00    -0.211 N 
ATOM     25  H3  UNL     1      16.199  14.718  -3.796  1.00  0.00     0.196 HD
BRANCH  24  26
HETATM   26  N4  UNL     1      17.169  16.472  -4.333  1.00  0.00    -0.036 N 
HETATM   27  O2  UNL     1      16.233  17.235  -4.598  1.00  0.00    -0.516 OA
HETATM   28  O3  UNL     1      18.441  16.718  -4.797  1.00  0.00    -0.516 OA
ENDBRANCH  24  26
ENDBRANCH   8  24
BRANCH   1  29
HETATM   29  S1  UNL     1      23.506  14.928  -1.681  1.00  0.00    -0.114 SA
HETATM   30  C1  UNL     1      24.458  13.358  -1.681  1.00  0.00     0.097 C 
ENDBRANCH   1  29
TORSDOF 7
ENDMDL
