MODEL 1
REMARK VINA RESULT: -7.063241099      0.000      0.000
REMARK  6 active torsions:
REMARK  status: ('A' for Active; 'I' for Inactive)
REMARK       I    between atoms: N1_2  and  C3_4 
REMARK       I    between atoms: C3_4  and  N7_14 
REMARK    1  A    between atoms: N2_5  and  C4_7 
REMARK    2  A    between atoms: N7_14  and  N8_16 
REMARK    3  A    between atoms: C5_18  and  C6_19 
REMARK    4  A    between atoms: N11_24  and  C7_25 
REMARK    5  A    between atoms: C8_31  and  N14_32 
REMARK    6  A    between atoms: C9_35  and  O2_36 
ROOT
HETATM    1  C6  UNL     1      20.292  13.781   0.210  1.00  0.00     0.119 A 
HETATM    2  N9  UNL     1      19.519  13.861   1.305  1.00  0.00    -0.280 N 
ATOM      3  H9  UNL     1      19.759  13.531   2.239  1.00  0.00     0.188 HD
HETATM    4  N10 UNL     1      18.406  14.439   0.954  1.00  0.00    -0.232 N 
ATOM      5  H10 UNL     1      17.629  14.631   1.587  1.00  0.00     0.209 HD
HETATM    6  N11 UNL     1      18.414  14.745  -0.331  1.00  0.00    -0.195 N 
HETATM    7  C9  UNL     1      19.583  14.344  -0.822  1.00  0.00     0.195 A 
ENDROOT
BRANCH   1   8
HETATM    8  C5  UNL     1      21.630  13.215   0.096  1.00  0.00     0.143 C 
HETATM    9  N8  UNL     1      21.898  12.126   0.697  1.00  0.00    -0.295 N 
ATOM     10  H8  UNL     1      21.154  11.688   1.241  1.00  0.00     0.186 HD
BRANCH   9  11
HETATM   11  N7  UNL     1      23.135  11.490   0.664  1.00  0.00    -0.132 N 
HETATM   12  C3  UNL     1      23.240  10.114   0.270  1.00  0.00     0.708 C 
HETATM   13  N1  UNL     1      23.534   9.835  -1.080  1.00  0.00    -0.225 N 
HETATM   14  N2  UNL     1      23.056   9.241   1.185  1.00  0.00    -0.019 N 
HETATM   15  C1  UNL     1      24.900   9.712  -1.510  1.00  0.00     0.168 C 
HETATM   16  C2  UNL     1      22.471   9.672  -2.036  1.00  0.00     0.168 C 
ATOM     17  H2  UNL     1      22.848   9.568   2.129  1.00  0.00     0.203 HD
ATOM     18  H7  UNL     1      23.976  12.007   0.921  1.00  0.00     0.205 HD
BRANCH  14  19
HETATM   19  C4  UNL     1      23.124   7.839   0.959  1.00  0.00     0.722 A 
HETATM   20  N3  UNL     1      22.088   7.074   0.573  1.00  0.00    -0.116 N 
HETATM   21  N4  UNL     1      22.471   5.811   0.449  1.00  0.00     0.006 NA
ATOM     22  H3  UNL     1      21.143   7.417   0.401  1.00  0.00     0.202 HD
HETATM   23  N5  UNL     1      23.771   5.792   0.765  1.00  0.00     0.006 NA
HETATM   24  N6  UNL     1      24.177   7.012   1.075  1.00  0.00    -0.116 N 
ATOM     25  H6  UNL     1      25.122   7.278   1.353  1.00  0.00     0.202 HD
ENDBRANCH  14  19
ENDBRANCH   9  11
ENDBRANCH   1   8
BRANCH   7  26
HETATM   26  O2  UNL     1      19.996  14.482  -2.160  1.00  0.00    -0.343 OA
ATOM     27  H2  UNL     1      19.553  14.961  -2.850  1.00  0.00     0.219 HD
ENDBRANCH   7  26
BRANCH   6  28
HETATM   28  C7  UNL     1      17.379  15.378  -1.056  1.00  0.00     0.198 A 
HETATM   29  N12 UNL     1      16.785  15.018  -2.205  1.00  0.00    -0.220 N 
HETATM   30  O1  UNL     1      15.868  15.901  -2.521  1.00  0.00    -0.153 OA
ATOM     31  H12 UNL     1      17.013  14.186  -2.750  1.00  0.00     0.198 HD
HETATM   32  N13 UNL     1      15.819  16.839  -1.633  1.00  0.00    -0.222 N 
HETATM   33  C8  UNL     1      16.744  16.567  -0.686  1.00  0.00     0.169 A 
ATOM     34  H13 UNL     1      15.191  17.644  -1.646  1.00  0.00     0.198 HD
BRANCH  33  35
HETATM   35  N14 UNL     1      16.976  17.293   0.356  1.00  0.00    -0.381 N 
ATOM     36 2H14 UNL     1      17.291  16.940   1.259  1.00  0.00     0.157 HD
ATOM     37 1H14 UNL     1      16.884  18.305   0.444  1.00  0.00     0.157 HD
ENDBRANCH  33  35
ENDBRANCH   6  28
TORSDOF 6
ENDMDL
MODEL 2
REMARK VINA RESULT: -7.052710354      0.977      1.337
REMARK  6 active torsions:
REMARK  status: ('A' for Active; 'I' for Inactive)
REMARK       I    between atoms: N1_2  and  C3_4 
REMARK       I    between atoms: C3_4  and  N7_14 
REMARK    1  A    between atoms: N2_5  and  C4_7 
REMARK    2  A    between atoms: N7_14  and  N8_16 
REMARK    3  A    between atoms: C5_18  and  C6_19 
REMARK    4  A    between atoms: N11_24  and  C7_25 
REMARK    5  A    between atoms: C8_31  and  N14_32 
REMARK    6  A    between atoms: C9_35  and  O2_36 
ROOT
HETATM    1  C6  UNL     1      20.414  13.871   0.336  1.00  0.00     0.119 A 
HETATM    2  N9  UNL     1      19.572  13.917   1.380  1.00  0.00    -0.280 N 
ATOM      3  H9  UNL     1      19.773  13.611   2.332  1.00  0.00     0.188 HD
HETATM    4  N10 UNL     1      18.451  14.424   0.954  1.00  0.00    -0.232 N 
ATOM      5  H10 UNL     1      17.627  14.576   1.536  1.00  0.00     0.209 HD
HETATM    6  N11 UNL     1      18.520  14.716  -0.332  1.00  0.00    -0.195 N 
HETATM    7  C9  UNL     1      19.738  14.380  -0.746  1.00  0.00     0.195 A 
ENDROOT
BRANCH   1   8
HETATM    8  C5  UNL     1      21.787  13.384   0.311  1.00  0.00     0.143 C 
HETATM    9  N8  UNL     1      22.203  12.742  -0.707  1.00  0.00    -0.295 N 
ATOM     10  H8  UNL     1      21.547  12.594  -1.474  1.00  0.00     0.186 HD
BRANCH   9  11
HETATM   11  N7  UNL     1      23.488  12.229  -0.846  1.00  0.00    -0.132 N 
HETATM   12  C3  UNL     1      23.746  10.834  -0.630  1.00  0.00     0.708 C 
HETATM   13  N1  UNL     1      23.741   9.981  -1.753  1.00  0.00    -0.225 N 
HETATM   14  N2  UNL     1      23.962  10.471   0.576  1.00  0.00    -0.019 N 
HETATM   15  C1  UNL     1      24.955   9.747  -2.486  1.00  0.00     0.168 C 
HETATM   16  C2  UNL     1      22.523   9.341  -2.172  1.00  0.00     0.168 C 
ATOM     17  H2  UNL     1      23.939  11.184   1.305  1.00  0.00     0.203 HD
ATOM     18  H7  UNL     1      24.255  12.851  -1.103  1.00  0.00     0.205 HD
BRANCH  14  19
HETATM   19  C4  UNL     1      24.231   9.128   0.957  1.00  0.00     0.722 A 
HETATM   20  N3  UNL     1      25.455   8.574   0.994  1.00  0.00    -0.116 N 
HETATM   21  N4  UNL     1      25.376   7.310   1.388  1.00  0.00     0.006 NA
ATOM     22  H3  UNL     1      26.321   9.056   0.753  1.00  0.00     0.202 HD
HETATM   23  N5  UNL     1      24.075   7.077   1.600  1.00  0.00     0.006 NA
HETATM   24  N6  UNL     1      23.373   8.168   1.343  1.00  0.00    -0.116 N 
ATOM     25  H6  UNL     1      22.361   8.264   1.423  1.00  0.00     0.202 HD
ENDBRANCH  14  19
ENDBRANCH   9  11
ENDBRANCH   1   8
BRANCH   7  26
HETATM   26  O2  UNL     1      20.224  14.528  -2.057  1.00  0.00    -0.343 OA
ATOM     27  H2  UNL     1      19.851  14.163  -2.851  1.00  0.00     0.219 HD
ENDBRANCH   7  26
BRANCH   6  28
HETATM   28  C7  UNL     1      17.496  15.279  -1.127  1.00  0.00     0.198 A 
HETATM   29  N12 UNL     1      17.033  14.904  -2.330  1.00  0.00    -0.220 N 
HETATM   30  O1  UNL     1      16.070  15.714  -2.702  1.00  0.00    -0.153 OA
ATOM     31  H12 UNL     1      17.377  14.110  -2.872  1.00  0.00     0.198 HD
HETATM   32  N13 UNL     1      15.866  16.618  -1.801  1.00  0.00    -0.222 N 
HETATM   33  C8  UNL     1      16.731  16.398  -0.786  1.00  0.00     0.169 A 
ATOM     34  H13 UNL     1      15.173  17.366  -1.848  1.00  0.00     0.198 HD
BRANCH  33  35
HETATM   35  N14 UNL     1      16.812  17.110   0.288  1.00  0.00    -0.381 N 
ATOM     36 2H14 UNL     1      16.234  16.987   1.119  1.00  0.00     0.157 HD
ATOM     37 1H14 UNL     1      17.446  17.887   0.475  1.00  0.00     0.157 HD
ENDBRANCH  33  35
ENDBRANCH   6  28
TORSDOF 6
ENDMDL
MODEL 3
REMARK VINA RESULT: -6.844840616      2.397      9.178
REMARK  6 active torsions:
REMARK  status: ('A' for Active; 'I' for Inactive)
REMARK       I    between atoms: N1_2  and  C3_4 
REMARK       I    between atoms: C3_4  and  N7_14 
REMARK    1  A    between atoms: N2_5  and  C4_7 
REMARK    2  A    between atoms: N7_14  and  N8_16 
REMARK    3  A    between atoms: C5_18  and  C6_19 
REMARK    4  A    between atoms: N11_24  and  C7_25 
REMARK    5  A    between atoms: C8_31  and  N14_32 
REMARK    6  A    between atoms: C9_35  and  O2_36 
ROOT
HETATM    1  C6  UNL     1      21.271  13.103  -0.722  1.00  0.00     0.119 A 
HETATM    2  N9  UNL     1      22.019  13.480   0.328  1.00  0.00    -0.280 N 
ATOM      3  H9  UNL     1      22.137  14.432   0.673  1.00  0.00     0.188 HD
HETATM    4  N10 UNL     1      22.563  12.406   0.825  1.00  0.00    -0.232 N 
ATOM      5  H10 UNL     1      23.185  12.395   1.633  1.00  0.00     0.209 HD
HETATM    6  N11 UNL     1      22.204  11.333   0.143  1.00  0.00    -0.195 N 
HETATM    7  C9  UNL     1      21.395  11.739  -0.831  1.00  0.00     0.195 A 
ENDROOT
BRANCH   1   8
HETATM    8  C5  UNL     1      20.470  13.943  -1.601  1.00  0.00     0.143 C 
HETATM    9  N8  UNL     1      19.200  13.871  -1.545  1.00  0.00    -0.295 N 
ATOM     10  H8  UNL     1      18.791  13.218  -0.876  1.00  0.00     0.186 HD
BRANCH   9  11
HETATM   11  N7  UNL     1      18.332  14.621  -2.331  1.00  0.00    -0.132 N 
HETATM   12  C3  UNL     1      17.915  15.930  -1.916  1.00  0.00     0.708 C 
HETATM   13  N1  UNL     1      18.638  17.038  -2.405  1.00  0.00    -0.225 N 
HETATM   14  N2  UNL     1      16.911  15.989  -1.129  1.00  0.00    -0.019 N 
HETATM   15  C1  UNL     1      18.245  17.670  -3.634  1.00  0.00     0.168 C 
HETATM   16  C2  UNL     1      19.772  17.542  -1.677  1.00  0.00     0.168 C 
ATOM     17  H2  UNL     1      16.469  15.114  -0.844  1.00  0.00     0.203 HD
ATOM     18  H7  UNL     1      17.988  14.237  -3.212  1.00  0.00     0.205 HD
BRANCH  14  19
HETATM   19  C4  UNL     1      16.375  17.206  -0.626  1.00  0.00     0.722 A 
HETATM   20  N3  UNL     1      15.431  17.939  -1.241  1.00  0.00    -0.116 N 
HETATM   21  N4  UNL     1      15.143  19.015  -0.522  1.00  0.00     0.006 NA
ATOM     22  H3  UNL     1      14.998  17.701  -2.133  1.00  0.00     0.202 HD
HETATM   23  N5  UNL     1      15.926  18.948   0.562  1.00  0.00     0.006 NA
HETATM   24  N6  UNL     1      16.675  17.859   0.510  1.00  0.00    -0.116 N 
ATOM     25  H6  UNL     1      17.359  17.567   1.209  1.00  0.00     0.202 HD
ENDBRANCH  14  19
ENDBRANCH   9  11
ENDBRANCH   1   8
BRANCH   7  26
HETATM   26  O2  UNL     1      20.788  10.906  -1.788  1.00  0.00    -0.343 OA
ATOM     27  H2  UNL     1      20.724  11.060  -2.723  1.00  0.00     0.219 HD
ENDBRANCH   7  26
BRANCH   6  28
HETATM   28  C7  UNL     1      22.600  10.000   0.396  1.00  0.00     0.198 A 
HETATM   29  N12 UNL     1      21.880   8.868   0.381  1.00  0.00    -0.220 N 
HETATM   30  O1  UNL     1      22.654   7.850   0.676  1.00  0.00    -0.153 OA
ATOM     31  H12 UNL     1      20.882   8.807   0.172  1.00  0.00     0.198 HD
HETATM   32  N13 UNL     1      23.864   8.250   0.888  1.00  0.00    -0.222 N 
HETATM   33  C8  UNL     1      23.896   9.592   0.727  1.00  0.00     0.169 A 
ATOM     34  H13 UNL     1      24.657   7.656   1.135  1.00  0.00     0.198 HD
BRANCH  33  35
HETATM   35  N14 UNL     1      24.945  10.332   0.863  1.00  0.00    -0.381 N 
ATOM     36 2H14 UNL     1      25.137  11.181   0.332  1.00  0.00     0.157 HD
ATOM     37 1H14 UNL     1      25.727  10.192   1.502  1.00  0.00     0.157 HD
ENDBRANCH  33  35
ENDBRANCH   6  28
TORSDOF 6
ENDMDL
MODEL 4
REMARK VINA RESULT: -6.825792001      0.897      1.169
REMARK  6 active torsions:
REMARK  status: ('A' for Active; 'I' for Inactive)
REMARK       I    between atoms: N1_2  and  C3_4 
REMARK       I    between atoms: C3_4  and  N7_14 
REMARK    1  A    between atoms: N2_5  and  C4_7 
REMARK    2  A    between atoms: N7_14  and  N8_16 
REMARK    3  A    between atoms: C5_18  and  C6_19 
REMARK    4  A    between atoms: N11_24  and  C7_25 
REMARK    5  A    between atoms: C8_31  and  N14_32 
REMARK    6  A    between atoms: C9_35  and  O2_36 
ROOT
HETATM    1  C6  UNL     1      20.074  13.711   0.277  1.00  0.00     0.119 A 
HETATM    2  N9  UNL     1      19.311  14.017   1.338  1.00  0.00    -0.280 N 
ATOM      3  H9  UNL     1      19.499  13.765   2.309  1.00  0.00     0.188 HD
HETATM    4  N10 UNL     1      18.289  14.695   0.901  1.00  0.00    -0.232 N 
ATOM      5  H10 UNL     1      17.541  15.059   1.492  1.00  0.00     0.209 HD
HETATM    6  N11 UNL     1      18.347  14.849  -0.410  1.00  0.00    -0.195 N 
HETATM    7  C9  UNL     1      19.454  14.243  -0.827  1.00  0.00     0.195 A 
ENDROOT
BRANCH   1   8
HETATM    8  C5  UNL     1      21.323  12.961   0.256  1.00  0.00     0.143 C 
HETATM    9  N8  UNL     1      21.396  11.891  -0.429  1.00  0.00    -0.295 N 
ATOM     10  H8  UNL     1      20.564  11.598  -0.942  1.00  0.00     0.186 HD
BRANCH   9  11
HETATM   11  N7  UNL     1      22.531  11.092  -0.526  1.00  0.00    -0.132 N 
HETATM   12  C3  UNL     1      22.416   9.664  -0.608  1.00  0.00     0.708 C 
HETATM   13  N1  UNL     1      22.409   9.075  -1.890  1.00  0.00    -0.225 N 
HETATM   14  N2  UNL     1      22.327   9.032   0.498  1.00  0.00    -0.019 N 
HETATM   15  C1  UNL     1      23.644   8.674  -2.505  1.00  0.00     0.168 C 
HETATM   16  C2  UNL     1      21.168   8.874  -2.589  1.00  0.00     0.168 C 
ATOM     17  H2  UNL     1      22.343   9.571   1.364  1.00  0.00     0.203 HD
ATOM     18  H7  UNL     1      23.454  11.526  -0.540  1.00  0.00     0.205 HD
BRANCH  14  19
HETATM   19  C4  UNL     1      22.206   7.618   0.590  1.00  0.00     0.722 A 
HETATM   20  N3  UNL     1      23.209   6.783   0.911  1.00  0.00    -0.116 N 
HETATM   21  N4  UNL     1      22.780   5.529   0.912  1.00  0.00     0.006 NA
ATOM     22  H3  UNL     1      24.163   7.073   1.125  1.00  0.00     0.202 HD
HETATM   23  N5  UNL     1      21.484   5.588   0.584  1.00  0.00     0.006 NA
HETATM   24  N6  UNL     1      21.125   6.845   0.386  1.00  0.00    -0.116 N 
ATOM     25  H6  UNL     1      20.194   7.171   0.126  1.00  0.00     0.202 HD
ENDBRANCH  14  19
ENDBRANCH   9  11
ENDBRANCH   1   8
BRANCH   7  26
HETATM   26  O2  UNL     1      19.891  14.172  -2.162  1.00  0.00    -0.343 OA
ATOM     27  H2  UNL     1      20.644  14.608  -2.543  1.00  0.00     0.219 HD
ENDBRANCH   7  26
BRANCH   6  28
HETATM   28  C7  UNL     1      17.411  15.529  -1.223  1.00  0.00     0.198 A 
HETATM   29  N12 UNL     1      16.919  15.203  -2.429  1.00  0.00    -0.220 N 
HETATM   30  O1  UNL     1      16.071  16.124  -2.820  1.00  0.00    -0.153 OA
ATOM     31  H12 UNL     1      17.167  14.367  -2.959  1.00  0.00     0.198 HD
HETATM   32  N13 UNL     1      15.972  17.055  -1.929  1.00  0.00    -0.222 N 
HETATM   33  C8  UNL     1      16.790  16.739  -0.901  1.00  0.00     0.169 A 
ATOM     34  H13 UNL     1      15.379  17.884  -1.992  1.00  0.00     0.198 HD
BRANCH  33  35
HETATM   35  N14 UNL     1      16.947  17.445   0.168  1.00  0.00    -0.381 N 
ATOM     36 2H14 UNL     1      17.370  17.113   1.035  1.00  0.00     0.157 HD
ATOM     37 1H14 UNL     1      16.681  18.419   0.317  1.00  0.00     0.157 HD
ENDBRANCH  33  35
ENDBRANCH   6  28
TORSDOF 6
ENDMDL
MODEL 5
REMARK VINA RESULT: -6.812056550      1.584      2.146
REMARK  6 active torsions:
REMARK  status: ('A' for Active; 'I' for Inactive)
REMARK       I    between atoms: N1_2  and  C3_4 
REMARK       I    between atoms: C3_4  and  N7_14 
REMARK    1  A    between atoms: N2_5  and  C4_7 
REMARK    2  A    between atoms: N7_14  and  N8_16 
REMARK    3  A    between atoms: C5_18  and  C6_19 
REMARK    4  A    between atoms: N11_24  and  C7_25 
REMARK    5  A    between atoms: C8_31  and  N14_32 
REMARK    6  A    between atoms: C9_35  and  O2_36 
ROOT
HETATM    1  C6  UNL     1      20.413  13.572  -0.510  1.00  0.00     0.119 A 
HETATM    2  N9  UNL     1      20.581  14.062  -1.749  1.00  0.00    -0.280 N 
ATOM      3  H9  UNL     1      21.365  13.868  -2.373  1.00  0.00     0.188 HD
HETATM    4  N10 UNL     1      19.561  14.828  -2.007  1.00  0.00    -0.232 N 
ATOM      5  H10 UNL     1      19.425  15.335  -2.881  1.00  0.00     0.209 HD
HETATM    6  N11 UNL     1      18.723  14.863  -0.986  1.00  0.00    -0.195 N 
HETATM    7  C9  UNL     1      19.232  14.086  -0.034  1.00  0.00     0.195 A 
ENDROOT
BRANCH   1   8
HETATM    8  C5  UNL     1      21.289  12.668   0.224  1.00  0.00     0.143 C 
HETATM    9  N8  UNL     1      21.694  11.599  -0.337  1.00  0.00    -0.295 N 
ATOM     10  H8  UNL     1      21.383  11.418  -1.292  1.00  0.00     0.186 HD
BRANCH   9  11
HETATM   11  N7  UNL     1      22.530  10.662   0.261  1.00  0.00    -0.132 N 
HETATM   12  C3  UNL     1      22.449   9.275  -0.099  1.00  0.00     0.708 C 
HETATM   13  N1  UNL     1      23.329   8.800  -1.093  1.00  0.00    -0.225 N 
HETATM   14  N2  UNL     1      21.577   8.574   0.517  1.00  0.00    -0.019 N 
HETATM   15  C1  UNL     1      24.618   8.283  -0.727  1.00  0.00     0.168 C 
HETATM   16  C2  UNL     1      22.942   8.829  -2.478  1.00  0.00     0.168 C 
ATOM     17  H2  UNL     1      20.997   9.033   1.219  1.00  0.00     0.203 HD
ATOM     18  H7  UNL     1      23.208  10.964   0.961  1.00  0.00     0.205 HD
BRANCH  14  19
HETATM   19  C4  UNL     1      21.370   7.188   0.277  1.00  0.00     0.722 A 
HETATM   20  N3  UNL     1      22.055   6.197   0.873  1.00  0.00    -0.116 N 
HETATM   21  N4  UNL     1      21.630   5.018   0.440  1.00  0.00     0.006 NA
ATOM     22  H3  UNL     1      22.796   6.332   1.562  1.00  0.00     0.202 HD
HETATM   23  N5  UNL     1      20.661   5.284  -0.444  1.00  0.00     0.006 NA
HETATM   24  N6  UNL     1      20.496   6.592  -0.552  1.00  0.00    -0.116 N 
ATOM     25  H6  UNL     1      19.823   7.065  -1.156  1.00  0.00     0.202 HD
ENDBRANCH  14  19
ENDBRANCH   9  11
ENDBRANCH   1   8
BRANCH   7  26
HETATM   26  O2  UNL     1      18.649  13.848   1.223  1.00  0.00    -0.343 OA
ATOM     27  H2  UNL     1      18.203  14.478   1.777  1.00  0.00     0.219 HD
ENDBRANCH   7  26
BRANCH   6  28
HETATM   28  C7  UNL     1      17.512  15.588  -0.910  1.00  0.00     0.198 A 
HETATM   29  N12 UNL     1      16.999  16.307   0.101  1.00  0.00    -0.220 N 
HETATM   30  O1  UNL     1      15.845  16.815  -0.263  1.00  0.00    -0.153 OA
ATOM     31  H12 UNL     1      17.438  16.438   1.013  1.00  0.00     0.198 HD
HETATM   32  N13 UNL     1      15.561  16.469  -1.475  1.00  0.00    -0.222 N 
HETATM   33  C8  UNL     1      16.570  15.697  -1.937  1.00  0.00     0.169 A 
ATOM     34  H13 UNL     1      14.722  16.732  -1.993  1.00  0.00     0.198 HD
BRANCH  33  35
HETATM   35  N14 UNL     1      16.625  15.171  -3.115  1.00  0.00    -0.381 N 
ATOM     36 2H14 UNL     1      16.895  15.663  -3.966  1.00  0.00     0.157 HD
ATOM     37 1H14 UNL     1      16.412  14.209  -3.378  1.00  0.00     0.157 HD
ENDBRANCH  33  35
ENDBRANCH   6  28
TORSDOF 6
ENDMDL
