MODEL 1
REMARK VINA RESULT: -6.713761785      0.000      0.000
REMARK  8 active torsions:
REMARK  status: ('A' for Active; 'I' for Inactive)
REMARK    1  A    between atoms: N4_12  and  O2_13 
REMARK    2  A    between atoms: O2_13  and  C6_14 
REMARK    3  A    between atoms: C6_14  and  C7_15 
REMARK    4  A    between atoms: C7_15  and  S1_16 
REMARK    5  A    between atoms: S1_16  and  C8_17 
REMARK    6  A    between atoms: N6_20  and  N7_21 
REMARK    7  A    between atoms: C9_24  and  N8_25 
REMARK    8  A    between atoms: N8_25  and  N9_27 
ROOT
HETATM    1  N1  UNL     1      19.214   5.441  -3.490  1.00  0.00    -0.190 NA
HETATM    2  C1  UNL     1      19.795   5.756  -2.537  1.00  0.00     0.120 C 
HETATM    3  C2  UNL     1      20.497   6.169  -1.364  1.00  0.00     0.148 A 
HETATM    4  N2  UNL     1      20.870   5.364  -0.363  1.00  0.00    -0.288 N 
ATOM      5  H2  UNL     1      20.692   4.361  -0.325  1.00  0.00     0.188 HD
HETATM    6  N3  UNL     1      21.505   6.062   0.576  1.00  0.00    -0.284 N 
ATOM      7  H3  UNL     1      21.890   5.681   1.440  1.00  0.00     0.188 HD
HETATM    8  C3  UNL     1      21.558   7.368   0.192  1.00  0.00     0.136 A 
HETATM    9  C4  UNL     1      20.921   7.426  -1.027  1.00  0.00     0.118 A 
HETATM   10  C5  UNL     1      20.808   8.719  -1.719  1.00  0.00     0.285 C 
HETATM   11  O1  UNL     1      20.236   8.791  -2.820  1.00  0.00    -0.265 OA
HETATM   12  N4  UNL     1      21.387   9.853  -1.044  1.00  0.00    -0.204 N 
HETATM   13  C10 UNL     1      22.398   9.674  -0.021  1.00  0.00     0.282 C 
HETATM   14  N11 UNL     1      22.109   8.518   0.809  1.00  0.00    -0.356 N 
ATOM     15  H11 UNL     1      22.299   8.535   1.811  1.00  0.00     0.162 HD
ENDROOT
BRANCH  12  16
HETATM   16  O2  UNL     1      20.945  11.053  -1.414  1.00  0.00    -0.273 OA
BRANCH  16  17
HETATM   17  C6  UNL     1      21.997  11.938  -1.515  1.00  0.00     0.212 C 
BRANCH  17  18
HETATM   18  C7  UNL     1      21.381  13.325  -1.633  1.00  0.00     0.111 C 
BRANCH  18  19
HETATM   19  S1  UNL     1      20.482  13.736  -0.094  1.00  0.00    -0.090 SA
BRANCH  19  20
HETATM   20  C8  UNL     1      18.945  14.539  -0.538  1.00  0.00     0.176 A 
HETATM   21  N5  UNL     1      18.278  15.412   0.228  1.00  0.00    -0.243 N 
HETATM   22  N6  UNL     1      17.187  15.801  -0.430  1.00  0.00    -0.023 N 
ATOM     23  H5  UNL     1      18.558  15.726   1.157  1.00  0.00     0.192 HD
HETATM   24  C9  UNL     1      17.154  15.178  -1.617  1.00  0.00     0.734 A 
HETATM   25  N10 UNL     1      18.242  14.397  -1.686  1.00  0.00    -0.165 N 
ATOM     26  H10 UNL     1      18.497  13.798  -2.471  1.00  0.00     0.186 HD
BRANCH  22  27
HETATM   27  N7  UNL     1      16.217  16.716   0.036  1.00  0.00    -0.309 N 
ATOM     28  H72 UNL     1      16.334  17.729   0.071  1.00  0.00     0.179 HD
ATOM     29  H71 UNL     1      15.291  16.481   0.392  1.00  0.00     0.179 HD
ENDBRANCH  22  27
BRANCH  24  30
HETATM   30  N8  UNL     1      16.272  15.285  -2.548  1.00  0.00    -0.135 N 
ATOM     31  H8  UNL     1      15.287  15.229  -2.288  1.00  0.00     0.205 HD
BRANCH  30  32
HETATM   32  N9  UNL     1      16.590  15.475  -3.894  1.00  0.00    -0.331 N 
ATOM     33  H92 UNL     1      17.414  14.991  -4.252  1.00  0.00     0.177 HD
ATOM     34  H91 UNL     1      16.046  16.066  -4.524  1.00  0.00     0.177 HD
ENDBRANCH  30  32
ENDBRANCH  24  30
ENDBRANCH  19  20
ENDBRANCH  18  19
ENDBRANCH  17  18
ENDBRANCH  16  17
ENDBRANCH  12  16
TORSDOF 8
ENDMDL
MODEL 2
REMARK VINA RESULT: -6.644737581      4.633      6.491
REMARK  8 active torsions:
REMARK  status: ('A' for Active; 'I' for Inactive)
REMARK    1  A    between atoms: N4_12  and  O2_13 
REMARK    2  A    between atoms: O2_13  and  C6_14 
REMARK    3  A    between atoms: C6_14  and  C7_15 
REMARK    4  A    between atoms: C7_15  and  S1_16 
REMARK    5  A    between atoms: S1_16  and  C8_17 
REMARK    6  A    between atoms: N6_20  and  N7_21 
REMARK    7  A    between atoms: C9_24  and  N8_25 
REMARK    8  A    between atoms: N8_25  and  N9_27 
ROOT
HETATM    1  N1  UNL     1      20.976  11.923   0.831  1.00  0.00    -0.190 NA
HETATM    2  C1  UNL     1      21.796  12.528   0.277  1.00  0.00     0.120 C 
HETATM    3  C2  UNL     1      22.804  13.291  -0.387  1.00  0.00     0.148 A 
HETATM    4  N2  UNL     1      23.796  12.783  -1.125  1.00  0.00    -0.288 N 
ATOM      5  H2  UNL     1      23.946  11.789  -1.297  1.00  0.00     0.188 HD
HETATM    6  N3  UNL     1      24.562  13.762  -1.603  1.00  0.00    -0.284 N 
ATOM      7  H3  UNL     1      25.383  13.639  -2.195  1.00  0.00     0.188 HD
HETATM    8  C3  UNL     1      24.067  14.956  -1.171  1.00  0.00     0.136 A 
HETATM    9  C4  UNL     1      22.964  14.650  -0.407  1.00  0.00     0.118 A 
HETATM   10  C5  UNL     1      22.193  15.739   0.213  1.00  0.00     0.285 C 
HETATM   11  O1  UNL     1      21.195  15.482   0.906  1.00  0.00    -0.265 OA
HETATM   12  N4  UNL     1      22.671  17.076  -0.035  1.00  0.00    -0.204 N 
HETATM   13  C10 UNL     1      23.532  17.361  -1.165  1.00  0.00     0.282 C 
HETATM   14  N11 UNL     1      24.491  16.292  -1.380  1.00  0.00    -0.356 N 
ATOM     15  H11 UNL     1      25.445  16.498  -1.675  1.00  0.00     0.162 HD
ENDROOT
BRANCH  12  16
HETATM   16  O2  UNL     1      22.277  18.015   0.822  1.00  0.00    -0.273 OA
BRANCH  16  17
HETATM   17  C6  UNL     1      22.365  19.260   0.238  1.00  0.00     0.212 C 
BRANCH  17  18
HETATM   18  C7  UNL     1      21.001  19.913   0.412  1.00  0.00     0.111 C 
BRANCH  18  19
HETATM   19  S1  UNL     1      19.959  19.568  -1.051  1.00  0.00    -0.090 SA
BRANCH  19  20
HETATM   20  C8  UNL     1      18.844  18.228  -0.645  1.00  0.00     0.176 A 
HETATM   21  N5  UNL     1      17.539  18.359  -0.378  1.00  0.00    -0.243 N 
HETATM   22  N6  UNL     1      17.037  17.151  -0.126  1.00  0.00    -0.023 N 
ATOM     23  H5  UNL     1      17.018  19.236  -0.368  1.00  0.00     0.192 HD
HETATM   24  C9  UNL     1      18.020  16.246  -0.232  1.00  0.00     0.734 A 
HETATM   25  N10 UNL     1      19.140  16.910  -0.555  1.00  0.00    -0.165 N 
ATOM     26  H10 UNL     1      20.058  16.492  -0.706  1.00  0.00     0.186 HD
BRANCH  22  27
HETATM   27  N7  UNL     1      15.694  16.861   0.201  1.00  0.00    -0.309 N 
ATOM     28  H72 UNL     1      14.877  17.238  -0.280  1.00  0.00     0.179 HD
ATOM     29  H71 UNL     1      15.378  16.245   0.949  1.00  0.00     0.179 HD
ENDBRANCH  22  27
BRANCH  24  30
HETATM   30  N8  UNL     1      17.947  14.970  -0.073  1.00  0.00    -0.135 N 
ATOM     31  H8  UNL     1      17.372  14.435  -0.722  1.00  0.00     0.205 HD
BRANCH  30  32
HETATM   32  N9  UNL     1      18.615  14.281   0.942  1.00  0.00    -0.331 N 
ATOM     33  H92 UNL     1      18.419  14.561   1.904  1.00  0.00     0.177 HD
ATOM     34  H91 UNL     1      19.277  13.524   0.768  1.00  0.00     0.177 HD
ENDBRANCH  30  32
ENDBRANCH  24  30
ENDBRANCH  19  20
ENDBRANCH  18  19
ENDBRANCH  17  18
ENDBRANCH  16  17
ENDBRANCH  12  16
TORSDOF 8
ENDMDL
MODEL 3
REMARK VINA RESULT: -6.601253938      0.534      1.588
REMARK  8 active torsions:
REMARK  status: ('A' for Active; 'I' for Inactive)
REMARK    1  A    between atoms: N4_12  and  O2_13 
REMARK    2  A    between atoms: O2_13  and  C6_14 
REMARK    3  A    between atoms: C6_14  and  C7_15 
REMARK    4  A    between atoms: C7_15  and  S1_16 
REMARK    5  A    between atoms: S1_16  and  C8_17 
REMARK    6  A    between atoms: N6_20  and  N7_21 
REMARK    7  A    between atoms: C9_24  and  N8_25 
REMARK    8  A    between atoms: N8_25  and  N9_27 
ROOT
HETATM    1  N1  UNL     1      19.179   5.400  -3.387  1.00  0.00    -0.190 NA
HETATM    2  C1  UNL     1      19.793   5.713  -2.453  1.00  0.00     0.120 C 
HETATM    3  C2  UNL     1      20.536   6.122  -1.304  1.00  0.00     0.148 A 
HETATM    4  N2  UNL     1      20.953   5.313  -0.326  1.00  0.00    -0.288 N 
ATOM      5  H2  UNL     1      20.785   4.307  -0.290  1.00  0.00     0.188 HD
HETATM    6  N3  UNL     1      21.618   6.008   0.595  1.00  0.00    -0.284 N 
ATOM      7  H3  UNL     1      22.038   5.623   1.441  1.00  0.00     0.188 HD
HETATM    8  C3  UNL     1      21.645   7.317   0.221  1.00  0.00     0.136 A 
HETATM    9  C4  UNL     1      20.962   7.380  -0.973  1.00  0.00     0.118 A 
HETATM   10  C5  UNL     1      20.811   8.678  -1.649  1.00  0.00     0.285 C 
HETATM   11  O1  UNL     1      20.198   8.754  -2.727  1.00  0.00    -0.265 OA
HETATM   12  N4  UNL     1      21.406   9.811  -0.987  1.00  0.00    -0.204 N 
HETATM   13  C10 UNL     1      22.456   9.633  -0.004  1.00  0.00     0.282 C 
HETATM   14  N11 UNL     1      22.209   8.468   0.826  1.00  0.00    -0.356 N 
ATOM     15  H11 UNL     1      22.437   8.477   1.821  1.00  0.00     0.162 HD
ENDROOT
BRANCH  12  16
HETATM   16  O2  UNL     1      20.941  11.010  -1.329  1.00  0.00    -0.273 OA
BRANCH  16  17
HETATM   17  C6  UNL     1      21.874  11.983  -1.044  1.00  0.00     0.212 C 
BRANCH  17  18
HETATM   18  C7  UNL     1      21.192  13.320  -1.300  1.00  0.00     0.111 C 
BRANCH  18  19
HETATM   19  S1  UNL     1      20.251  13.828   0.184  1.00  0.00    -0.090 SA
BRANCH  19  20
HETATM   20  C8  UNL     1      18.779  14.694  -0.352  1.00  0.00     0.176 A 
HETATM   21  N5  UNL     1      18.115  14.462  -1.491  1.00  0.00    -0.243 N 
HETATM   22  N6  UNL     1      17.073  15.291  -1.549  1.00  0.00    -0.023 N 
ATOM     23  H5  UNL     1      18.365  13.768  -2.196  1.00  0.00     0.192 HD
HETATM   24  C9  UNL     1      17.070  16.054  -0.446  1.00  0.00     0.734 A 
HETATM   25  N10 UNL     1      18.124  15.686   0.296  1.00  0.00    -0.165 N 
ATOM     26  H10 UNL     1      18.387  16.085   1.198  1.00  0.00     0.186 HD
BRANCH  22  27
HETATM   27  N7  UNL     1      16.125  15.363  -2.592  1.00  0.00    -0.309 N 
ATOM     28  H72 UNL     1      15.864  14.589  -3.204  1.00  0.00     0.179 HD
ATOM     29  H71 UNL     1      15.589  16.188  -2.861  1.00  0.00     0.179 HD
ENDBRANCH  22  27
BRANCH  24  30
HETATM   30  N8  UNL     1      16.229  16.971  -0.116  1.00  0.00    -0.135 N 
ATOM     31  H8  UNL     1      15.374  17.061  -0.665  1.00  0.00     0.205 HD
BRANCH  30  32
HETATM   32  N9  UNL     1      16.425  17.850   0.952  1.00  0.00    -0.331 N 
ATOM     33  H92 UNL     1      16.533  17.439   1.880  1.00  0.00     0.177 HD
ATOM     34  H91 UNL     1      16.464  18.864   0.847  1.00  0.00     0.177 HD
ENDBRANCH  30  32
ENDBRANCH  24  30
ENDBRANCH  19  20
ENDBRANCH  18  19
ENDBRANCH  17  18
ENDBRANCH  16  17
ENDBRANCH  12  16
TORSDOF 8
ENDMDL
MODEL 4
REMARK VINA RESULT: -6.598373093      5.782      6.810
REMARK  8 active torsions:
REMARK  status: ('A' for Active; 'I' for Inactive)
REMARK    1  A    between atoms: N4_12  and  O2_13 
REMARK    2  A    between atoms: O2_13  and  C6_14 
REMARK    3  A    between atoms: C6_14  and  C7_15 
REMARK    4  A    between atoms: C7_15  and  S1_16 
REMARK    5  A    between atoms: S1_16  and  C8_17 
REMARK    6  A    between atoms: N6_20  and  N7_21 
REMARK    7  A    between atoms: C9_24  and  N8_25 
REMARK    8  A    between atoms: N8_25  and  N9_27 
ROOT
HETATM    1  N1  UNL     1      16.743  15.849  -1.143  1.00  0.00    -0.190 NA
HETATM    2  C1  UNL     1      17.637  15.415  -0.545  1.00  0.00     0.120 C 
HETATM    3  C2  UNL     1      18.751  14.903   0.187  1.00  0.00     0.148 A 
HETATM    4  N2  UNL     1      18.673  14.092   1.247  1.00  0.00    -0.288 N 
ATOM      5  H2  UNL     1      17.804  13.747   1.654  1.00  0.00     0.188 HD
HETATM    6  N3  UNL     1      19.892  13.799   1.694  1.00  0.00    -0.284 N 
ATOM      7  H3  UNL     1      20.105  13.199   2.491  1.00  0.00     0.188 HD
HETATM    8  C3  UNL     1      20.810  14.433   0.912  1.00  0.00     0.136 A 
HETATM    9  C4  UNL     1      20.084  15.125  -0.032  1.00  0.00     0.118 A 
HETATM   10  C5  UNL     1      20.794  15.925  -1.042  1.00  0.00     0.285 C 
HETATM   11  O1  UNL     1      20.155  16.555  -1.901  1.00  0.00    -0.265 OA
HETATM   12  N4  UNL     1      22.232  15.920  -0.959  1.00  0.00    -0.204 N 
HETATM   13  C10 UNL     1      22.935  14.864  -0.259  1.00  0.00     0.282 C 
HETATM   14  N11 UNL     1      22.226  14.467   0.945  1.00  0.00    -0.356 N 
ATOM     15  H11 UNL     1      22.736  14.219   1.793  1.00  0.00     0.162 HD
ENDROOT
BRANCH  12  16
HETATM   16  O2  UNL     1      22.864  16.928  -1.556  1.00  0.00    -0.273 OA
BRANCH  16  17
HETATM   17  C6  UNL     1      23.142  17.924  -0.645  1.00  0.00     0.212 C 
BRANCH  17  18
HETATM   18  C7  UNL     1      22.632  19.221  -1.258  1.00  0.00     0.111 C 
BRANCH  18  19
HETATM   19  S1  UNL     1      21.592  20.111  -0.045  1.00  0.00    -0.090 SA
BRANCH  19  20
HETATM   20  C8  UNL     1      19.877  19.725  -0.385  1.00  0.00     0.176 A 
HETATM   21  N5  UNL     1      19.394  19.313  -1.564  1.00  0.00    -0.243 N 
HETATM   22  N6  UNL     1      18.082  19.121  -1.438  1.00  0.00    -0.023 N 
ATOM     23  H5  UNL     1      19.939  19.170  -2.414  1.00  0.00     0.192 HD
HETATM   24  C9  UNL     1      17.723  19.411  -0.179  1.00  0.00     0.734 A 
HETATM   25  N10 UNL     1      18.833  19.784   0.475  1.00  0.00    -0.165 N 
ATOM     26  H10 UNL     1      18.882  20.065   1.455  1.00  0.00     0.186 HD
BRANCH  22  27
HETATM   27  N7  UNL     1      17.205  18.687  -2.455  1.00  0.00    -0.309 N 
ATOM     28  H72 UNL     1      17.117  19.113  -3.378  1.00  0.00     0.179 HD
ATOM     29  H71 UNL     1      16.557  17.901  -2.395  1.00  0.00     0.179 HD
ENDBRANCH  22  27
BRANCH  24  30
HETATM   30  N8  UNL     1      16.551  19.348   0.349  1.00  0.00    -0.135 N 
ATOM     31  H8  UNL     1      15.967  20.184   0.329  1.00  0.00     0.205 HD
BRANCH  30  32
HETATM   32  N9  UNL     1      16.035  18.196   0.946  1.00  0.00    -0.331 N 
ATOM     33  H92 UNL     1      15.823  17.407   0.334  1.00  0.00     0.177 HD
ATOM     34  H91 UNL     1      15.863  18.110   1.948  1.00  0.00     0.177 HD
ENDBRANCH  30  32
ENDBRANCH  24  30
ENDBRANCH  19  20
ENDBRANCH  18  19
ENDBRANCH  17  18
ENDBRANCH  16  17
ENDBRANCH  12  16
TORSDOF 8
ENDMDL
MODEL 5
REMARK VINA RESULT: -6.579558272      5.278      8.300
REMARK  8 active torsions:
REMARK  status: ('A' for Active; 'I' for Inactive)
REMARK    1  A    between atoms: N4_12  and  O2_13 
REMARK    2  A    between atoms: O2_13  and  C6_14 
REMARK    3  A    between atoms: C6_14  and  C7_15 
REMARK    4  A    between atoms: C7_15  and  S1_16 
REMARK    5  A    between atoms: S1_16  and  C8_17 
REMARK    6  A    between atoms: N6_20  and  N7_21 
REMARK    7  A    between atoms: C9_24  and  N8_25 
REMARK    8  A    between atoms: N8_25  and  N9_27 
ROOT
HETATM    1  N1  UNL     1      14.498  17.831  -0.186  1.00  0.00    -0.190 NA
HETATM    2  C1  UNL     1      15.287  17.255  -0.812  1.00  0.00     0.120 C 
HETATM    3  C2  UNL     1      16.277  16.551  -1.563  1.00  0.00     0.148 A 
HETATM    4  N2  UNL     1      16.038  15.520  -2.379  1.00  0.00    -0.288 N 
ATOM      5  H2  UNL     1      15.118  15.119  -2.558  1.00  0.00     0.188 HD
HETATM    6  N3  UNL     1      17.174  15.093  -2.926  1.00  0.00    -0.284 N 
ATOM      7  H3  UNL     1      17.262  14.320  -3.585  1.00  0.00     0.188 HD
HETATM    8  C3  UNL     1      18.200  15.859  -2.461  1.00  0.00     0.136 A 
HETATM    9  C4  UNL     1      17.627  16.772  -1.604  1.00  0.00     0.118 A 
HETATM   10  C5  UNL     1      18.482  17.759  -0.927  1.00  0.00     0.285 C 
HETATM   11  O1  UNL     1      17.983  18.590  -0.151  1.00  0.00    -0.265 OA
HETATM   12  N4  UNL     1      19.891  17.687  -1.223  1.00  0.00    -0.204 N 
HETATM   13  C10 UNL     1      20.368  17.030  -2.423  1.00  0.00     0.282 C 
HETATM   14  N11 UNL     1      19.594  15.836  -2.713  1.00  0.00    -0.356 N 
ATOM     15  H11 UNL     1      20.044  15.001  -3.089  1.00  0.00     0.162 HD
ENDROOT
BRANCH  12  16
HETATM   16  O2  UNL     1      20.711  18.254  -0.341  1.00  0.00    -0.273 OA
BRANCH  16  17
HETATM   17  C6  UNL     1      21.913  18.564  -0.939  1.00  0.00     0.212 C 
BRANCH  17  18
HETATM   18  C7  UNL     1      23.002  18.085   0.011  1.00  0.00     0.111 C 
BRANCH  18  19
HETATM   19  S1  UNL     1      23.667  16.483  -0.568  1.00  0.00    -0.090 SA
BRANCH  19  20
HETATM   20  C8  UNL     1      22.573  15.182  -0.004  1.00  0.00     0.176 A 
HETATM   21  N5  UNL     1      22.830  13.870  -0.071  1.00  0.00    -0.243 N 
HETATM   22  N6  UNL     1      21.794  13.211   0.446  1.00  0.00    -0.023 N 
ATOM     23  H5  UNL     1      23.676  13.447  -0.452  1.00  0.00     0.192 HD
HETATM   24  C9  UNL     1      20.873  14.101   0.844  1.00  0.00     0.734 A 
HETATM   25  N10 UNL     1      21.354  15.322   0.567  1.00  0.00    -0.165 N 
ATOM     26  H10 UNL     1      20.880  16.206   0.756  1.00  0.00     0.186 HD
BRANCH  22  27
HETATM   27  N7  UNL     1      21.675  11.809   0.560  1.00  0.00    -0.309 N 
ATOM     28  H72 UNL     1      22.423  11.176   0.843  1.00  0.00     0.179 HD
ATOM     29  H71 UNL     1      20.835  11.261   0.375  1.00  0.00     0.179 HD
ENDBRANCH  22  27
BRANCH  24  30
HETATM   30  N8  UNL     1      19.735  13.872   1.399  1.00  0.00    -0.135 N 
ATOM     31  H8  UNL     1      19.711  13.270   2.221  1.00  0.00     0.205 HD
BRANCH  30  32
HETATM   32  N9  UNL     1      18.530  14.406   0.935  1.00  0.00    -0.331 N 
ATOM     33  H92 UNL     1      18.570  15.311   0.466  1.00  0.00     0.177 HD
ATOM     34  H91 UNL     1      17.629  13.939   1.043  1.00  0.00     0.177 HD
ENDBRANCH  30  32
ENDBRANCH  24  30
ENDBRANCH  19  20
ENDBRANCH  18  19
ENDBRANCH  17  18
ENDBRANCH  16  17
ENDBRANCH  12  16
TORSDOF 8
ENDMDL
