MODEL 1
REMARK VINA RESULT: -9.079195151      0.000      0.000
REMARK  9 active torsions:
REMARK  status: ('A' for Active; 'I' for Inactive)
REMARK    1  A    between atoms: C6_6  and  C7_7 
REMARK    2  A    between atoms: C7_7  and  C9_9 
REMARK    3  A    between atoms: C9_9  and  C10_10 
REMARK    4  A    between atoms: C10_10  and  N1_11 
REMARK    5  A    between atoms: C11_12  and  C12_13 
REMARK    6  A    between atoms: C15_19  and  C16_20 
REMARK    7  A    between atoms: C16_20  and  C17_21 
REMARK    8  A    between atoms: C21_28  and  C22_29 
REMARK    9  A    between atoms: C22_29  and  C23_30 
ROOT
HETATM    1  C1  UNL     1       7.897 -70.674 -25.891  1.00  0.00     0.018 C 
HETATM    2  C2  UNL     1       8.944 -71.020 -25.402  1.00  0.00    -0.078 C 
HETATM    3  C3  UNL     1      10.200 -71.459 -24.824  1.00  0.00     0.017 A 
HETATM    4  C4  UNL     1      10.416 -71.301 -23.475  1.00  0.00     0.021 A 
HETATM    5  C5  UNL     1      11.624 -71.724 -22.917  1.00  0.00     0.009 A 
HETATM    6  C6  UNL     1      12.617 -72.297 -23.663  1.00  0.00    -0.054 A 
HETATM    7  C26 UNL     1      12.396 -72.453 -25.009  1.00  0.00     0.009 A 
HETATM    8  C27 UNL     1      11.197 -72.035 -25.575  1.00  0.00     0.021 A 
ENDROOT
BRANCH   6   9
HETATM    9  C7  UNL     1      13.886 -72.737 -23.030  1.00  0.00     0.016 C 
HETATM   10  C8  UNL     1      13.714 -74.232 -22.782  1.00  0.00     0.015 C 
BRANCH   9  11
HETATM   11  C9  UNL     1      14.158 -72.013 -21.725  1.00  0.00     0.029 C 
BRANCH  11  12
HETATM   12  C10 UNL     1      15.148 -70.944 -21.953  1.00  0.00     0.126 C 
BRANCH  12  13
HETATM   13  N1  UNL     1      14.636 -69.654 -22.331  1.00  0.00    -0.354 N 
HETATM   14  C11 UNL     1      15.003 -69.313 -23.663  1.00  0.00     0.105 C 
HETATM   15  N2  UNL     1      16.418 -69.112 -23.867  1.00  0.00    -0.311 N 
HETATM   16  C14 UNL     1      17.435 -68.366 -23.177  1.00  0.00     0.246 C 
ATOM     17  H2  UNL     1      16.776 -69.610 -24.681  1.00  0.00     0.170 HD
HETATM   18  O1  UNL     1      18.546 -68.898 -23.267  1.00  0.00    -0.271 OA
HETATM   19  C15 UNL     1      17.334 -67.132 -22.419  1.00  0.00     0.177 C 
HETATM   20  N3  UNL     1      16.855 -67.412 -21.049  1.00  0.00    -0.346 N 
HETATM   21  C20 UNL     1      15.721 -68.189 -20.646  1.00  0.00     0.241 C 
ATOM     22  H3  UNL     1      17.403 -67.000 -20.294  1.00  0.00     0.163 HD
HETATM   23  O2  UNL     1      15.849 -68.461 -19.429  1.00  0.00    -0.271 OA
HETATM   24  C21 UNL     1      14.507 -68.708 -21.317  1.00  0.00     0.178 C 
BRANCH  14  25
HETATM   25  C12 UNL     1      14.130 -68.410 -24.404  1.00  0.00     0.038 C 
HETATM   26  C13 UNL     1      12.963 -68.740 -24.935  1.00  0.00     0.015 C 
ENDBRANCH  14  25
BRANCH  19  27
HETATM   27  C16 UNL     1      18.543 -66.320 -22.369  1.00  0.00     0.038 C 
BRANCH  27  28
HETATM   28  C17 UNL     1      18.521 -64.920 -21.952  1.00  0.00    -0.020 C 
HETATM   29  C18 UNL     1      19.797 -64.696 -21.100  1.00  0.00     0.009 C 
HETATM   30  C19 UNL     1      18.441 -63.804 -22.890  1.00  0.00     0.009 C 
ENDBRANCH  27  28
ENDBRANCH  19  27
BRANCH  24  31
HETATM   31  C22 UNL     1      13.549 -67.540 -21.620  1.00  0.00     0.038 C 
BRANCH  31  32
HETATM   32  C23 UNL     1      12.363 -67.607 -20.641  1.00  0.00    -0.020 C 
HETATM   33  C24 UNL     1      11.410 -66.517 -21.172  1.00  0.00     0.009 C 
HETATM   34  C25 UNL     1      11.638 -68.909 -20.893  1.00  0.00     0.009 C 
ENDBRANCH  31  32
ENDBRANCH  24  31
ENDBRANCH  12  13
ENDBRANCH  11  12
ENDBRANCH   9  11
ENDBRANCH   6   9
TORSDOF 9
ENDMDL
MODEL 2
REMARK VINA RESULT: -8.803658274      3.187      7.275
REMARK  9 active torsions:
REMARK  status: ('A' for Active; 'I' for Inactive)
REMARK    1  A    between atoms: C6_6  and  C7_7 
REMARK    2  A    between atoms: C7_7  and  C9_9 
REMARK    3  A    between atoms: C9_9  and  C10_10 
REMARK    4  A    between atoms: C10_10  and  N1_11 
REMARK    5  A    between atoms: C11_12  and  C12_13 
REMARK    6  A    between atoms: C15_19  and  C16_20 
REMARK    7  A    between atoms: C16_20  and  C17_21 
REMARK    8  A    between atoms: C21_28  and  C22_29 
REMARK    9  A    between atoms: C22_29  and  C23_30 
ROOT
HETATM    1  C1  UNL     1      19.572 -72.080 -26.500  1.00  0.00     0.018 C 
HETATM    2  C2  UNL     1      18.764 -72.428 -25.675  1.00  0.00    -0.078 C 
HETATM    3  C3  UNL     1      17.775 -72.846 -24.700  1.00  0.00     0.017 A 
HETATM    4  C4  UNL     1      17.595 -72.106 -23.556  1.00  0.00     0.021 A 
HETATM    5  C5  UNL     1      16.644 -72.507 -22.618  1.00  0.00     0.009 A 
HETATM    6  C6  UNL     1      15.869 -73.622 -22.788  1.00  0.00    -0.054 A 
HETATM    7  C26 UNL     1      16.051 -74.357 -23.932  1.00  0.00     0.009 A 
HETATM    8  C27 UNL     1      16.997 -73.967 -24.873  1.00  0.00     0.021 A 
ENDROOT
BRANCH   6   9
HETATM    9  C7  UNL     1      14.864 -74.012 -21.767  1.00  0.00     0.016 C 
HETATM   10  C8  UNL     1      13.751 -74.708 -22.545  1.00  0.00     0.015 C 
BRANCH   9  11
HETATM   11  C9  UNL     1      14.314 -72.815 -21.015  1.00  0.00     0.029 C 
BRANCH  11  12
HETATM   12  C10 UNL     1      12.986 -72.464 -21.553  1.00  0.00     0.126 C 
BRANCH  12  13
HETATM   13  N1  UNL     1      12.857 -71.173 -22.174  1.00  0.00    -0.354 N 
HETATM   14  C11 UNL     1      11.745 -70.452 -21.659  1.00  0.00     0.105 C 
HETATM   15  N2  UNL     1      10.457 -71.027 -21.965  1.00  0.00    -0.311 N 
HETATM   16  C14 UNL     1       9.840 -71.525 -23.164  1.00  0.00     0.246 C 
ATOM     17  H2  UNL     1       9.850 -71.096 -21.148  1.00  0.00     0.170 HD
HETATM   18  O1  UNL     1       9.042 -72.440 -22.932  1.00  0.00    -0.271 OA
HETATM   19  C15 UNL     1      10.025 -71.120 -24.545  1.00  0.00     0.177 C 
HETATM   20  N3  UNL     1      11.232 -71.762 -25.107  1.00  0.00    -0.346 N 
HETATM   21  C20 UNL     1      12.552 -71.809 -24.554  1.00  0.00     0.241 C 
ATOM     22  H3  UNL     1      11.108 -72.232 -26.004  1.00  0.00     0.163 HD
HETATM   23  O2  UNL     1      13.191 -72.709 -25.148  1.00  0.00    -0.271 OA
HETATM   24  C21 UNL     1      13.279 -71.068 -23.498  1.00  0.00     0.178 C 
BRANCH  14  25
HETATM   25  C12 UNL     1      11.801 -68.994 -21.688  1.00  0.00     0.038 C 
HETATM   26  C13 UNL     1      12.213 -68.226 -20.691  1.00  0.00     0.015 C 
ENDBRANCH  14  25
BRANCH  19  27
HETATM   27  C16 UNL     1       8.885 -71.341 -25.426  1.00  0.00     0.038 C 
BRANCH  27  28
HETATM   28  C17 UNL     1       7.888 -70.303 -25.679  1.00  0.00    -0.020 C 
HETATM   29  C18 UNL     1       8.675 -69.025 -26.069  1.00  0.00     0.009 C 
HETATM   30  C19 UNL     1       6.810 -70.447 -26.654  1.00  0.00     0.009 C 
ENDBRANCH  27  28
ENDBRANCH  19  27
BRANCH  24  31
HETATM   31  C22 UNL     1      13.577 -69.638 -23.985  1.00  0.00     0.038 C 
BRANCH  31  32
HETATM   32  C23 UNL     1      15.093 -69.387 -23.884  1.00  0.00    -0.020 C 
HETATM   33  C24 UNL     1      15.270 -68.028 -24.590  1.00  0.00     0.009 C 
HETATM   34  C25 UNL     1      15.413 -69.113 -22.434  1.00  0.00     0.009 C 
ENDBRANCH  31  32
ENDBRANCH  24  31
ENDBRANCH  12  13
ENDBRANCH  11  12
ENDBRANCH   9  11
ENDBRANCH   6   9
TORSDOF 9
ENDMDL
MODEL 3
REMARK VINA RESULT: -8.730549898      2.733      4.712
REMARK  9 active torsions:
REMARK  status: ('A' for Active; 'I' for Inactive)
REMARK    1  A    between atoms: C6_6  and  C7_7 
REMARK    2  A    between atoms: C7_7  and  C9_9 
REMARK    3  A    between atoms: C9_9  and  C10_10 
REMARK    4  A    between atoms: C10_10  and  N1_11 
REMARK    5  A    between atoms: C11_12  and  C12_13 
REMARK    6  A    between atoms: C15_19  and  C16_20 
REMARK    7  A    between atoms: C16_20  and  C17_21 
REMARK    8  A    between atoms: C21_28  and  C22_29 
REMARK    9  A    between atoms: C22_29  and  C23_30 
ROOT
HETATM    1  C1  UNL     1       5.275 -71.564 -27.240  1.00  0.00     0.018 C 
HETATM    2  C2  UNL     1       6.361 -71.303 -26.785  1.00  0.00    -0.078 C 
HETATM    3  C3  UNL     1       7.672 -70.974 -26.257  1.00  0.00     0.017 A 
HETATM    4  C4  UNL     1       8.549 -71.985 -25.942  1.00  0.00     0.021 A 
HETATM    5  C5  UNL     1       9.810 -71.670 -25.436  1.00  0.00     0.009 A 
HETATM    6  C6  UNL     1      10.220 -70.380 -25.235  1.00  0.00    -0.054 A 
HETATM    7  C26 UNL     1       9.342 -69.375 -25.552  1.00  0.00     0.009 A 
HETATM    8  C27 UNL     1       8.082 -69.677 -26.057  1.00  0.00     0.021 A 
ENDROOT
BRANCH   6   9
HETATM    9  C7  UNL     1      11.573 -70.087 -24.697  1.00  0.00     0.016 C 
HETATM   10  C8  UNL     1      11.939 -68.716 -25.257  1.00  0.00     0.015 C 
BRANCH   9  11
HETATM   11  C9  UNL     1      12.597 -71.122 -25.124  1.00  0.00     0.029 C 
BRANCH  11  12
HETATM   12  C10 UNL     1      13.177 -71.762 -23.928  1.00  0.00     0.126 C 
BRANCH  12  13
HETATM   13  N1  UNL     1      13.971 -70.927 -23.066  1.00  0.00    -0.354 N 
HETATM   14  C11 UNL     1      15.229 -70.614 -23.651  1.00  0.00     0.105 C 
HETATM   15  N2  UNL     1      16.113 -71.743 -23.822  1.00  0.00    -0.311 N 
HETATM   16  C14 UNL     1      16.545 -72.817 -22.970  1.00  0.00     0.246 C 
ATOM     17  H2  UNL     1      16.522 -71.788 -24.755  1.00  0.00     0.170 HD
HETATM   18  O1  UNL     1      16.781 -73.850 -23.606  1.00  0.00    -0.271 OA
HETATM   19  C15 UNL     1      16.726 -72.850 -21.530  1.00  0.00     0.177 C 
HETATM   20  N3  UNL     1      15.428 -73.070 -20.859  1.00  0.00    -0.346 N 
HETATM   21  C20 UNL     1      14.193 -72.374 -21.061  1.00  0.00     0.241 C 
ATOM     22  H3  UNL     1      15.409 -73.815 -20.161  1.00  0.00     0.163 HD
HETATM   23  O2  UNL     1      13.272 -73.063 -20.563  1.00  0.00    -0.271 OA
HETATM   24  C21 UNL     1      13.796 -71.095 -21.694  1.00  0.00     0.178 C 
BRANCH  14  25
HETATM   25  C12 UNL     1      15.876 -69.367 -23.258  1.00  0.00     0.038 C 
HETATM   26  C13 UNL     1      17.087 -69.268 -22.732  1.00  0.00     0.015 C 
ENDBRANCH  14  25
BRANCH  19  27
HETATM   27  C16 UNL     1      17.711 -73.804 -21.040  1.00  0.00     0.038 C 
BRANCH  27  28
HETATM   28  C17 UNL     1      19.148 -73.563 -21.152  1.00  0.00    -0.020 C 
HETATM   29  C18 UNL     1      19.749 -74.809 -21.852  1.00  0.00     0.009 C 
HETATM   30  C19 UNL     1      19.715 -72.393 -21.819  1.00  0.00     0.009 C 
ENDBRANCH  27  28
ENDBRANCH  19  27
BRANCH  24  31
HETATM   31  C22 UNL     1      14.269 -69.920 -20.818  1.00  0.00     0.038 C 
BRANCH  31  32
HETATM   32  C23 UNL     1      13.044 -69.073 -20.425  1.00  0.00    -0.020 C 
HETATM   33  C24 UNL     1      13.136 -67.864 -21.378  1.00  0.00     0.009 C 
HETATM   34  C25 UNL     1      11.810 -69.823 -20.871  1.00  0.00     0.009 C 
ENDBRANCH  31  32
ENDBRANCH  24  31
ENDBRANCH  12  13
ENDBRANCH  11  12
ENDBRANCH   9  11
ENDBRANCH   6   9
TORSDOF 9
ENDMDL
MODEL 4
REMARK VINA RESULT: -8.600937149      3.447      7.811
REMARK  9 active torsions:
REMARK  status: ('A' for Active; 'I' for Inactive)
REMARK    1  A    between atoms: C6_6  and  C7_7 
REMARK    2  A    between atoms: C7_7  and  C9_9 
REMARK    3  A    between atoms: C9_9  and  C10_10 
REMARK    4  A    between atoms: C10_10  and  N1_11 
REMARK    5  A    between atoms: C11_12  and  C12_13 
REMARK    6  A    between atoms: C15_19  and  C16_20 
REMARK    7  A    between atoms: C16_20  and  C17_21 
REMARK    8  A    between atoms: C21_28  and  C22_29 
REMARK    9  A    between atoms: C22_29  and  C23_30 
ROOT
HETATM    1  C1  UNL     1      21.095 -72.125 -26.895  1.00  0.00     0.018 C 
HETATM    2  C2  UNL     1      20.142 -72.103 -26.156  1.00  0.00    -0.078 C 
HETATM    3  C3  UNL     1      18.980 -72.081 -25.287  1.00  0.00     0.017 A 
HETATM    4  C4  UNL     1      18.757 -70.990 -24.482  1.00  0.00     0.021 A 
HETATM    5  C5  UNL     1      17.640 -70.967 -23.645  1.00  0.00     0.009 A 
HETATM    6  C6  UNL     1      16.743 -71.999 -23.590  1.00  0.00    -0.054 A 
HETATM    7  C26 UNL     1      16.970 -73.086 -24.397  1.00  0.00     0.009 A 
HETATM    8  C27 UNL     1      18.080 -73.119 -25.233  1.00  0.00     0.021 A 
ENDROOT
BRANCH   6   9
HETATM    9  C7  UNL     1      15.564 -71.934 -22.689  1.00  0.00     0.016 C 
HETATM   10  C8  UNL     1      16.102 -72.265 -21.300  1.00  0.00     0.015 C 
BRANCH   9  11
HETATM   11  C9  UNL     1      14.483 -72.921 -23.087  1.00  0.00     0.029 C 
BRANCH  11  12
HETATM   12  C10 UNL     1      13.440 -72.222 -23.860  1.00  0.00     0.126 C 
BRANCH  12  13
HETATM   13  N1  UNL     1      12.801 -71.101 -23.224  1.00  0.00    -0.354 N 
HETATM   14  C11 UNL     1      11.931 -71.517 -22.178  1.00  0.00     0.105 C 
HETATM   15  N2  UNL     1      10.780 -72.272 -22.614  1.00  0.00    -0.311 N 
HETATM   16  C14 UNL     1       9.792 -72.090 -23.642  1.00  0.00     0.246 C 
ATOM     17  H2  UNL     1      10.636 -73.124 -22.072  1.00  0.00     0.170 HD
HETATM   18  O1  UNL     1       9.376 -73.166 -24.085  1.00  0.00    -0.271 OA
HETATM   19  C15 UNL     1       9.248 -70.868 -24.207  1.00  0.00     0.177 C 
HETATM   20  N3  UNL     1      10.164 -70.329 -25.234  1.00  0.00    -0.346 N 
HETATM   21  C20 UNL     1      11.573 -70.095 -25.133  1.00  0.00     0.241 C 
ATOM     22  H3  UNL     1       9.737 -70.094 -26.130  1.00  0.00     0.163 HD
HETATM   23  O2  UNL     1      12.029 -69.958 -26.292  1.00  0.00    -0.271 OA
HETATM   24  C21 UNL     1      12.546 -69.988 -24.021  1.00  0.00     0.178 C 
BRANCH  14  25
HETATM   25  C12 UNL     1      11.690 -70.591 -21.077  1.00  0.00     0.038 C 
HETATM   26  C13 UNL     1      12.625 -70.082 -20.289  1.00  0.00     0.015 C 
ENDBRANCH  14  25
BRANCH  19  27
HETATM   27  C16 UNL     1       7.897 -70.969 -24.745  1.00  0.00     0.038 C 
BRANCH  27  28
HETATM   28  C17 UNL     1       7.617 -70.809 -26.170  1.00  0.00    -0.020 C 
HETATM   29  C18 UNL     1       7.182 -72.204 -26.690  1.00  0.00     0.009 C 
HETATM   30  C19 UNL     1       6.652 -69.846 -26.695  1.00  0.00     0.009 C 
ENDBRANCH  27  28
ENDBRANCH  19  27
BRANCH  24  31
HETATM   31  C22 UNL     1      12.312 -68.669 -23.260  1.00  0.00     0.038 C 
BRANCH  31  32
HETATM   32  C23 UNL     1      13.482 -67.712 -23.559  1.00  0.00    -0.020 C 
HETATM   33  C24 UNL     1      13.893 -67.216 -22.158  1.00  0.00     0.009 C 
HETATM   34  C25 UNL     1      14.647 -68.551 -24.029  1.00  0.00     0.009 C 
ENDBRANCH  31  32
ENDBRANCH  24  31
ENDBRANCH  12  13
ENDBRANCH  11  12
ENDBRANCH   9  11
ENDBRANCH   6   9
TORSDOF 9
ENDMDL
MODEL 5
REMARK VINA RESULT: -8.478186942      3.513      7.871
REMARK  9 active torsions:
REMARK  status: ('A' for Active; 'I' for Inactive)
REMARK    1  A    between atoms: C6_6  and  C7_7 
REMARK    2  A    between atoms: C7_7  and  C9_9 
REMARK    3  A    between atoms: C9_9  and  C10_10 
REMARK    4  A    between atoms: C10_10  and  N1_11 
REMARK    5  A    between atoms: C11_12  and  C12_13 
REMARK    6  A    between atoms: C15_19  and  C16_20 
REMARK    7  A    between atoms: C16_20  and  C17_21 
REMARK    8  A    between atoms: C21_28  and  C22_29 
REMARK    9  A    between atoms: C22_29  and  C23_30 
ROOT
HETATM    1  C1  UNL     1      21.017 -72.710 -26.467  1.00  0.00     0.018 C 
HETATM    2  C2  UNL     1      20.500 -72.597 -25.383  1.00  0.00    -0.078 C 
HETATM    3  C3  UNL     1      19.864 -72.481 -24.084  1.00  0.00     0.017 A 
HETATM    4  C4  UNL     1      19.211 -71.319 -23.751  1.00  0.00     0.021 A 
HETATM    5  C5  UNL     1      18.599 -71.206 -22.502  1.00  0.00     0.009 A 
HETATM    6  C6  UNL     1      18.620 -72.217 -21.580  1.00  0.00    -0.054 A 
HETATM    7  C26 UNL     1      19.272 -73.376 -21.918  1.00  0.00     0.009 A 
HETATM    8  C27 UNL     1      19.886 -73.499 -23.159  1.00  0.00     0.021 A 
ENDROOT
BRANCH   6   9
HETATM    9  C7  UNL     1      17.952 -72.059 -20.263  1.00  0.00     0.016 C 
HETATM   10  C8  UNL     1      19.031 -72.362 -19.227  1.00  0.00     0.015 C 
BRANCH   9  11
HETATM   11  C9  UNL     1      16.779 -73.007 -20.097  1.00  0.00     0.029 C 
BRANCH  11  12
HETATM   12  C10 UNL     1      15.537 -72.329 -20.514  1.00  0.00     0.126 C 
BRANCH  12  13
HETATM   13  N1  UNL     1      15.324 -72.179 -21.929  1.00  0.00    -0.354 N 
HETATM   14  C11 UNL     1      14.946 -70.849 -22.265  1.00  0.00     0.105 C 
HETATM   15  N2  UNL     1      13.660 -70.439 -21.753  1.00  0.00    -0.311 N 
HETATM   16  C14 UNL     1      12.349 -71.028 -21.745  1.00  0.00     0.246 C 
ATOM     17  H2  UNL     1      13.688 -69.528 -21.295  1.00  0.00     0.170 HD
HETATM   18  O1  UNL     1      11.697 -70.701 -20.748  1.00  0.00    -0.271 OA
HETATM   19  C15 UNL     1      11.721 -71.919 -22.704  1.00  0.00     0.177 C 
HETATM   20  N3  UNL     1      12.159 -73.311 -22.468  1.00  0.00    -0.346 N 
HETATM   21  C20 UNL     1      13.492 -73.810 -22.317  1.00  0.00     0.241 C 
ATOM     22  H3  UNL     1      11.414 -74.006 -22.405  1.00  0.00     0.163 HD
HETATM   23  O2  UNL     1      13.425 -74.953 -21.809  1.00  0.00    -0.271 OA
HETATM   24  C21 UNL     1      14.849 -73.295 -22.614  1.00  0.00     0.178 C 
BRANCH  14  25
HETATM   25  C12 UNL     1      15.272 -70.361 -23.600  1.00  0.00     0.038 C 
HETATM   26  C13 UNL     1      15.322 -69.087 -23.957  1.00  0.00     0.015 C 
ENDBRANCH  14  25
BRANCH  19  27
HETATM   27  C16 UNL     1      10.267 -71.856 -22.766  1.00  0.00     0.038 C 
BRANCH  27  28
HETATM   28  C17 UNL     1       9.550 -71.709 -24.031  1.00  0.00    -0.020 C 
HETATM   29  C18 UNL     1       9.780 -70.248 -24.498  1.00  0.00     0.009 C 
HETATM   30  C19 UNL     1       9.788 -72.564 -25.192  1.00  0.00     0.009 C 
ENDBRANCH  27  28
ENDBRANCH  19  27
BRANCH  24  31
HETATM   31  C22 UNL     1      15.070 -73.279 -24.138  1.00  0.00     0.038 C 
BRANCH  31  32
HETATM   32  C23 UNL     1      16.492 -73.793 -24.436  1.00  0.00    -0.020 C 
HETATM   33  C24 UNL     1      16.558 -75.114 -23.643  1.00  0.00     0.009 C 
HETATM   34  C25 UNL     1      16.529 -74.213 -25.887  1.00  0.00     0.009 C 
ENDBRANCH  31  32
ENDBRANCH  24  31
ENDBRANCH  12  13
ENDBRANCH  11  12
ENDBRANCH   9  11
ENDBRANCH   6   9
TORSDOF 9
ENDMDL
