MODEL 1
REMARK VINA RESULT: -9.047124779      0.000      0.000
REMARK  12 active torsions:
REMARK  status: ('A' for Active; 'I' for Inactive)
REMARK    1  A    between atoms: C2_2  and  O1_3 
REMARK    2  A    between atoms: O1_3  and  C3_4 
REMARK    3  A    between atoms: C3_4  and  C4_5 
REMARK    4  A    between atoms: C4_5  and  N1_6 
REMARK    5  A    between atoms: N1_6  and  C5_7 
REMARK    6  A    between atoms: C11_15  and  C12_16 
REMARK    7  A    between atoms: C13_17  and  C14_18 
REMARK    8  A    between atoms: C17_21  and  C18_22 
REMARK    9  A    between atoms: C18_22  and  C19_23 
REMARK   10  A    between atoms: C18_22  and  N3_26 
REMARK   11  A    between atoms: C19_23  and  C20_24 
REMARK       I    between atoms: N3_26  and  C22_27 
REMARK   12  A    between atoms: C22_27  and  C23_29 
ROOT
HETATM    1  C5  UNL     1       6.417 -72.575 -27.033  1.00  0.00     0.114 A 
HETATM    2  C6  UNL     1       5.281 -73.182 -27.641  1.00  0.00     0.062 A 
HETATM    3  C7  UNL     1       5.274 -74.498 -27.980  1.00  0.00     0.091 A 
HETATM    4  N2  UNL     1       6.327 -75.293 -27.763  1.00  0.00    -0.365 N 
ATOM      5  H2  UNL     1       6.298 -76.278 -28.026  1.00  0.00     0.165 HD
HETATM    6  C8  UNL     1       7.411 -74.771 -27.198  1.00  0.00     0.045 A 
HETATM    7  C9  UNL     1       8.495 -75.594 -26.980  1.00  0.00     0.032 A 
HETATM    8  C10 UNL     1       9.637 -75.089 -26.398  1.00  0.00     0.023 A 
HETATM    9  C11 UNL     1       9.750 -73.774 -26.017  1.00  0.00     0.019 A 
HETATM   10  C27 UNL     1       8.642 -72.962 -26.247  1.00  0.00     0.037 A 
HETATM   11  C28 UNL     1       7.492 -73.451 -26.828  1.00  0.00     0.032 A 
ENDROOT
BRANCH   9  12
HETATM   12  C12 UNL     1      10.899 -73.164 -25.430  1.00  0.00    -0.061 C 
HETATM   13  C13 UNL     1      11.888 -72.694 -24.929  1.00  0.00    -0.061 C 
BRANCH  13  14
HETATM   14  C14 UNL     1      13.111 -72.196 -24.316  1.00  0.00     0.018 A 
HETATM   15  C15 UNL     1      13.276 -70.890 -23.950  1.00  0.00     0.021 A 
HETATM   16  C16 UNL     1      14.444 -70.474 -23.273  1.00  0.00     0.012 A 
HETATM   17  C17 UNL     1      15.422 -71.378 -22.981  1.00  0.00    -0.023 A 
HETATM   18  C25 UNL     1      15.270 -72.704 -23.352  1.00  0.00     0.012 A 
HETATM   19  C26 UNL     1      14.133 -73.100 -24.007  1.00  0.00     0.021 A 
BRANCH  17  20
HETATM   20  C18 UNL     1      16.600 -70.990 -22.191  1.00  0.00     0.200 C 
BRANCH  20  21
HETATM   21  C19 UNL     1      17.706 -70.321 -22.913  1.00  0.00     0.044 C 
BRANCH  21  22
HETATM   22  C20 UNL     1      17.795 -68.835 -22.729  1.00  0.00    -0.001 C 
HETATM   23  C21 UNL     1      17.133 -68.081 -23.862  1.00  0.00     0.005 C 
ENDBRANCH  21  22
ENDBRANCH  20  21
BRANCH  20  24
HETATM   24  N3  UNL     1      16.215 -70.204 -21.030  1.00  0.00    -0.405 NA
HETATM   25  C22 UNL     1      15.876 -69.513 -20.011  1.00  0.00     0.286 C 
HETATM   26  O2  UNL     1      16.197 -69.643 -18.775  1.00  0.00    -0.258 OA
BRANCH  25  27
HETATM   27  C23 UNL     1      14.912 -68.289 -20.122  1.00  0.00     0.114 C 
HETATM   28  C24 UNL     1      13.506 -68.743 -20.181  1.00  0.00     0.016 C 
ENDBRANCH  25  27
ENDBRANCH  20  24
ENDBRANCH  17  20
ENDBRANCH  13  14
ENDBRANCH   9  12
BRANCH   1  29
HETATM   29  N1  UNL     1       6.391 -71.420 -26.755  1.00  0.00    -0.445 NA
BRANCH  29  30
HETATM   30  C4  UNL     1       6.300 -70.080 -26.737  1.00  0.00     0.245 C 
BRANCH  30  31
HETATM   31  C3  UNL     1       7.645 -69.360 -26.432  1.00  0.00     0.207 C 
BRANCH  31  32
HETATM   32  O1  UNL     1       8.074 -69.751 -25.151  1.00  0.00    -0.361 OA
BRANCH  32  33
HETATM   33  C2  UNL     1       9.405 -69.680 -24.738  1.00  0.00     0.124 C 
HETATM   34  C1  UNL     1      10.359 -69.282 -25.508  1.00  0.00     0.037 C 
ENDBRANCH  32  33
ENDBRANCH  31  32
ENDBRANCH  30  31
ENDBRANCH  29  30
ENDBRANCH   1  29
TORSDOF 12
ENDMDL
MODEL 2
REMARK VINA RESULT: -8.815275855      1.736      2.800
REMARK  12 active torsions:
REMARK  status: ('A' for Active; 'I' for Inactive)
REMARK    1  A    between atoms: C2_2  and  O1_3 
REMARK    2  A    between atoms: O1_3  and  C3_4 
REMARK    3  A    between atoms: C3_4  and  C4_5 
REMARK    4  A    between atoms: C4_5  and  N1_6 
REMARK    5  A    between atoms: N1_6  and  C5_7 
REMARK    6  A    between atoms: C11_15  and  C12_16 
REMARK    7  A    between atoms: C13_17  and  C14_18 
REMARK    8  A    between atoms: C17_21  and  C18_22 
REMARK    9  A    between atoms: C18_22  and  C19_23 
REMARK   10  A    between atoms: C18_22  and  N3_26 
REMARK   11  A    between atoms: C19_23  and  C20_24 
REMARK       I    between atoms: N3_26  and  C22_27 
REMARK   12  A    between atoms: C22_27  and  C23_29 
ROOT
HETATM    1  C5  UNL     1       6.729 -72.158 -26.806  1.00  0.00     0.114 A 
HETATM    2  C6  UNL     1       5.541 -72.641 -27.426  1.00  0.00     0.062 A 
HETATM    3  C7  UNL     1       5.417 -73.938 -27.810  1.00  0.00     0.091 A 
HETATM    4  N2  UNL     1       6.396 -74.829 -27.629  1.00  0.00    -0.365 N 
ATOM      5  H2  UNL     1       6.280 -75.798 -27.925  1.00  0.00     0.165 HD
HETATM    6  C8  UNL     1       7.525 -74.426 -27.055  1.00  0.00     0.045 A 
HETATM    7  C9  UNL     1       8.533 -75.348 -26.873  1.00  0.00     0.032 A 
HETATM    8  C10 UNL     1       9.717 -74.966 -26.282  1.00  0.00     0.023 A 
HETATM    9  C11 UNL     1       9.948 -73.680 -25.857  1.00  0.00     0.019 A 
HETATM   10  C27 UNL     1       8.914 -72.766 -26.050  1.00  0.00     0.037 A 
HETATM   11  C28 UNL     1       7.723 -73.131 -26.640  1.00  0.00     0.032 A 
ENDROOT
BRANCH   9  12
HETATM   12  C12 UNL     1      11.148 -73.194 -25.258  1.00  0.00    -0.061 C 
HETATM   13  C13 UNL     1      12.164 -72.825 -24.726  1.00  0.00    -0.061 C 
BRANCH  13  14
HETATM   14  C14 UNL     1      13.392 -72.445 -24.044  1.00  0.00     0.018 A 
HETATM   15  C15 UNL     1      13.606 -71.188 -23.552  1.00  0.00     0.021 A 
HETATM   16  C16 UNL     1      14.774 -70.892 -22.815  1.00  0.00     0.012 A 
HETATM   17  C17 UNL     1      15.704 -71.864 -22.591  1.00  0.00    -0.023 A 
HETATM   18  C25 UNL     1      15.503 -73.141 -23.089  1.00  0.00     0.012 A 
HETATM   19  C26 UNL     1      14.366 -73.420 -23.802  1.00  0.00     0.021 A 
BRANCH  17  20
HETATM   20  C18 UNL     1      16.879 -71.608 -21.744  1.00  0.00     0.200 C 
BRANCH  20  21
HETATM   21  C19 UNL     1      17.308 -72.696 -20.838  1.00  0.00     0.044 C 
BRANCH  21  22
HETATM   22  C20 UNL     1      18.724 -73.163 -21.009  1.00  0.00    -0.001 C 
HETATM   23  C21 UNL     1      18.810 -74.427 -21.838  1.00  0.00     0.005 C 
ENDBRANCH  21  22
ENDBRANCH  20  21
BRANCH  20  24
HETATM   24  N3  UNL     1      18.005 -71.147 -22.538  1.00  0.00    -0.405 NA
HETATM   25  C22 UNL     1      18.996 -70.742 -23.237  1.00  0.00     0.286 C 
HETATM   26  O2  UNL     1      19.719 -69.689 -23.122  1.00  0.00    -0.258 OA
BRANCH  25  27
HETATM   27  C23 UNL     1      19.522 -71.543 -24.472  1.00  0.00     0.114 C 
HETATM   28  C24 UNL     1      18.406 -72.237 -25.149  1.00  0.00     0.016 C 
ENDBRANCH  25  27
ENDBRANCH  20  24
ENDBRANCH  17  20
ENDBRANCH  13  14
ENDBRANCH   9  12
BRANCH   1  29
HETATM   29  N1  UNL     1       6.806 -71.015 -26.489  1.00  0.00    -0.445 NA
BRANCH  29  30
HETATM   30  C4  UNL     1       6.840 -69.674 -26.425  1.00  0.00     0.245 C 
BRANCH  30  31
HETATM   31  C3  UNL     1       8.273 -69.084 -26.283  1.00  0.00     0.207 C 
BRANCH  31  32
HETATM   32  O1  UNL     1       8.714 -69.309 -24.967  1.00  0.00    -0.361 OA
BRANCH  32  33
HETATM   33  C2  UNL     1      10.052 -69.527 -24.637  1.00  0.00     0.124 C 
HETATM   34  C1  UNL     1      11.019 -69.336 -25.467  1.00  0.00     0.037 C 
ENDBRANCH  32  33
ENDBRANCH  31  32
ENDBRANCH  30  31
ENDBRANCH  29  30
ENDBRANCH   1  29
TORSDOF 12
ENDMDL
MODEL 3
REMARK VINA RESULT: -8.741150650      1.477      2.601
REMARK  12 active torsions:
REMARK  status: ('A' for Active; 'I' for Inactive)
REMARK    1  A    between atoms: C2_2  and  O1_3 
REMARK    2  A    between atoms: O1_3  and  C3_4 
REMARK    3  A    between atoms: C3_4  and  C4_5 
REMARK    4  A    between atoms: C4_5  and  N1_6 
REMARK    5  A    between atoms: N1_6  and  C5_7 
REMARK    6  A    between atoms: C11_15  and  C12_16 
REMARK    7  A    between atoms: C13_17  and  C14_18 
REMARK    8  A    between atoms: C17_21  and  C18_22 
REMARK    9  A    between atoms: C18_22  and  C19_23 
REMARK   10  A    between atoms: C18_22  and  N3_26 
REMARK   11  A    between atoms: C19_23  and  C20_24 
REMARK       I    between atoms: N3_26  and  C22_27 
REMARK   12  A    between atoms: C22_27  and  C23_29 
ROOT
HETATM    1  C5  UNL     1       6.437 -72.713 -27.019  1.00  0.00     0.114 A 
HETATM    2  C6  UNL     1       5.452 -73.533 -27.639  1.00  0.00     0.062 A 
HETATM    3  C7  UNL     1       5.693 -74.839 -27.929  1.00  0.00     0.091 A 
HETATM    4  N2  UNL     1       6.861 -75.424 -27.649  1.00  0.00    -0.365 N 
ATOM      5  H2  UNL     1       7.018 -76.406 -27.875  1.00  0.00     0.165 HD
HETATM    6  C8  UNL     1       7.812 -74.699 -27.069  1.00  0.00     0.045 A 
HETATM    7  C9  UNL     1       9.016 -75.307 -26.785  1.00  0.00     0.032 A 
HETATM    8  C10 UNL     1      10.026 -74.587 -26.186  1.00  0.00     0.023 A 
HETATM    9  C11 UNL     1       9.889 -73.262 -25.852  1.00  0.00     0.019 A 
HETATM   10  C27 UNL     1       8.663 -72.669 -26.147  1.00  0.00     0.037 A 
HETATM   11  C28 UNL     1       7.642 -73.374 -26.747  1.00  0.00     0.032 A 
ENDROOT
BRANCH   9  12
HETATM   12  C12 UNL     1      10.887 -72.436 -25.251  1.00  0.00    -0.061 C 
HETATM   13  C13 UNL     1      11.739 -71.722 -24.790  1.00  0.00    -0.061 C 
BRANCH  13  14
HETATM   14  C14 UNL     1      12.784 -70.833 -24.302  1.00  0.00     0.018 A 
HETATM   15  C15 UNL     1      13.713 -71.220 -23.378  1.00  0.00     0.021 A 
HETATM   16  C16 UNL     1      14.763 -70.352 -23.006  1.00  0.00     0.012 A 
HETATM   17  C17 UNL     1      14.855 -69.112 -23.567  1.00  0.00    -0.023 A 
HETATM   18  C25 UNL     1      13.917 -68.705 -24.501  1.00  0.00     0.012 A 
HETATM   19  C26 UNL     1      12.902 -69.554 -24.858  1.00  0.00     0.021 A 
BRANCH  17  20
HETATM   20  C18 UNL     1      15.994 -68.230 -23.271  1.00  0.00     0.200 C 
BRANCH  20  21
HETATM   21  C19 UNL     1      15.865 -67.334 -22.099  1.00  0.00     0.044 C 
BRANCH  21  22
HETATM   22  C20 UNL     1      16.560 -67.794 -20.852  1.00  0.00    -0.001 C 
HETATM   23  C21 UNL     1      15.600 -68.419 -19.863  1.00  0.00     0.005 C 
ENDBRANCH  21  22
ENDBRANCH  20  21
BRANCH  20  24
HETATM   24  N3  UNL     1      17.233 -68.985 -23.187  1.00  0.00    -0.405 NA
HETATM   25  C22 UNL     1      18.321 -69.650 -23.114  1.00  0.00     0.286 C 
HETATM   26  O2  UNL     1      19.540 -69.251 -23.110  1.00  0.00    -0.258 OA
BRANCH  25  27
HETATM   27  C23 UNL     1      18.336 -71.210 -23.021  1.00  0.00     0.114 C 
HETATM   28  C24 UNL     1      17.925 -71.807 -24.310  1.00  0.00     0.016 C 
ENDBRANCH  25  27
ENDBRANCH  20  24
ENDBRANCH  17  20
ENDBRANCH  13  14
ENDBRANCH   9  12
BRANCH   1  29
HETATM   29  N1  UNL     1       6.194 -71.573 -26.786  1.00  0.00    -0.445 NA
BRANCH  29  30
HETATM   30  C4  UNL     1       5.839 -70.278 -26.815  1.00  0.00     0.245 C 
BRANCH  30  31
HETATM   31  C3  UNL     1       7.035 -69.292 -26.678  1.00  0.00     0.207 C 
BRANCH  31  32
HETATM   32  O1  UNL     1       7.735 -69.609 -25.501  1.00  0.00    -0.361 OA
BRANCH  32  33
HETATM   33  C2  UNL     1       9.045 -69.194 -25.257  1.00  0.00     0.124 C 
HETATM   34  C1  UNL     1       9.819 -68.737 -26.179  1.00  0.00     0.037 C 
ENDBRANCH  32  33
ENDBRANCH  31  32
ENDBRANCH  30  31
ENDBRANCH  29  30
ENDBRANCH   1  29
TORSDOF 12
ENDMDL
MODEL 4
REMARK VINA RESULT: -8.696684042      1.141      2.164
REMARK  12 active torsions:
REMARK  status: ('A' for Active; 'I' for Inactive)
REMARK    1  A    between atoms: C2_2  and  O1_3 
REMARK    2  A    between atoms: O1_3  and  C3_4 
REMARK    3  A    between atoms: C3_4  and  C4_5 
REMARK    4  A    between atoms: C4_5  and  N1_6 
REMARK    5  A    between atoms: N1_6  and  C5_7 
REMARK    6  A    between atoms: C11_15  and  C12_16 
REMARK    7  A    between atoms: C13_17  and  C14_18 
REMARK    8  A    between atoms: C17_21  and  C18_22 
REMARK    9  A    between atoms: C18_22  and  C19_23 
REMARK   10  A    between atoms: C18_22  and  N3_26 
REMARK   11  A    between atoms: C19_23  and  C20_24 
REMARK       I    between atoms: N3_26  and  C22_27 
REMARK   12  A    between atoms: C22_27  and  C23_29 
ROOT
HETATM    1  C5  UNL     1       6.373 -72.618 -27.021  1.00  0.00     0.114 A 
HETATM    2  C6  UNL     1       5.290 -73.298 -27.646  1.00  0.00     0.062 A 
HETATM    3  C7  UNL     1       5.377 -74.609 -27.993  1.00  0.00     0.091 A 
HETATM    4  N2  UNL     1       6.479 -75.330 -27.767  1.00  0.00    -0.365 N 
ATOM      5  H2  UNL     1       6.521 -76.313 -28.036  1.00  0.00     0.165 HD
HETATM    6  C8  UNL     1       7.518 -74.740 -27.186  1.00  0.00     0.045 A 
HETATM    7  C9  UNL     1       8.653 -75.488 -26.958  1.00  0.00     0.032 A 
HETATM    8  C10 UNL     1       9.750 -74.909 -26.359  1.00  0.00     0.023 A 
HETATM    9  C11 UNL     1       9.768 -73.592 -25.970  1.00  0.00     0.019 A 
HETATM   10  C27 UNL     1       8.610 -72.856 -26.209  1.00  0.00     0.037 A 
HETATM   11  C28 UNL     1       7.503 -73.419 -26.808  1.00  0.00     0.032 A 
ENDROOT
BRANCH   9  12
HETATM   12  C12 UNL     1      10.866 -72.908 -25.365  1.00  0.00    -0.061 C 
HETATM   13  C13 UNL     1      11.759 -72.298 -24.837  1.00  0.00    -0.061 C 
BRANCH  13  14
HETATM   14  C14 UNL     1      12.788 -71.512 -24.171  1.00  0.00     0.018 A 
HETATM   15  C15 UNL     1      13.114 -70.242 -24.556  1.00  0.00     0.021 A 
HETATM   16  C16 UNL     1      14.052 -69.485 -23.820  1.00  0.00     0.012 A 
HETATM   17  C17 UNL     1      14.645 -70.021 -22.715  1.00  0.00    -0.023 A 
HETATM   18  C25 UNL     1      14.328 -71.309 -22.316  1.00  0.00     0.012 A 
HETATM   19  C26 UNL     1      13.415 -72.036 -23.036  1.00  0.00     0.021 A 
BRANCH  17  20
HETATM   20  C18 UNL     1      15.548 -69.218 -21.877  1.00  0.00     0.200 C 
BRANCH  20  21
HETATM   21  C19 UNL     1      14.948 -68.098 -21.119  1.00  0.00     0.044 C 
BRANCH  21  22
HETATM   22  C20 UNL     1      13.855 -68.474 -20.162  1.00  0.00    -0.001 C 
HETATM   23  C21 UNL     1      12.493 -68.033 -20.652  1.00  0.00     0.005 C 
ENDBRANCH  21  22
ENDBRANCH  20  21
BRANCH  20  24
HETATM   24  N3  UNL     1      16.324 -70.064 -20.985  1.00  0.00    -0.405 NA
HETATM   25  C22 UNL     1      17.005 -70.809 -20.202  1.00  0.00     0.286 C 
HETATM   26  O2  UNL     1      17.661 -70.516 -19.139  1.00  0.00    -0.258 OA
BRANCH  25  27
HETATM   27  C23 UNL     1      17.173 -72.342 -20.453  1.00  0.00     0.114 C 
HETATM   28  C24 UNL     1      18.381 -72.603 -21.264  1.00  0.00     0.016 C 
ENDBRANCH  25  27
ENDBRANCH  20  24
ENDBRANCH  17  20
ENDBRANCH  13  14
ENDBRANCH   9  12
BRANCH   1  29
HETATM   29  N1  UNL     1       6.265 -71.469 -26.737  1.00  0.00    -0.445 NA
BRANCH  29  30
HETATM   30  C4  UNL     1       6.122 -70.133 -26.717  1.00  0.00     0.245 C 
BRANCH  30  31
HETATM   31  C3  UNL     1       7.462 -69.357 -26.570  1.00  0.00     0.207 C 
BRANCH  31  32
HETATM   32  O1  UNL     1       8.053 -69.726 -25.348  1.00  0.00    -0.361 OA
BRANCH  32  33
HETATM   33  C2  UNL     1       9.339 -69.334 -24.973  1.00  0.00     0.124 C 
HETATM   34  C1  UNL     1      10.262 -69.050 -25.826  1.00  0.00     0.037 C 
ENDBRANCH  32  33
ENDBRANCH  31  32
ENDBRANCH  30  31
ENDBRANCH  29  30
ENDBRANCH   1  29
TORSDOF 12
ENDMDL
MODEL 5
REMARK VINA RESULT: -8.533094565      2.055      2.995
REMARK  12 active torsions:
REMARK  status: ('A' for Active; 'I' for Inactive)
REMARK    1  A    between atoms: C2_2  and  O1_3 
REMARK    2  A    between atoms: O1_3  and  C3_4 
REMARK    3  A    between atoms: C3_4  and  C4_5 
REMARK    4  A    between atoms: C4_5  and  N1_6 
REMARK    5  A    between atoms: N1_6  and  C5_7 
REMARK    6  A    between atoms: C11_15  and  C12_16 
REMARK    7  A    between atoms: C13_17  and  C14_18 
REMARK    8  A    between atoms: C17_21  and  C18_22 
REMARK    9  A    between atoms: C18_22  and  C19_23 
REMARK   10  A    between atoms: C18_22  and  N3_26 
REMARK   11  A    between atoms: C19_23  and  C20_24 
REMARK       I    between atoms: N3_26  and  C22_27 
REMARK   12  A    between atoms: C22_27  and  C23_29 
ROOT
HETATM    1  C5  UNL     1       7.419 -70.914 -26.322  1.00  0.00     0.114 A 
HETATM    2  C6  UNL     1       6.144 -70.989 -26.950  1.00  0.00     0.062 A 
HETATM    3  C7  UNL     1       5.651 -72.164 -27.423  1.00  0.00     0.091 A 
HETATM    4  N2  UNL     1       6.332 -73.309 -27.326  1.00  0.00    -0.365 N 
ATOM      5  H2  UNL     1       5.942 -74.179 -27.688  1.00  0.00     0.165 HD
HETATM    6  C8  UNL     1       7.528 -73.290 -26.747  1.00  0.00     0.045 A 
HETATM    7  C9  UNL     1       8.228 -74.474 -26.652  1.00  0.00     0.032 A 
HETATM    8  C10 UNL     1       9.471 -74.493 -26.060  1.00  0.00     0.023 A 
HETATM    9  C11 UNL     1      10.062 -73.363 -25.549  1.00  0.00     0.019 A 
HETATM   10  C27 UNL     1       9.336 -72.179 -25.656  1.00  0.00     0.037 A 
HETATM   11  C28 UNL     1       8.091 -72.142 -26.245  1.00  0.00     0.032 A 
ENDROOT
BRANCH   9  12
HETATM   12  C12 UNL     1      11.351 -73.288 -24.942  1.00  0.00    -0.061 C 
HETATM   13  C13 UNL     1      12.417 -73.208 -24.388  1.00  0.00    -0.061 C 
BRANCH  13  14
HETATM   14  C14 UNL     1      13.671 -73.085 -23.657  1.00  0.00     0.018 A 
HETATM   15  C15 UNL     1      14.851 -73.592 -24.123  1.00  0.00     0.021 A 
HETATM   16  C16 UNL     1      16.057 -73.366 -23.423  1.00  0.00     0.012 A 
HETATM   17  C17 UNL     1      16.051 -72.639 -22.270  1.00  0.00    -0.023 A 
HETATM   18  C25 UNL     1      14.861 -72.124 -21.783  1.00  0.00     0.012 A 
HETATM   19  C26 UNL     1      13.695 -72.347 -22.469  1.00  0.00     0.021 A 
BRANCH  17  20
HETATM   20  C18 UNL     1      17.306 -72.307 -21.578  1.00  0.00     0.200 C 
BRANCH  20  21
HETATM   21  C19 UNL     1      18.205 -73.431 -21.233  1.00  0.00     0.044 C 
BRANCH  21  22
HETATM   22  C20 UNL     1      19.536 -73.046 -20.659  1.00  0.00    -0.001 C 
HETATM   23  C21 UNL     1      20.684 -73.700 -21.396  1.00  0.00     0.005 C 
ENDBRANCH  21  22
ENDBRANCH  20  21
BRANCH  20  24
HETATM   24  N3  UNL     1      18.044 -71.282 -22.297  1.00  0.00    -0.405 NA
HETATM   25  C22 UNL     1      18.692 -70.380 -22.929  1.00  0.00     0.286 C 
HETATM   26  O2  UNL     1      19.909 -70.360 -23.333  1.00  0.00    -0.258 OA
BRANCH  25  27
HETATM   27  C23 UNL     1      18.038 -69.020 -23.336  1.00  0.00     0.114 C 
HETATM   28  C24 UNL     1      16.588 -69.193 -23.563  1.00  0.00     0.016 C 
ENDBRANCH  25  27
ENDBRANCH  20  24
ENDBRANCH  17  20
ENDBRANCH  13  14
ENDBRANCH   9  12
BRANCH   1  29
HETATM   29  N1  UNL     1       7.821 -69.869 -25.925  1.00  0.00    -0.445 NA
BRANCH  29  30
HETATM   30  C4  UNL     1       8.492 -68.730 -25.686  1.00  0.00     0.245 C 
BRANCH  30  31
HETATM   31  C3  UNL     1       9.802 -68.927 -24.870  1.00  0.00     0.207 C 
BRANCH  31  32
HETATM   32  O1  UNL     1      10.881 -68.963 -25.771  1.00  0.00    -0.361 OA
BRANCH  32  33
HETATM   33  C2  UNL     1      12.053 -69.682 -25.529  1.00  0.00     0.124 C 
HETATM   34  C1  UNL     1      12.874 -69.387 -24.581  1.00  0.00     0.037 C 
ENDBRANCH  32  33
ENDBRANCH  31  32
ENDBRANCH  30  31
ENDBRANCH  29  30
ENDBRANCH   1  29
TORSDOF 12
ENDMDL
