MODEL 1
REMARK VINA RESULT: -9.582659556      0.000      0.000
REMARK  9 active torsions:
REMARK  status: ('A' for Active; 'I' for Inactive)
REMARK    1  A    between atoms: C2_2  and  C3_3 
REMARK    2  A    between atoms: C3_3  and  C4_4 
REMARK    3  A    between atoms: C4_4  and  C5_5 
REMARK    4  A    between atoms: C4_4  and  N3_12 
REMARK    5  A    between atoms: N3_12  and  C8_13 
REMARK       I    between atoms: N3_12  and  C20_28 
REMARK    6  A    between atoms: C8_13  and  C9_14 
REMARK    7  A    between atoms: C20_28  and  C21_30 
REMARK    8  A    between atoms: C21_30  and  C22_31 
REMARK    9  A    between atoms: C22_31  and  N5_32 
ROOT
HETATM    1  N3  UNL     1      13.598 -70.592 -22.933  1.00  0.00    -0.337 N 
HETATM    2  C20 UNL     1      14.663 -69.768 -22.418  1.00  0.00     0.222 C 
HETATM    3  O2  UNL     1      14.915 -69.868 -21.196  1.00  0.00    -0.273 OA
ENDROOT
BRANCH   1   4
HETATM    4  C4  UNL     1      12.930 -71.460 -22.003  1.00  0.00     0.139 C 
BRANCH   4   5
HETATM    5  C3  UNL     1      11.514 -70.936 -21.768  1.00  0.00     0.031 C 
BRANCH   5   6
HETATM    6  C2  UNL     1      11.383 -70.091 -20.545  1.00  0.00    -0.002 C 
HETATM    7  C1  UNL     1      11.562 -68.633 -21.003  1.00  0.00     0.005 C 
ENDBRANCH   5   6
ENDBRANCH   4   5
BRANCH   4   8
HETATM    8  C5  UNL     1      12.970 -72.894 -22.274  1.00  0.00     0.050 A 
HETATM    9  C6  UNL     1      14.002 -73.801 -22.199  1.00  0.00     0.047 A 
HETATM   10  C7  UNL     1      13.568 -75.048 -22.580  1.00  0.00     0.109 A 
HETATM   11  N1  UNL     1      12.277 -74.883 -22.881  1.00  0.00    -0.312 N 
HETATM   12  N2  UNL     1      11.897 -73.641 -22.714  1.00  0.00    -0.303 N 
ATOM     13  H1  UNL     1      11.663 -75.632 -23.201  1.00  0.00     0.186 HD
ATOM     14  H2  UNL     1      10.957 -73.282 -22.883  1.00  0.00     0.186 HD
ENDBRANCH   4   8
ENDBRANCH   1   4
BRANCH   1  15
HETATM   15  C8  UNL     1      13.324 -70.605 -24.322  1.00  0.00     0.171 C 
BRANCH  15  16
HETATM   16  C9  UNL     1      11.972 -70.401 -24.813  1.00  0.00     0.029 A 
HETATM   17  C10 UNL     1      11.053 -71.338 -25.187  1.00  0.00     0.028 A 
HETATM   18  C11 UNL     1       9.793 -70.936 -25.607  1.00  0.00    -0.008 A 
HETATM   19  C12 UNL     1       8.860 -71.904 -25.990  1.00  0.00     0.021 A 
HETATM   20  C18 UNL     1       9.412 -69.613 -25.668  1.00  0.00     0.045 A 
HETATM   21  C13 UNL     1       7.599 -71.552 -26.413  1.00  0.00    -0.055 A 
HETATM   22  C14 UNL     1       6.618 -72.579 -26.816  1.00  0.00     0.049 C 
HETATM   23  C15 UNL     1       7.259 -70.213 -26.459  1.00  0.00    -0.054 A 
HETATM   24  C16 UNL     1       5.890 -69.876 -26.923  1.00  0.00     0.049 C 
HETATM   25  C17 UNL     1       8.138 -69.221 -26.095  1.00  0.00     0.037 A 
HETATM   26  N4  UNL     1      10.326 -68.712 -25.298  1.00  0.00    -0.322 N 
HETATM   27  C19 UNL     1      11.549 -69.064 -24.887  1.00  0.00     0.253 A 
ATOM     28  H4  UNL     1      10.083 -67.721 -25.329  1.00  0.00     0.169 HD
HETATM   29  O1  UNL     1      12.340 -68.142 -24.558  1.00  0.00    -0.268 OA
ENDBRANCH  15  16
ENDBRANCH   1  15
BRANCH   2  30
HETATM   30  C21 UNL     1      15.440 -68.834 -23.281  1.00  0.00     0.131 C 
BRANCH  30  31
HETATM   31  C22 UNL     1      15.689 -67.571 -22.507  1.00  0.00     0.245 C 
BRANCH  31  32
HETATM   32  N5  UNL     1      17.083 -67.441 -22.117  1.00  0.00    -0.078 N 
HETATM   33  C23 UNL     1      17.835 -68.459 -22.798  1.00  0.00     0.271 C 
HETATM   34  C24 UNL     1      17.575 -66.107 -22.434  1.00  0.00     0.271 C 
HETATM   35  C25 UNL     1      17.142 -67.679 -20.684  1.00  0.00     0.271 C 
ENDBRANCH  31  32
ENDBRANCH  30  31
ENDBRANCH   2  30
TORSDOF 9
ENDMDL
MODEL 2
REMARK VINA RESULT: -9.503992364      2.314      3.818
REMARK  9 active torsions:
REMARK  status: ('A' for Active; 'I' for Inactive)
REMARK    1  A    between atoms: C2_2  and  C3_3 
REMARK    2  A    between atoms: C3_3  and  C4_4 
REMARK    3  A    between atoms: C4_4  and  C5_5 
REMARK    4  A    between atoms: C4_4  and  N3_12 
REMARK    5  A    between atoms: N3_12  and  C8_13 
REMARK       I    between atoms: N3_12  and  C20_28 
REMARK    6  A    between atoms: C8_13  and  C9_14 
REMARK    7  A    between atoms: C20_28  and  C21_30 
REMARK    8  A    between atoms: C21_30  and  C22_31 
REMARK    9  A    between atoms: C22_31  and  N5_32 
ROOT
HETATM    1  N3  UNL     1      15.123 -69.719 -22.619  1.00  0.00    -0.337 N 
HETATM    2  C20 UNL     1      16.064 -70.810 -22.623  1.00  0.00     0.222 C 
HETATM    3  O2  UNL     1      16.393 -71.278 -21.509  1.00  0.00    -0.273 OA
ENDROOT
BRANCH   1   4
HETATM    4  C4  UNL     1      14.639 -69.272 -21.340  1.00  0.00     0.139 C 
BRANCH   4   5
HETATM    5  C3  UNL     1      15.099 -67.833 -21.114  1.00  0.00     0.031 C 
BRANCH   5   6
HETATM    6  C2  UNL     1      16.528 -67.718 -20.704  1.00  0.00    -0.002 C 
HETATM    7  C1  UNL     1      17.208 -66.811 -21.745  1.00  0.00     0.005 C 
ENDBRANCH   5   6
ENDBRANCH   4   5
BRANCH   4   8
HETATM    8  C5  UNL     1      13.222 -69.471 -21.052  1.00  0.00     0.050 A 
HETATM    9  C6  UNL     1      12.466 -70.619 -20.972  1.00  0.00     0.047 A 
HETATM   10  C7  UNL     1      11.156 -70.308 -20.699  1.00  0.00     0.109 A 
HETATM   11  N1  UNL     1      11.132 -68.975 -20.616  1.00  0.00    -0.312 N 
HETATM   12  N2  UNL     1      12.318 -68.456 -20.817  1.00  0.00    -0.303 N 
ATOM     13  H1  UNL     1      10.293 -68.429 -20.421  1.00  0.00     0.186 HD
ATOM     14  H2  UNL     1      12.538 -67.461 -20.801  1.00  0.00     0.186 HD
ENDBRANCH   4   8
ENDBRANCH   1   4
BRANCH   1  15
HETATM   15  C8  UNL     1      14.631 -69.206 -23.843  1.00  0.00     0.171 C 
BRANCH  15  16
HETATM   16  C9  UNL     1      13.265 -69.472 -24.262  1.00  0.00     0.029 A 
HETATM   17  C10 UNL     1      12.722 -70.646 -24.699  1.00  0.00     0.028 A 
HETATM   18  C11 UNL     1      11.376 -70.699 -25.031  1.00  0.00    -0.008 A 
HETATM   19  C12 UNL     1      10.831 -71.906 -25.479  1.00  0.00     0.021 A 
HETATM   20  C18 UNL     1      10.540 -69.607 -24.940  1.00  0.00     0.045 A 
HETATM   21  C13 UNL     1       9.502 -72.005 -25.818  1.00  0.00    -0.055 A 
HETATM   22  C14 UNL     1       8.932 -73.283 -26.291  1.00  0.00     0.049 C 
HETATM   23  C15 UNL     1       8.698 -70.886 -25.712  1.00  0.00    -0.054 A 
HETATM   24  C16 UNL     1       7.271 -71.036 -26.091  1.00  0.00     0.049 C 
HETATM   25  C17 UNL     1       9.183 -69.675 -25.279  1.00  0.00     0.037 A 
HETATM   26  N4  UNL     1      11.091 -68.469 -24.510  1.00  0.00    -0.322 N 
HETATM   27  C19 UNL     1      12.383 -68.381 -24.182  1.00  0.00     0.253 A 
ATOM     28  H4  UNL     1      10.504 -67.637 -24.429  1.00  0.00     0.169 HD
HETATM   29  O1  UNL     1      12.810 -67.265 -23.786  1.00  0.00    -0.268 OA
ENDBRANCH  15  16
ENDBRANCH   1  15
BRANCH   2  30
HETATM   30  C21 UNL     1      16.631 -71.372 -23.880  1.00  0.00     0.131 C 
BRANCH  30  31
HETATM   31  C22 UNL     1      18.094 -71.031 -23.934  1.00  0.00     0.245 C 
BRANCH  31  32
HETATM   32  N5  UNL     1      18.901 -72.171 -24.336  1.00  0.00    -0.078 N 
HETATM   33  C23 UNL     1      20.247 -71.946 -23.888  1.00  0.00     0.271 C 
HETATM   34  C24 UNL     1      18.349 -73.401 -23.786  1.00  0.00     0.271 C 
HETATM   35  C25 UNL     1      18.880 -72.208 -25.789  1.00  0.00     0.271 C 
ENDBRANCH  31  32
ENDBRANCH  30  31
ENDBRANCH   2  30
TORSDOF 9
ENDMDL
MODEL 3
REMARK VINA RESULT: -9.440708212      1.789      4.632
REMARK  9 active torsions:
REMARK  status: ('A' for Active; 'I' for Inactive)
REMARK    1  A    between atoms: C2_2  and  C3_3 
REMARK    2  A    between atoms: C3_3  and  C4_4 
REMARK    3  A    between atoms: C4_4  and  C5_5 
REMARK    4  A    between atoms: C4_4  and  N3_12 
REMARK    5  A    between atoms: N3_12  and  C8_13 
REMARK       I    between atoms: N3_12  and  C20_28 
REMARK    6  A    between atoms: C8_13  and  C9_14 
REMARK    7  A    between atoms: C20_28  and  C21_30 
REMARK    8  A    between atoms: C21_30  and  C22_31 
REMARK    9  A    between atoms: C22_31  and  N5_32 
ROOT
HETATM    1  N3  UNL     1      14.351 -69.696 -22.785  1.00  0.00    -0.337 N 
HETATM    2  C20 UNL     1      14.454 -71.006 -22.193  1.00  0.00     0.222 C 
HETATM    3  O2  UNL     1      14.675 -71.055 -20.961  1.00  0.00    -0.273 OA
ENDROOT
BRANCH   1   4
HETATM    4  C4  UNL     1      14.500 -68.565 -21.910  1.00  0.00     0.139 C 
BRANCH   4   5
HETATM    5  C3  UNL     1      15.613 -67.667 -22.449  1.00  0.00     0.031 C 
BRANCH   5   6
HETATM    6  C2  UNL     1      16.643 -67.312 -21.430  1.00  0.00    -0.002 C 
HETATM    7  C1  UNL     1      17.654 -66.392 -22.137  1.00  0.00     0.005 C 
ENDBRANCH   5   6
ENDBRANCH   4   5
BRANCH   4   8
HETATM    8  C5  UNL     1      13.292 -67.826 -21.555  1.00  0.00     0.050 A 
HETATM    9  C6  UNL     1      12.227 -68.165 -20.751  1.00  0.00     0.047 A 
HETATM   10  C7  UNL     1      11.301 -67.150 -20.737  1.00  0.00     0.109 A 
HETATM   11  N1  UNL     1      11.815 -66.207 -21.530  1.00  0.00    -0.312 N 
HETATM   12  N2  UNL     1      12.974 -66.569 -22.023  1.00  0.00    -0.303 N 
ATOM     13  H1  UNL     1      11.362 -65.315 -21.728  1.00  0.00     0.186 HD
ATOM     14  H2  UNL     1      13.549 -66.010 -22.652  1.00  0.00     0.186 HD
ENDBRANCH   4   8
ENDBRANCH   1   4
BRANCH   1  15
HETATM   15  C8  UNL     1      14.004 -69.564 -24.151  1.00  0.00     0.171 C 
BRANCH  15  16
HETATM   16  C9  UNL     1      12.659 -69.870 -24.607  1.00  0.00     0.029 A 
HETATM   17  C10 UNL     1      12.132 -71.082 -24.950  1.00  0.00     0.028 A 
HETATM   18  C11 UNL     1      10.803 -71.169 -25.339  1.00  0.00    -0.008 A 
HETATM   19  C12 UNL     1      10.274 -72.415 -25.689  1.00  0.00     0.021 A 
HETATM   20  C18 UNL     1       9.969 -70.073 -25.400  1.00  0.00     0.045 A 
HETATM   21  C13 UNL     1       8.963 -72.548 -26.081  1.00  0.00    -0.055 A 
HETATM   22  C14 UNL     1       8.410 -73.866 -26.450  1.00  0.00     0.049 C 
HETATM   23  C15 UNL     1       8.161 -71.423 -26.128  1.00  0.00    -0.054 A 
HETATM   24  C16 UNL     1       6.752 -71.611 -26.558  1.00  0.00     0.049 C 
HETATM   25  C17 UNL     1       8.630 -70.175 -25.795  1.00  0.00     0.037 A 
HETATM   26  N4  UNL     1      10.504 -68.897 -25.060  1.00  0.00    -0.322 N 
HETATM   27  C19 UNL     1      11.779 -68.777 -24.680  1.00  0.00     0.253 A 
ATOM     28  H4  UNL     1       9.919 -68.062 -25.093  1.00  0.00     0.169 HD
HETATM   29  O1  UNL     1      12.192 -67.627 -24.379  1.00  0.00    -0.268 OA
ENDBRANCH  15  16
ENDBRANCH   1  15
BRANCH   2  30
HETATM   30  C21 UNL     1      14.307 -72.257 -22.988  1.00  0.00     0.131 C 
BRANCH  30  31
HETATM   31  C22 UNL     1      15.655 -72.913 -23.093  1.00  0.00     0.245 C 
BRANCH  31  32
HETATM   32  N5  UNL     1      15.652 -74.250 -22.523  1.00  0.00    -0.078 N 
HETATM   33  C23 UNL     1      16.314 -74.193 -21.249  1.00  0.00     0.271 C 
HETATM   34  C24 UNL     1      14.288 -74.744 -22.399  1.00  0.00     0.271 C 
HETATM   35  C25 UNL     1      16.420 -75.092 -23.425  1.00  0.00     0.271 C 
ENDBRANCH  31  32
ENDBRANCH  30  31
ENDBRANCH   2  30
TORSDOF 9
ENDMDL
MODEL 4
REMARK VINA RESULT: -9.281914222      1.638      4.071
REMARK  9 active torsions:
REMARK  status: ('A' for Active; 'I' for Inactive)
REMARK    1  A    between atoms: C2_2  and  C3_3 
REMARK    2  A    between atoms: C3_3  and  C4_4 
REMARK    3  A    between atoms: C4_4  and  C5_5 
REMARK    4  A    between atoms: C4_4  and  N3_12 
REMARK    5  A    between atoms: N3_12  and  C8_13 
REMARK       I    between atoms: N3_12  and  C20_28 
REMARK    6  A    between atoms: C8_13  and  C9_14 
REMARK    7  A    between atoms: C20_28  and  C21_30 
REMARK    8  A    between atoms: C21_30  and  C22_31 
REMARK    9  A    between atoms: C22_31  and  N5_32 
ROOT
HETATM    1  N3  UNL     1      13.616 -70.630 -22.604  1.00  0.00    -0.337 N 
HETATM    2  C20 UNL     1      13.833 -71.979 -22.144  1.00  0.00     0.222 C 
HETATM    3  O2  UNL     1      13.903 -72.151 -20.906  1.00  0.00    -0.273 OA
ENDROOT
BRANCH   1   4
HETATM    4  C4  UNL     1      13.490 -69.606 -21.602  1.00  0.00     0.139 C 
BRANCH   4   5
HETATM    5  C3  UNL     1      12.309 -69.948 -20.694  1.00  0.00     0.031 C 
BRANCH   5   6
HETATM    6  C2  UNL     1      11.114 -69.082 -20.914  1.00  0.00    -0.002 C 
HETATM    7  C1  UNL     1      11.618 -67.629 -20.881  1.00  0.00     0.005 C 
ENDBRANCH   5   6
ENDBRANCH   4   5
BRANCH   4   8
HETATM    8  C5  UNL     1      14.692 -69.239 -20.862  1.00  0.00     0.050 A 
HETATM    9  C6  UNL     1      16.025 -69.329 -21.196  1.00  0.00     0.047 A 
HETATM   10  C7  UNL     1      16.806 -68.881 -20.158  1.00  0.00     0.109 A 
HETATM   11  N1  UNL     1      15.940 -68.523 -19.207  1.00  0.00    -0.312 N 
HETATM   12  N2  UNL     1      14.700 -68.718 -19.584  1.00  0.00    -0.303 N 
ATOM     13  H1  UNL     1      16.209 -68.144 -18.300  1.00  0.00     0.186 HD
ATOM     14  H2  UNL     1      13.873 -68.518 -19.023  1.00  0.00     0.186 HD
ENDBRANCH   4   8
ENDBRANCH   1   4
BRANCH   1  15
HETATM   15  C8  UNL     1      13.428 -70.377 -23.983  1.00  0.00     0.171 C 
BRANCH  15  16
HETATM   16  C9  UNL     1      12.091 -70.235 -24.535  1.00  0.00     0.029 A 
HETATM   17  C10 UNL     1      11.221 -71.215 -24.918  1.00  0.00     0.028 A 
HETATM   18  C11 UNL     1       9.967 -70.870 -25.401  1.00  0.00    -0.008 A 
HETATM   19  C12 UNL     1       9.084 -71.882 -25.793  1.00  0.00     0.021 A 
HETATM   20  C18 UNL     1       9.544 -69.564 -25.518  1.00  0.00     0.045 A 
HETATM   21  C13 UNL     1       7.831 -71.586 -26.277  1.00  0.00    -0.055 A 
HETATM   22  C14 UNL     1       6.904 -72.659 -26.688  1.00  0.00     0.049 C 
HETATM   23  C15 UNL     1       7.447 -70.262 -26.377  1.00  0.00    -0.054 A 
HETATM   24  C16 UNL     1       6.088 -69.988 -26.907  1.00  0.00     0.049 C 
HETATM   25  C17 UNL     1       8.276 -69.230 -26.008  1.00  0.00     0.037 A 
HETATM   26  N4  UNL     1      10.410 -68.620 -25.137  1.00  0.00    -0.322 N 
HETATM   27  C19 UNL     1      11.625 -68.917 -24.667  1.00  0.00     0.253 A 
ATOM     28  H4  UNL     1      10.134 -67.641 -25.209  1.00  0.00     0.169 HD
HETATM   29  O1  UNL     1      12.371 -67.958 -24.334  1.00  0.00    -0.268 OA
ENDBRANCH  15  16
ENDBRANCH   1  15
BRANCH   2  30
HETATM   30  C21 UNL     1      13.970 -73.130 -23.080  1.00  0.00     0.131 C 
BRANCH  30  31
HETATM   31  C22 UNL     1      14.488 -74.310 -22.307  1.00  0.00     0.245 C 
BRANCH  31  32
HETATM   32  N5  UNL     1      15.834 -74.677 -22.717  1.00  0.00    -0.078 N 
HETATM   33  C23 UNL     1      16.005 -74.288 -24.090  1.00  0.00     0.271 C 
HETATM   34  C24 UNL     1      16.817 -74.041 -21.851  1.00  0.00     0.271 C 
HETATM   35  C25 UNL     1      15.924 -76.124 -22.613  1.00  0.00     0.271 C 
ENDBRANCH  31  32
ENDBRANCH  30  31
ENDBRANCH   2  30
TORSDOF 9
ENDMDL
MODEL 5
REMARK VINA RESULT: -9.140873656      2.838      8.057
REMARK  9 active torsions:
REMARK  status: ('A' for Active; 'I' for Inactive)
REMARK    1  A    between atoms: C2_2  and  C3_3 
REMARK    2  A    between atoms: C3_3  and  C4_4 
REMARK    3  A    between atoms: C4_4  and  C5_5 
REMARK    4  A    between atoms: C4_4  and  N3_12 
REMARK    5  A    between atoms: N3_12  and  C8_13 
REMARK       I    between atoms: N3_12  and  C20_28 
REMARK    6  A    between atoms: C8_13  and  C9_14 
REMARK    7  A    between atoms: C20_28  and  C21_30 
REMARK    8  A    between atoms: C21_30  and  C22_31 
REMARK    9  A    between atoms: C22_31  and  N5_32 
ROOT
HETATM    1  N3  UNL     1      13.681 -69.131 -23.061  1.00  0.00    -0.337 N 
HETATM    2  C20 UNL     1      13.049 -69.572 -24.279  1.00  0.00     0.222 C 
HETATM    3  O2  UNL     1      13.029 -68.760 -25.232  1.00  0.00    -0.273 OA
ENDROOT
BRANCH   1   4
HETATM    4  C4  UNL     1      14.239 -67.806 -23.051  1.00  0.00     0.139 C 
BRANCH   4   5
HETATM    5  C3  UNL     1      13.607 -67.012 -21.909  1.00  0.00     0.031 C 
BRANCH   5   6
HETATM    6  C2  UNL     1      12.140 -66.793 -22.072  1.00  0.00    -0.002 C 
HETATM    7  C1  UNL     1      11.474 -67.338 -20.796  1.00  0.00     0.005 C 
ENDBRANCH   5   6
ENDBRANCH   4   5
BRANCH   4   8
HETATM    8  C5  UNL     1      15.693 -67.689 -23.091  1.00  0.00     0.050 A 
HETATM    9  C6  UNL     1      16.585 -67.161 -22.185  1.00  0.00     0.047 A 
HETATM   10  C7  UNL     1      17.866 -67.249 -22.672  1.00  0.00     0.109 A 
HETATM   11  N1  UNL     1      17.738 -67.830 -23.868  1.00  0.00    -0.312 N 
HETATM   12  N2  UNL     1      16.486 -68.099 -24.143  1.00  0.00    -0.303 N 
ATOM     13  H1  UNL     1      18.519 -68.038 -24.490  1.00  0.00     0.186 HD
ATOM     14  H2  UNL     1      16.150 -68.542 -24.998  1.00  0.00     0.186 HD
ENDBRANCH   4   8
ENDBRANCH   1   4
BRANCH   1  15
HETATM   15  C8  UNL     1      13.828 -70.029 -21.977  1.00  0.00     0.171 C 
BRANCH  15  16
HETATM   16  C9  UNL     1      15.039 -70.818 -21.828  1.00  0.00     0.029 A 
HETATM   17  C10 UNL     1      15.531 -71.788 -22.654  1.00  0.00     0.028 A 
HETATM   18  C11 UNL     1      16.731 -72.411 -22.345  1.00  0.00    -0.008 A 
HETATM   19  C12 UNL     1      17.224 -73.404 -23.197  1.00  0.00     0.021 A 
HETATM   20  C18 UNL     1      17.469 -72.098 -21.224  1.00  0.00     0.045 A 
HETATM   21  C13 UNL     1      18.409 -74.049 -22.930  1.00  0.00    -0.055 A 
HETATM   22  C14 UNL     1      18.925 -75.096 -23.834  1.00  0.00     0.049 C 
HETATM   23  C15 UNL     1      19.118 -73.703 -21.795  1.00  0.00    -0.054 A 
HETATM   24  C16 UNL     1      20.390 -74.425 -21.544  1.00  0.00     0.049 C 
HETATM   25  C17 UNL     1      18.678 -72.736 -20.923  1.00  0.00     0.037 A 
HETATM   26  N4  UNL     1      16.971 -71.147 -20.429  1.00  0.00    -0.322 N 
HETATM   27  C19 UNL     1      15.819 -70.525 -20.697  1.00  0.00     0.253 A 
ATOM     28  H4  UNL     1      17.488 -70.886 -19.589  1.00  0.00     0.169 HD
HETATM   29  O1  UNL     1      15.432 -69.642 -19.887  1.00  0.00    -0.268 OA
ENDBRANCH  15  16
ENDBRANCH   1  15
BRANCH   2  30
HETATM   30  C21 UNL     1      12.443 -70.925 -24.421  1.00  0.00     0.131 C 
BRANCH  30  31
HETATM   31  C22 UNL     1      10.950 -70.787 -24.339  1.00  0.00     0.245 C 
BRANCH  31  32
HETATM   32  N5  UNL     1      10.316 -72.014 -23.888  1.00  0.00    -0.078 N 
HETATM   33  C23 UNL     1      11.308 -72.810 -23.219  1.00  0.00     0.271 C 
HETATM   34  C24 UNL     1       9.190 -71.712 -23.016  1.00  0.00     0.271 C 
HETATM   35  C25 UNL     1       9.864 -72.715 -25.079  1.00  0.00     0.271 C 
ENDBRANCH  31  32
ENDBRANCH  30  31
ENDBRANCH   2  30
TORSDOF 9
ENDMDL
