MODEL 1
REMARK VINA RESULT: -4.900304750      0.000      0.000
REMARK  10 active torsions:
REMARK  status: ('A' for Active; 'I' for Inactive)
REMARK    1  A    between atoms: C2_2  and  C3_3 
REMARK    2  A    between atoms: C3_3  and  N1_4 
REMARK    3  A    between atoms: N1_4  and  C4_7 
REMARK    4  A    between atoms: C4_7  and  C5_8 
REMARK    5  A    between atoms: C5_8  and  O1_9 
REMARK    6  A    between atoms: C5_8  and  C6_11 
REMARK    7  A    between atoms: C6_11  and  N2_12 
REMARK    8  A    between atoms: N2_12  and  C7_15 
REMARK    9  A    between atoms: C7_15  and  C8_16 
REMARK   10  A    between atoms: C8_16  and  O2_17 
ROOT
HETATM    1  C5  UNL     1      -4.795  19.787   3.529  1.00  0.00     0.169 C 
ENDROOT
BRANCH   1   2
HETATM    2  C4  UNL     1      -4.261  20.623   2.381  1.00  0.00     0.265 C 
BRANCH   2   3
HETATM    3  N1  UNL     1      -4.463  22.004   2.627  1.00  0.00    -0.070 N 
ATOM      4  H12 UNL     1      -4.833  22.152   3.566  1.00  0.00     0.277 HD
ATOM      5  H11 UNL     1      -5.248  22.357   2.078  1.00  0.00     0.277 HD
BRANCH   3   6
HETATM    6  C3  UNL     1      -3.292  22.805   2.411  1.00  0.00     0.259 C 
BRANCH   6   7
HETATM    7  C2  UNL     1      -2.250  22.073   1.686  1.00  0.00    -0.010 C 
HETATM    8  C1  UNL     1      -1.075  22.591   1.381  1.00  0.00     0.008 C 
ENDBRANCH   6   7
ENDBRANCH   3   6
ENDBRANCH   2   3
ENDBRANCH   1   2
BRANCH   1   9
HETATM    9  O1  UNL     1      -5.759  20.477   4.301  1.00  0.00    -0.392 OA
ATOM     10  H1  UNL     1      -6.625  20.092   4.231  1.00  0.00     0.210 HD
ENDBRANCH   1   9
BRANCH   1  11
HETATM   11  C6  UNL     1      -5.636  18.668   2.879  1.00  0.00     0.265 C 
BRANCH  11  12
HETATM   12  N2  UNL     1      -6.158  19.077   1.588  1.00  0.00    -0.071 N 
ATOM     13  H22 UNL     1      -5.698  19.912   1.227  1.00  0.00     0.277 HD
ATOM     14  H21 UNL     1      -5.894  18.437   0.839  1.00  0.00     0.277 HD
BRANCH  12  15
HETATM   15  C7  UNL     1      -7.573  19.236   1.699  1.00  0.00     0.258 C 
BRANCH  15  16
HETATM   16  C8  UNL     1      -8.055  20.628   1.302  1.00  0.00     0.191 C 
BRANCH  16  17
HETATM   17  O2  UNL     1      -7.464  21.632   2.033  1.00  0.00    -0.399 OA
ATOM     18  H2  UNL     1      -6.804  22.110   1.544  1.00  0.00     0.209 HD
ENDBRANCH  16  17
ENDBRANCH  15  16
ENDBRANCH  12  15
ENDBRANCH  11  12
ENDBRANCH   1  11
TORSDOF 10
ENDMDL
MODEL 2
REMARK VINA RESULT: -4.885347915      1.783      2.343
REMARK  10 active torsions:
REMARK  status: ('A' for Active; 'I' for Inactive)
REMARK    1  A    between atoms: C2_2  and  C3_3 
REMARK    2  A    between atoms: C3_3  and  N1_4 
REMARK    3  A    between atoms: N1_4  and  C4_7 
REMARK    4  A    between atoms: C4_7  and  C5_8 
REMARK    5  A    between atoms: C5_8  and  O1_9 
REMARK    6  A    between atoms: C5_8  and  C6_11 
REMARK    7  A    between atoms: C6_11  and  N2_12 
REMARK    8  A    between atoms: N2_12  and  C7_15 
REMARK    9  A    between atoms: C7_15  and  C8_16 
REMARK   10  A    between atoms: C8_16  and  O2_17 
ROOT
HETATM    1  C5  UNL     1      -3.499  21.557   2.480  1.00  0.00     0.169 C 
ENDROOT
BRANCH   1   2
HETATM    2  C4  UNL     1      -2.506  21.515   1.334  1.00  0.00     0.265 C 
BRANCH   2   3
HETATM    3  N1  UNL     1      -1.195  21.264   1.813  1.00  0.00    -0.070 N 
ATOM      4  H12 UNL     1      -0.902  20.315   1.580  1.00  0.00     0.277 HD
ATOM      5  H11 UNL     1      -1.189  21.198   2.831  1.00  0.00     0.277 HD
BRANCH   3   6
HETATM    6  C3  UNL     1      -0.225  22.220   1.361  1.00  0.00     0.259 C 
BRANCH   6   7
HETATM    7  C2  UNL     1      -0.702  23.598   1.502  1.00  0.00    -0.010 C 
HETATM    8  C1  UNL     1      -0.258  24.431   2.426  1.00  0.00     0.008 C 
ENDBRANCH   6   7
ENDBRANCH   3   6
ENDBRANCH   2   3
ENDBRANCH   1   2
BRANCH   1   9
HETATM    9  O1  UNL     1      -4.446  22.599   2.339  1.00  0.00    -0.392 OA
ATOM     10  H1  UNL     1      -5.002  22.692   3.104  1.00  0.00     0.210 HD
ENDBRANCH   1   9
BRANCH   1  11
HETATM   11  C6  UNL     1      -4.375  20.296   2.325  1.00  0.00     0.265 C 
BRANCH  11  12
HETATM   12  N2  UNL     1      -5.455  20.275   3.292  1.00  0.00    -0.071 N 
ATOM     13  H22 UNL     1      -5.174  19.866   4.183  1.00  0.00     0.277 HD
ATOM     14  H21 UNL     1      -5.692  21.207   3.635  1.00  0.00     0.277 HD
BRANCH  12  15
HETATM   15  C7  UNL     1      -6.574  19.605   2.711  1.00  0.00     0.258 C 
BRANCH  15  16
HETATM   16  C8  UNL     1      -7.347  20.472   1.722  1.00  0.00     0.191 C 
BRANCH  16  17
HETATM   17  O2  UNL     1      -7.351  21.806   2.063  1.00  0.00    -0.399 OA
ATOM     18  H2  UNL     1      -7.791  22.352   1.422  1.00  0.00     0.209 HD
ENDBRANCH  16  17
ENDBRANCH  15  16
ENDBRANCH  12  15
ENDBRANCH  11  12
ENDBRANCH   1  11
TORSDOF 10
ENDMDL
MODEL 3
REMARK VINA RESULT: -4.811327000      1.882      2.172
REMARK  10 active torsions:
REMARK  status: ('A' for Active; 'I' for Inactive)
REMARK    1  A    between atoms: C2_2  and  C3_3 
REMARK    2  A    between atoms: C3_3  and  N1_4 
REMARK    3  A    between atoms: N1_4  and  C4_7 
REMARK    4  A    between atoms: C4_7  and  C5_8 
REMARK    5  A    between atoms: C5_8  and  O1_9 
REMARK    6  A    between atoms: C5_8  and  C6_11 
REMARK    7  A    between atoms: C6_11  and  N2_12 
REMARK    8  A    between atoms: N2_12  and  C7_15 
REMARK    9  A    between atoms: C7_15  and  C8_16 
REMARK   10  A    between atoms: C8_16  and  O2_17 
ROOT
HETATM    1  C5  UNL     1      -4.280  20.360   3.677  1.00  0.00     0.169 C 
ENDROOT
BRANCH   1   2
HETATM    2  C4  UNL     1      -4.038  21.093   2.371  1.00  0.00     0.265 C 
BRANCH   2   3
HETATM    3  N1  UNL     1      -4.064  22.497   2.568  1.00  0.00    -0.070 N 
ATOM      4  H12 UNL     1      -4.326  22.720   3.527  1.00  0.00     0.277 HD
ATOM      5  H11 UNL     1      -4.853  22.916   2.074  1.00  0.00     0.277 HD
BRANCH   3   6
HETATM    6  C3  UNL     1      -2.837  23.150   2.211  1.00  0.00     0.259 C 
BRANCH   6   7
HETATM    7  C2  UNL     1      -1.901  22.240   1.548  1.00  0.00    -0.010 C 
HETATM    8  C1  UNL     1      -0.626  22.523   1.349  1.00  0.00     0.008 C 
ENDBRANCH   6   7
ENDBRANCH   3   6
ENDBRANCH   2   3
ENDBRANCH   1   2
BRANCH   1   9
HETATM    9  O1  UNL     1      -4.426  21.242   4.774  1.00  0.00    -0.392 OA
ATOM     10  H1  UNL     1      -3.986  20.928   5.556  1.00  0.00     0.210 HD
ENDBRANCH   1   9
BRANCH   1  11
HETATM   11  C6  UNL     1      -5.691  19.747   3.560  1.00  0.00     0.265 C 
BRANCH  11  12
HETATM   12  N2  UNL     1      -5.644  18.297   3.567  1.00  0.00    -0.071 N 
ATOM     13  H22 UNL     1      -4.869  17.929   3.016  1.00  0.00     0.277 HD
ATOM     14  H21 UNL     1      -5.363  17.919   4.472  1.00  0.00     0.277 HD
BRANCH  12  15
HETATM   15  C7  UNL     1      -6.910  17.798   3.134  1.00  0.00     0.258 C 
BRANCH  15  16
HETATM   16  C8  UNL     1      -6.956  17.493   1.640  1.00  0.00     0.191 C 
BRANCH  16  17
HETATM   17  O2  UNL     1      -6.268  16.350   1.302  1.00  0.00    -0.399 OA
ATOM     18  H2  UNL     1      -5.501  16.522   0.768  1.00  0.00     0.209 HD
ENDBRANCH  16  17
ENDBRANCH  15  16
ENDBRANCH  12  15
ENDBRANCH  11  12
ENDBRANCH   1  11
TORSDOF 10
ENDMDL
MODEL 4
REMARK VINA RESULT: -4.794042024      2.174      3.072
REMARK  10 active torsions:
REMARK  status: ('A' for Active; 'I' for Inactive)
REMARK    1  A    between atoms: C2_2  and  C3_3 
REMARK    2  A    between atoms: C3_3  and  N1_4 
REMARK    3  A    between atoms: N1_4  and  C4_7 
REMARK    4  A    between atoms: C4_7  and  C5_8 
REMARK    5  A    between atoms: C5_8  and  O1_9 
REMARK    6  A    between atoms: C5_8  and  C6_11 
REMARK    7  A    between atoms: C6_11  and  N2_12 
REMARK    8  A    between atoms: N2_12  and  C7_15 
REMARK    9  A    between atoms: C7_15  and  C8_16 
REMARK   10  A    between atoms: C8_16  and  O2_17 
ROOT
HETATM    1  C5  UNL     1      -3.511  21.665   2.483  1.00  0.00     0.169 C 
ENDROOT
BRANCH   1   2
HETATM    2  C4  UNL     1      -2.522  21.482   1.347  1.00  0.00     0.265 C 
BRANCH   2   3
HETATM    3  N1  UNL     1      -1.219  21.232   1.849  1.00  0.00    -0.070 N 
ATOM      4  H12 UNL     1      -0.938  20.271   1.657  1.00  0.00     0.277 HD
ATOM      5  H11 UNL     1      -1.225  21.207   2.869  1.00  0.00     0.277 HD
BRANCH   3   6
HETATM    6  C3  UNL     1      -0.231  22.155   1.369  1.00  0.00     0.259 C 
BRANCH   6   7
HETATM    7  C2  UNL     1      -0.696  23.543   1.434  1.00  0.00    -0.010 C 
HETATM    8  C1  UNL     1      -0.336  24.388   2.383  1.00  0.00     0.008 C 
ENDBRANCH   6   7
ENDBRANCH   3   6
ENDBRANCH   2   3
ENDBRANCH   1   2
BRANCH   1   9
HETATM    9  O1  UNL     1      -4.259  22.860   2.363  1.00  0.00    -0.392 OA
ATOM     10  H1  UNL     1      -5.196  22.707   2.386  1.00  0.00     0.210 HD
ENDBRANCH   1   9
BRANCH   1  11
HETATM   11  C6  UNL     1      -4.591  20.582   2.278  1.00  0.00     0.265 C 
BRANCH  11  12
HETATM   12  N2  UNL     1      -5.281  20.277   3.517  1.00  0.00    -0.071 N 
ATOM     13  H22 UNL     1      -4.872  20.755   4.320  1.00  0.00     0.277 HD
ATOM     14  H21 UNL     1      -6.210  20.697   3.562  1.00  0.00     0.277 HD
BRANCH  12  15
HETATM   15  C7  UNL     1      -5.312  18.859   3.683  1.00  0.00     0.258 C 
BRANCH  15  16
HETATM   16  C8  UNL     1      -6.720  18.276   3.606  1.00  0.00     0.191 C 
BRANCH  16  17
HETATM   17  O2  UNL     1      -6.738  16.901   3.668  1.00  0.00    -0.399 OA
ATOM     18  H2  UNL     1      -6.575  16.567   4.542  1.00  0.00     0.209 HD
ENDBRANCH  16  17
ENDBRANCH  15  16
ENDBRANCH  12  15
ENDBRANCH  11  12
ENDBRANCH   1  11
TORSDOF 10
ENDMDL
MODEL 5
REMARK VINA RESULT: -4.758577294      2.701      5.674
REMARK  10 active torsions:
REMARK  status: ('A' for Active; 'I' for Inactive)
REMARK    1  A    between atoms: C2_2  and  C3_3 
REMARK    2  A    between atoms: C3_3  and  N1_4 
REMARK    3  A    between atoms: N1_4  and  C4_7 
REMARK    4  A    between atoms: C4_7  and  C5_8 
REMARK    5  A    between atoms: C5_8  and  O1_9 
REMARK    6  A    between atoms: C5_8  and  C6_11 
REMARK    7  A    between atoms: C6_11  and  N2_12 
REMARK    8  A    between atoms: N2_12  and  C7_15 
REMARK    9  A    between atoms: C7_15  and  C8_16 
REMARK   10  A    between atoms: C8_16  and  O2_17 
ROOT
HETATM    1  C5  UNL     1      -4.331  21.056   2.446  1.00  0.00     0.169 C 
ENDROOT
BRANCH   1   2
HETATM    2  C4  UNL     1      -4.119  20.595   3.876  1.00  0.00     0.265 C 
BRANCH   2   3
HETATM    3  N1  UNL     1      -4.503  19.239   4.031  1.00  0.00    -0.070 N 
ATOM      4  H12 UNL     1      -4.873  19.075   4.967  1.00  0.00     0.277 HD
ATOM      5  H11 UNL     1      -3.682  18.634   4.064  1.00  0.00     0.277 HD
BRANCH   3   6
HETATM    6  C3  UNL     1      -5.428  18.786   3.032  1.00  0.00     0.259 C 
BRANCH   6   7
HETATM    7  C2  UNL     1      -6.661  18.258   3.621  1.00  0.00    -0.010 C 
HETATM    8  C1  UNL     1      -7.742  17.976   2.917  1.00  0.00     0.008 C 
ENDBRANCH   6   7
ENDBRANCH   3   6
ENDBRANCH   2   3
ENDBRANCH   1   2
BRANCH   1   9
HETATM    9  O1  UNL     1      -4.833  22.376   2.370  1.00  0.00    -0.392 OA
ATOM     10  H1  UNL     1      -4.490  22.854   1.623  1.00  0.00     0.210 HD
ENDBRANCH   1   9
BRANCH   1  11
HETATM   11  C6  UNL     1      -2.920  21.207   1.840  1.00  0.00     0.265 C 
BRANCH  11  12
HETATM   12  N2  UNL     1      -2.490  22.592   1.831  1.00  0.00    -0.071 N 
ATOM     13  H22 UNL     1      -3.127  23.196   1.314  1.00  0.00     0.277 HD
ATOM     14  H21 UNL     1      -2.586  23.037   2.745  1.00  0.00     0.277 HD
BRANCH  12  15
HETATM   15  C7  UNL     1      -1.153  22.650   1.332  1.00  0.00     0.258 C 
BRANCH  15  16
HETATM   16  C8  UNL     1      -0.366  23.847   1.857  1.00  0.00     0.191 C 
BRANCH  16  17
HETATM   17  O2  UNL     1       0.852  23.498   2.394  1.00  0.00    -0.399 OA
ATOM     18  H2  UNL     1       1.287  24.221   2.830  1.00  0.00     0.209 HD
ENDBRANCH  16  17
ENDBRANCH  15  16
ENDBRANCH  12  15
ENDBRANCH  11  12
ENDBRANCH   1  11
TORSDOF 10
ENDMDL
