MODEL 1
REMARK VINA RESULT: -4.951338190      0.000      0.000
REMARK  10 active torsions:
REMARK  status: ('A' for Active; 'I' for Inactive)
REMARK    1  A    between atoms: C2_2  and  O1_3 
REMARK    2  A    between atoms: O1_3  and  N1_4 
REMARK    3  A    between atoms: N1_4  and  C3_5 
REMARK    4  A    between atoms: C3_5  and  C4_6 
REMARK    5  A    between atoms: C3_5  and  C5_9 
REMARK    6  A    between atoms: C4_6  and  O2_7 
REMARK    7  A    between atoms: C5_9  and  O3_10 
REMARK    8  A    between atoms: O3_10  and  C6_11 
REMARK    9  A    between atoms: C6_11  and  C7_12 
REMARK   10  A    between atoms: C7_12  and  O4_13 
ROOT
HETATM    1  C3  UNL     1      -4.836  19.960   2.308  1.00  0.00     0.153 C 
ENDROOT
BRANCH   1   2
HETATM    2  N1  UNL     1      -3.946  20.965   1.763  1.00  0.00    -0.092 NA
BRANCH   2   3
HETATM    3  O1  UNL     1      -4.302  22.206   2.079  1.00  0.00    -0.286 OA
BRANCH   3   4
HETATM    4  C2  UNL     1      -3.223  23.023   2.413  1.00  0.00     0.191 C 
HETATM    5  C1  UNL     1      -1.985  22.534   1.700  1.00  0.00     0.035 C 
ENDBRANCH   3   4
ENDBRANCH   2   3
ENDBRANCH   1   2
BRANCH   1   6
HETATM    6  C4  UNL     1      -4.580  19.821   3.806  1.00  0.00     0.189 C 
BRANCH   6   7
HETATM    7  O2  UNL     1      -4.467  18.475   4.167  1.00  0.00    -0.399 OA
ATOM      8  H2  UNL     1      -4.518  18.374   5.111  1.00  0.00     0.209 HD
ENDBRANCH   6   7
ENDBRANCH   1   6
BRANCH   1   9
HETATM    9  C5  UNL     1      -6.288  20.365   2.155  1.00  0.00     0.193 C 
BRANCH   9  10
HETATM   10  O3  UNL     1      -6.992  19.777   3.189  1.00  0.00    -0.387 OA
BRANCH  10  11
HETATM   11  C6  UNL     1      -7.970  18.900   2.787  1.00  0.00     0.193 C 
BRANCH  11  12
HETATM   12  C7  UNL     1      -7.452  17.519   2.472  1.00  0.00     0.190 C 
BRANCH  12  13
HETATM   13  O4  UNL     1      -6.856  16.920   3.581  1.00  0.00    -0.399 OA
ATOM     14  H4  UNL     1      -6.280  16.206   3.333  1.00  0.00     0.209 HD
ENDBRANCH  12  13
ENDBRANCH  11  12
ENDBRANCH  10  11
ENDBRANCH   9  10
ENDBRANCH   1   9
TORSDOF 10
ENDMDL
MODEL 2
REMARK VINA RESULT: -4.790239497      2.851      4.447
REMARK  10 active torsions:
REMARK  status: ('A' for Active; 'I' for Inactive)
REMARK    1  A    between atoms: C2_2  and  O1_3 
REMARK    2  A    between atoms: O1_3  and  N1_4 
REMARK    3  A    between atoms: N1_4  and  C3_5 
REMARK    4  A    between atoms: C3_5  and  C4_6 
REMARK    5  A    between atoms: C3_5  and  C5_9 
REMARK    6  A    between atoms: C4_6  and  O2_7 
REMARK    7  A    between atoms: C5_9  and  O3_10 
REMARK    8  A    between atoms: O3_10  and  C6_11 
REMARK    9  A    between atoms: C6_11  and  C7_12 
REMARK   10  A    between atoms: C7_12  and  O4_13 
ROOT
HETATM    1  C3  UNL     1      -1.956  21.770   1.683  1.00  0.00     0.153 C 
ENDROOT
BRANCH   1   2
HETATM    2  N1  UNL     1      -1.878  21.078   0.412  1.00  0.00    -0.092 NA
BRANCH   2   3
HETATM    3  O1  UNL     1      -0.706  20.487   0.208  1.00  0.00    -0.286 OA
BRANCH   3   4
HETATM    4  C2  UNL     1      -0.818  19.211  -0.343  1.00  0.00     0.191 C 
HETATM    5  C1  UNL     1       0.439  18.427  -0.054  1.00  0.00     0.035 C 
ENDBRANCH   3   4
ENDBRANCH   2   3
ENDBRANCH   1   2
BRANCH   1   6
HETATM    6  C4  UNL     1      -1.353  23.164   1.535  1.00  0.00     0.189 C 
BRANCH   6   7
HETATM    7  O2  UNL     1      -0.106  23.100   0.904  1.00  0.00    -0.399 OA
ATOM      8  H2  UNL     1       0.106  23.931   0.494  1.00  0.00     0.209 HD
ENDBRANCH   6   7
ENDBRANCH   1   6
BRANCH   1   9
HETATM    9  C5  UNL     1      -3.394  21.967   2.119  1.00  0.00     0.193 C 
BRANCH   9  10
HETATM   10  O3  UNL     1      -4.110  20.867   1.688  1.00  0.00    -0.387 OA
BRANCH  10  11
HETATM   11  C6  UNL     1      -5.048  20.411   2.584  1.00  0.00     0.193 C 
BRANCH  11  12
HETATM   12  C7  UNL     1      -6.459  20.443   2.051  1.00  0.00     0.190 C 
BRANCH  12  13
HETATM   13  O4  UNL     1      -7.022  21.714   2.142  1.00  0.00    -0.399 OA
ATOM     14  H4  UNL     1      -7.960  21.699   1.994  1.00  0.00     0.209 HD
ENDBRANCH  12  13
ENDBRANCH  11  12
ENDBRANCH  10  11
ENDBRANCH   9  10
ENDBRANCH   1   9
TORSDOF 10
ENDMDL
MODEL 3
REMARK VINA RESULT: -4.758355533      1.552      2.165
REMARK  10 active torsions:
REMARK  status: ('A' for Active; 'I' for Inactive)
REMARK    1  A    between atoms: C2_2  and  O1_3 
REMARK    2  A    between atoms: O1_3  and  N1_4 
REMARK    3  A    between atoms: N1_4  and  C3_5 
REMARK    4  A    between atoms: C3_5  and  C4_6 
REMARK    5  A    between atoms: C3_5  and  C5_9 
REMARK    6  A    between atoms: C4_6  and  O2_7 
REMARK    7  A    between atoms: C5_9  and  O3_10 
REMARK    8  A    between atoms: O3_10  and  C6_11 
REMARK    9  A    between atoms: C6_11  and  C7_12 
REMARK   10  A    between atoms: C7_12  and  O4_13 
ROOT
HETATM    1  C3  UNL     1      -3.916  20.841   2.575  1.00  0.00     0.153 C 
ENDROOT
BRANCH   1   2
HETATM    2  N1  UNL     1      -4.252  22.185   2.148  1.00  0.00    -0.092 NA
BRANCH   2   3
HETATM    3  O1  UNL     1      -3.245  23.042   2.278  1.00  0.00    -0.286 OA
BRANCH   3   4
HETATM    4  C2  UNL     1      -2.052  22.583   1.723  1.00  0.00     0.191 C 
HETATM    5  C1  UNL     1      -1.037  23.700   1.720  1.00  0.00     0.035 C 
ENDBRANCH   3   4
ENDBRANCH   2   3
ENDBRANCH   1   2
BRANCH   1   6
HETATM    6  C4  UNL     1      -4.324  20.661   4.034  1.00  0.00     0.189 C 
BRANCH   6   7
HETATM    7  O2  UNL     1      -3.950  19.397   4.501  1.00  0.00    -0.399 OA
ATOM      8  H2  UNL     1      -3.556  18.884   3.805  1.00  0.00     0.209 HD
ENDBRANCH   6   7
ENDBRANCH   1   6
BRANCH   1   9
HETATM    9  C5  UNL     1      -4.682  19.801   1.782  1.00  0.00     0.193 C 
BRANCH   9  10
HETATM   10  O3  UNL     1      -5.907  19.633   2.397  1.00  0.00    -0.387 OA
BRANCH  10  11
HETATM   11  C6  UNL     1      -6.957  19.438   1.531  1.00  0.00     0.193 C 
BRANCH  11  12
HETATM   12  C7  UNL     1      -7.897  20.615   1.445  1.00  0.00     0.190 C 
BRANCH  12  13
HETATM   13  O4  UNL     1      -7.358  21.756   2.036  1.00  0.00    -0.399 OA
ATOM     14  H4  UNL     1      -8.022  22.277   2.473  1.00  0.00     0.209 HD
ENDBRANCH  12  13
ENDBRANCH  11  12
ENDBRANCH  10  11
ENDBRANCH   9  10
ENDBRANCH   1   9
TORSDOF 10
ENDMDL
MODEL 4
REMARK VINA RESULT: -4.755135003      2.376      3.561
REMARK  10 active torsions:
REMARK  status: ('A' for Active; 'I' for Inactive)
REMARK    1  A    between atoms: C2_2  and  O1_3 
REMARK    2  A    between atoms: O1_3  and  N1_4 
REMARK    3  A    between atoms: N1_4  and  C3_5 
REMARK    4  A    between atoms: C3_5  and  C4_6 
REMARK    5  A    between atoms: C3_5  and  C5_9 
REMARK    6  A    between atoms: C4_6  and  O2_7 
REMARK    7  A    between atoms: C5_9  and  O3_10 
REMARK    8  A    between atoms: O3_10  and  C6_11 
REMARK    9  A    between atoms: C6_11  and  C7_12 
REMARK   10  A    between atoms: C7_12  and  O4_13 
ROOT
HETATM    1  C3  UNL     1      -7.298  19.106   1.926  1.00  0.00     0.153 C 
ENDROOT
BRANCH   1   2
HETATM    2  N1  UNL     1      -6.739  20.145   2.768  1.00  0.00    -0.092 NA
BRANCH   2   3
HETATM    3  O1  UNL     1      -6.316  19.694   3.945  1.00  0.00    -0.286 OA
BRANCH   3   4
HETATM    4  C2  UNL     1      -4.979  19.300   3.938  1.00  0.00     0.191 C 
HETATM    5  C1  UNL     1      -4.113  20.459   4.369  1.00  0.00     0.035 C 
ENDBRANCH   3   4
ENDBRANCH   2   3
ENDBRANCH   1   2
BRANCH   1   6
HETATM    6  C4  UNL     1      -8.184  18.196   2.772  1.00  0.00     0.189 C 
BRANCH   6   7
HETATM    7  O2  UNL     1      -7.529  16.994   3.059  1.00  0.00    -0.399 OA
ATOM      8  H2  UNL     1      -8.154  16.318   3.296  1.00  0.00     0.209 HD
ENDBRANCH   6   7
ENDBRANCH   1   6
BRANCH   1   9
HETATM    9  C5  UNL     1      -8.186  19.688   0.845  1.00  0.00     0.193 C 
BRANCH   9  10
HETATM   10  O3  UNL     1      -8.561  18.649   0.015  1.00  0.00    -0.387 OA
BRANCH  10  11
HETATM   11  C6  UNL     1      -7.541  18.130  -0.746  1.00  0.00     0.193 C 
BRANCH  11  12
HETATM   12  C7  UNL     1      -7.566  16.625  -0.845  1.00  0.00     0.190 C 
BRANCH  12  13
HETATM   13  O4  UNL     1      -6.802  16.024   0.154  1.00  0.00    -0.399 OA
ATOM     14  H4  UNL     1      -6.350  15.251  -0.162  1.00  0.00     0.209 HD
ENDBRANCH  12  13
ENDBRANCH  11  12
ENDBRANCH  10  11
ENDBRANCH   9  10
ENDBRANCH   1   9
TORSDOF 10
ENDMDL
MODEL 5
REMARK VINA RESULT: -4.737387603      2.817      4.355
REMARK  10 active torsions:
REMARK  status: ('A' for Active; 'I' for Inactive)
REMARK    1  A    between atoms: C2_2  and  O1_3 
REMARK    2  A    between atoms: O1_3  and  N1_4 
REMARK    3  A    between atoms: N1_4  and  C3_5 
REMARK    4  A    between atoms: C3_5  and  C4_6 
REMARK    5  A    between atoms: C3_5  and  C5_9 
REMARK    6  A    between atoms: C4_6  and  O2_7 
REMARK    7  A    between atoms: C5_9  and  O3_10 
REMARK    8  A    between atoms: O3_10  and  C6_11 
REMARK    9  A    between atoms: C6_11  and  C7_12 
REMARK   10  A    between atoms: C7_12  and  O4_13 
ROOT
HETATM    1  C3  UNL     1      -1.928  21.705   1.687  1.00  0.00     0.153 C 
ENDROOT
BRANCH   1   2
HETATM    2  N1  UNL     1      -1.783  21.075   0.391  1.00  0.00    -0.092 NA
BRANCH   2   3
HETATM    3  O1  UNL     1      -0.632  20.423   0.252  1.00  0.00    -0.286 OA
BRANCH   3   4
HETATM    4  C2  UNL     1      -0.777  19.165  -0.330  1.00  0.00     0.191 C 
HETATM    5  C1  UNL     1       0.496  18.375  -0.140  1.00  0.00     0.035 C 
ENDBRANCH   3   4
ENDBRANCH   2   3
ENDBRANCH   1   2
BRANCH   1   6
HETATM    6  C4  UNL     1      -1.412  23.140   1.610  1.00  0.00     0.189 C 
BRANCH   6   7
HETATM    7  O2  UNL     1      -0.271  23.213   0.805  1.00  0.00    -0.399 OA
ATOM      8  H2  UNL     1      -0.256  22.501   0.176  1.00  0.00     0.209 HD
ENDBRANCH   6   7
ENDBRANCH   1   6
BRANCH   1   9
HETATM    9  C5  UNL     1      -3.383  21.793   2.101  1.00  0.00     0.193 C 
BRANCH   9  10
HETATM   10  O3  UNL     1      -3.985  20.600   1.748  1.00  0.00    -0.387 OA
BRANCH  10  11
HETATM   11  C6  UNL     1      -5.047  20.241   2.543  1.00  0.00     0.193 C 
BRANCH  11  12
HETATM   12  C7  UNL     1      -4.652  19.866   3.949  1.00  0.00     0.190 C 
BRANCH  12  13
HETATM   13  O4  UNL     1      -4.471  18.492   4.090  1.00  0.00    -0.399 OA
ATOM     14  H4  UNL     1      -3.560  18.241   3.989  1.00  0.00     0.209 HD
ENDBRANCH  12  13
ENDBRANCH  11  12
ENDBRANCH  10  11
ENDBRANCH   9  10
ENDBRANCH   1   9
TORSDOF 10
ENDMDL
