MODEL 1
REMARK VINA RESULT: -5.664972934      0.000      0.000
REMARK  10 active torsions:
REMARK  status: ('A' for Active; 'I' for Inactive)
REMARK    1  A    between atoms: C1_2  and  C2_3 
REMARK    2  A    between atoms: C2_3  and  C3_4 
REMARK    3  A    between atoms: C3_4  and  N1_5 
REMARK    4  A    between atoms: N1_5  and  N2_7 
REMARK    5  A    between atoms: N2_7  and  C4_9 
REMARK    6  A    between atoms: C4_9  and  C5_10 
REMARK    7  A    between atoms: C5_10  and  N3_11 
REMARK    8  A    between atoms: N3_11  and  C6_14 
REMARK    9  A    between atoms: C6_14  and  C7_15 
REMARK   10  A    between atoms: C7_15  and  O2_16 
ROOT
HETATM    1  C4  UNL     1      -4.250  21.119   2.638  1.00  0.00     0.166 C 
ENDROOT
BRANCH   1   2
HETATM    2  N2  UNL     1      -4.062  22.532   2.577  1.00  0.00    -0.339 N 
ATOM      3  H2  UNL     1      -4.818  23.168   2.833  1.00  0.00     0.179 HD
BRANCH   2   4
HETATM    4  N1  UNL     1      -2.888  23.005   2.182  1.00  0.00    -0.340 N 
ATOM      5  H1  UNL     1      -2.649  23.982   2.348  1.00  0.00     0.179 HD
BRANCH   4   6
HETATM    6  C3  UNL     1      -1.956  22.145   1.524  1.00  0.00     0.145 C 
BRANCH   6   7
HETATM    7  C2  UNL     1      -0.607  22.832   1.343  1.00  0.00     0.090 C 
BRANCH   7   8
HETATM    8  C1  UNL     1      -0.537  24.115   2.057  1.00  0.00     0.232 C 
HETATM    9  O1  UNL     1       0.387  24.405   2.821  1.00  0.00    -0.307 OA
ENDBRANCH   7   8
ENDBRANCH   6   7
ENDBRANCH   4   6
ENDBRANCH   2   4
ENDBRANCH   1   2
BRANCH   1  10
HETATM   10  C5  UNL     1      -4.232  20.541   3.997  1.00  0.00     0.253 C 
BRANCH  10  11
HETATM   11  N3  UNL     1      -4.498  19.128   4.049  1.00  0.00    -0.072 N 
ATOM     12  H32 UNL     1      -3.641  18.578   3.980  1.00  0.00     0.277 HD
ATOM     13  H31 UNL     1      -4.793  18.832   4.980  1.00  0.00     0.277 HD
BRANCH  11  14
HETATM   14  C6  UNL     1      -5.449  18.758   3.046  1.00  0.00     0.258 C 
BRANCH  14  15
HETATM   15  C7  UNL     1      -6.749  18.236   3.639  1.00  0.00     0.191 C 
BRANCH  15  16
HETATM   16  O2  UNL     1      -6.802  16.840   3.590  1.00  0.00    -0.399 OA
ATOM     17  H2  UNL     1      -7.661  16.539   3.322  1.00  0.00     0.209 HD
ENDBRANCH  15  16
ENDBRANCH  14  15
ENDBRANCH  11  14
ENDBRANCH  10  11
ENDBRANCH   1  10
TORSDOF 10
ENDMDL
MODEL 2
REMARK VINA RESULT: -5.424151838      1.821      1.835
REMARK  10 active torsions:
REMARK  status: ('A' for Active; 'I' for Inactive)
REMARK    1  A    between atoms: C1_2  and  C2_3 
REMARK    2  A    between atoms: C2_3  and  C3_4 
REMARK    3  A    between atoms: C3_4  and  N1_5 
REMARK    4  A    between atoms: N1_5  and  N2_7 
REMARK    5  A    between atoms: N2_7  and  C4_9 
REMARK    6  A    between atoms: C4_9  and  C5_10 
REMARK    7  A    between atoms: C5_10  and  N3_11 
REMARK    8  A    between atoms: N3_11  and  C6_14 
REMARK    9  A    between atoms: C6_14  and  C7_15 
REMARK   10  A    between atoms: C7_15  and  O2_16 
ROOT
HETATM    1  C4  UNL     1      -3.926  21.036   2.715  1.00  0.00     0.166 C 
ENDROOT
BRANCH   1   2
HETATM    2  N2  UNL     1      -3.794  22.457   2.730  1.00  0.00    -0.339 N 
ATOM      3  H2  UNL     1      -4.489  23.037   3.201  1.00  0.00     0.179 HD
BRANCH   2   4
HETATM    4  N1  UNL     1      -2.754  23.010   2.122  1.00  0.00    -0.340 N 
ATOM      5  H1  UNL     1      -2.613  24.019   2.168  1.00  0.00     0.179 HD
BRANCH   4   6
HETATM    6  C3  UNL     1      -1.830  22.193   1.402  1.00  0.00     0.145 C 
BRANCH   6   7
HETATM    7  C2  UNL     1      -0.429  22.792   1.429  1.00  0.00     0.090 C 
BRANCH   7   8
HETATM    8  C1  UNL     1      -0.421  24.162   1.962  1.00  0.00     0.232 C 
HETATM    9  O1  UNL     1       0.235  24.489   2.954  1.00  0.00    -0.307 OA
ENDBRANCH   7   8
ENDBRANCH   6   7
ENDBRANCH   4   6
ENDBRANCH   2   4
ENDBRANCH   1   2
BRANCH   1  10
HETATM   10  C5  UNL     1      -4.549  20.450   3.919  1.00  0.00     0.253 C 
BRANCH  10  11
HETATM   11  N3  UNL     1      -5.934  20.091   3.761  1.00  0.00    -0.072 N 
ATOM     12  H32 UNL     1      -6.229  19.404   4.454  1.00  0.00     0.277 HD
ATOM     13  H31 UNL     1      -6.556  20.854   4.027  1.00  0.00     0.277 HD
BRANCH  11  14
HETATM   14  C6  UNL     1      -6.186  19.641   2.426  1.00  0.00     0.258 C 
BRANCH  14  15
HETATM   15  C7  UNL     1      -7.340  20.381   1.769  1.00  0.00     0.191 C 
BRANCH  15  16
HETATM   16  O2  UNL     1      -7.297  21.747   2.064  1.00  0.00    -0.399 OA
ATOM     17  H2  UNL     1      -6.913  21.901   2.919  1.00  0.00     0.209 HD
ENDBRANCH  15  16
ENDBRANCH  14  15
ENDBRANCH  11  14
ENDBRANCH  10  11
ENDBRANCH   1  10
TORSDOF 10
ENDMDL
MODEL 3
REMARK VINA RESULT: -5.410640309      2.477      2.767
REMARK  10 active torsions:
REMARK  status: ('A' for Active; 'I' for Inactive)
REMARK    1  A    between atoms: C1_2  and  C2_3 
REMARK    2  A    between atoms: C2_3  and  C3_4 
REMARK    3  A    between atoms: C3_4  and  N1_5 
REMARK    4  A    between atoms: N1_5  and  N2_7 
REMARK    5  A    between atoms: N2_7  and  C4_9 
REMARK    6  A    between atoms: C4_9  and  C5_10 
REMARK    7  A    between atoms: C5_10  and  N3_11 
REMARK    8  A    between atoms: N3_11  and  C6_14 
REMARK    9  A    between atoms: C6_14  and  C7_15 
REMARK   10  A    between atoms: C7_15  and  O2_16 
ROOT
HETATM    1  C4  UNL     1      -4.191  19.978   4.271  1.00  0.00     0.166 C 
ENDROOT
BRANCH   1   2
HETATM    2  N2  UNL     1      -4.424  21.306   3.803  1.00  0.00    -0.339 N 
ATOM      3  H2  UNL     1      -4.970  21.964   4.360  1.00  0.00     0.179 HD
BRANCH   2   4
HETATM    4  N1  UNL     1      -3.920  21.670   2.632  1.00  0.00    -0.340 N 
ATOM      5  H1  UNL     1      -3.916  21.013   1.852  1.00  0.00     0.179 HD
BRANCH   4   6
HETATM    6  C3  UNL     1      -3.381  22.981   2.463  1.00  0.00     0.145 C 
BRANCH   6   7
HETATM    7  C2  UNL     1      -2.010  22.931   1.797  1.00  0.00     0.090 C 
BRANCH   7   8
HETATM    8  C1  UNL     1      -1.673  21.582   1.321  1.00  0.00     0.232 C 
HETATM    9  O1  UNL     1      -1.922  21.196   0.176  1.00  0.00    -0.307 OA
ENDBRANCH   7   8
ENDBRANCH   6   7
ENDBRANCH   4   6
ENDBRANCH   2   4
ENDBRANCH   1   2
BRANCH   1  10
HETATM   10  C5  UNL     1      -5.037  18.937   3.654  1.00  0.00     0.253 C 
BRANCH  10  11
HETATM   11  N3  UNL     1      -6.415  19.314   3.479  1.00  0.00    -0.072 N 
ATOM     12  H32 UNL     1      -7.037  18.764   4.071  1.00  0.00     0.277 HD
ATOM     13  H31 UNL     1      -6.609  20.236   3.870  1.00  0.00     0.277 HD
BRANCH  11  14
HETATM   14  C6  UNL     1      -6.786  19.233   2.099  1.00  0.00     0.258 C 
BRANCH  14  15
HETATM   15  C7  UNL     1      -7.543  20.463   1.625  1.00  0.00     0.191 C 
BRANCH  15  16
HETATM   16  O2  UNL     1      -6.974  21.634   2.134  1.00  0.00    -0.399 OA
ATOM     17  H2  UNL     1      -6.840  22.277   1.448  1.00  0.00     0.209 HD
ENDBRANCH  15  16
ENDBRANCH  14  15
ENDBRANCH  11  14
ENDBRANCH  10  11
ENDBRANCH   1  10
TORSDOF 10
ENDMDL
MODEL 4
REMARK VINA RESULT: -5.349963388      1.272      6.599
REMARK  10 active torsions:
REMARK  status: ('A' for Active; 'I' for Inactive)
REMARK    1  A    between atoms: C1_2  and  C2_3 
REMARK    2  A    between atoms: C2_3  and  C3_4 
REMARK    3  A    between atoms: C3_4  and  N1_5 
REMARK    4  A    between atoms: N1_5  and  N2_7 
REMARK    5  A    between atoms: N2_7  and  C4_9 
REMARK    6  A    between atoms: C4_9  and  C5_10 
REMARK    7  A    between atoms: C5_10  and  N3_11 
REMARK    8  A    between atoms: N3_11  and  C6_14 
REMARK    9  A    between atoms: C6_14  and  C7_15 
REMARK   10  A    between atoms: C7_15  and  O2_16 
ROOT
HETATM    1  C4  UNL     1      -3.287  21.402   2.098  1.00  0.00     0.166 C 
ENDROOT
BRANCH   1   2
HETATM    2  N2  UNL     1      -4.566  21.831   2.566  1.00  0.00    -0.339 N 
ATOM      3  H2  UNL     1      -4.833  22.814   2.516  1.00  0.00     0.179 HD
BRANCH   2   4
HETATM    4  N1  UNL     1      -5.399  20.930   3.066  1.00  0.00    -0.340 N 
ATOM      5  H1  UNL     1      -6.367  20.897   2.746  1.00  0.00     0.179 HD
BRANCH   4   6
HETATM    6  C3  UNL     1      -4.943  20.005   4.054  1.00  0.00     0.145 C 
BRANCH   6   7
HETATM    7  C2  UNL     1      -5.224  18.567   3.633  1.00  0.00     0.090 C 
BRANCH   7   8
HETATM    8  C1  UNL     1      -6.662  18.258   3.639  1.00  0.00     0.232 C 
HETATM    9  O1  UNL     1      -7.506  19.017   4.121  1.00  0.00    -0.307 OA
ENDBRANCH   7   8
ENDBRANCH   6   7
ENDBRANCH   4   6
ENDBRANCH   2   4
ENDBRANCH   1   2
BRANCH   1  10
HETATM   10  C5  UNL     1      -2.362  22.488   1.716  1.00  0.00     0.253 C 
BRANCH  10  11
HETATM   11  N3  UNL     1      -1.140  22.042   1.100  1.00  0.00    -0.072 N 
ATOM     12  H32 UNL     1      -0.964  21.054   1.277  1.00  0.00     0.277 HD
ATOM     13  H31 UNL     1      -1.220  22.003   0.084  1.00  0.00     0.277 HD
BRANCH  11  14
HETATM   14  C6  UNL     1      -0.041  22.860   1.516  1.00  0.00     0.258 C 
BRANCH  14  15
HETATM   15  C7  UNL     1      -0.485  24.233   1.997  1.00  0.00     0.191 C 
BRANCH  15  16
HETATM   16  O2  UNL     1       0.213  24.615   3.147  1.00  0.00    -0.399 OA
ATOM     17  H2  UNL     1       0.870  25.271   2.948  1.00  0.00     0.209 HD
ENDBRANCH  15  16
ENDBRANCH  14  15
ENDBRANCH  11  14
ENDBRANCH  10  11
ENDBRANCH   1  10
TORSDOF 10
ENDMDL
MODEL 5
REMARK VINA RESULT: -5.329349880      2.750      6.379
REMARK  10 active torsions:
REMARK  status: ('A' for Active; 'I' for Inactive)
REMARK    1  A    between atoms: C1_2  and  C2_3 
REMARK    2  A    between atoms: C2_3  and  C3_4 
REMARK    3  A    between atoms: C3_4  and  N1_5 
REMARK    4  A    between atoms: N1_5  and  N2_7 
REMARK    5  A    between atoms: N2_7  and  C4_9 
REMARK    6  A    between atoms: C4_9  and  C5_10 
REMARK    7  A    between atoms: C5_10  and  N3_11 
REMARK    8  A    between atoms: N3_11  and  C6_14 
REMARK    9  A    between atoms: C6_14  and  C7_15 
REMARK   10  A    between atoms: C7_15  and  O2_16 
ROOT
HETATM    1  C4  UNL     1      -5.332  18.460   3.721  1.00  0.00     0.166 C 
ENDROOT
BRANCH   1   2
HETATM    2  N2  UNL     1      -6.500  17.640   3.738  1.00  0.00    -0.339 N 
ATOM      3  H2  UNL     1      -7.080  17.580   4.575  1.00  0.00     0.179 HD
BRANCH   2   4
HETATM    4  N1  UNL     1      -6.818  16.958   2.646  1.00  0.00    -0.340 N 
ATOM      5  H1  UNL     1      -7.188  16.011   2.726  1.00  0.00     0.179 HD
BRANCH   4   6
HETATM    6  C3  UNL     1      -6.642  17.547   1.358  1.00  0.00     0.145 C 
BRANCH   6   7
HETATM    7  C2  UNL     1      -7.981  17.940   0.745  1.00  0.00     0.090 C 
BRANCH   7   8
HETATM    8  C1  UNL     1      -8.432  19.264   1.199  1.00  0.00     0.232 C 
HETATM    9  O1  UNL     1      -8.526  19.564   2.391  1.00  0.00    -0.307 OA
ENDBRANCH   7   8
ENDBRANCH   6   7
ENDBRANCH   4   6
ENDBRANCH   2   4
ENDBRANCH   1   2
BRANCH   1  10
HETATM   10  C5  UNL     1      -5.561  19.885   4.033  1.00  0.00     0.253 C 
BRANCH  10  11
HETATM   11  N3  UNL     1      -5.589  20.751   2.883  1.00  0.00    -0.072 N 
ATOM     12  H32 UNL     1      -6.434  20.618   2.328  1.00  0.00     0.277 HD
ATOM     13  H31 UNL     1      -5.732  21.726   3.146  1.00  0.00     0.277 HD
BRANCH  11  14
HETATM   14  C6  UNL     1      -4.404  20.580   2.097  1.00  0.00     0.258 C 
BRANCH  14  15
HETATM   15  C7  UNL     1      -3.454  21.762   2.211  1.00  0.00     0.191 C 
BRANCH  15  16
HETATM   16  O2  UNL     1      -4.155  22.960   2.375  1.00  0.00    -0.399 OA
ATOM     17  H2  UNL     1      -3.569  23.707   2.350  1.00  0.00     0.209 HD
ENDBRANCH  15  16
ENDBRANCH  14  15
ENDBRANCH  11  14
ENDBRANCH  10  11
ENDBRANCH   1  10
TORSDOF 10
ENDMDL
