MODEL 1
REMARK VINA RESULT: -7.319396077      0.000      0.000
REMARK  6 active torsions:
REMARK  status: ('A' for Active; 'I' for Inactive)
REMARK    1  A    between atoms: C2_2  and  C6_13 
REMARK    2  A    between atoms: N1_3  and  O1_5 
REMARK    3  A    between atoms: O1_5  and  C3_6 
REMARK    4  A    between atoms: C3_6  and  N3_10 
REMARK    5  A    between atoms: C11_18  and  C12_19 
REMARK    6  A    between atoms: C12_19  and  N4_20 
ROOT
HETATM    1  C6  UNL     1       0.432  16.864  21.665  1.00  0.00     0.038 C 
HETATM    2  C7  UNL     1       1.849  17.209  21.372  1.00  0.00     0.011 C 
HETATM    3  C8  UNL     1       2.751  16.008  21.346  1.00  0.00     0.001 C 
HETATM    4  C9  UNL     1       2.129  14.681  21.343  1.00  0.00     0.000 C 
HETATM    5  C10 UNL     1       0.671  14.549  21.126  1.00  0.00     0.007 C 
HETATM    6  C11 UNL     1      -0.031  15.844  20.705  1.00  0.00     0.023 C 
ENDROOT
BRANCH   1   7
HETATM    7  C2  UNL     1      -0.432  18.011  21.870  1.00  0.00     0.011 C 
HETATM    8  C1  UNL     1      -1.905  17.830  21.743  1.00  0.00     0.066 C 
HETATM    9  N1  UNL     1      -0.026  19.203  22.141  1.00  0.00    -0.266 N 
ATOM     10  H1  UNL     1       0.976  19.364  22.236  1.00  0.00     0.194 HD
BRANCH   9  11
HETATM   11  O1  UNL     1      -0.868  20.254  22.305  1.00  0.00    -0.202 OA
BRANCH  11  12
HETATM   12  C3  UNL     1      -0.781  21.417  21.517  1.00  0.00     0.238 C 
HETATM   13  N2  UNL     1       0.354  21.593  20.935  1.00  0.00    -0.364 N 
ATOM     14  H22 UNL     1       1.128  20.937  21.039  1.00  0.00     0.159 HD
ATOM     15  H21 UNL     1       0.418  22.436  20.363  1.00  0.00     0.159 HD
BRANCH  12  16
HETATM   16  N3  UNL     1      -1.842  22.318  21.373  1.00  0.00    -0.355 N 
HETATM   17  C4  UNL     1      -2.256  22.755  20.052  1.00  0.00     0.152 C 
HETATM   18  C5  UNL     1      -2.569  22.834  22.506  1.00  0.00     0.152 C 
ENDBRANCH  12  16
ENDBRANCH  11  12
ENDBRANCH   9  11
ENDBRANCH   1   7
BRANCH   6  19
HETATM   19  C12 UNL     1       0.267  16.100  19.249  1.00  0.00     0.277 C 
BRANCH  19  20
HETATM   20  N4  UNL     1      -0.989  15.913  18.491  1.00  0.00     0.088 N 
HETATM   21  C13 UNL     1      -1.223  17.065  17.642  1.00  0.00     0.272 C 
HETATM   22  C14 UNL     1      -1.759  16.588  16.324  1.00  0.00     0.032 C 
HETATM   23  C15 UNL     1      -1.993  15.093  16.569  1.00  0.00     0.032 C 
HETATM   24  C16 UNL     1      -0.832  14.838  17.542  1.00  0.00     0.272 C 
ENDBRANCH  19  20
ENDBRANCH   6  19
TORSDOF 6
ENDMDL
MODEL 2
REMARK VINA RESULT: -7.103072199      2.651      6.264
REMARK  6 active torsions:
REMARK  status: ('A' for Active; 'I' for Inactive)
REMARK    1  A    between atoms: C2_2  and  C6_13 
REMARK    2  A    between atoms: N1_3  and  O1_5 
REMARK    3  A    between atoms: O1_5  and  C3_6 
REMARK    4  A    between atoms: C3_6  and  N3_10 
REMARK    5  A    between atoms: C11_18  and  C12_19 
REMARK    6  A    between atoms: C12_19  and  N4_20 
ROOT
HETATM    1  C6  UNL     1      -1.482  18.070  19.951  1.00  0.00     0.038 C 
HETATM    2  C7  UNL     1      -1.357  19.552  19.938  1.00  0.00     0.011 C 
HETATM    3  C8  UNL     1      -2.226  20.222  20.964  1.00  0.00     0.001 C 
HETATM    4  C9  UNL     1      -2.857  19.382  21.986  1.00  0.00     0.000 C 
HETATM    5  C10 UNL     1      -2.448  17.967  22.133  1.00  0.00     0.007 C 
HETATM    6  C11 UNL     1      -1.217  17.569  21.314  1.00  0.00     0.023 C 
ENDROOT
BRANCH   1   7
HETATM    7  C2  UNL     1      -0.794  17.402  18.862  1.00  0.00     0.011 C 
HETATM    8  C1  UNL     1       0.258  18.148  18.116  1.00  0.00     0.066 C 
HETATM    9  N1  UNL     1      -1.032  16.202  18.464  1.00  0.00    -0.266 N 
ATOM     10  H1  UNL     1      -1.746  15.660  18.952  1.00  0.00     0.194 HD
BRANCH   9  11
HETATM   11  O1  UNL     1      -0.378  15.620  17.426  1.00  0.00    -0.202 OA
BRANCH  11  12
HETATM   12  C3  UNL     1      -0.984  15.425  16.171  1.00  0.00     0.238 C 
HETATM   13  N2  UNL     1      -2.109  14.799  16.204  1.00  0.00    -0.364 N 
ATOM     14  H22 UNL     1      -2.525  14.471  17.076  1.00  0.00     0.159 HD
ATOM     15  H21 UNL     1      -2.549  14.657  15.294  1.00  0.00     0.159 HD
BRANCH  12  16
HETATM   16  N3  UNL     1      -0.414  15.874  14.975  1.00  0.00    -0.355 N 
HETATM   17  C4  UNL     1      -0.579  17.256  14.560  1.00  0.00     0.152 C 
HETATM   18  C5  UNL     1       0.360  15.008  14.121  1.00  0.00     0.152 C 
ENDBRANCH  12  16
ENDBRANCH  11  12
ENDBRANCH   9  11
ENDBRANCH   1   7
BRANCH   6  19
HETATM   19  C12 UNL     1       0.013  18.104  22.003  1.00  0.00     0.277 C 
BRANCH  19  20
HETATM   20  N4  UNL     1       0.947  16.975  22.202  1.00  0.00     0.088 N 
HETATM   21  C13 UNL     1       0.279  15.727  21.886  1.00  0.00     0.272 C 
HETATM   22  C14 UNL     1       1.244  14.838  21.158  1.00  0.00     0.032 C 
HETATM   23  C15 UNL     1       2.566  15.607  21.264  1.00  0.00     0.032 C 
HETATM   24  C16 UNL     1       2.002  17.035  21.220  1.00  0.00     0.272 C 
ENDBRANCH  19  20
ENDBRANCH   6  19
TORSDOF 6
ENDMDL
MODEL 3
REMARK VINA RESULT: -7.087371056      1.053      1.283
REMARK  6 active torsions:
REMARK  status: ('A' for Active; 'I' for Inactive)
REMARK    1  A    between atoms: C2_2  and  C6_13 
REMARK    2  A    between atoms: N1_3  and  O1_5 
REMARK    3  A    between atoms: O1_5  and  C3_6 
REMARK    4  A    between atoms: C3_6  and  N3_10 
REMARK    5  A    between atoms: C11_18  and  C12_19 
REMARK    6  A    between atoms: C12_19  and  N4_20 
ROOT
HETATM    1  C6  UNL     1       0.605  16.442  21.238  1.00  0.00     0.038 C 
HETATM    2  C7  UNL     1       2.041  16.702  21.527  1.00  0.00     0.011 C 
HETATM    3  C8  UNL     1       2.897  15.474  21.393  1.00  0.00     0.001 C 
HETATM    4  C9  UNL     1       2.305  14.289  20.766  1.00  0.00     0.000 C 
HETATM    5  C10 UNL     1       0.999  14.392  20.077  1.00  0.00     0.007 C 
HETATM    6  C11 UNL     1       0.480  15.822  19.905  1.00  0.00     0.023 C 
ENDROOT
BRANCH   1   7
HETATM    7  C2  UNL     1      -0.274  17.560  21.526  1.00  0.00     0.011 C 
HETATM    8  C1  UNL     1      -1.743  17.316  21.595  1.00  0.00     0.066 C 
HETATM    9  N1  UNL     1       0.111  18.773  21.714  1.00  0.00    -0.266 N 
ATOM     10  H1  UNL     1       1.110  18.977  21.675  1.00  0.00     0.194 HD
BRANCH   9  11
HETATM   11  O1  UNL     1      -0.747  19.795  21.962  1.00  0.00    -0.202 OA
BRANCH  11  12
HETATM   12  C3  UNL     1      -0.813  20.937  21.141  1.00  0.00     0.238 C 
HETATM   13  N2  UNL     1       0.293  21.587  21.028  1.00  0.00    -0.364 N 
ATOM     14  H22 UNL     1       1.149  21.293  21.498  1.00  0.00     0.159 HD
ATOM     15  H21 UNL     1       0.246  22.414  20.433  1.00  0.00     0.159 HD
BRANCH  12  16
HETATM   16  N3  UNL     1      -1.987  21.341  20.496  1.00  0.00    -0.355 N 
HETATM   17  C4  UNL     1      -1.984  22.513  19.639  1.00  0.00     0.152 C 
HETATM   18  C5  UNL     1      -3.227  20.621  20.639  1.00  0.00     0.152 C 
ENDBRANCH  12  16
ENDBRANCH  11  12
ENDBRANCH   9  11
ENDBRANCH   1   7
BRANCH   6  19
HETATM   19  C12 UNL     1       1.242  16.477  18.779  1.00  0.00     0.277 C 
BRANCH  19  20
HETATM   20  N4  UNL     1       0.337  16.565  17.612  1.00  0.00     0.088 N 
HETATM   21  C13 UNL     1       0.521  15.405  16.763  1.00  0.00     0.272 C 
HETATM   22  C14 UNL     1      -0.821  14.960  16.260  1.00  0.00     0.032 C 
HETATM   23  C15 UNL     1      -1.753  16.081  16.735  1.00  0.00     0.032 C 
HETATM   24  C16 UNL     1      -1.033  16.436  18.045  1.00  0.00     0.272 C 
ENDBRANCH  19  20
ENDBRANCH   6  19
TORSDOF 6
ENDMDL
MODEL 4
REMARK VINA RESULT: -6.934640794      1.221      1.547
REMARK  6 active torsions:
REMARK  status: ('A' for Active; 'I' for Inactive)
REMARK    1  A    between atoms: C2_2  and  C6_13 
REMARK    2  A    between atoms: N1_3  and  O1_5 
REMARK    3  A    between atoms: O1_5  and  C3_6 
REMARK    4  A    between atoms: C3_6  and  N3_10 
REMARK    5  A    between atoms: C11_18  and  C12_19 
REMARK    6  A    between atoms: C12_19  and  N4_20 
ROOT
HETATM    1  C6  UNL     1       0.651  16.338  21.040  1.00  0.00     0.038 C 
HETATM    2  C7  UNL     1       2.078  16.719  21.219  1.00  0.00     0.011 C 
HETATM    3  C8  UNL     1       2.987  15.533  21.372  1.00  0.00     0.001 C 
HETATM    4  C9  UNL     1       2.442  14.206  21.074  1.00  0.00     0.000 C 
HETATM    5  C10 UNL     1       1.123  14.080  20.415  1.00  0.00     0.007 C 
HETATM    6  C11 UNL     1       0.535  15.400  19.906  1.00  0.00     0.023 C 
ENDROOT
BRANCH   1   7
HETATM    7  C2  UNL     1      -0.274  17.454  21.064  1.00  0.00     0.011 C 
HETATM    8  C1  UNL     1      -1.676  17.214  21.510  1.00  0.00     0.066 C 
HETATM    9  N1  UNL     1       0.012  18.658  20.710  1.00  0.00    -0.266 N 
ATOM     10  H1  UNL     1       0.962  18.860  20.400  1.00  0.00     0.194 HD
BRANCH   9  11
HETATM   11  O1  UNL     1      -0.891  19.672  20.729  1.00  0.00    -0.202 OA
BRANCH  11  12
HETATM   12  C3  UNL     1      -0.677  20.855  21.460  1.00  0.00     0.238 C 
HETATM   13  N2  UNL     1       0.269  21.606  21.012  1.00  0.00    -0.364 N 
ATOM     14  H22 UNL     1       0.818  21.358  20.189  1.00  0.00     0.159 HD
ATOM     15  H21 UNL     1       0.424  22.464  21.542  1.00  0.00     0.159 HD
BRANCH  12  16
HETATM   16  N3  UNL     1      -1.429  21.195  22.590  1.00  0.00    -0.355 N 
HETATM   17  C4  UNL     1      -1.338  20.394  23.797  1.00  0.00     0.152 C 
HETATM   18  C5  UNL     1      -2.305  22.340  22.612  1.00  0.00     0.152 C 
ENDBRANCH  12  16
ENDBRANCH  11  12
ENDBRANCH   9  11
ENDBRANCH   1   7
BRANCH   6  19
HETATM   19  C12 UNL     1       1.249  15.785  18.634  1.00  0.00     0.277 C 
BRANCH  19  20
HETATM   20  N4  UNL     1       0.223  16.128  17.626  1.00  0.00     0.088 N 
HETATM   21  C13 UNL     1       0.571  15.530  16.352  1.00  0.00     0.272 C 
HETATM   22  C14 UNL     1      -0.682  15.017  15.705  1.00  0.00     0.032 C 
HETATM   23  C15 UNL     1      -1.786  15.549  16.626  1.00  0.00     0.032 C 
HETATM   24  C16 UNL     1      -1.023  15.482  17.958  1.00  0.00     0.272 C 
ENDBRANCH  19  20
ENDBRANCH   6  19
TORSDOF 6
ENDMDL
MODEL 5
REMARK VINA RESULT: -6.902305158      0.806      1.102
REMARK  6 active torsions:
REMARK  status: ('A' for Active; 'I' for Inactive)
REMARK    1  A    between atoms: C2_2  and  C6_13 
REMARK    2  A    between atoms: N1_3  and  O1_5 
REMARK    3  A    between atoms: O1_5  and  C3_6 
REMARK    4  A    between atoms: C3_6  and  N3_10 
REMARK    5  A    between atoms: C11_18  and  C12_19 
REMARK    6  A    between atoms: C12_19  and  N4_20 
ROOT
HETATM    1  C6  UNL     1       0.171  17.157  21.190  1.00  0.00     0.038 C 
HETATM    2  C7  UNL     1       1.591  17.451  20.860  1.00  0.00     0.011 C 
HETATM    3  C8  UNL     1       2.522  16.330  21.223  1.00  0.00     0.001 C 
HETATM    4  C9  UNL     1       1.934  15.038  21.590  1.00  0.00     0.000 C 
HETATM    5  C10 UNL     1       0.491  14.796  21.367  1.00  0.00     0.007 C 
HETATM    6  C11 UNL     1      -0.223  15.882  20.557  1.00  0.00     0.023 C 
ENDROOT
BRANCH   1   7
HETATM    7  C2  UNL     1      -0.729  18.280  21.015  1.00  0.00     0.011 C 
HETATM    8  C1  UNL     1      -2.064  18.239  21.676  1.00  0.00     0.066 C 
HETATM    9  N1  UNL     1      -0.477  19.326  20.308  1.00  0.00    -0.266 N 
ATOM     10  H1  UNL     1       0.428  19.389  19.841  1.00  0.00     0.194 HD
BRANCH   9  11
HETATM   11  O1  UNL     1      -1.356  20.348  20.153  1.00  0.00    -0.202 OA
BRANCH  11  12
HETATM   12  C3  UNL     1      -1.113  21.634  20.672  1.00  0.00     0.238 C 
HETATM   13  N2  UNL     1       0.115  21.869  20.981  1.00  0.00    -0.364 N 
ATOM     14  H22 UNL     1       0.852  21.175  20.857  1.00  0.00     0.159 HD
ATOM     15  H21 UNL     1       0.292  22.801  21.357  1.00  0.00     0.159 HD
BRANCH  12  16
HETATM   16  N3  UNL     1      -2.123  22.586  20.842  1.00  0.00    -0.355 N 
HETATM   17  C4  UNL     1      -2.557  22.961  22.176  1.00  0.00     0.152 C 
HETATM   18  C5  UNL     1      -2.760  23.237  19.725  1.00  0.00     0.152 C 
ENDBRANCH  12  16
ENDBRANCH  11  12
ENDBRANCH   9  11
ENDBRANCH   1   7
BRANCH   6  19
HETATM   19  C12 UNL     1       0.136  15.710  19.102  1.00  0.00     0.277 C 
BRANCH  19  20
HETATM   20  N4  UNL     1      -1.121  15.712  18.324  1.00  0.00     0.088 N 
HETATM   21  C13 UNL     1      -1.206  16.928  17.537  1.00  0.00     0.272 C 
HETATM   22  C14 UNL     1      -1.774  16.588  16.190  1.00  0.00     0.032 C 
HETATM   23  C15 UNL     1      -2.184  15.120  16.351  1.00  0.00     0.032 C 
HETATM   24  C16 UNL     1      -1.076  14.679  17.319  1.00  0.00     0.272 C 
ENDBRANCH  19  20
ENDBRANCH   6  19
TORSDOF 6
ENDMDL
