MODEL 1
REMARK VINA RESULT: -6.745693276      0.000      0.000
REMARK  5 active torsions:
REMARK  status: ('A' for Active; 'I' for Inactive)
REMARK    1  A    between atoms: C3_3  and  C4_4 
REMARK    2  A    between atoms: C4_4  and  O1_5 
REMARK    3  A    between atoms: C4_4  and  N1_7 
REMARK       I    between atoms: N1_7  and  C5_9 
REMARK    4  A    between atoms: C5_9  and  C6_11 
REMARK    5  A    between atoms: C6_11  and  C7_12 
ROOT
HETATM    1  C4  UNL     1       1.078  18.299  20.338  1.00  0.00     0.160 C 
ENDROOT
BRANCH   1   2
HETATM    2  C3  UNL     1       0.598  17.396  19.290  1.00  0.00     0.063 A 
HETATM    3  C2  UNL     1      -0.520  17.373  18.511  1.00  0.00    -0.023 A 
HETATM    4  C1  UNL     1      -1.567  18.466  18.672  1.00  0.00     0.051 C 
HETATM    5  C11 UNL     1      -0.663  16.375  17.617  1.00  0.00     0.021 A 
HETATM    6  C10 UNL     1       0.310  15.439  17.533  1.00  0.00     0.002 A 
HETATM    7  S2  UNL     1      -1.896  15.858  16.344  1.00  0.00    -0.123 SA
HETATM    8  S1  UNL     1       1.433  15.976  18.724  1.00  0.00    -0.088 SA
HETATM    9  C14 UNL     1       0.106  14.351  16.539  1.00  0.00     0.062 C 
HETATM   10  C12 UNL     1      -0.647  14.919  15.360  1.00  0.00     0.053 C 
HETATM   11  C13 UNL     1       0.169  15.898  14.582  1.00  0.00     0.022 C 
ENDBRANCH   1   2
BRANCH   1  12
HETATM   12  O1  UNL     1       2.092  19.026  19.954  1.00  0.00    -0.345 OA
ATOM     13  H1  UNL     1       1.832  19.884  19.638  1.00  0.00     0.219 HD
ENDBRANCH   1  12
BRANCH   1  14
HETATM   14  N1  UNL     1       0.611  18.476  21.640  1.00  0.00    -0.307 N 
HETATM   15  C5  UNL     1      -0.094  19.695  21.965  1.00  0.00     0.223 C 
HETATM   16  O2  UNL     1      -0.286  20.573  21.110  1.00  0.00    -0.273 OA
ATOM     17  H1  UNL     1       0.764  17.759  22.348  1.00  0.00     0.171 HD
BRANCH  15  18
HETATM   18  C6  UNL     1      -0.583  19.869  23.344  1.00  0.00     0.107 C 
BRANCH  18  19
HETATM   19  C7  UNL     1      -2.070  19.984  23.335  1.00  0.00    -0.014 C 
HETATM   20  C8  UNL     1      -2.740  18.771  22.716  1.00  0.00     0.010 C 
HETATM   21  C9  UNL     1      -2.590  20.246  24.732  1.00  0.00     0.010 C 
ENDBRANCH  18  19
ENDBRANCH  15  18
ENDBRANCH   1  14
TORSDOF 5
ENDMDL
MODEL 2
REMARK VINA RESULT: -6.507021063      2.732      6.948
REMARK  5 active torsions:
REMARK  status: ('A' for Active; 'I' for Inactive)
REMARK    1  A    between atoms: C3_3  and  C4_4 
REMARK    2  A    between atoms: C4_4  and  O1_5 
REMARK    3  A    between atoms: C4_4  and  N1_7 
REMARK       I    between atoms: N1_7  and  C5_9 
REMARK    4  A    between atoms: C5_9  and  C6_11 
REMARK    5  A    between atoms: C6_11  and  C7_12 
ROOT
HETATM    1  C4  UNL     1       0.557  18.765  19.625  1.00  0.00     0.160 C 
ENDROOT
BRANCH   1   2
HETATM    2  C3  UNL     1      -0.339  19.324  20.638  1.00  0.00     0.063 A 
HETATM    3  C2  UNL     1      -1.301  18.786  21.440  1.00  0.00    -0.023 A 
HETATM    4  C1  UNL     1      -1.597  17.295  21.355  1.00  0.00     0.051 C 
HETATM    5  C11 UNL     1      -1.963  19.597  22.288  1.00  0.00     0.021 A 
HETATM    6  C10 UNL     1      -1.644  20.912  22.305  1.00  0.00     0.002 A 
HETATM    7  S2  UNL     1      -3.290  19.440  23.561  1.00  0.00    -0.123 SA
HETATM    8  S1  UNL     1      -0.400  20.998  21.115  1.00  0.00    -0.088 SA
HETATM    9  C14 UNL     1      -2.407  21.772  23.249  1.00  0.00     0.062 C 
HETATM   10  C12 UNL     1      -2.746  20.952  24.470  1.00  0.00     0.053 C 
HETATM   11  C13 UNL     1      -1.538  20.605  25.277  1.00  0.00     0.022 C 
ENDBRANCH   1   2
BRANCH   1  12
HETATM   12  O1  UNL     1       1.818  18.950  19.907  1.00  0.00    -0.345 OA
ATOM     13  H1  UNL     1       2.397  18.403  19.388  1.00  0.00     0.219 HD
ENDBRANCH   1  12
BRANCH   1  14
HETATM   14  N1  UNL     1       0.251  18.088  18.445  1.00  0.00    -0.307 N 
HETATM   15  C5  UNL     1       0.601  16.689  18.336  1.00  0.00     0.223 C 
HETATM   16  O2  UNL     1       1.161  16.093  19.269  1.00  0.00    -0.273 OA
ATOM     17  H1  UNL     1      -0.210  18.570  17.674  1.00  0.00     0.171 HD
BRANCH  15  18
HETATM   18  C6  UNL     1       0.271  15.985  17.085  1.00  0.00     0.107 C 
BRANCH  18  19
HETATM   19  C7  UNL     1      -0.942  16.600  16.472  1.00  0.00    -0.014 C 
HETATM   20  C8  UNL     1      -0.677  17.128  15.074  1.00  0.00     0.010 C 
HETATM   21  C9  UNL     1      -2.094  15.620  16.479  1.00  0.00     0.010 C 
ENDBRANCH  18  19
ENDBRANCH  15  18
ENDBRANCH   1  14
TORSDOF 5
ENDMDL
MODEL 3
REMARK VINA RESULT: -6.371560167      1.625      1.993
REMARK  5 active torsions:
REMARK  status: ('A' for Active; 'I' for Inactive)
REMARK    1  A    between atoms: C3_3  and  C4_4 
REMARK    2  A    between atoms: C4_4  and  O1_5 
REMARK    3  A    between atoms: C4_4  and  N1_7 
REMARK       I    between atoms: N1_7  and  C5_9 
REMARK    4  A    between atoms: C5_9  and  C6_11 
REMARK    5  A    between atoms: C6_11  and  C7_12 
ROOT
HETATM    1  C4  UNL     1       0.991  18.344  20.359  1.00  0.00     0.160 C 
ENDROOT
BRANCH   1   2
HETATM    2  C3  UNL     1       0.556  17.414  19.315  1.00  0.00     0.063 A 
HETATM    3  C2  UNL     1      -0.546  17.348  18.516  1.00  0.00    -0.023 A 
HETATM    4  C1  UNL     1      -1.627  18.413  18.643  1.00  0.00     0.051 C 
HETATM    5  C11 UNL     1      -0.645  16.334  17.634  1.00  0.00     0.021 A 
HETATM    6  C10 UNL     1       0.356  15.425  17.581  1.00  0.00     0.002 A 
HETATM    7  S2  UNL     1      -1.839  15.765  16.347  1.00  0.00    -0.123 SA
HETATM    8  S1  UNL     1       1.441  16.010  18.785  1.00  0.00    -0.088 SA
HETATM    9  C14 UNL     1       0.202  14.319  16.599  1.00  0.00     0.062 C 
HETATM   10  C12 UNL     1      -0.545  14.849  15.399  1.00  0.00     0.053 C 
HETATM   11  C13 UNL     1       0.257  15.841  14.622  1.00  0.00     0.022 C 
ENDBRANCH   1   2
BRANCH   1  12
HETATM   12  O1  UNL     1       1.680  17.761  21.301  1.00  0.00    -0.345 OA
ATOM     13  H1  UNL     1       1.307  16.930  21.572  1.00  0.00     0.219 HD
ENDBRANCH   1  12
BRANCH   1  14
HETATM   14  N1  UNL     1       0.773  19.716  20.472  1.00  0.00    -0.307 N 
HETATM   15  C5  UNL     1      -0.233  20.187  21.398  1.00  0.00     0.223 C 
HETATM   16  O2  UNL     1      -0.894  19.393  22.085  1.00  0.00    -0.273 OA
ATOM     17  H1  UNL     1       1.312  20.376  19.912  1.00  0.00     0.171 HD
BRANCH  15  18
HETATM   18  C6  UNL     1      -0.453  21.639  21.508  1.00  0.00     0.107 C 
BRANCH  18  19
HETATM   19  C7  UNL     1      -1.841  21.968  21.070  1.00  0.00    -0.014 C 
HETATM   20  C8  UNL     1      -2.493  23.015  21.955  1.00  0.00     0.010 C 
HETATM   21  C9  UNL     1      -1.853  22.392  19.618  1.00  0.00     0.010 C 
ENDBRANCH  18  19
ENDBRANCH  15  18
ENDBRANCH   1  14
TORSDOF 5
ENDMDL
MODEL 4
REMARK VINA RESULT: -6.292323996      2.744      6.959
REMARK  5 active torsions:
REMARK  status: ('A' for Active; 'I' for Inactive)
REMARK    1  A    between atoms: C3_3  and  C4_4 
REMARK    2  A    between atoms: C4_4  and  O1_5 
REMARK    3  A    between atoms: C4_4  and  N1_7 
REMARK       I    between atoms: N1_7  and  C5_9 
REMARK    4  A    between atoms: C5_9  and  C6_11 
REMARK    5  A    between atoms: C6_11  and  C7_12 
ROOT
HETATM    1  C4  UNL     1       0.755  15.928  19.671  1.00  0.00     0.160 C 
ENDROOT
BRANCH   1   2
HETATM    2  C3  UNL     1       0.264  17.089  20.416  1.00  0.00     0.063 A 
HETATM    3  C2  UNL     1      -0.610  18.092  20.123  1.00  0.00    -0.023 A 
HETATM    4  C1  UNL     1      -1.285  18.121  18.759  1.00  0.00     0.051 C 
HETATM    5  C11 UNL     1      -0.849  19.034  21.056  1.00  0.00     0.021 A 
HETATM    6  C10 UNL     1      -0.209  18.941  22.245  1.00  0.00     0.002 A 
HETATM    7  S2  UNL     1      -1.893  20.547  21.223  1.00  0.00    -0.123 SA
HETATM    8  S1  UNL     1       0.734  17.514  22.039  1.00  0.00    -0.088 SA
HETATM    9  C14 UNL     1      -0.497  20.008  23.242  1.00  0.00     0.062 C 
HETATM   10  C12 UNL     1      -1.930  20.449  23.067  1.00  0.00     0.053 C 
HETATM   11  C13 UNL     1      -2.904  19.387  23.461  1.00  0.00     0.022 C 
ENDBRANCH   1   2
BRANCH   1  12
HETATM   12  O1  UNL     1       0.740  14.830  20.376  1.00  0.00    -0.345 OA
ATOM     13  H1  UNL     1       1.611  14.531  20.612  1.00  0.00     0.219 HD
ENDBRANCH   1  12
BRANCH   1  14
HETATM   14  N1  UNL     1       1.216  15.847  18.357  1.00  0.00    -0.307 N 
HETATM   15  C5  UNL     1       0.413  15.145  17.381  1.00  0.00     0.223 C 
HETATM   16  O2  UNL     1      -0.667  14.622  17.695  1.00  0.00    -0.273 OA
ATOM     17  H1  UNL     1       2.103  16.274  18.091  1.00  0.00     0.171 HD
BRANCH  15  18
HETATM   18  C6  UNL     1       0.912  15.067  15.997  1.00  0.00     0.107 C 
BRANCH  18  19
HETATM   19  C7  UNL     1      -0.193  15.394  15.050  1.00  0.00    -0.014 C 
HETATM   20  C8  UNL     1      -0.484  16.882  14.992  1.00  0.00     0.010 C 
HETATM   21  C9  UNL     1       0.107  14.840  13.674  1.00  0.00     0.010 C 
ENDBRANCH  18  19
ENDBRANCH  15  18
ENDBRANCH   1  14
TORSDOF 5
ENDMDL
MODEL 5
REMARK VINA RESULT: -6.277665088      4.522      8.722
REMARK  5 active torsions:
REMARK  status: ('A' for Active; 'I' for Inactive)
REMARK    1  A    between atoms: C3_3  and  C4_4 
REMARK    2  A    between atoms: C4_4  and  O1_5 
REMARK    3  A    between atoms: C4_4  and  N1_7 
REMARK       I    between atoms: N1_7  and  C5_9 
REMARK    4  A    between atoms: C5_9  and  C6_11 
REMARK    5  A    between atoms: C6_11  and  C7_12 
ROOT
HETATM    1  C4  UNL     1      -2.800  19.892  22.393  1.00  0.00     0.160 C 
ENDROOT
BRANCH   1   2
HETATM    2  C3  UNL     1      -2.945  20.682  23.617  1.00  0.00     0.063 A 
HETATM    3  C2  UNL     1      -2.932  22.020  23.878  1.00  0.00    -0.023 A 
HETATM    4  C1  UNL     1      -2.732  23.003  22.733  1.00  0.00     0.051 C 
HETATM    5  C11 UNL     1      -3.098  22.431  25.150  1.00  0.00     0.021 A 
HETATM    6  C10 UNL     1      -3.269  21.496  26.114  1.00  0.00     0.002 A 
HETATM    7  S2  UNL     1      -3.182  24.035  26.059  1.00  0.00    -0.123 SA
HETATM    8  S1  UNL     1      -3.196  20.030  25.212  1.00  0.00    -0.088 SA
HETATM    9  C14 UNL     1      -3.439  21.995  27.505  1.00  0.00     0.062 C 
HETATM   10  C12 UNL     1      -4.163  23.319  27.450  1.00  0.00     0.053 C 
HETATM   11  C13 UNL     1      -5.580  23.174  27.000  1.00  0.00     0.022 C 
ENDBRANCH   1   2
BRANCH   1  12
HETATM   12  O1  UNL     1      -3.870  19.914  21.646  1.00  0.00    -0.345 OA
ATOM     13  H1  UNL     1      -3.674  19.838  20.719  1.00  0.00     0.219 HD
ENDBRANCH   1  12
BRANCH   1  14
HETATM   14  N1  UNL     1      -1.710  19.149  21.940  1.00  0.00    -0.307 N 
HETATM   15  C5  UNL     1      -1.862  17.721  21.778  1.00  0.00     0.223 C 
HETATM   16  O2  UNL     1      -2.938  17.157  22.032  1.00  0.00    -0.273 OA
ATOM     17  H1  UNL     1      -0.823  19.605  21.728  1.00  0.00     0.171 HD
BRANCH  15  18
HETATM   18  C6  UNL     1      -0.704  16.948  21.298  1.00  0.00     0.107 C 
BRANCH  18  19
HETATM   19  C7  UNL     1       0.542  17.748  21.485  1.00  0.00    -0.014 C 
HETATM   20  C8  UNL     1       1.421  17.198  22.592  1.00  0.00     0.010 C 
HETATM   21  C9  UNL     1       1.303  17.858  20.182  1.00  0.00     0.010 C 
ENDBRANCH  18  19
ENDBRANCH  15  18
ENDBRANCH   1  14
TORSDOF 5
ENDMDL
