MODEL 1
REMARK VINA RESULT: -7.011028753      0.000      0.000
REMARK  4 active torsions:
REMARK  status: ('A' for Active; 'I' for Inactive)
REMARK    1  A    between atoms: C9_11  and  S1_12 
REMARK    2  A    between atoms: S1_12  and  C10_13 
REMARK    3  A    between atoms: C10_13  and  C11_14 
REMARK    4  A    between atoms: C11_14  and  N2_15 
ROOT
HETATM    1  C1  UNL     1       1.781  12.635  20.960  1.00  0.00     0.145 C 
HETATM    2  N1  UNL     1       1.472  13.922  21.489  1.00  0.00    -0.401 N 
ATOM      3  H1  UNL     1       1.594  14.067  22.491  1.00  0.00     0.158 HD
HETATM    4  C2  UNL     1       1.056  14.899  20.798  1.00  0.00    -0.018 C 
HETATM    5  C3  UNL     1       0.864  14.737  19.351  1.00  0.00     0.052 C 
HETATM    6  C4  UNL     1      -0.289  15.580  18.848  1.00  0.00     0.010 C 
HETATM    7  C5  UNL     1      -0.203  17.007  19.398  1.00  0.00    -0.009 C 
HETATM    8  C6  UNL     1      -1.260  17.813  18.739  1.00  0.00     0.005 C 
HETATM    9  C7  UNL     1      -1.683  19.061  19.542  1.00  0.00     0.007 C 
HETATM   10  C8  UNL     1      -0.620  19.231  20.578  1.00  0.00     0.008 C 
HETATM   11  C9  UNL     1      -0.485  20.473  21.319  1.00  0.00     0.052 C 
HETATM   12  C12 UNL     1      -0.676  20.052  22.787  1.00  0.00     0.016 C 
HETATM   13  C13 UNL     1      -0.105  18.603  22.744  1.00  0.00     0.011 C 
HETATM   14  C14 UNL     1      -0.866  18.104  21.575  1.00  0.00    -0.035 C 
HETATM   15  C15 UNL     1      -2.301  17.945  21.977  1.00  0.00     0.016 C 
HETATM   16  C16 UNL     1      -0.433  16.861  20.910  1.00  0.00     0.003 C 
HETATM   17  C17 UNL     1       0.777  16.193  21.510  1.00  0.00     0.057 C 
ENDROOT
BRANCH  11  18
HETATM   18  S1  UNL     1      -1.169  21.981  20.826  1.00  0.00    -0.162 SA
BRANCH  18  19
HETATM   19  C10 UNL     1      -2.766  22.501  21.320  1.00  0.00     0.101 C 
BRANCH  19  20
HETATM   20  C11 UNL     1      -3.871  21.498  21.381  1.00  0.00     0.239 C 
BRANCH  20  21
HETATM   21  N2  UNL     1      -4.232  21.219  22.729  1.00  0.00    -0.079 N 
ATOM     22  H23 UNL     1      -5.080  20.654  22.783  1.00  0.00     0.274 HD
ATOM     23  H22 UNL     1      -3.583  20.565  23.166  1.00  0.00     0.274 HD
ATOM     24  H21 UNL     1      -4.319  22.080  23.270  1.00  0.00     0.274 HD
ENDBRANCH  20  21
ENDBRANCH  19  20
ENDBRANCH  18  19
ENDBRANCH  11  18
TORSDOF 4
ENDMDL
MODEL 2
REMARK VINA RESULT: -6.998922427      2.312      3.762
REMARK  4 active torsions:
REMARK  status: ('A' for Active; 'I' for Inactive)
REMARK    1  A    between atoms: C9_11  and  S1_12 
REMARK    2  A    between atoms: S1_12  and  C10_13 
REMARK    3  A    between atoms: C10_13  and  C11_14 
REMARK    4  A    between atoms: C11_14  and  N2_15 
ROOT
HETATM    1  C1  UNL     1       0.770  15.776  18.333  1.00  0.00     0.145 C 
HETATM    2  N1  UNL     1       0.121  17.043  18.402  1.00  0.00    -0.401 N 
ATOM      3  H1  UNL     1       0.347  17.733  17.686  1.00  0.00     0.158 HD
HETATM    4  C2  UNL     1      -0.718  17.371  19.294  1.00  0.00    -0.018 C 
HETATM    5  C3  UNL     1      -1.073  16.410  20.346  1.00  0.00     0.052 C 
HETATM    6  C4  UNL     1      -1.379  17.111  21.654  1.00  0.00     0.010 C 
HETATM    7  C5  UNL     1      -2.318  18.300  21.431  1.00  0.00    -0.009 C 
HETATM    8  C6  UNL     1      -2.703  18.832  22.761  1.00  0.00     0.005 C 
HETATM    9  C7  UNL     1      -3.157  20.306  22.734  1.00  0.00     0.007 C 
HETATM   10  C8  UNL     1      -3.390  20.612  21.289  1.00  0.00     0.008 C 
HETATM   11  C9  UNL     1      -4.131  21.792  20.881  1.00  0.00     0.052 C 
HETATM   12  C12 UNL     1      -3.128  22.583  20.024  1.00  0.00     0.016 C 
HETATM   13  C13 UNL     1      -2.286  21.418  19.424  1.00  0.00     0.011 C 
HETATM   14  C14 UNL     1      -1.994  20.690  20.680  1.00  0.00    -0.035 C 
HETATM   15  C15 UNL     1      -1.021  21.501  21.482  1.00  0.00     0.016 C 
HETATM   16  C16 UNL     1      -1.494  19.305  20.611  1.00  0.00     0.003 C 
HETATM   17  C17 UNL     1      -1.314  18.749  19.223  1.00  0.00     0.057 C 
ENDROOT
BRANCH  11  18
HETATM   18  S1  UNL     1      -5.179  22.692  21.920  1.00  0.00    -0.162 SA
BRANCH  18  19
HETATM   19  C10 UNL     1      -4.599  23.553  23.329  1.00  0.00     0.101 C 
BRANCH  19  20
HETATM   20  C11 UNL     1      -3.176  24.005  23.371  1.00  0.00     0.239 C 
BRANCH  20  21
HETATM   21  N2  UNL     1      -3.005  25.218  22.646  1.00  0.00    -0.079 N 
ATOM     22  H23 UNL     1      -3.837  25.806  22.694  1.00  0.00     0.274 HD
ATOM     23  H22 UNL     1      -2.346  25.844  23.109  1.00  0.00     0.274 HD
ATOM     24  H21 UNL     1      -2.732  25.032  21.681  1.00  0.00     0.274 HD
ENDBRANCH  20  21
ENDBRANCH  19  20
ENDBRANCH  18  19
ENDBRANCH  11  18
TORSDOF 4
ENDMDL
MODEL 3
REMARK VINA RESULT: -6.977953628      2.088      3.416
REMARK  4 active torsions:
REMARK  status: ('A' for Active; 'I' for Inactive)
REMARK    1  A    between atoms: C9_11  and  S1_12 
REMARK    2  A    between atoms: S1_12  and  C10_13 
REMARK    3  A    between atoms: C10_13  and  C11_14 
REMARK    4  A    between atoms: C11_14  and  N2_15 
ROOT
HETATM    1  C1  UNL     1       3.259  12.254  17.539  1.00  0.00     0.145 C 
HETATM    2  N1  UNL     1       2.340  13.341  17.626  1.00  0.00    -0.401 N 
ATOM      3  H1  UNL     1       1.958  13.711  16.756  1.00  0.00     0.158 HD
HETATM    4  C2  UNL     1       1.967  13.878  18.711  1.00  0.00    -0.018 C 
HETATM    5  C3  UNL     1       2.492  13.379  19.988  1.00  0.00     0.052 C 
HETATM    6  C4  UNL     1       2.626  14.494  21.005  1.00  0.00     0.010 C 
HETATM    7  C5  UNL     1       1.359  15.352  21.045  1.00  0.00    -0.009 C 
HETATM    8  C6  UNL     1       1.495  16.313  22.167  1.00  0.00     0.005 C 
HETATM    9  C7  UNL     1       0.622  17.576  22.015  1.00  0.00     0.007 C 
HETATM   10  C8  UNL     1      -0.351  17.244  20.930  1.00  0.00     0.008 C 
HETATM   11  C9  UNL     1      -1.541  18.048  20.716  1.00  0.00     0.052 C 
HETATM   12  C12 UNL     1      -1.389  18.561  19.274  1.00  0.00     0.016 C 
HETATM   13  C13 UNL     1      -0.597  17.381  18.635  1.00  0.00     0.011 C 
HETATM   14  C14 UNL     1       0.476  17.264  19.649  1.00  0.00    -0.035 C 
HETATM   15  C15 UNL     1       1.380  18.453  19.523  1.00  0.00     0.016 C 
HETATM   16  C16 UNL     1       1.312  16.050  19.676  1.00  0.00     0.003 C 
HETATM   17  C17 UNL     1       0.989  15.016  18.629  1.00  0.00     0.057 C 
ENDROOT
BRANCH  11  18
HETATM   18  S1  UNL     1      -2.207  19.133  21.885  1.00  0.00    -0.162 SA
BRANCH  18  19
HETATM   19  C10 UNL     1      -1.364  20.570  22.426  1.00  0.00     0.101 C 
BRANCH  19  20
HETATM   20  C11 UNL     1      -1.070  21.654  21.442  1.00  0.00     0.239 C 
BRANCH  20  21
HETATM   21  N2  UNL     1       0.275  21.573  20.981  1.00  0.00    -0.079 N 
ATOM     22  H23 UNL     1       0.722  22.490  20.961  1.00  0.00     0.274 HD
ATOM     23  H22 UNL     1       0.881  21.121  21.666  1.00  0.00     0.274 HD
ATOM     24  H21 UNL     1       0.323  21.111  20.074  1.00  0.00     0.274 HD
ENDBRANCH  20  21
ENDBRANCH  19  20
ENDBRANCH  18  19
ENDBRANCH  11  18
TORSDOF 4
ENDMDL
MODEL 4
REMARK VINA RESULT: -6.976965806      2.618      3.737
REMARK  4 active torsions:
REMARK  status: ('A' for Active; 'I' for Inactive)
REMARK    1  A    between atoms: C9_11  and  S1_12 
REMARK    2  A    between atoms: S1_12  and  C10_13 
REMARK    3  A    between atoms: C10_13  and  C11_14 
REMARK    4  A    between atoms: C11_14  and  N2_15 
ROOT
HETATM    1  C1  UNL     1       0.288  15.240  14.369  1.00  0.00     0.145 C 
HETATM    2  N1  UNL     1      -0.185  16.227  15.283  1.00  0.00    -0.401 N 
ATOM      3  H1  UNL     1      -0.345  17.168  14.926  1.00  0.00     0.158 HD
HETATM    4  C2  UNL     1      -0.420  16.012  16.509  1.00  0.00    -0.018 C 
HETATM    5  C3  UNL     1      -0.202  14.672  17.068  1.00  0.00     0.052 C 
HETATM    6  C4  UNL     1       0.247  14.741  18.513  1.00  0.00     0.010 C 
HETATM    7  C5  UNL     1      -0.629  15.710  19.312  1.00  0.00    -0.009 C 
HETATM    8  C6  UNL     1      -0.240  15.604  20.740  1.00  0.00     0.005 C 
HETATM    9  C7  UNL     1      -0.590  16.853  21.575  1.00  0.00     0.007 C 
HETATM   10  C8  UNL     1      -1.536  17.635  20.722  1.00  0.00     0.008 C 
HETATM   11  C9  UNL     1      -2.341  18.706  21.281  1.00  0.00     0.052 C 
HETATM   12  C12 UNL     1      -1.910  19.949  20.483  1.00  0.00     0.016 C 
HETATM   13  C13 UNL     1      -1.548  19.297  19.114  1.00  0.00     0.011 C 
HETATM   14  C14 UNL     1      -0.666  18.218  19.614  1.00  0.00    -0.035 C 
HETATM   15  C15 UNL     1       0.611  18.837  20.100  1.00  0.00     0.016 C 
HETATM   16  C16 UNL     1      -0.323  17.096  18.722  1.00  0.00     0.003 C 
HETATM   17  C17 UNL     1      -0.917  17.162  17.339  1.00  0.00     0.057 C 
ENDROOT
BRANCH  11  18
HETATM   18  S1  UNL     1      -2.657  18.910  22.968  1.00  0.00    -0.162 SA
BRANCH  18  19
HETATM   19  C10 UNL     1      -3.094  20.455  23.666  1.00  0.00     0.101 C 
BRANCH  19  20
HETATM   20  C11 UNL     1      -2.968  20.648  25.141  1.00  0.00     0.239 C 
BRANCH  20  21
HETATM   21  N2  UNL     1      -3.838  19.768  25.847  1.00  0.00    -0.079 N 
ATOM     22  H23 UNL     1      -4.562  19.387  25.238  1.00  0.00     0.274 HD
ATOM     23  H22 UNL     1      -3.370  18.896  26.095  1.00  0.00     0.274 HD
ATOM     24  H21 UNL     1      -4.236  20.227  26.665  1.00  0.00     0.274 HD
ENDBRANCH  20  21
ENDBRANCH  19  20
ENDBRANCH  18  19
ENDBRANCH  11  18
TORSDOF 4
ENDMDL
MODEL 5
REMARK VINA RESULT: -6.942748532      1.046      1.046
REMARK  4 active torsions:
REMARK  status: ('A' for Active; 'I' for Inactive)
REMARK    1  A    between atoms: C9_11  and  S1_12 
REMARK    2  A    between atoms: S1_12  and  C10_13 
REMARK    3  A    between atoms: C10_13  and  C11_14 
REMARK    4  A    between atoms: C11_14  and  N2_15 
ROOT
HETATM    1  C1  UNL     1       1.827  12.613  20.746  1.00  0.00     0.145 C 
HETATM    2  N1  UNL     1       1.538  13.890  21.310  1.00  0.00    -0.401 N 
ATOM      3  H1  UNL     1       1.693  14.015  22.310  1.00  0.00     0.158 HD
HETATM    4  C2  UNL     1       1.100  14.880  20.652  1.00  0.00    -0.018 C 
HETATM    5  C3  UNL     1       0.858  14.746  19.209  1.00  0.00     0.052 C 
HETATM    6  C4  UNL     1      -0.311  15.599  18.762  1.00  0.00     0.010 C 
HETATM    7  C5  UNL     1      -0.204  17.015  19.336  1.00  0.00    -0.009 C 
HETATM    8  C6  UNL     1      -1.282  17.834  18.729  1.00  0.00     0.005 C 
HETATM    9  C7  UNL     1      -1.676  19.066  19.570  1.00  0.00     0.007 C 
HETATM   10  C8  UNL     1      -0.578  19.217  20.572  1.00  0.00     0.008 C 
HETATM   11  C9  UNL     1      -0.417  20.443  21.332  1.00  0.00     0.052 C 
HETATM   12  C12 UNL     1      -0.558  19.995  22.797  1.00  0.00     0.016 C 
HETATM   13  C13 UNL     1       0.009  18.546  22.706  1.00  0.00     0.011 C 
HETATM   14  C14 UNL     1      -0.791  18.070  21.555  1.00  0.00    -0.035 C 
HETATM   15  C15 UNL     1      -2.213  17.904  22.002  1.00  0.00     0.016 C 
HETATM   16  C16 UNL     1      -0.383  16.841  20.852  1.00  0.00     0.003 C 
HETATM   17  C17 UNL     1       0.846  16.160  21.397  1.00  0.00     0.057 C 
ENDROOT
BRANCH  11  18
HETATM   18  S1  UNL     1      -1.115  21.962  20.891  1.00  0.00    -0.162 SA
BRANCH  18  19
HETATM   19  C10 UNL     1      -2.285  22.790  21.896  1.00  0.00     0.101 C 
BRANCH  19  20
HETATM   20  C11 UNL     1      -3.477  23.423  21.256  1.00  0.00     0.239 C 
BRANCH  20  21
HETATM   21  N2  UNL     1      -3.087  24.275  20.183  1.00  0.00    -0.079 N 
ATOM     22  H23 UNL     1      -3.523  25.194  20.255  1.00  0.00     0.274 HD
ATOM     23  H22 UNL     1      -2.111  24.560  20.265  1.00  0.00     0.274 HD
ATOM     24  H21 UNL     1      -3.277  23.837  19.282  1.00  0.00     0.274 HD
ENDBRANCH  20  21
ENDBRANCH  19  20
ENDBRANCH  18  19
ENDBRANCH  11  18
TORSDOF 4
ENDMDL
