MODEL 1
REMARK VINA RESULT: -8.615782992      0.000      0.000
REMARK  9 active torsions:
REMARK  status: ('A' for Active; 'I' for Inactive)
REMARK    1  A    between atoms: C2_2  and  C3_3 
REMARK    2  A    between atoms: C18_19  and  O2_20 
REMARK    3  A    between atoms: C19_22  and  O3_23 
REMARK    4  A    between atoms: C19_22  and  C20_25 
REMARK    5  A    between atoms: C20_25  and  C21_26 
REMARK    6  A    between atoms: C21_26  and  C22_27 
REMARK    7  A    between atoms: C23_28  and  C25_30 
REMARK    8  A    between atoms: C28_33  and  O4_34 
REMARK    9  A    between atoms: O4_34  and  C29_35 
ROOT
HETATM    1  C3  UNL     1       9.316  28.082   8.014  1.00  0.00     0.025 C 
HETATM    2  C4  UNL     1      10.458  28.845   8.710  1.00  0.00     0.027 C 
HETATM    3  C5  UNL     1       9.130  28.564   6.658  1.00  0.00     0.054 C 
HETATM    4  C6  UNL     1       9.279  27.643   5.535  1.00  0.00    -0.069 C 
HETATM    5  C7  UNL     1       9.119  28.345   4.397  1.00  0.00     0.054 C 
HETATM    6  C8  UNL     1       9.214  27.694   3.118  1.00  0.00     0.158 C 
HETATM    7  O1  UNL     1       8.765  28.279   2.108  1.00  0.00    -0.292 OA
HETATM    8  C9  UNL     1       9.830  26.347   2.947  1.00  0.00     0.028 C 
HETATM    9  C10 UNL     1      11.213  26.621   2.530  1.00  0.00     0.024 C 
HETATM   10  C11 UNL     1       9.094  25.792   1.710  1.00  0.00     0.024 C 
HETATM   11  C12 UNL     1       9.509  25.586   4.136  1.00  0.00     0.008 C 
HETATM   12  C13 UNL     1       7.982  25.347   3.866  1.00  0.00     0.020 C 
HETATM   13  C14 UNL     1       9.541  26.240   5.475  1.00  0.00     0.041 C 
HETATM   14  C15 UNL     1      10.803  25.792   6.219  1.00  0.00     0.018 C 
HETATM   15  C16 UNL     1      11.871  26.830   5.906  1.00  0.00     0.023 C 
HETATM   16  C17 UNL     1      10.551  25.848   7.676  1.00  0.00     0.019 C 
HETATM   17  C18 UNL     1       9.492  26.638   8.285  1.00  0.00     0.052 C 
HETATM   18  C19 UNL     1      11.079  24.431   5.644  1.00  0.00     0.097 C 
HETATM   19  C28 UNL     1      10.108  24.291   4.476  1.00  0.00     0.177 C 
ENDROOT
BRANCH  18  20
HETATM   20  O3  UNL     1      10.722  23.483   6.654  1.00  0.00    -0.386 OA
ATOM     21  H3  UNL     1       9.860  23.156   6.424  1.00  0.00     0.210 HD
ENDBRANCH  18  20
BRANCH  18  22
HETATM   22  C20 UNL     1      12.449  24.031   5.357  1.00  0.00     0.045 C 
BRANCH  22  23
HETATM   23  C21 UNL     1      13.153  23.208   6.374  1.00  0.00     0.030 C 
BRANCH  23  24
HETATM   24  C22 UNL     1      14.431  23.662   6.895  1.00  0.00    -0.024 C 
HETATM   25  C23 UNL     1      15.149  23.332   7.895  1.00  0.00    -0.084 C 
HETATM   26  C24 UNL     1      16.488  24.127   8.043  1.00  0.00     0.043 C 
BRANCH  25  27
HETATM   27  C25 UNL     1      14.970  22.400   8.973  1.00  0.00     0.005 C 
HETATM   28  C26 UNL     1      15.973  21.219   8.864  1.00  0.00     0.014 C 
HETATM   29  C27 UNL     1      14.997  22.906  10.365  1.00  0.00     0.014 C 
ENDBRANCH  25  27
ENDBRANCH  23  24
ENDBRANCH  22  23
ENDBRANCH  18  22
BRANCH  19  30
HETATM   30  O4  UNL     1      10.315  23.324   3.568  1.00  0.00    -0.312 OA
BRANCH  30  31
HETATM   31  C29 UNL     1      11.061  23.141   2.495  1.00  0.00     0.255 C 
HETATM   32  C30 UNL     1      12.476  23.477   2.422  1.00  0.00     0.126 C 
HETATM   33  O5  UNL     1      10.466  22.653   1.536  1.00  0.00    -0.266 OA
ENDBRANCH  30  31
ENDBRANCH  19  30
BRANCH  17  34
HETATM   34  O2  UNL     1       8.236  25.979   8.431  1.00  0.00    -0.364 OA
ATOM     35  H2  UNL     1       8.203  25.469   9.232  1.00  0.00     0.217 HD
ENDBRANCH  17  34
BRANCH   1  36
HETATM   36  C2  UNL     1       8.102  28.456   8.808  1.00  0.00    -0.021 C 
HETATM   37  C1  UNL     1       7.909  29.715   9.190  1.00  0.00     0.008 C 
ENDBRANCH   1  36
TORSDOF 9
ENDMDL
MODEL 2
REMARK VINA RESULT: -8.607173440      0.518      1.184
REMARK  9 active torsions:
REMARK  status: ('A' for Active; 'I' for Inactive)
REMARK    1  A    between atoms: C2_2  and  C3_3 
REMARK    2  A    between atoms: C18_19  and  O2_20 
REMARK    3  A    between atoms: C19_22  and  O3_23 
REMARK    4  A    between atoms: C19_22  and  C20_25 
REMARK    5  A    between atoms: C20_25  and  C21_26 
REMARK    6  A    between atoms: C21_26  and  C22_27 
REMARK    7  A    between atoms: C23_28  and  C25_30 
REMARK    8  A    between atoms: C28_33  and  O4_34 
REMARK    9  A    between atoms: O4_34  and  C29_35 
ROOT
HETATM    1  C3  UNL     1       9.288  28.106   8.022  1.00  0.00     0.025 C 
HETATM    2  C4  UNL     1      10.413  28.864   8.748  1.00  0.00     0.027 C 
HETATM    3  C5  UNL     1       9.149  28.579   6.657  1.00  0.00     0.054 C 
HETATM    4  C6  UNL     1       9.326  27.648   5.546  1.00  0.00    -0.069 C 
HETATM    5  C7  UNL     1       9.208  28.342   4.399  1.00  0.00     0.054 C 
HETATM    6  C8  UNL     1       9.339  27.681   3.128  1.00  0.00     0.158 C 
HETATM    7  O1  UNL     1       8.927  28.262   2.099  1.00  0.00    -0.292 OA
HETATM    8  C9  UNL     1       9.948  26.328   2.986  1.00  0.00     0.028 C 
HETATM    9  C10 UNL     1      11.345  26.587   2.613  1.00  0.00     0.024 C 
HETATM   10  C11 UNL     1       9.247  25.770   1.732  1.00  0.00     0.024 C 
HETATM   11  C12 UNL     1       9.582  25.579   4.171  1.00  0.00     0.008 C 
HETATM   12  C13 UNL     1       8.062  25.350   3.854  1.00  0.00     0.020 C 
HETATM   13  C14 UNL     1       9.577  26.243   5.505  1.00  0.00     0.041 C 
HETATM   14  C15 UNL     1      10.811  25.789   6.292  1.00  0.00     0.018 C 
HETATM   15  C16 UNL     1      11.898  26.815   6.006  1.00  0.00     0.023 C 
HETATM   16  C17 UNL     1      10.513  25.859   7.740  1.00  0.00     0.019 C 
HETATM   17  C18 UNL     1       9.442  26.662   8.309  1.00  0.00     0.052 C 
HETATM   18  C19 UNL     1      11.093  24.422   5.737  1.00  0.00     0.097 C 
HETATM   19  C28 UNL     1      10.159  24.281   4.539  1.00  0.00     0.177 C 
ENDROOT
BRANCH  18  20
HETATM   20  O3  UNL     1      10.695  23.485   6.741  1.00  0.00    -0.386 OA
ATOM     21  H3  UNL     1       9.757  23.586   6.849  1.00  0.00     0.210 HD
ENDBRANCH  18  20
BRANCH  18  22
HETATM   22  C20 UNL     1      12.468  24.008   5.496  1.00  0.00     0.045 C 
BRANCH  22  23
HETATM   23  C21 UNL     1      12.909  22.715   6.080  1.00  0.00     0.030 C 
BRANCH  23  24
HETATM   24  C22 UNL     1      13.651  22.715   7.329  1.00  0.00    -0.024 C 
HETATM   25  C23 UNL     1      14.739  23.255   7.714  1.00  0.00    -0.084 C 
HETATM   26  C24 UNL     1      15.138  22.963   9.198  1.00  0.00     0.043 C 
BRANCH  25  27
HETATM   27  C25 UNL     1      15.733  24.052   7.051  1.00  0.00     0.005 C 
HETATM   28  C26 UNL     1      16.858  24.477   8.034  1.00  0.00     0.014 C 
HETATM   29  C27 UNL     1      16.367  23.524   5.820  1.00  0.00     0.014 C 
ENDBRANCH  25  27
ENDBRANCH  23  24
ENDBRANCH  22  23
ENDBRANCH  18  22
BRANCH  19  30
HETATM   30  O4  UNL     1      10.386  23.306   3.645  1.00  0.00    -0.312 OA
BRANCH  30  31
HETATM   31  C29 UNL     1      11.093  23.141   2.544  1.00  0.00     0.255 C 
HETATM   32  C30 UNL     1      12.514  23.442   2.438  1.00  0.00     0.126 C 
HETATM   33  O5  UNL     1      10.455  22.705   1.587  1.00  0.00    -0.266 OA
ENDBRANCH  30  31
ENDBRANCH  19  30
BRANCH  17  34
HETATM   34  O2  UNL     1       8.176  26.015   8.420  1.00  0.00    -0.364 OA
ATOM     35  H2  UNL     1       8.165  25.192   7.946  1.00  0.00     0.217 HD
ENDBRANCH  17  34
BRANCH   1  36
HETATM   36  C2  UNL     1       8.052  28.497   8.774  1.00  0.00    -0.021 C 
HETATM   37  C1  UNL     1       7.870  29.755   9.161  1.00  0.00     0.008 C 
ENDBRANCH   1  36
TORSDOF 9
ENDMDL
MODEL 3
REMARK VINA RESULT: -8.365931394      1.778      6.471
REMARK  9 active torsions:
REMARK  status: ('A' for Active; 'I' for Inactive)
REMARK    1  A    between atoms: C2_2  and  C3_3 
REMARK    2  A    between atoms: C18_19  and  O2_20 
REMARK    3  A    between atoms: C19_22  and  O3_23 
REMARK    4  A    between atoms: C19_22  and  C20_25 
REMARK    5  A    between atoms: C20_25  and  C21_26 
REMARK    6  A    between atoms: C21_26  and  C22_27 
REMARK    7  A    between atoms: C23_28  and  C25_30 
REMARK    8  A    between atoms: C28_33  and  O4_34 
REMARK    9  A    between atoms: O4_34  and  C29_35 
ROOT
HETATM    1  C3  UNL     1      15.141  23.413   6.923  1.00  0.00     0.025 C 
HETATM    2  C4  UNL     1      15.111  22.158   7.814  1.00  0.00     0.027 C 
HETATM    3  C5  UNL     1      14.709  23.095   5.575  1.00  0.00     0.054 C 
HETATM    4  C6  UNL     1      13.544  23.769   5.010  1.00  0.00    -0.069 C 
HETATM    5  C7  UNL     1      13.320  23.255   3.785  1.00  0.00     0.054 C 
HETATM    6  C8  UNL     1      12.224  23.730   2.983  1.00  0.00     0.158 C 
HETATM    7  O1  UNL     1      12.217  23.475   1.759  1.00  0.00    -0.292 OA
HETATM    8  C9  UNL     1      11.093  24.516   3.554  1.00  0.00     0.028 C 
HETATM    9  C10 UNL     1      10.038  23.523   3.800  1.00  0.00     0.024 C 
HETATM   10  C11 UNL     1      10.632  25.368   2.354  1.00  0.00     0.024 C 
HETATM   11  C12 UNL     1      11.648  25.343   4.605  1.00  0.00     0.008 C 
HETATM   12  C13 UNL     1      12.423  26.378   3.716  1.00  0.00     0.020 C 
HETATM   13  C14 UNL     1      12.692  24.797   5.517  1.00  0.00     0.041 C 
HETATM   14  C15 UNL     1      12.056  24.489   6.876  1.00  0.00     0.018 C 
HETATM   15  C16 UNL     1      11.622  23.031   6.821  1.00  0.00     0.023 C 
HETATM   16  C17 UNL     1      13.089  24.598   7.930  1.00  0.00     0.019 C 
HETATM   17  C18 UNL     1      14.519  24.527   7.673  1.00  0.00     0.052 C 
HETATM   18  C19 UNL     1      10.918  25.467   6.956  1.00  0.00     0.097 C 
HETATM   19  C28 UNL     1      10.845  26.102   5.571  1.00  0.00     0.177 C 
ENDROOT
BRANCH  18  20
HETATM   20  O3  UNL     1      11.309  26.468   7.899  1.00  0.00    -0.386 OA
ATOM     21  H3  UNL     1      10.511  26.771   8.318  1.00  0.00     0.210 HD
ENDBRANCH  18  20
BRANCH  18  22
HETATM   22  C20 UNL     1       9.639  25.046   7.508  1.00  0.00     0.045 C 
BRANCH  22  23
HETATM   23  C21 UNL     1       9.001  25.930   8.518  1.00  0.00     0.030 C 
BRANCH  23  24
HETATM   24  C22 UNL     1       8.089  26.971   8.075  1.00  0.00    -0.024 C 
HETATM   25  C23 UNL     1       7.947  28.205   8.359  1.00  0.00    -0.084 C 
HETATM   26  C24 UNL     1       6.793  28.935   7.596  1.00  0.00     0.043 C 
BRANCH  25  27
HETATM   27  C25 UNL     1       8.600  29.085   9.287  1.00  0.00     0.005 C 
HETATM   28  C26 UNL     1       9.993  29.525   8.757  1.00  0.00     0.014 C 
HETATM   29  C27 UNL     1       7.878  30.292   9.754  1.00  0.00     0.014 C 
ENDBRANCH  25  27
ENDBRANCH  23  24
ENDBRANCH  22  23
ENDBRANCH  18  22
BRANCH  19  30
HETATM   30  O4  UNL     1       9.743  26.785   5.224  1.00  0.00    -0.312 OA
BRANCH  30  31
HETATM   31  C29 UNL     1       9.446  27.989   4.773  1.00  0.00     0.255 C 
HETATM   32  C30 UNL     1       8.722  28.238   3.534  1.00  0.00     0.126 C 
HETATM   33  O5  UNL     1       9.832  28.912   5.489  1.00  0.00    -0.266 OA
ENDBRANCH  30  31
ENDBRANCH  19  30
BRANCH  17  34
HETATM   34  O2  UNL     1      15.157  25.769   7.384  1.00  0.00    -0.364 OA
ATOM     35  H2  UNL     1      15.564  26.138   8.160  1.00  0.00     0.217 HD
ENDBRANCH  17  34
BRANCH   1  36
HETATM   36  C2  UNL     1      16.593  23.777   6.869  1.00  0.00    -0.021 C 
HETATM   37  C1  UNL     1      17.474  23.147   7.640  1.00  0.00     0.008 C 
ENDBRANCH   1  36
TORSDOF 9
ENDMDL
MODEL 4
REMARK VINA RESULT: -8.075672718      1.903      2.684
REMARK  9 active torsions:
REMARK  status: ('A' for Active; 'I' for Inactive)
REMARK    1  A    between atoms: C2_2  and  C3_3 
REMARK    2  A    between atoms: C18_19  and  O2_20 
REMARK    3  A    between atoms: C19_22  and  O3_23 
REMARK    4  A    between atoms: C19_22  and  C20_25 
REMARK    5  A    between atoms: C20_25  and  C21_26 
REMARK    6  A    between atoms: C21_26  and  C22_27 
REMARK    7  A    between atoms: C23_28  and  C25_30 
REMARK    8  A    between atoms: C28_33  and  O4_34 
REMARK    9  A    between atoms: O4_34  and  C29_35 
ROOT
HETATM    1  C3  UNL     1       6.537  29.025   6.936  1.00  0.00     0.025 C 
HETATM    2  C4  UNL     1       7.094  30.414   7.299  1.00  0.00     0.027 C 
HETATM    3  C5  UNL     1       6.111  28.990   5.550  1.00  0.00     0.054 C 
HETATM    4  C6  UNL     1       6.725  28.040   4.627  1.00  0.00    -0.069 C 
HETATM    5  C7  UNL     1       6.204  28.252   3.404  1.00  0.00     0.054 C 
HETATM    6  C8  UNL     1       6.626  27.456   2.282  1.00  0.00     0.158 C 
HETATM    7  O1  UNL     1       5.926  27.453   1.246  1.00  0.00    -0.292 OA
HETATM    8  C9  UNL     1       7.869  26.633   2.304  1.00  0.00     0.028 C 
HETATM    9  C10 UNL     1       8.883  27.475   1.655  1.00  0.00     0.024 C 
HETATM   10  C11 UNL     1       7.538  25.493   1.320  1.00  0.00     0.024 C 
HETATM   11  C12 UNL     1       8.016  26.135   3.656  1.00  0.00     0.008 C 
HETATM   12  C13 UNL     1       6.856  25.078   3.653  1.00  0.00     0.020 C 
HETATM   13  C14 UNL     1       7.701  27.014   4.817  1.00  0.00     0.041 C 
HETATM   14  C15 UNL     1       9.011  27.486   5.456  1.00  0.00     0.018 C 
HETATM   15  C16 UNL     1       9.350  28.815   4.795  1.00  0.00     0.023 C 
HETATM   16  C17 UNL     1       8.778  27.758   6.891  1.00  0.00     0.019 C 
HETATM   17  C18 UNL     1       7.465  28.002   7.468  1.00  0.00     0.052 C 
HETATM   18  C19 UNL     1       9.971  26.377   5.136  1.00  0.00     0.097 C 
HETATM   19  C28 UNL     1       9.220  25.470   4.166  1.00  0.00     0.177 C 
ENDROOT
BRANCH  18  20
HETATM   20  O3  UNL     1      10.188  25.662   6.356  1.00  0.00    -0.386 OA
ATOM     21  H3  UNL     1       9.341  25.587   6.779  1.00  0.00     0.210 HD
ENDBRANCH  18  20
BRANCH  18  22
HETATM   22  C20 UNL     1      11.339  26.692   4.750  1.00  0.00     0.045 C 
BRANCH  22  23
HETATM   23  C21 UNL     1      12.409  26.456   5.754  1.00  0.00     0.030 C 
BRANCH  23  24
HETATM   24  C22 UNL     1      13.522  25.586   5.414  1.00  0.00    -0.024 C 
HETATM   25  C23 UNL     1      13.932  24.459   5.847  1.00  0.00    -0.084 C 
HETATM   26  C24 UNL     1      15.211  23.899   5.141  1.00  0.00     0.043 C 
BRANCH  25  27
HETATM   27  C25 UNL     1      13.495  23.591   6.904  1.00  0.00     0.005 C 
HETATM   28  C26 UNL     1      13.574  22.101   6.475  1.00  0.00     0.014 C 
HETATM   29  C27 UNL     1      14.121  23.724   8.241  1.00  0.00     0.014 C 
ENDBRANCH  25  27
ENDBRANCH  23  24
ENDBRANCH  22  23
ENDBRANCH  18  22
BRANCH  19  30
HETATM   30  O4  UNL     1       9.909  24.564   3.453  1.00  0.00    -0.312 OA
BRANCH  30  31
HETATM   31  C29 UNL     1      10.921  23.740   3.645  1.00  0.00     0.255 C 
HETATM   32  C30 UNL     1      12.036  23.593   2.720  1.00  0.00     0.126 C 
HETATM   33  O5  UNL     1      10.858  23.088   4.686  1.00  0.00    -0.266 OA
ENDBRANCH  30  31
ENDBRANCH  19  30
BRANCH  17  34
HETATM   34  O2  UNL     1       6.762  26.845   7.916  1.00  0.00    -0.364 OA
ATOM     35  H2  UNL     1       6.278  27.021   8.714  1.00  0.00     0.217 HD
ENDBRANCH  17  34
BRANCH   1  36
HETATM   36  C2  UNL     1       5.319  28.894   7.797  1.00  0.00    -0.021 C 
HETATM   37  C1  UNL     1       4.105  29.031   7.272  1.00  0.00     0.008 C 
ENDBRANCH   1  36
TORSDOF 9
ENDMDL
MODEL 5
REMARK VINA RESULT: -7.922664058      2.006      6.724
REMARK  9 active torsions:
REMARK  status: ('A' for Active; 'I' for Inactive)
REMARK    1  A    between atoms: C2_2  and  C3_3 
REMARK    2  A    between atoms: C18_19  and  O2_20 
REMARK    3  A    between atoms: C19_22  and  O3_23 
REMARK    4  A    between atoms: C19_22  and  C20_25 
REMARK    5  A    between atoms: C20_25  and  C21_26 
REMARK    6  A    between atoms: C21_26  and  C22_27 
REMARK    7  A    between atoms: C23_28  and  C25_30 
REMARK    8  A    between atoms: C28_33  and  O4_34 
REMARK    9  A    between atoms: O4_34  and  C29_35 
ROOT
HETATM    1  C3  UNL     1      14.087  24.032   7.184  1.00  0.00     0.025 C 
HETATM    2  C4  UNL     1      13.882  23.014   8.320  1.00  0.00     0.027 C 
HETATM    3  C5  UNL     1      13.662  23.474   5.914  1.00  0.00     0.054 C 
HETATM    4  C6  UNL     1      12.602  24.131   5.153  1.00  0.00    -0.069 C 
HETATM    5  C7  UNL     1      12.356  23.388   4.057  1.00  0.00     0.054 C 
HETATM    6  C8  UNL     1      11.349  23.793   3.113  1.00  0.00     0.158 C 
HETATM    7  O1  UNL     1      11.348  23.277   1.973  1.00  0.00    -0.292 OA
HETATM    8  C9  UNL     1      10.303  24.803   3.438  1.00  0.00     0.028 C 
HETATM    9  C10 UNL     1       9.130  24.010   3.833  1.00  0.00     0.024 C 
HETATM   10  C11 UNL     1       9.983  25.416   2.060  1.00  0.00     0.024 C 
HETATM   11  C12 UNL     1      10.920  25.776   4.316  1.00  0.00     0.008 C 
HETATM   12  C13 UNL     1      11.839  26.499   3.269  1.00  0.00     0.020 C 
HETATM   13  C14 UNL     1      11.863  25.332   5.380  1.00  0.00     0.041 C 
HETATM   14  C15 UNL     1      11.155  25.402   6.736  1.00  0.00     0.018 C 
HETATM   15  C16 UNL     1      10.553  24.024   6.972  1.00  0.00     0.023 C 
HETATM   16  C17 UNL     1      12.161  25.626   7.797  1.00  0.00     0.019 C 
HETATM   17  C18 UNL     1      13.580  25.345   7.641  1.00  0.00     0.052 C 
HETATM   18  C19 UNL     1      10.140  26.492   6.541  1.00  0.00     0.097 C 
HETATM   19  C28 UNL     1      10.184  26.811   5.050  1.00  0.00     0.177 C 
ENDROOT
BRANCH  18  20
HETATM   20  O3  UNL     1      10.618  27.627   7.268  1.00  0.00    -0.386 OA
ATOM     21  H3  UNL     1      11.554  27.672   7.113  1.00  0.00     0.210 HD
ENDBRANCH  18  20
BRANCH  18  22
HETATM   22  C20 UNL     1       8.803  26.345   7.099  1.00  0.00     0.045 C 
BRANCH  22  23
HETATM   23  C21 UNL     1       8.445  27.198   8.262  1.00  0.00     0.030 C 
BRANCH  23  24
HETATM   24  C22 UNL     1       7.713  28.433   8.038  1.00  0.00    -0.024 C 
HETATM   25  C23 UNL     1       6.594  28.714   7.496  1.00  0.00    -0.084 C 
HETATM   26  C24 UNL     1       6.216  30.232   7.500  1.00  0.00     0.043 C 
BRANCH  25  27
HETATM   27  C25 UNL     1       5.600  27.928   6.820  1.00  0.00     0.005 C 
HETATM   28  C26 UNL     1       4.167  28.367   7.226  1.00  0.00     0.014 C 
HETATM   29  C27 UNL     1       5.654  27.827   5.343  1.00  0.00     0.014 C 
ENDBRANCH  25  27
ENDBRANCH  23  24
ENDBRANCH  22  23
ENDBRANCH  18  22
BRANCH  19  30
HETATM   30  O4  UNL     1       9.182  27.518   4.504  1.00  0.00    -0.312 OA
BRANCH  30  31
HETATM   31  C29 UNL     1       8.922  28.780   4.222  1.00  0.00     0.255 C 
HETATM   32  C30 UNL     1       8.522  29.253   2.904  1.00  0.00     0.126 C 
HETATM   33  O5  UNL     1       9.044  29.551   5.172  1.00  0.00    -0.266 OA
ENDBRANCH  30  31
ENDBRANCH  19  30
BRANCH  17  34
HETATM   34  O2  UNL     1      14.370  26.415   7.128  1.00  0.00    -0.364 OA
ATOM     35  H2  UNL     1      13.874  27.224   7.091  1.00  0.00     0.217 HD
ENDBRANCH  17  34
BRANCH   1  36
HETATM   36  C2  UNL     1      15.574  24.213   7.134  1.00  0.00    -0.021 C 
HETATM   37  C1  UNL     1      16.297  23.594   6.206  1.00  0.00     0.008 C 
ENDBRANCH   1  36
TORSDOF 9
ENDMDL
