MODEL 1
REMARK VINA RESULT: -9.425708388      0.000      0.000
REMARK  7 active torsions:
REMARK  status: ('A' for Active; 'I' for Inactive)
REMARK    1  A    between atoms: C2_2  and  C3_3 
REMARK    2  A    between atoms: C3_3  and  C5_5 
REMARK    3  A    between atoms: C3_3  and  C6_7 
REMARK    4  A    between atoms: C15_16  and  O2_17 
REMARK    5  A    between atoms: O2_17  and  C16_18 
REMARK    6  A    between atoms: C19_21  and  N1_22 
REMARK    7  A    between atoms: C27_34  and  O4_35 
ROOT
HETATM    1  C6  UNL     1      16.420  21.982   7.709  1.00  0.00     0.009 C 
HETATM    2  C7  UNL     1      16.373  23.347   8.340  1.00  0.00     0.007 C 
HETATM    3  C8  UNL     1      14.898  23.760   8.249  1.00  0.00     0.006 C 
HETATM    4  C9  UNL     1      14.273  22.683   7.449  1.00  0.00    -0.001 C 
HETATM    5  C10 UNL     1      13.080  23.022   6.658  1.00  0.00    -0.003 C 
HETATM    6  C11 UNL     1      12.155  23.833   7.567  1.00  0.00     0.006 C 
HETATM    7  C12 UNL     1      10.870  24.008   6.847  1.00  0.00     0.006 C 
HETATM    8  C13 UNL     1      10.987  24.290   5.390  1.00  0.00    -0.004 C 
HETATM    9  C14 UNL     1       9.905  25.205   4.893  1.00  0.00     0.037 C 
HETATM   10  C15 UNL     1      10.335  26.642   4.822  1.00  0.00     0.125 C 
HETATM   11  C22 UNL     1      11.447  26.951   5.769  1.00  0.00     0.033 C 
HETATM   12  C23 UNL     1      12.709  26.122   5.468  1.00  0.00     0.012 C 
HETATM   13  C24 UNL     1      12.386  24.783   4.985  1.00  0.00    -0.034 C 
HETATM   14  C25 UNL     1      12.329  24.861   3.447  1.00  0.00     0.016 C 
HETATM   15  C26 UNL     1      13.314  23.642   5.324  1.00  0.00     0.027 C 
HETATM   16  C27 UNL     1      14.729  23.883   4.926  1.00  0.00     0.124 C 
HETATM   17  C28 UNL     1      15.752  23.002   5.486  1.00  0.00     0.042 C 
HETATM   18  C29 UNL     1      15.426  22.102   6.611  1.00  0.00    -0.033 C 
HETATM   19  C30 UNL     1      14.888  20.749   6.145  1.00  0.00     0.016 C 
ENDROOT
BRANCH  10  20
HETATM   20  O2  UNL     1       9.247  27.425   5.180  1.00  0.00    -0.356 OA
BRANCH  20  21
HETATM   21  C16 UNL     1       9.339  27.872   6.490  1.00  0.00     0.260 C 
HETATM   22  C17 UNL     1       8.215  27.344   7.330  1.00  0.00     0.063 C 
HETATM   23  C18 UNL     1       7.036  28.251   7.427  1.00  0.00     0.040 C 
HETATM   24  C19 UNL     1       7.384  29.703   7.461  1.00  0.00     0.212 C 
HETATM   25  C20 UNL     1       8.881  29.884   7.541  1.00  0.00     0.151 C 
HETATM   26  C21 UNL     1       9.454  29.524   8.874  1.00  0.00     0.042 C 
HETATM   27  O3  UNL     1       9.451  29.237   6.475  1.00  0.00    -0.354 OA
BRANCH  24  28
HETATM   28  N1  UNL     1       6.683  30.425   8.499  1.00  0.00    -0.073 N 
ATOM     29  H13 UNL     1       5.675  30.293   8.419  1.00  0.00     0.274 HD
ATOM     30  H12 UNL     1       6.834  29.992   9.410  1.00  0.00     0.274 HD
ATOM     31  H11 UNL     1       6.920  31.416   8.522  1.00  0.00     0.274 HD
ENDBRANCH  24  28
ENDBRANCH  20  21
ENDBRANCH  10  20
BRANCH  16  32
HETATM   32  O4  UNL     1      15.127  25.239   5.059  1.00  0.00    -0.395 OA
ATOM     33  H4  UNL     1      15.829  25.484   4.468  1.00  0.00     0.210 HD
ENDBRANCH  16  32
BRANCH   1  34
HETATM   34  C3  UNL     1      17.721  21.393   7.464  1.00  0.00     0.013 C 
HETATM   35  C4  UNL     1      18.055  20.056   7.982  1.00  0.00     0.023 C 
BRANCH  34  36
HETATM   36  C2  UNL     1      18.071  21.425   5.967  1.00  0.00     0.012 C 
HETATM   37  C1  UNL     1      18.871  20.302   5.469  1.00  0.00     0.006 C 
ENDBRANCH  34  36
BRANCH  34  38
HETATM   38  C5  UNL     1      18.765  22.307   8.037  1.00  0.00     0.240 C 
HETATM   39  O1  UNL     1      19.588  21.867   8.807  1.00  0.00    -0.306 OA
ENDBRANCH  34  38
ENDBRANCH   1  34
TORSDOF 7
ENDMDL
MODEL 2
REMARK VINA RESULT: -9.297893812      1.232      1.697
REMARK  7 active torsions:
REMARK  status: ('A' for Active; 'I' for Inactive)
REMARK    1  A    between atoms: C2_2  and  C3_3 
REMARK    2  A    between atoms: C3_3  and  C5_5 
REMARK    3  A    between atoms: C3_3  and  C6_7 
REMARK    4  A    between atoms: C15_16  and  O2_17 
REMARK    5  A    between atoms: O2_17  and  C16_18 
REMARK    6  A    between atoms: C19_21  and  N1_22 
REMARK    7  A    between atoms: C27_34  and  O4_35 
ROOT
HETATM    1  C6  UNL     1      16.767  21.178   7.274  1.00  0.00     0.009 C 
HETATM    2  C7  UNL     1      16.098  21.620   8.546  1.00  0.00     0.007 C 
HETATM    3  C8  UNL     1      14.673  21.996   8.119  1.00  0.00     0.006 C 
HETATM    4  C9  UNL     1      14.702  21.885   6.643  1.00  0.00    -0.001 C 
HETATM    5  C10 UNL     1      13.770  22.726   5.876  1.00  0.00    -0.003 C 
HETATM    6  C11 UNL     1      12.401  22.610   6.552  1.00  0.00     0.006 C 
HETATM    7  C12 UNL     1      11.417  23.291   5.675  1.00  0.00     0.006 C 
HETATM    8  C13 UNL     1      11.884  24.561   5.055  1.00  0.00    -0.004 C 
HETATM    9  C14 UNL     1      10.778  25.565   4.899  1.00  0.00     0.037 C 
HETATM   10  C15 UNL     1      10.732  26.567   6.016  1.00  0.00     0.125 C 
HETATM   11  C22 UNL     1      11.337  26.045   7.277  1.00  0.00     0.033 C 
HETATM   12  C23 UNL     1      12.824  25.689   7.097  1.00  0.00     0.012 C 
HETATM   13  C24 UNL     1      13.108  25.162   5.766  1.00  0.00    -0.034 C 
HETATM   14  C25 UNL     1      13.508  26.359   4.883  1.00  0.00     0.016 C 
HETATM   15  C26 UNL     1      14.196  24.128   5.608  1.00  0.00     0.027 C 
HETATM   16  C27 UNL     1      15.512  24.555   6.161  1.00  0.00     0.124 C 
HETATM   17  C28 UNL     1      16.534  23.528   6.351  1.00  0.00     0.042 C 
HETATM   18  C29 UNL     1      16.179  22.096   6.265  1.00  0.00    -0.033 C 
HETATM   19  C30 UNL     1      16.269  21.552   4.840  1.00  0.00     0.016 C 
ENDROOT
BRANCH  10  20
HETATM   20  O2  UNL     1       9.397  26.848   6.275  1.00  0.00    -0.356 OA
BRANCH  20  21
HETATM   21  C16 UNL     1       9.242  27.622   7.416  1.00  0.00     0.260 C 
HETATM   22  C17 UNL     1       7.896  27.414   8.042  1.00  0.00     0.063 C 
HETATM   23  C18 UNL     1       6.856  28.391   7.611  1.00  0.00     0.040 C 
HETATM   24  C19 UNL     1       7.373  29.772   7.379  1.00  0.00     0.212 C 
HETATM   25  C20 UNL     1       8.822  29.867   7.793  1.00  0.00     0.151 C 
HETATM   26  C21 UNL     1       9.021  29.841   9.274  1.00  0.00     0.042 C 
HETATM   27  O3  UNL     1       9.532  28.922   7.099  1.00  0.00    -0.354 OA
BRANCH  24  28
HETATM   28  N1  UNL     1       6.553  30.790   7.995  1.00  0.00    -0.073 N 
ATOM     29  H13 UNL     1       5.562  30.611   7.831  1.00  0.00     0.274 HD
ATOM     30  H12 UNL     1       6.569  30.706   9.011  1.00  0.00     0.274 HD
ATOM     31  H11 UNL     1       6.806  31.734   7.703  1.00  0.00     0.274 HD
ENDBRANCH  24  28
ENDBRANCH  20  21
ENDBRANCH  10  20
BRANCH  16  32
HETATM   32  O4  UNL     1      15.398  25.353   7.330  1.00  0.00    -0.395 OA
ATOM     33  H4  UNL     1      15.577  24.873   8.130  1.00  0.00     0.210 HD
ENDBRANCH  16  32
BRANCH   1  34
HETATM   34  C3  UNL     1      18.196  20.939   7.307  1.00  0.00     0.013 C 
HETATM   35  C4  UNL     1      18.979  20.867   6.062  1.00  0.00     0.023 C 
BRANCH  34  36
HETATM   36  C2  UNL     1      18.901  21.921   8.257  1.00  0.00     0.012 C 
HETATM   37  C1  UNL     1      19.460  21.341   9.483  1.00  0.00     0.006 C 
ENDBRANCH  34  36
BRANCH  34  38
HETATM   38  C5  UNL     1      18.437  19.627   7.997  1.00  0.00     0.240 C 
HETATM   39  O1  UNL     1      18.820  18.675   7.356  1.00  0.00    -0.306 OA
ENDBRANCH  34  38
ENDBRANCH   1  34
TORSDOF 7
ENDMDL
MODEL 3
REMARK VINA RESULT: -9.291383012      0.656      1.134
REMARK  7 active torsions:
REMARK  status: ('A' for Active; 'I' for Inactive)
REMARK    1  A    between atoms: C2_2  and  C3_3 
REMARK    2  A    between atoms: C3_3  and  C5_5 
REMARK    3  A    between atoms: C3_3  and  C6_7 
REMARK    4  A    between atoms: C15_16  and  O2_17 
REMARK    5  A    between atoms: O2_17  and  C16_18 
REMARK    6  A    between atoms: C19_21  and  N1_22 
REMARK    7  A    between atoms: C27_34  and  O4_35 
ROOT
HETATM    1  C6  UNL     1      16.282  22.131   7.754  1.00  0.00     0.009 C 
HETATM    2  C7  UNL     1      16.224  23.508   8.357  1.00  0.00     0.007 C 
HETATM    3  C8  UNL     1      14.746  23.911   8.248  1.00  0.00     0.006 C 
HETATM    4  C9  UNL     1      14.134  22.814   7.466  1.00  0.00    -0.001 C 
HETATM    5  C10 UNL     1      12.944  23.129   6.661  1.00  0.00    -0.003 C 
HETATM    6  C11 UNL     1      12.007  23.953   7.548  1.00  0.00     0.006 C 
HETATM    7  C12 UNL     1      10.726  24.106   6.816  1.00  0.00     0.006 C 
HETATM    8  C13 UNL     1      10.851  24.359   5.354  1.00  0.00    -0.004 C 
HETATM    9  C14 UNL     1       9.766  25.257   4.832  1.00  0.00     0.037 C 
HETATM   10  C15 UNL     1      10.189  26.695   4.735  1.00  0.00     0.125 C 
HETATM   11  C22 UNL     1      11.293  27.030   5.683  1.00  0.00     0.033 C 
HETATM   12  C23 UNL     1      12.561  26.203   5.406  1.00  0.00     0.012 C 
HETATM   13  C24 UNL     1      12.250  24.852   4.948  1.00  0.00    -0.034 C 
HETATM   14  C25 UNL     1      12.202  24.898   3.409  1.00  0.00     0.016 C 
HETATM   15  C26 UNL     1      13.183  23.724   5.316  1.00  0.00     0.027 C 
HETATM   16  C27 UNL     1      14.598  23.965   4.922  1.00  0.00     0.124 C 
HETATM   17  C28 UNL     1      15.622  23.102   5.507  1.00  0.00     0.042 C 
HETATM   18  C29 UNL     1      15.295  22.223   6.647  1.00  0.00    -0.033 C 
HETATM   19  C30 UNL     1      14.768  20.858   6.205  1.00  0.00     0.016 C 
ENDROOT
BRANCH  10  20
HETATM   20  O2  UNL     1       9.094  27.479   5.070  1.00  0.00    -0.356 OA
BRANCH  20  21
HETATM   21  C16 UNL     1       9.146  27.906   6.389  1.00  0.00     0.260 C 
HETATM   22  C17 UNL     1       7.965  27.417   7.171  1.00  0.00     0.063 C 
HETATM   23  C18 UNL     1       6.823  28.374   7.230  1.00  0.00     0.040 C 
HETATM   24  C19 UNL     1       7.231  29.809   7.298  1.00  0.00     0.212 C 
HETATM   25  C20 UNL     1       8.729  29.923   7.446  1.00  0.00     0.151 C 
HETATM   26  C21 UNL     1       9.227  29.523   8.798  1.00  0.00     0.042 C 
HETATM   27  O3  UNL     1       9.318  29.264   6.398  1.00  0.00    -0.354 OA
BRANCH  24  28
HETATM   28  N1  UNL     1       6.516  30.548   8.315  1.00  0.00    -0.073 N 
ATOM     29  H13 UNL     1       6.890  31.491   8.412  1.00  0.00     0.274 HD
ATOM     30  H12 UNL     1       5.572  30.775   8.004  1.00  0.00     0.274 HD
ATOM     31  H11 UNL     1       6.498  30.068   9.214  1.00  0.00     0.274 HD
ENDBRANCH  24  28
ENDBRANCH  20  21
ENDBRANCH  10  20
BRANCH  16  32
HETATM   32  O4  UNL     1      14.987  25.326   5.030  1.00  0.00    -0.395 OA
ATOM     33  H4  UNL     1      15.928  25.453   4.988  1.00  0.00     0.210 HD
ENDBRANCH  16  32
BRANCH   1  34
HETATM   34  C3  UNL     1      17.588  21.545   7.529  1.00  0.00     0.013 C 
HETATM   35  C4  UNL     1      17.992  21.093   6.187  1.00  0.00     0.023 C 
BRANCH  34  36
HETATM   36  C2  UNL     1      18.704  22.444   8.085  1.00  0.00     0.012 C 
HETATM   37  C1  UNL     1      19.436  21.920   9.243  1.00  0.00     0.006 C 
ENDBRANCH  34  36
BRANCH  34  38
HETATM   38  C5  UNL     1      17.714  20.331   8.405  1.00  0.00     0.240 C 
HETATM   39  O1  UNL     1      16.806  20.031   9.145  1.00  0.00    -0.306 OA
ENDBRANCH  34  38
ENDBRANCH   1  34
TORSDOF 7
ENDMDL
MODEL 4
REMARK VINA RESULT: -9.198166805      3.666      9.783
REMARK  7 active torsions:
REMARK  status: ('A' for Active; 'I' for Inactive)
REMARK    1  A    between atoms: C2_2  and  C3_3 
REMARK    2  A    between atoms: C3_3  and  C5_5 
REMARK    3  A    between atoms: C3_3  and  C6_7 
REMARK    4  A    between atoms: C15_16  and  O2_17 
REMARK    5  A    between atoms: O2_17  and  C16_18 
REMARK    6  A    between atoms: C19_21  and  N1_22 
REMARK    7  A    between atoms: C27_34  and  O4_35 
ROOT
HETATM    1  C6  UNL     1       9.235  27.402   6.573  1.00  0.00     0.009 C 
HETATM    2  C7  UNL     1      10.092  27.824   5.411  1.00  0.00     0.007 C 
HETATM    3  C8  UNL     1      10.773  26.529   4.948  1.00  0.00     0.006 C 
HETATM    4  C9  UNL     1      10.373  25.531   5.965  1.00  0.00    -0.001 C 
HETATM    5  C10 UNL     1      11.281  24.399   6.206  1.00  0.00    -0.003 C 
HETATM    6  C11 UNL     1      11.701  23.861   4.837  1.00  0.00     0.006 C 
HETATM    7  C12 UNL     1      12.453  22.603   5.068  1.00  0.00     0.006 C 
HETATM    8  C13 UNL     1      13.387  22.620   6.228  1.00  0.00    -0.004 C 
HETATM    9  C14 UNL     1      14.617  21.793   5.987  1.00  0.00     0.037 C 
HETATM   10  C15 UNL     1      15.788  22.606   5.514  1.00  0.00     0.125 C 
HETATM   11  C22 UNL     1      15.370  23.865   4.829  1.00  0.00     0.033 C 
HETATM   12  C23 UNL     1      14.570  24.791   5.764  1.00  0.00     0.012 C 
HETATM   13  C24 UNL     1      13.734  24.043   6.698  1.00  0.00    -0.034 C 
HETATM   14  C25 UNL     1      14.567  23.825   7.975  1.00  0.00     0.016 C 
HETATM   15  C26 UNL     1      12.419  24.639   7.138  1.00  0.00     0.027 C 
HETATM   16  C27 UNL     1      12.545  26.005   7.718  1.00  0.00     0.124 C 
HETATM   17  C28 UNL     1      11.324  26.792   7.874  1.00  0.00     0.042 C 
HETATM   18  C29 UNL     1      10.069  26.360   7.226  1.00  0.00    -0.033 C 
HETATM   19  C30 UNL     1       9.255  25.405   8.098  1.00  0.00     0.016 C 
ENDROOT
BRANCH  10  20
HETATM   20  O2  UNL     1      16.488  21.839   4.593  1.00  0.00    -0.356 OA
BRANCH  20  21
HETATM   21  C16 UNL     1      16.788  20.579   5.090  1.00  0.00     0.260 C 
HETATM   22  C17 UNL     1      18.001  20.609   5.970  1.00  0.00     0.063 C 
HETATM   23  C18 UNL     1      19.280  20.300   5.270  1.00  0.00     0.040 C 
HETATM   24  C19 UNL     1      19.156  19.272   4.194  1.00  0.00     0.212 C 
HETATM   25  C20 UNL     1      17.765  18.683   4.188  1.00  0.00     0.151 C 
HETATM   26  C21 UNL     1      17.497  17.776   5.345  1.00  0.00     0.042 C 
HETATM   27  O3  UNL     1      16.865  19.706   4.037  1.00  0.00    -0.354 OA
BRANCH  24  28
HETATM   28  N1  UNL     1      20.186  18.260   4.264  1.00  0.00    -0.073 N 
ATOM     29  H13 UNL     1      20.801  18.308   3.452  1.00  0.00     0.274 HD
ATOM     30  H12 UNL     1      20.862  18.476   4.996  1.00  0.00     0.274 HD
ATOM     31  H11 UNL     1      19.809  17.320   4.381  1.00  0.00     0.274 HD
ENDBRANCH  24  28
ENDBRANCH  20  21
ENDBRANCH  10  20
BRANCH  16  32
HETATM   32  O4  UNL     1      13.554  26.787   7.097  1.00  0.00    -0.395 OA
ATOM     33  H4  UNL     1      13.371  27.719   7.115  1.00  0.00     0.210 HD
ENDBRANCH  16  32
BRANCH   1  34
HETATM   34  C3  UNL     1       8.604  28.440   7.363  1.00  0.00     0.013 C 
HETATM   35  C4  UNL     1       7.583  28.108   8.370  1.00  0.00     0.023 C 
BRANCH  34  36
HETATM   36  C2  UNL     1       9.653  29.347   8.027  1.00  0.00     0.012 C 
HETATM   37  C1  UNL     1       9.304  29.869   9.352  1.00  0.00     0.006 C 
ENDBRANCH  34  36
BRANCH  34  38
HETATM   38  C5  UNL     1       7.929  29.398   6.423  1.00  0.00     0.240 C 
HETATM   39  O1  UNL     1       6.808  29.784   6.665  1.00  0.00    -0.306 OA
ENDBRANCH  34  38
ENDBRANCH   1  34
TORSDOF 7
ENDMDL
MODEL 5
REMARK VINA RESULT: -9.048229140      2.435      3.040
REMARK  7 active torsions:
REMARK  status: ('A' for Active; 'I' for Inactive)
REMARK    1  A    between atoms: C2_2  and  C3_3 
REMARK    2  A    between atoms: C3_3  and  C5_5 
REMARK    3  A    between atoms: C3_3  and  C6_7 
REMARK    4  A    between atoms: C15_16  and  O2_17 
REMARK    5  A    between atoms: O2_17  and  C16_18 
REMARK    6  A    between atoms: C19_21  and  N1_22 
REMARK    7  A    between atoms: C27_34  and  O4_35 
ROOT
HETATM    1  C6  UNL     1      16.888  21.787   7.831  1.00  0.00     0.009 C 
HETATM    2  C7  UNL     1      16.768  23.180   8.384  1.00  0.00     0.007 C 
HETATM    3  C8  UNL     1      15.285  23.536   8.207  1.00  0.00     0.006 C 
HETATM    4  C9  UNL     1      14.734  22.397   7.439  1.00  0.00    -0.001 C 
HETATM    5  C10 UNL     1      13.568  22.652   6.580  1.00  0.00    -0.003 C 
HETATM    6  C11 UNL     1      12.575  23.477   7.402  1.00  0.00     0.006 C 
HETATM    7  C12 UNL     1      11.319  23.568   6.618  1.00  0.00     0.006 C 
HETATM    8  C13 UNL     1      11.494  23.777   5.154  1.00  0.00    -0.004 C 
HETATM    9  C14 UNL     1      10.406  24.626   4.561  1.00  0.00     0.037 C 
HETATM   10  C15 UNL     1      10.792  26.072   4.433  1.00  0.00     0.125 C 
HETATM   11  C22 UNL     1      11.848  26.470   5.410  1.00  0.00     0.033 C 
HETATM   12  C23 UNL     1      13.149  25.671   5.209  1.00  0.00     0.012 C 
HETATM   13  C24 UNL     1      12.893  24.298   4.785  1.00  0.00    -0.034 C 
HETATM   14  C25 UNL     1      12.904  24.293   3.244  1.00  0.00     0.016 C 
HETATM   15  C26 UNL     1      13.842  23.210   5.225  1.00  0.00     0.027 C 
HETATM   16  C27 UNL     1      15.265  23.479   4.878  1.00  0.00     0.124 C 
HETATM   17  C28 UNL     1      16.289  22.665   5.529  1.00  0.00     0.042 C 
HETATM   18  C29 UNL     1      15.942  21.814   6.685  1.00  0.00    -0.033 C 
HETATM   19  C30 UNL     1      15.470  20.421   6.269  1.00  0.00     0.016 C 
ENDROOT
BRANCH  10  20
HETATM   20  O2  UNL     1       9.664  26.835   4.699  1.00  0.00    -0.356 OA
BRANCH  20  21
HETATM   21  C16 UNL     1       9.130  27.391   3.546  1.00  0.00     0.260 C 
HETATM   22  C17 UNL     1       7.651  27.596   3.668  1.00  0.00     0.063 C 
HETATM   23  C18 UNL     1       6.825  26.473   3.139  1.00  0.00     0.040 C 
HETATM   24  C19 UNL     1       7.396  25.812   1.929  1.00  0.00     0.212 C 
HETATM   25  C20 UNL     1       8.616  26.561   1.447  1.00  0.00     0.151 C 
HETATM   26  C21 UNL     1       8.295  27.874   0.808  1.00  0.00     0.042 C 
HETATM   27  O3  UNL     1       9.517  26.626   2.478  1.00  0.00    -0.354 OA
BRANCH  24  28
HETATM   28  N1  UNL     1       6.418  25.615   0.882  1.00  0.00    -0.073 N 
ATOM     29  H13 UNL     1       6.476  24.671   0.501  1.00  0.00     0.274 HD
ATOM     30  H12 UNL     1       5.474  25.580   1.267  1.00  0.00     0.274 HD
ATOM     31  H11 UNL     1       6.485  26.312   0.141  1.00  0.00     0.274 HD
ENDBRANCH  24  28
ENDBRANCH  20  21
ENDBRANCH  10  20
BRANCH  16  32
HETATM   32  O4  UNL     1      15.611  24.854   4.955  1.00  0.00    -0.395 OA
ATOM     33  H4  UNL     1      15.512  25.313   4.129  1.00  0.00     0.210 HD
ENDBRANCH  16  32
BRANCH   1  34
HETATM   34  C3  UNL     1      18.217  21.232   7.675  1.00  0.00     0.013 C 
HETATM   35  C4  UNL     1      18.527  19.871   8.142  1.00  0.00     0.023 C 
BRANCH  34  36
HETATM   36  C2  UNL     1      18.705  21.360   6.222  1.00  0.00     0.012 C 
HETATM   37  C1  UNL     1      19.622  20.314   5.757  1.00  0.00     0.006 C 
ENDBRANCH  34  36
BRANCH  34  38
HETATM   38  C5  UNL     1      19.186  22.124   8.398  1.00  0.00     0.240 C 
HETATM   39  O1  UNL     1      19.901  21.660   9.256  1.00  0.00    -0.306 OA
ENDBRANCH  34  38
ENDBRANCH   1  34
TORSDOF 7
ENDMDL
