MODEL 1
REMARK VINA RESULT: -6.085354659      0.000      0.000
REMARK  10 active torsions:
REMARK  status: ('A' for Active; 'I' for Inactive)
REMARK    1  A    between atoms: C2_2  and  C3_3 
REMARK    2  A    between atoms: C3_3  and  C6_6 
REMARK    3  A    between atoms: C6_6  and  C7_7 
REMARK    4  A    between atoms: C7_7  and  C8_8 
REMARK    5  A    between atoms: C8_8  and  O1_9 
REMARK    6  A    between atoms: C9_11  and  O2_12 
REMARK    7  A    between atoms: C10_14  and  O3_15 
REMARK    8  A    between atoms: O3_15  and  C11_16 
REMARK    9  A    between atoms: C11_16  and  C12_18 
REMARK   10  A    between atoms: C12_18  and  C14_20 
ROOT
HETATM    1  C8  UNL     1      19.478  20.467  10.083  1.00  0.00     0.105 C 
HETATM    2  C9  UNL     1      19.314  21.745   9.273  1.00  0.00     0.123 A 
HETATM    3  C10 UNL     1      17.982  22.159   8.791  1.00  0.00     0.177 A 
HETATM    4  C16 UNL     1      18.888  21.308   7.926  1.00  0.00     0.067 A 
HETATM    5  C17 UNL     1      18.622  19.850   7.943  1.00  0.00     0.048 C 
HETATM    6  C18 UNL     1      19.323  19.068   6.891  1.00  0.00     0.067 C 
HETATM    7  C19 UNL     1      19.806  19.914   5.734  1.00  0.00     0.039 C 
HETATM    8  C20 UNL     1      19.914  18.935   4.558  1.00  0.00     0.012 C 
HETATM    9  C21 UNL     1      18.985  17.803   4.883  1.00  0.00    -0.045 C 
HETATM   10  C22 UNL     1      19.835  16.546   5.011  1.00  0.00     0.015 C 
HETATM   11  C23 UNL     1      17.902  17.601   3.860  1.00  0.00     0.015 C 
HETATM   12  C24 UNL     1      18.337  18.154   6.205  1.00  0.00     0.047 C 
HETATM   13  O5  UNL     1      20.323  18.341   7.443  1.00  0.00    -0.373 OA
HETATM   14  C25 UNL     1      20.193  18.368   8.828  1.00  0.00     0.142 A 
HETATM   15  C26 UNL     1      19.686  16.981   9.241  1.00  0.00     0.066 A 
HETATM   16  C27 UNL     1      18.389  17.221   9.892  1.00  0.00    -0.084 A 
HETATM   17  C28 UNL     1      17.522  16.137  10.468  1.00  0.00     0.043 C 
HETATM   18  C29 UNL     1      18.097  18.504   9.900  1.00  0.00    -0.009 A 
HETATM   19  C30 UNL     1      19.171  19.315   9.246  1.00  0.00     0.045 A 
ENDROOT
BRANCH   1  20
HETATM   20  C7  UNL     1      20.790  20.564  10.776  1.00  0.00     0.043 C 
BRANCH  20  21
HETATM   21  C6  UNL     1      20.768  20.422  12.260  1.00  0.00     0.016 C 
BRANCH  21  22
HETATM   22  C3  UNL     1      21.397  19.124  12.727  1.00  0.00    -0.031 C 
HETATM   23  C4  UNL     1      22.443  18.743  11.698  1.00  0.00     0.019 C 
HETATM   24  C5  UNL     1      22.069  19.303  14.071  1.00  0.00     0.019 C 
BRANCH  22  25
HETATM   25  C2  UNL     1      20.408  18.033  12.850  1.00  0.00    -0.028 C 
HETATM   26  C1  UNL     1      19.247  18.160  13.471  1.00  0.00     0.007 C 
ENDBRANCH  22  25
ENDBRANCH  21  22
ENDBRANCH  20  21
ENDBRANCH   1  20
BRANCH   1  27
HETATM   27  O1  UNL     1      18.509  20.618  11.118  1.00  0.00    -0.385 OA
ATOM     28  H1  UNL     1      17.775  21.056  10.701  1.00  0.00     0.210 HD
ENDBRANCH   1  27
BRANCH   2  29
HETATM   29  O2  UNL     1      20.262  22.748   9.459  1.00  0.00    -0.383 OA
ATOM     30  H2  UNL     1      20.109  23.578   9.024  1.00  0.00     0.210 HD
ENDBRANCH   2  29
BRANCH   3  31
HETATM   31  O3  UNL     1      16.794  21.574   9.213  1.00  0.00    -0.312 OA
BRANCH  31  32
HETATM   32  C11 UNL     1      15.525  21.923   8.847  1.00  0.00     0.263 C 
HETATM   33  O4  UNL     1      14.653  21.988   9.768  1.00  0.00    -0.265 OA
BRANCH  32  34
HETATM   34  C12 UNL     1      15.217  22.205   7.434  1.00  0.00     0.081 C 
HETATM   35  C13 UNL     1      13.831  22.732   7.209  1.00  0.00     0.020 C 
BRANCH  34  36
HETATM   36  C14 UNL     1      15.371  20.938   6.588  1.00  0.00     0.010 C 
HETATM   37  C15 UNL     1      16.215  21.293   5.393  1.00  0.00     0.006 C 
ENDBRANCH  34  36
ENDBRANCH  32  34
ENDBRANCH  31  32
ENDBRANCH   3  31
TORSDOF 10
ENDMDL
MODEL 2
REMARK VINA RESULT: -5.270847873     10.390     16.469
REMARK  10 active torsions:
REMARK  status: ('A' for Active; 'I' for Inactive)
REMARK    1  A    between atoms: C2_2  and  C3_3 
REMARK    2  A    between atoms: C3_3  and  C6_6 
REMARK    3  A    between atoms: C6_6  and  C7_7 
REMARK    4  A    between atoms: C7_7  and  C8_8 
REMARK    5  A    between atoms: C8_8  and  O1_9 
REMARK    6  A    between atoms: C9_11  and  O2_12 
REMARK    7  A    between atoms: C10_14  and  O3_15 
REMARK    8  A    between atoms: O3_15  and  C11_16 
REMARK    9  A    between atoms: C11_16  and  C12_18 
REMARK   10  A    between atoms: C12_18  and  C14_20 
ROOT
HETATM    1  C8  UNL     1       6.465  26.505   1.322  1.00  0.00     0.105 C 
HETATM    2  C9  UNL     1       7.843  27.125   1.139  1.00  0.00     0.123 A 
HETATM    3  C10 UNL     1       9.048  26.422   1.619  1.00  0.00     0.177 A 
HETATM    4  C16 UNL     1       8.329  27.418   2.504  1.00  0.00     0.067 A 
HETATM    5  C17 UNL     1       7.388  26.845   3.496  1.00  0.00     0.048 C 
HETATM    6  C18 UNL     1       6.908  27.797   4.532  1.00  0.00     0.067 C 
HETATM    7  C19 UNL     1       7.784  29.021   4.677  1.00  0.00     0.039 C 
HETATM    8  C20 UNL     1       7.521  29.518   6.105  1.00  0.00     0.012 C 
HETATM    9  C21 UNL     1       7.029  28.324   6.868  1.00  0.00    -0.045 C 
HETATM   10  C22 UNL     1       5.608  28.633   7.319  1.00  0.00     0.015 C 
HETATM   11  C23 UNL     1       7.888  27.969   8.049  1.00  0.00     0.015 C 
HETATM   12  C24 UNL     1       7.047  27.164   5.895  1.00  0.00     0.047 C 
HETATM   13  O5  UNL     1       5.614  28.120   4.300  1.00  0.00    -0.373 OA
HETATM   14  C25 UNL     1       5.098  27.262   3.334  1.00  0.00     0.142 A 
HETATM   15  C26 UNL     1       4.161  26.297   4.071  1.00  0.00     0.066 A 
HETATM   16  C27 UNL     1       4.727  24.959   3.842  1.00  0.00    -0.084 A 
HETATM   17  C28 UNL     1       4.128  23.688   4.377  1.00  0.00     0.043 C 
HETATM   18  C29 UNL     1       5.818  25.029   3.110  1.00  0.00    -0.009 A 
HETATM   19  C30 UNL     1       6.142  26.442   2.741  1.00  0.00     0.045 A 
ENDROOT
BRANCH   1  20
HETATM   20  C7  UNL     1       5.553  27.199   0.375  1.00  0.00     0.043 C 
BRANCH  20  21
HETATM   21  C6  UNL     1       4.680  26.328  -0.463  1.00  0.00     0.016 C 
BRANCH  21  22
HETATM   22  C3  UNL     1       3.209  26.500  -0.140  1.00  0.00    -0.031 C 
HETATM   23  C4  UNL     1       3.054  27.862   0.509  1.00  0.00     0.019 C 
HETATM   24  C5  UNL     1       2.371  26.457  -1.400  1.00  0.00     0.019 C 
BRANCH  22  25
HETATM   25  C2  UNL     1       2.709  25.457   0.779  1.00  0.00    -0.028 C 
HETATM   26  C1  UNL     1       3.013  24.174   0.670  1.00  0.00     0.007 C 
ENDBRANCH  22  25
ENDBRANCH  21  22
ENDBRANCH  20  21
ENDBRANCH   1  20
BRANCH   1  27
HETATM   27  O1  UNL     1       6.628  25.198   0.777  1.00  0.00    -0.385 OA
ATOM     28  H1  UNL     1       7.493  24.924   1.059  1.00  0.00     0.210 HD
ENDBRANCH   1  27
BRANCH   2  29
HETATM   29  O2  UNL     1       8.007  28.023   0.088  1.00  0.00    -0.383 OA
ATOM     30  H2  UNL     1       8.773  28.584   0.108  1.00  0.00     0.210 HD
ENDBRANCH   2  29
BRANCH   3  31
HETATM   31  O3  UNL     1       9.051  25.098   2.043  1.00  0.00    -0.312 OA
BRANCH  31  32
HETATM   32  C11 UNL     1      10.138  24.330   2.347  1.00  0.00     0.263 C 
HETATM   33  O4  UNL     1      10.280  23.244   1.703  1.00  0.00    -0.265 OA
BRANCH  32  34
HETATM   34  C12 UNL     1      11.087  24.772   3.383  1.00  0.00     0.081 C 
HETATM   35  C13 UNL     1      12.227  23.824   3.607  1.00  0.00     0.020 C 
BRANCH  34  36
HETATM   36  C14 UNL     1      10.370  24.956   4.724  1.00  0.00     0.010 C 
HETATM   37  C15 UNL     1      10.672  26.348   5.210  1.00  0.00     0.006 C 
ENDBRANCH  34  36
ENDBRANCH  32  34
ENDBRANCH  31  32
ENDBRANCH   3  31
TORSDOF 10
ENDMDL
MODEL 3
REMARK VINA RESULT: -5.182396465     12.411     15.954
REMARK  10 active torsions:
REMARK  status: ('A' for Active; 'I' for Inactive)
REMARK    1  A    between atoms: C2_2  and  C3_3 
REMARK    2  A    between atoms: C3_3  and  C6_6 
REMARK    3  A    between atoms: C6_6  and  C7_7 
REMARK    4  A    between atoms: C7_7  and  C8_8 
REMARK    5  A    between atoms: C8_8  and  O1_9 
REMARK    6  A    between atoms: C9_11  and  O2_12 
REMARK    7  A    between atoms: C10_14  and  O3_15 
REMARK    8  A    between atoms: O3_15  and  C11_16 
REMARK    9  A    between atoms: C11_16  and  C12_18 
REMARK   10  A    between atoms: C12_18  and  C14_20 
ROOT
HETATM    1  C8  UNL     1       6.711  28.091   5.790  1.00  0.00     0.105 C 
HETATM    2  C9  UNL     1       7.724  27.098   5.240  1.00  0.00     0.123 A 
HETATM    3  C10 UNL     1       8.172  27.187   3.837  1.00  0.00     0.177 A 
HETATM    4  C16 UNL     1       6.995  26.314   4.219  1.00  0.00     0.067 A 
HETATM    5  C17 UNL     1       5.652  26.905   4.011  1.00  0.00     0.048 C 
HETATM    6  C18 UNL     1       4.518  25.950   4.123  1.00  0.00     0.067 C 
HETATM    7  C19 UNL     1       4.933  24.503   3.975  1.00  0.00     0.039 C 
HETATM    8  C20 UNL     1       3.662  23.781   3.510  1.00  0.00     0.012 C 
HETATM    9  C21 UNL     1       2.808  24.833   2.867  1.00  0.00    -0.045 C 
HETATM   10  C22 UNL     1       1.528  24.936   3.687  1.00  0.00     0.015 C 
HETATM   11  C23 UNL     1       2.485  24.550   1.427  1.00  0.00     0.015 C 
HETATM   12  C24 UNL     1       3.600  26.122   2.938  1.00  0.00     0.047 C 
HETATM   13  O5  UNL     1       3.839  26.170   5.273  1.00  0.00    -0.373 OA
HETATM   14  C25 UNL     1       4.267  27.371   5.830  1.00  0.00     0.142 A 
HETATM   15  C26 UNL     1       3.134  28.380   5.602  1.00  0.00     0.066 A 
HETATM   16  C27 UNL     1       3.726  29.446   4.781  1.00  0.00    -0.084 A 
HETATM   17  C28 UNL     1       2.978  30.664   4.314  1.00  0.00     0.043 C 
HETATM   18  C29 UNL     1       4.989  29.190   4.515  1.00  0.00    -0.009 A 
HETATM   19  C30 UNL     1       5.427  27.897   5.129  1.00  0.00     0.045 A 
ENDROOT
BRANCH   1  20
HETATM   20  C7  UNL     1       6.808  28.027   7.272  1.00  0.00     0.043 C 
BRANCH  20  21
HETATM   21  C6  UNL     1       7.123  29.306   7.972  1.00  0.00     0.016 C 
BRANCH  21  22
HETATM   22  C3  UNL     1       8.408  29.226   8.773  1.00  0.00    -0.031 C 
HETATM   23  C4  UNL     1       9.527  29.692   7.862  1.00  0.00     0.019 C 
HETATM   24  C5  UNL     1       8.346  30.134   9.982  1.00  0.00     0.019 C 
BRANCH  22  25
HETATM   25  C2  UNL     1       8.693  27.855   9.243  1.00  0.00    -0.028 C 
HETATM   26  C1  UNL     1       9.903  27.323   9.267  1.00  0.00     0.007 C 
ENDBRANCH  22  25
ENDBRANCH  21  22
ENDBRANCH  20  21
ENDBRANCH   1  20
BRANCH   1  27
HETATM   27  O1  UNL     1       7.278  29.352   5.443  1.00  0.00    -0.385 OA
ATOM     28  H1  UNL     1       7.686  29.209   4.596  1.00  0.00     0.210 HD
ENDBRANCH   1  27
BRANCH   2  29
HETATM   29  O2  UNL     1       8.594  26.501   6.148  1.00  0.00    -0.383 OA
ATOM     30  H2  UNL     1       9.202  25.854   5.810  1.00  0.00     0.210 HD
ENDBRANCH   2  29
BRANCH   3  31
HETATM   31  O3  UNL     1       7.901  28.270   3.009  1.00  0.00    -0.312 OA
BRANCH  31  32
HETATM   32  C11 UNL     1       8.426  28.517   1.773  1.00  0.00     0.263 C 
HETATM   33  O4  UNL     1       9.114  29.576   1.634  1.00  0.00    -0.265 OA
BRANCH  32  34
HETATM   34  C12 UNL     1       8.186  27.572   0.668  1.00  0.00     0.081 C 
HETATM   35  C13 UNL     1       8.500  28.131  -0.688  1.00  0.00     0.020 C 
BRANCH  34  36
HETATM   36  C14 UNL     1       6.721  27.125   0.654  1.00  0.00     0.010 C 
HETATM   37  C15 UNL     1       6.703  25.629   0.822  1.00  0.00     0.006 C 
ENDBRANCH  34  36
ENDBRANCH  32  34
ENDBRANCH  31  32
ENDBRANCH   3  31
TORSDOF 10
ENDMDL
MODEL 4
REMARK VINA RESULT: -5.097358185     10.698     16.692
REMARK  10 active torsions:
REMARK  status: ('A' for Active; 'I' for Inactive)
REMARK    1  A    between atoms: C2_2  and  C3_3 
REMARK    2  A    between atoms: C3_3  and  C6_6 
REMARK    3  A    between atoms: C6_6  and  C7_7 
REMARK    4  A    between atoms: C7_7  and  C8_8 
REMARK    5  A    between atoms: C8_8  and  O1_9 
REMARK    6  A    between atoms: C9_11  and  O2_12 
REMARK    7  A    between atoms: C10_14  and  O3_15 
REMARK    8  A    between atoms: O3_15  and  C11_16 
REMARK    9  A    between atoms: C11_16  and  C12_18 
REMARK   10  A    between atoms: C12_18  and  C14_20 
ROOT
HETATM    1  C8  UNL     1       6.915  28.120   4.751  1.00  0.00     0.105 C 
HETATM    2  C9  UNL     1       7.604  29.072   5.719  1.00  0.00     0.123 A 
HETATM    3  C10 UNL     1       7.757  28.710   7.142  1.00  0.00     0.177 A 
HETATM    4  C16 UNL     1       6.554  29.499   6.668  1.00  0.00     0.067 A 
HETATM    5  C17 UNL     1       5.319  28.718   6.421  1.00  0.00     0.048 C 
HETATM    6  C18 UNL     1       4.087  29.528   6.231  1.00  0.00     0.067 C 
HETATM    7  C19 UNL     1       4.207  30.939   6.763  1.00  0.00     0.039 C 
HETATM    8  C20 UNL     1       2.761  31.371   7.040  1.00  0.00     0.012 C 
HETATM    9  C21 UNL     1       1.986  30.102   7.232  1.00  0.00    -0.045 C 
HETATM   10  C22 UNL     1       0.943  30.040   6.123  1.00  0.00     0.015 C 
HETATM   11  C23 UNL     1       1.324  29.998   8.578  1.00  0.00     0.015 C 
HETATM   12  C24 UNL     1       2.984  28.972   7.098  1.00  0.00     0.047 C 
HETATM   13  O5  UNL     1       3.713  29.503   4.930  1.00  0.00    -0.373 OA
HETATM   14  C25 UNL     1       4.448  28.527   4.265  1.00  0.00     0.142 A 
HETATM   15  C26 UNL     1       3.483  27.364   4.004  1.00  0.00     0.066 A 
HETATM   16  C27 UNL     1       4.065  26.214   4.713  1.00  0.00    -0.084 A 
HETATM   17  C28 UNL     1       3.456  24.840   4.730  1.00  0.00     0.043 C 
HETATM   18  C29 UNL     1       5.180  26.552   5.323  1.00  0.00    -0.009 A 
HETATM   19  C30 UNL     1       5.508  27.996   5.106  1.00  0.00     0.045 A 
ENDROOT
BRANCH   1  20
HETATM   20  C7  UNL     1       7.309  28.541   3.381  1.00  0.00     0.043 C 
BRANCH  20  21
HETATM   21  C6  UNL     1       8.361  27.723   2.712  1.00  0.00     0.016 C 
BRANCH  21  22
HETATM   22  C3  UNL     1       7.817  26.927   1.542  1.00  0.00    -0.031 C 
HETATM   23  C4  UNL     1       8.344  27.580   0.279  1.00  0.00     0.019 C 
HETATM   24  C5  UNL     1       8.300  25.493   1.594  1.00  0.00     0.019 C 
BRANCH  22  25
HETATM   25  C2  UNL     1       6.340  26.912   1.509  1.00  0.00    -0.028 C 
HETATM   26  C1  UNL     1       5.620  25.826   1.286  1.00  0.00     0.007 C 
ENDBRANCH  22  25
ENDBRANCH  21  22
ENDBRANCH  20  21
ENDBRANCH   1  20
BRANCH   1  27
HETATM   27  O1  UNL     1       7.605  26.891   4.966  1.00  0.00    -0.385 OA
ATOM     28  H1  UNL     1       7.052  26.229   4.567  1.00  0.00     0.210 HD
ENDBRANCH   1  27
BRANCH   2  29
HETATM   29  O2  UNL     1       8.529  29.966   5.188  1.00  0.00    -0.383 OA
ATOM     30  H2  UNL     1       8.703  30.759   5.682  1.00  0.00     0.210 HD
ENDBRANCH   2  29
BRANCH   3  31
HETATM   31  O3  UNL     1       7.509  27.438   7.644  1.00  0.00    -0.312 OA
BRANCH  31  32
HETATM   32  C11 UNL     1       8.425  26.545   8.121  1.00  0.00     0.263 C 
HETATM   33  O4  UNL     1       8.115  25.899   9.169  1.00  0.00    -0.265 OA
BRANCH  32  34
HETATM   34  C12 UNL     1       9.709  26.363   7.422  1.00  0.00     0.081 C 
HETATM   35  C13 UNL     1      10.151  24.934   7.327  1.00  0.00     0.020 C 
BRANCH  34  36
HETATM   36  C14 UNL     1      10.820  27.143   8.131  1.00  0.00     0.010 C 
HETATM   37  C15 UNL     1      12.137  26.605   7.638  1.00  0.00     0.006 C 
ENDBRANCH  34  36
ENDBRANCH  32  34
ENDBRANCH  31  32
ENDBRANCH   3  31
TORSDOF 10
ENDMDL
MODEL 5
REMARK VINA RESULT: -4.852634008     11.254     16.165
REMARK  10 active torsions:
REMARK  status: ('A' for Active; 'I' for Inactive)
REMARK    1  A    between atoms: C2_2  and  C3_3 
REMARK    2  A    between atoms: C3_3  and  C6_6 
REMARK    3  A    between atoms: C6_6  and  C7_7 
REMARK    4  A    between atoms: C7_7  and  C8_8 
REMARK    5  A    between atoms: C8_8  and  O1_9 
REMARK    6  A    between atoms: C9_11  and  O2_12 
REMARK    7  A    between atoms: C10_14  and  O3_15 
REMARK    8  A    between atoms: O3_15  and  C11_16 
REMARK    9  A    between atoms: C11_16  and  C12_18 
REMARK   10  A    between atoms: C12_18  and  C14_20 
ROOT
HETATM    1  C8  UNL     1       7.112  25.733   3.263  1.00  0.00     0.105 C 
HETATM    2  C9  UNL     1       5.728  25.119   3.419  1.00  0.00     0.123 A 
HETATM    3  C10 UNL     1       4.587  25.642   2.644  1.00  0.00     0.177 A 
HETATM    4  C16 UNL     1       4.893  26.177   4.027  1.00  0.00     0.067 A 
HETATM    5  C17 UNL     1       5.662  27.443   4.079  1.00  0.00     0.048 C 
HETATM    6  C18 UNL     1       5.712  28.096   5.414  1.00  0.00     0.067 C 
HETATM    7  C19 UNL     1       4.626  27.626   6.355  1.00  0.00     0.039 C 
HETATM    8  C20 UNL     1       4.457  28.777   7.356  1.00  0.00     0.012 C 
HETATM    9  C21 UNL     1       4.958  30.004   6.655  1.00  0.00    -0.045 C 
HETATM   10  C22 UNL     1       6.158  30.513   7.443  1.00  0.00     0.015 C 
HETATM   11  C23 UNL     1       3.923  31.085   6.520  1.00  0.00     0.015 C 
HETATM   12  C24 UNL     1       5.372  29.559   5.268  1.00  0.00     0.047 C 
HETATM   13  O5  UNL     1       6.947  27.958   5.951  1.00  0.00    -0.373 OA
HETATM   14  C25 UNL     1       7.817  27.485   4.973  1.00  0.00     0.142 A 
HETATM   15  C26 UNL     1       8.710  28.669   4.582  1.00  0.00     0.066 A 
HETATM   16  C27 UNL     1       8.457  28.886   3.149  1.00  0.00    -0.084 A 
HETATM   17  C28 UNL     1       9.128  29.952   2.328  1.00  0.00     0.043 C 
HETATM   18  C29 UNL     1       7.573  28.027   2.692  1.00  0.00    -0.009 A 
HETATM   19  C30 UNL     1       7.101  27.100   3.768  1.00  0.00     0.045 A 
ENDROOT
BRANCH   1  20
HETATM   20  C7  UNL     1       8.084  24.744   3.798  1.00  0.00     0.043 C 
BRANCH  20  21
HETATM   21  C6  UNL     1       9.205  24.360   2.893  1.00  0.00     0.016 C 
BRANCH  21  22
HETATM   22  C3  UNL     1      10.545  24.879   3.378  1.00  0.00    -0.031 C 
HETATM   23  C4  UNL     1      11.581  23.830   3.026  1.00  0.00     0.019 C 
HETATM   24  C5  UNL     1      10.902  26.177   2.687  1.00  0.00     0.019 C 
BRANCH  22  25
HETATM   25  C2  UNL     1      10.561  25.117   4.836  1.00  0.00    -0.028 C 
HETATM   26  C1  UNL     1      11.270  26.070   5.418  1.00  0.00     0.007 C 
ENDBRANCH  22  25
ENDBRANCH  21  22
ENDBRANCH  20  21
ENDBRANCH   1  20
BRANCH   1  27
HETATM   27  O1  UNL     1       7.313  25.713   1.851  1.00  0.00    -0.385 OA
ATOM     28  H1  UNL     1       6.503  26.051   1.486  1.00  0.00     0.210 HD
ENDBRANCH   1  27
BRANCH   2  29
HETATM   29  O2  UNL     1       5.660  23.793   3.836  1.00  0.00    -0.383 OA
ATOM     30  H2  UNL     1       4.825  23.349   3.744  1.00  0.00     0.210 HD
ENDBRANCH   2  29
BRANCH   3  31
HETATM   31  O3  UNL     1       4.717  26.535   1.587  1.00  0.00    -0.312 OA
BRANCH  31  32
HETATM   32  C11 UNL     1       3.723  27.243   0.976  1.00  0.00     0.263 C 
HETATM   33  O4  UNL     1       3.936  27.635  -0.214  1.00  0.00    -0.265 OA
BRANCH  32  34
HETATM   34  C12 UNL     1       2.467  27.522   1.694  1.00  0.00     0.081 C 
HETATM   35  C13 UNL     1       1.271  27.653   0.799  1.00  0.00     0.020 C 
BRANCH  34  36
HETATM   36  C14 UNL     1       2.586  28.819   2.499  1.00  0.00     0.010 C 
HETATM   37  C15 UNL     1       1.996  28.563   3.860  1.00  0.00     0.006 C 
ENDBRANCH  34  36
ENDBRANCH  32  34
ENDBRANCH  31  32
ENDBRANCH   3  31
TORSDOF 10
ENDMDL
