MODEL 1
REMARK VINA RESULT: -7.555112386      0.000      0.000
REMARK  9 active torsions:
REMARK  status: ('A' for Active; 'I' for Inactive)
REMARK    1  A    between atoms: C2_2  and  C3_3 
REMARK    2  A    between atoms: C3_3  and  C4_4 
REMARK    3  A    between atoms: C4_4  and  O1_6 
REMARK    4  A    between atoms: C4_4  and  C6_8 
REMARK    5  A    between atoms: C11_13  and  O2_14 
REMARK    6  A    between atoms: C13_17  and  C15_19 
REMARK    7  A    between atoms: C15_19  and  O4_21 
REMARK    8  A    between atoms: C19_25  and  O5_26 
REMARK    9  A    between atoms: O5_26  and  C20_27 
ROOT
HETATM    1  C6  UNL     1       8.531  28.387   7.703  1.00  0.00     0.029 C 
HETATM    2  C7  UNL     1       9.510  28.663   6.571  1.00  0.00     0.014 C 
HETATM    3  C8  UNL     1      10.543  28.035   7.480  1.00  0.00    -0.001 C 
HETATM    4  C9  UNL     1      11.592  27.191   6.863  1.00  0.00    -0.003 C 
HETATM    5  C10 UNL     1      12.395  26.520   7.902  1.00  0.00     0.037 C 
HETATM    6  C11 UNL     1      13.352  25.471   7.417  1.00  0.00     0.124 C 
HETATM    7  C12 UNL     1      12.692  24.619   6.355  1.00  0.00     0.043 C 
HETATM    8  C13 UNL     1      13.433  23.400   5.968  1.00  0.00     0.051 C 
HETATM    9  C14 UNL     1      12.580  22.127   6.116  1.00  0.00     0.026 C 
HETATM   10  C17 UNL     1      13.846  23.391   4.504  1.00  0.00     0.022 C 
HETATM   11  C18 UNL     1      12.665  23.624   3.613  1.00  0.00     0.034 C 
HETATM   12  C19 UNL     1      11.794  24.756   3.993  1.00  0.00     0.137 C 
HETATM   13  C23 UNL     1      12.151  25.465   5.246  1.00  0.00    -0.006 C 
HETATM   14  C24 UNL     1      13.137  26.558   4.796  1.00  0.00     0.019 C 
HETATM   15  C25 UNL     1      10.988  26.271   5.821  1.00  0.00     0.001 C 
HETATM   16  C26 UNL     1       9.807  25.540   6.265  1.00  0.00     0.007 C 
HETATM   17  C27 UNL     1       9.211  25.915   7.586  1.00  0.00     0.010 C 
HETATM   18  C28 UNL     1       9.396  27.259   8.102  1.00  0.00    -0.034 C 
HETATM   19  C29 UNL     1       9.532  27.268   9.638  1.00  0.00     0.016 C 
ENDROOT
BRANCH   1  20
HETATM   20  C4  UNL     1       7.119  28.230   7.350  1.00  0.00     0.061 C 
HETATM   21  C5  UNL     1       7.058  28.125   5.811  1.00  0.00     0.046 C 
BRANCH  20  22
HETATM   22  C3  UNL     1       6.380  29.517   7.668  1.00  0.00     0.064 C 
BRANCH  22  23
HETATM   23  C2  UNL     1       5.199  29.691   6.783  1.00  0.00    -0.034 C 
HETATM   24  C1  UNL     1       3.994  29.702   7.310  1.00  0.00     0.007 C 
ENDBRANCH  22  23
ENDBRANCH  20  22
BRANCH  20  25
HETATM   25  O1  UNL     1       6.458  27.131   7.820  1.00  0.00    -0.390 OA
ATOM     26  H1  UNL     1       6.792  26.849   8.664  1.00  0.00     0.210 HD
ENDBRANCH  20  25
ENDBRANCH   1  20
BRANCH   6  27
HETATM   27  O2  UNL     1      13.549  24.593   8.518  1.00  0.00    -0.395 OA
ATOM     28  H2  UNL     1      14.351  24.120   8.329  1.00  0.00     0.210 HD
ENDBRANCH   6  27
BRANCH  12  29
HETATM   29  O5  UNL     1      10.439  24.306   3.917  1.00  0.00    -0.351 OA
BRANCH  29  30
HETATM   30  C20 UNL     1       9.643  24.925   2.964  1.00  0.00     0.033 C 
HETATM   31  C21 UNL     1      10.141  25.479   1.870  1.00  0.00     0.045 C 
HETATM   32  C22 UNL     1       8.179  24.978   3.158  1.00  0.00     0.075 C 
ENDBRANCH  29  30
ENDBRANCH  12  29
BRANCH   8  33
HETATM   33  C15 UNL     1      14.681  23.133   6.724  1.00  0.00     0.267 C 
HETATM   34  O3  UNL     1      14.756  22.255   7.649  1.00  0.00    -0.264 OA
BRANCH  33  35
HETATM   35  O4  UNL     1      15.867  23.811   6.489  1.00  0.00    -0.326 OA
HETATM   36  C16 UNL     1      16.883  23.930   7.477  1.00  0.00     0.213 C 
ENDBRANCH  33  35
ENDBRANCH   8  33
TORSDOF 9
ENDMDL
MODEL 2
REMARK VINA RESULT: -7.439595047      2.767      8.110
REMARK  9 active torsions:
REMARK  status: ('A' for Active; 'I' for Inactive)
REMARK    1  A    between atoms: C2_2  and  C3_3 
REMARK    2  A    between atoms: C3_3  and  C4_4 
REMARK    3  A    between atoms: C4_4  and  O1_6 
REMARK    4  A    between atoms: C4_4  and  C6_8 
REMARK    5  A    between atoms: C11_13  and  O2_14 
REMARK    6  A    between atoms: C13_17  and  C15_19 
REMARK    7  A    between atoms: C15_19  and  O4_21 
REMARK    8  A    between atoms: C19_25  and  O5_26 
REMARK    9  A    between atoms: O5_26  and  C20_27 
ROOT
HETATM    1  C6  UNL     1      12.214  24.757   3.274  1.00  0.00     0.029 C 
HETATM    2  C7  UNL     1      11.945  26.255   3.235  1.00  0.00     0.014 C 
HETATM    3  C8  UNL     1      10.794  25.897   2.322  1.00  0.00    -0.001 C 
HETATM    4  C9  UNL     1       9.539  26.671   2.448  1.00  0.00    -0.003 C 
HETATM    5  C10 UNL     1       8.476  26.075   1.618  1.00  0.00     0.037 C 
HETATM    6  C11 UNL     1       7.096  26.631   1.817  1.00  0.00     0.124 C 
HETATM    7  C12 UNL     1       6.828  26.834   3.292  1.00  0.00     0.043 C 
HETATM    8  C13 UNL     1       5.426  27.143   3.645  1.00  0.00     0.051 C 
HETATM    9  C14 UNL     1       4.857  26.162   4.687  1.00  0.00     0.026 C 
HETATM   10  C17 UNL     1       5.262  28.505   4.302  1.00  0.00     0.022 C 
HETATM   11  C18 UNL     1       6.172  28.643   5.483  1.00  0.00     0.034 C 
HETATM   12  C19 UNL     1       7.576  28.242   5.257  1.00  0.00     0.137 C 
HETATM   13  C23 UNL     1       7.889  27.681   3.920  1.00  0.00    -0.006 C 
HETATM   14  C24 UNL     1       8.251  28.910   3.068  1.00  0.00     0.019 C 
HETATM   15  C25 UNL     1       9.181  26.867   3.908  1.00  0.00     0.001 C 
HETATM   16  C26 UNL     1       9.228  25.653   4.715  1.00  0.00     0.007 C 
HETATM   17  C27 UNL     1       9.804  24.422   4.088  1.00  0.00     0.010 C 
HETATM   18  C28 UNL     1      10.776  24.548   3.018  1.00  0.00    -0.034 C 
HETATM   19  C29 UNL     1      10.624  23.423   1.973  1.00  0.00     0.016 C 
ENDROOT
BRANCH   1  20
HETATM   20  C4  UNL     1      12.907  24.227   4.449  1.00  0.00     0.061 C 
HETATM   21  C5  UNL     1      11.930  23.246   5.132  1.00  0.00     0.046 C 
BRANCH  20  22
HETATM   22  C3  UNL     1      13.091  25.340   5.464  1.00  0.00     0.064 C 
BRANCH  22  23
HETATM   23  C2  UNL     1      12.294  25.085   6.692  1.00  0.00    -0.034 C 
HETATM   24  C1  UNL     1      11.776  26.101   7.348  1.00  0.00     0.007 C 
ENDBRANCH  22  23
ENDBRANCH  20  22
BRANCH  20  25
HETATM   25  O1  UNL     1      14.060  23.520   4.250  1.00  0.00    -0.390 OA
ATOM     26  H1  UNL     1      14.832  24.061   4.366  1.00  0.00     0.210 HD
ENDBRANCH  20  25
ENDBRANCH   1  20
BRANCH   6  27
HETATM   27  O2  UNL     1       6.205  25.595   1.424  1.00  0.00    -0.395 OA
ATOM     28  H2  UNL     1       5.995  25.120   2.219  1.00  0.00     0.210 HD
ENDBRANCH   6  27
BRANCH  12  29
HETATM   29  O5  UNL     1       7.980  27.431   6.364  1.00  0.00    -0.351 OA
BRANCH  29  30
HETATM   30  C20 UNL     1       8.582  28.098   7.420  1.00  0.00     0.033 C 
HETATM   31  C21 UNL     1       9.182  29.269   7.275  1.00  0.00     0.045 C 
HETATM   32  C22 UNL     1       8.565  27.495   8.770  1.00  0.00     0.075 C 
ENDBRANCH  29  30
ENDBRANCH  12  29
BRANCH   8  33
HETATM   33  C15 UNL     1       4.458  27.136   2.522  1.00  0.00     0.267 C 
HETATM   34  O3  UNL     1       4.327  28.116   1.714  1.00  0.00    -0.264 OA
BRANCH  33  35
HETATM   35  O4  UNL     1       3.616  26.067   2.257  1.00  0.00    -0.326 OA
HETATM   36  C16 UNL     1       2.545  26.156   1.324  1.00  0.00     0.213 C 
ENDBRANCH  33  35
ENDBRANCH   8  33
TORSDOF 9
ENDMDL
MODEL 3
REMARK VINA RESULT: -7.306163008      2.797      8.454
REMARK  9 active torsions:
REMARK  status: ('A' for Active; 'I' for Inactive)
REMARK    1  A    between atoms: C2_2  and  C3_3 
REMARK    2  A    between atoms: C3_3  and  C4_4 
REMARK    3  A    between atoms: C4_4  and  O1_6 
REMARK    4  A    between atoms: C4_4  and  C6_8 
REMARK    5  A    between atoms: C11_13  and  O2_14 
REMARK    6  A    between atoms: C13_17  and  C15_19 
REMARK    7  A    between atoms: C15_19  and  O4_21 
REMARK    8  A    between atoms: C19_25  and  O5_26 
REMARK    9  A    between atoms: O5_26  and  C20_27 
ROOT
HETATM    1  C6  UNL     1      12.180  24.550   3.334  1.00  0.00     0.029 C 
HETATM    2  C7  UNL     1      11.947  26.054   3.304  1.00  0.00     0.014 C 
HETATM    3  C8  UNL     1      10.818  25.732   2.349  1.00  0.00    -0.001 C 
HETATM    4  C9  UNL     1       9.577  26.533   2.444  1.00  0.00    -0.003 C 
HETATM    5  C10 UNL     1       8.529  25.971   1.573  1.00  0.00     0.037 C 
HETATM    6  C11 UNL     1       7.156  26.556   1.733  1.00  0.00     0.124 C 
HETATM    7  C12 UNL     1       6.844  26.751   3.202  1.00  0.00     0.043 C 
HETATM    8  C13 UNL     1       5.440  27.089   3.512  1.00  0.00     0.051 C 
HETATM    9  C14 UNL     1       4.815  26.111   4.525  1.00  0.00     0.026 C 
HETATM   10  C17 UNL     1       5.285  28.448   4.178  1.00  0.00     0.022 C 
HETATM   11  C18 UNL     1       6.159  28.552   5.390  1.00  0.00     0.034 C 
HETATM   12  C19 UNL     1       7.560  28.121   5.204  1.00  0.00     0.137 C 
HETATM   13  C23 UNL     1       7.904  27.567   3.872  1.00  0.00    -0.006 C 
HETATM   14  C24 UNL     1       8.321  28.796   3.046  1.00  0.00     0.019 C 
HETATM   15  C25 UNL     1       9.177  26.723   3.893  1.00  0.00     0.001 C 
HETATM   16  C26 UNL     1       9.169  25.500   4.688  1.00  0.00     0.007 C 
HETATM   17  C27 UNL     1       9.738  24.263   4.067  1.00  0.00     0.010 C 
HETATM   18  C28 UNL     1      10.746  24.377   3.030  1.00  0.00    -0.034 C 
HETATM   19  C29 UNL     1      10.603  23.267   1.968  1.00  0.00     0.016 C 
ENDROOT
BRANCH   1  20
HETATM   20  C4  UNL     1      12.821  23.992   4.525  1.00  0.00     0.061 C 
HETATM   21  C5  UNL     1      13.061  25.171   5.492  1.00  0.00     0.046 C 
BRANCH  20  22
HETATM   22  C3  UNL     1      14.216  23.514   4.163  1.00  0.00     0.064 C 
BRANCH  22  23
HETATM   23  C2  UNL     1      15.177  23.778   5.266  1.00  0.00    -0.034 C 
HETATM   24  C1  UNL     1      16.465  23.819   5.003  1.00  0.00     0.007 C 
ENDBRANCH  22  23
ENDBRANCH  20  22
BRANCH  20  25
HETATM   25  O1  UNL     1      12.132  23.058   5.248  1.00  0.00    -0.390 OA
ATOM     26  H1  UNL     1      11.200  23.242   5.269  1.00  0.00     0.210 HD
ENDBRANCH  20  25
ENDBRANCH   1  20
BRANCH   6  27
HETATM   27  O2  UNL     1       6.254  25.546   1.301  1.00  0.00    -0.395 OA
ATOM     28  H2  UNL     1       5.421  25.754   1.705  1.00  0.00     0.210 HD
ENDBRANCH   6  27
BRANCH  12  29
HETATM   29  O5  UNL     1       7.909  27.289   6.315  1.00  0.00    -0.351 OA
BRANCH  29  30
HETATM   30  C20 UNL     1       8.567  27.917   7.363  1.00  0.00     0.033 C 
HETATM   31  C21 UNL     1       9.181  29.081   7.225  1.00  0.00     0.045 C 
HETATM   32  C22 UNL     1       8.595  27.277   8.695  1.00  0.00     0.075 C 
ENDBRANCH  29  30
ENDBRANCH  12  29
BRANCH   8  33
HETATM   33  C15 UNL     1       4.509  27.115   2.359  1.00  0.00     0.267 C 
HETATM   34  O3  UNL     1       4.445  28.096   1.543  1.00  0.00    -0.264 OA
BRANCH  33  35
HETATM   35  O4  UNL     1       3.631  26.081   2.070  1.00  0.00    -0.326 OA
HETATM   36  C16 UNL     1       2.769  26.108   0.940  1.00  0.00     0.213 C 
ENDBRANCH  33  35
ENDBRANCH   8  33
TORSDOF 9
ENDMDL
MODEL 4
REMARK VINA RESULT: -7.162489865      2.362      7.991
REMARK  9 active torsions:
REMARK  status: ('A' for Active; 'I' for Inactive)
REMARK    1  A    between atoms: C2_2  and  C3_3 
REMARK    2  A    between atoms: C3_3  and  C4_4 
REMARK    3  A    between atoms: C4_4  and  O1_6 
REMARK    4  A    between atoms: C4_4  and  C6_8 
REMARK    5  A    between atoms: C11_13  and  O2_14 
REMARK    6  A    between atoms: C13_17  and  C15_19 
REMARK    7  A    between atoms: C15_19  and  O4_21 
REMARK    8  A    between atoms: C19_25  and  O5_26 
REMARK    9  A    between atoms: O5_26  and  C20_27 
ROOT
HETATM    1  C6  UNL     1      12.624  25.136   5.476  1.00  0.00     0.029 C 
HETATM    2  C7  UNL     1      12.400  26.593   5.095  1.00  0.00     0.014 C 
HETATM    3  C8  UNL     1      11.352  26.051   4.147  1.00  0.00    -0.001 C 
HETATM    4  C9  UNL     1      10.110  26.836   3.962  1.00  0.00    -0.003 C 
HETATM    5  C10 UNL     1       9.134  26.079   3.156  1.00  0.00     0.037 C 
HETATM    6  C11 UNL     1       7.755  26.666   3.072  1.00  0.00     0.124 C 
HETATM    7  C12 UNL     1       7.325  27.175   4.431  1.00  0.00     0.043 C 
HETATM    8  C13 UNL     1       5.901  27.553   4.545  1.00  0.00     0.051 C 
HETATM    9  C14 UNL     1       5.192  26.814   5.695  1.00  0.00     0.026 C 
HETATM   10  C17 UNL     1       5.698  29.023   4.879  1.00  0.00     0.022 C 
HETATM   11  C18 UNL     1       6.470  29.405   6.103  1.00  0.00     0.034 C 
HETATM   12  C19 UNL     1       7.881  28.965   6.131  1.00  0.00     0.137 C 
HETATM   13  C23 UNL     1       8.329  28.135   4.987  1.00  0.00    -0.006 C 
HETATM   14  C24 UNL     1       8.817  29.157   3.945  1.00  0.00     0.019 C 
HETATM   15  C25 UNL     1       9.593  27.335   5.297  1.00  0.00     0.001 C 
HETATM   16  C26 UNL     1       9.517  26.318   6.340  1.00  0.00     0.007 C 
HETATM   17  C27 UNL     1      10.129  24.982   6.055  1.00  0.00     0.010 C 
HETATM   18  C28 UNL     1      11.220  24.879   5.103  1.00  0.00    -0.034 C 
HETATM   19  C29 UNL     1      11.160  23.560   4.306  1.00  0.00     0.016 C 
ENDROOT
BRANCH   1  20
HETATM   20  C4  UNL     1      13.164  24.864   6.809  1.00  0.00     0.061 C 
HETATM   21  C5  UNL     1      13.090  26.191   7.594  1.00  0.00     0.046 C 
BRANCH  20  22
HETATM   22  C3  UNL     1      14.651  24.578   6.696  1.00  0.00     0.064 C 
BRANCH  22  23
HETATM   23  C2  UNL     1      14.977  23.948   5.390  1.00  0.00    -0.034 C 
HETATM   24  C1  UNL     1      16.237  23.801   5.041  1.00  0.00     0.007 C 
ENDBRANCH  22  23
ENDBRANCH  20  22
BRANCH  20  25
HETATM   25  O1  UNL     1      12.523  23.940   7.585  1.00  0.00    -0.390 OA
ATOM     26  H1  UNL     1      11.653  23.743   7.258  1.00  0.00     0.210 HD
ENDBRANCH  20  25
ENDBRANCH   1  20
BRANCH   6  27
HETATM   27  O2  UNL     1       6.888  25.571   2.803  1.00  0.00    -0.395 OA
ATOM     28  H2  UNL     1       6.121  25.947   2.389  1.00  0.00     0.210 HD
ENDBRANCH   6  27
BRANCH  12  29
HETATM   29  O5  UNL     1       8.135  28.404   7.423  1.00  0.00    -0.351 OA
BRANCH  29  30
HETATM   30  C20 UNL     1       8.707  29.257   8.356  1.00  0.00     0.033 C 
HETATM   31  C21 UNL     1      10.013  29.316   8.562  1.00  0.00     0.045 C 
HETATM   32  C22 UNL     1       7.841  30.144   9.161  1.00  0.00     0.075 C 
ENDBRANCH  29  30
ENDBRANCH  12  29
BRANCH   8  33
HETATM   33  C15 UNL     1       5.067  27.311   3.343  1.00  0.00     0.267 C 
HETATM   34  O3  UNL     1       5.165  28.012   2.280  1.00  0.00    -0.264 OA
BRANCH  33  35
HETATM   35  O4  UNL     1       4.115  26.305   3.273  1.00  0.00    -0.326 OA
HETATM   36  C16 UNL     1       3.120  26.270   2.257  1.00  0.00     0.213 C 
ENDBRANCH  33  35
ENDBRANCH   8  33
TORSDOF 9
ENDMDL
MODEL 5
REMARK VINA RESULT: -7.116352529      2.679      8.167
REMARK  9 active torsions:
REMARK  status: ('A' for Active; 'I' for Inactive)
REMARK    1  A    between atoms: C2_2  and  C3_3 
REMARK    2  A    between atoms: C3_3  and  C4_4 
REMARK    3  A    between atoms: C4_4  and  O1_6 
REMARK    4  A    between atoms: C4_4  and  C6_8 
REMARK    5  A    between atoms: C11_13  and  O2_14 
REMARK    6  A    between atoms: C13_17  and  C15_19 
REMARK    7  A    between atoms: C15_19  and  O4_21 
REMARK    8  A    between atoms: C19_25  and  O5_26 
REMARK    9  A    between atoms: O5_26  and  C20_27 
ROOT
HETATM    1  C6  UNL     1      12.724  25.000   4.306  1.00  0.00     0.029 C 
HETATM    2  C7  UNL     1      12.337  26.468   4.194  1.00  0.00     0.014 C 
HETATM    3  C8  UNL     1      11.433  26.013   3.069  1.00  0.00    -0.001 C 
HETATM    4  C9  UNL     1      10.114  26.671   2.928  1.00  0.00    -0.003 C 
HETATM    5  C10 UNL     1       9.301  25.987   1.906  1.00  0.00     0.037 C 
HETATM    6  C11 UNL     1       7.866  26.416   1.812  1.00  0.00     0.124 C 
HETATM    7  C12 UNL     1       7.285  26.587   3.199  1.00  0.00     0.043 C 
HETATM    8  C13 UNL     1       5.819  26.767   3.255  1.00  0.00     0.051 C 
HETATM    9  C14 UNL     1       5.139  25.734   4.172  1.00  0.00     0.026 C 
HETATM   10  C17 UNL     1       5.404  28.106   3.846  1.00  0.00     0.022 C 
HETATM   11  C18 UNL     1       6.038  28.318   5.186  1.00  0.00     0.034 C 
HETATM   12  C19 UNL     1       7.489  28.046   5.256  1.00  0.00     0.137 C 
HETATM   13  C23 UNL     1       8.116  27.522   4.018  1.00  0.00    -0.006 C 
HETATM   14  C24 UNL     1       8.534  28.783   3.242  1.00  0.00     0.019 C 
HETATM   15  C25 UNL     1       9.451  26.827   4.281  1.00  0.00     0.001 C 
HETATM   16  C26 UNL     1       9.439  25.618   5.097  1.00  0.00     0.007 C 
HETATM   17  C27 UNL     1      10.238  24.447   4.617  1.00  0.00     0.010 C 
HETATM   18  C28 UNL     1      11.393  24.665   3.765  1.00  0.00    -0.034 C 
HETATM   19  C29 UNL     1      11.558  23.537   2.726  1.00  0.00     0.016 C 
ENDROOT
BRANCH   1  20
HETATM   20  C4  UNL     1      13.206  24.528   5.605  1.00  0.00     0.061 C 
HETATM   21  C5  UNL     1      13.052  25.707   6.588  1.00  0.00     0.046 C 
BRANCH  20  22
HETATM   22  C3  UNL     1      14.705  24.298   5.526  1.00  0.00     0.064 C 
BRANCH  22  23
HETATM   23  C2  UNL     1      15.027  23.177   4.605  1.00  0.00    -0.034 C 
HETATM   24  C1  UNL     1      15.873  22.246   4.992  1.00  0.00     0.007 C 
ENDBRANCH  22  23
ENDBRANCH  20  22
BRANCH  20  25
HETATM   25  O1  UNL     1      12.557  23.476   6.186  1.00  0.00    -0.390 OA
ATOM     26  H1  UNL     1      11.810  23.191   5.673  1.00  0.00     0.210 HD
ENDBRANCH  20  25
ENDBRANCH   1  20
BRANCH   6  27
HETATM   27  O2  UNL     1       7.169  25.306   1.260  1.00  0.00    -0.395 OA
ATOM     28  H2  UNL     1       6.443  25.139   1.849  1.00  0.00     0.210 HD
ENDBRANCH   6  27
BRANCH  12  29
HETATM   29  O5  UNL     1       7.728  27.268   6.433  1.00  0.00    -0.351 OA
BRANCH  29  30
HETATM   30  C20 UNL     1       8.320  27.937   7.495  1.00  0.00     0.033 C 
HETATM   31  C21 UNL     1       8.600  27.344   8.644  1.00  0.00     0.045 C 
HETATM   32  C22 UNL     1       8.660  29.369   7.357  1.00  0.00     0.075 C 
ENDBRANCH  29  30
ENDBRANCH  12  29
BRANCH   8  33
HETATM   33  C15 UNL     1       5.105  26.679   1.958  1.00  0.00     0.267 C 
HETATM   34  O3  UNL     1       5.043  27.653   1.134  1.00  0.00    -0.264 OA
BRANCH  33  35
HETATM   35  O4  UNL     1       4.446  25.535   1.534  1.00  0.00    -0.326 OA
HETATM   36  C16 UNL     1       3.825  25.445   0.258  1.00  0.00     0.213 C 
ENDBRANCH  33  35
ENDBRANCH   8  33
TORSDOF 9
ENDMDL
