MODEL 1
REMARK VINA RESULT: -8.458593293      0.000      0.000
REMARK  12 active torsions:
REMARK  status: ('A' for Active; 'I' for Inactive)
REMARK    1  A    between atoms: C4_4  and  C5_5 
REMARK    2  A    between atoms: C7_7  and  C8_8 
REMARK    3  A    between atoms: C8_8  and  O1_9 
REMARK    4  A    between atoms: C10_12  and  C11_13 
REMARK    5  A    between atoms: C11_13  and  C12_14 
REMARK    6  A    between atoms: C12_14  and  C13_15 
REMARK    7  A    between atoms: C15_17  and  C16_18 
REMARK    8  A    between atoms: C18_20  and  O2_21 
REMARK    9  A    between atoms: C19_23  and  C20_24 
REMARK   10  A    between atoms: C20_24  and  O4_26 
REMARK   11  A    between atoms: O4_26  and  C21_27 
REMARK   12  A    between atoms: C26_32  and  C27_33 
ROOT
HETATM    1  C16 UNL     1      14.891  23.038   6.767  1.00  0.00    -0.068 C 
HETATM    2  C17 UNL     1      15.841  23.681   5.780  1.00  0.00     0.071 C 
HETATM    3  C18 UNL     1      16.584  22.580   5.009  1.00  0.00     0.161 C 
HETATM    4  C19 UNL     1      16.947  21.481   5.930  1.00  0.00     0.043 C 
HETATM    5  C25 UNL     1      16.460  21.264   7.115  1.00  0.00    -0.001 C 
HETATM    6  C26 UNL     1      15.425  22.120   7.749  1.00  0.00     0.045 C 
ENDROOT
BRANCH   1   7
HETATM    7  C15 UNL     1      13.705  23.813   7.079  1.00  0.00     0.018 C 
HETATM    8  C13 UNL     1      12.477  23.852   6.648  1.00  0.00    -0.021 C 
HETATM    9  C14 UNL     1      12.130  22.937   5.524  1.00  0.00     0.057 C 
BRANCH   8  10
HETATM   10  C12 UNL     1      11.536  24.761   7.196  1.00  0.00    -0.146 C 
BRANCH  10  11
HETATM   11  C11 UNL     1      10.710  25.560   7.676  1.00  0.00     0.117 C 
BRANCH  11  12
HETATM   12  C10 UNL     1      10.011  26.670   6.948  1.00  0.00     0.133 C 
HETATM   13  C9  UNL     1       9.140  27.542   7.744  1.00  0.00     0.039 C 
HETATM   14  C7  UNL     1       8.338  28.405   6.772  1.00  0.00     0.014 C 
HETATM   15  C6  UNL     1       9.002  28.429   5.411  1.00  0.00     0.042 C 
HETATM   16  C5  UNL     1       9.101  27.017   4.879  1.00  0.00     0.145 C 
HETATM   17  O5  UNL     1       9.241  26.095   5.928  1.00  0.00    -0.376 OA
BRANCH  14  18
HETATM   18  C8  UNL     1       8.204  29.809   7.316  1.00  0.00     0.168 C 
BRANCH  18  19
HETATM   19  O1  UNL     1       9.419  30.167   7.854  1.00  0.00    -0.400 OA
ATOM     20  H1  UNL     1       9.913  29.369   8.006  1.00  0.00     0.209 HD
ENDBRANCH  18  19
ENDBRANCH  14  18
BRANCH  16  21
HETATM   21  C4  UNL     1      10.269  26.844   3.983  1.00  0.00     0.007 C 
HETATM   22  C2  UNL     1      10.500  25.778   3.242  1.00  0.00    -0.089 C 
HETATM   23  C1  UNL     1       9.632  24.574   3.179  1.00  0.00     0.042 C 
HETATM   24  C3  UNL     1      11.730  25.737   2.369  1.00  0.00     0.042 C 
ENDBRANCH  16  21
ENDBRANCH  11  12
ENDBRANCH  10  11
ENDBRANCH   8  10
ENDBRANCH   1   7
BRANCH   6  25
HETATM   25  C27 UNL     1      15.942  22.559   9.058  1.00  0.00    -0.041 C 
HETATM   26  C28 UNL     1      16.867  23.705   9.127  1.00  0.00     0.015 C 
HETATM   27  C29 UNL     1      16.747  21.364   9.614  1.00  0.00     0.015 C 
HETATM   28  C30 UNL     1      14.840  22.786  10.093  1.00  0.00     0.015 C 
ENDBRANCH   6  25
BRANCH   3  29
HETATM   29  O2  UNL     1      15.871  22.150   3.900  1.00  0.00    -0.390 OA
ATOM     30  H2  UNL     1      16.257  21.377   3.506  1.00  0.00     0.210 HD
ENDBRANCH   3  29
BRANCH   4  31
HETATM   31  C20 UNL     1      18.003  20.572   5.420  1.00  0.00     0.292 C 
HETATM   32  O3  UNL     1      18.883  20.075   6.164  1.00  0.00    -0.259 OA
BRANCH  31  33
HETATM   33  O4  UNL     1      18.084  20.213   4.084  1.00  0.00    -0.307 OA
BRANCH  33  34
HETATM   34  C21 UNL     1      17.539  19.045   3.565  1.00  0.00     0.060 C 
HETATM   35  C22 UNL     1      18.441  17.870   3.523  1.00  0.00     0.046 C 
HETATM   36  C23 UNL     1      17.129  19.348   2.116  1.00  0.00     0.046 C 
HETATM   37  C24 UNL     1      16.244  18.618   4.245  1.00  0.00     0.046 C 
ENDBRANCH  33  34
ENDBRANCH  31  33
ENDBRANCH   4  31
TORSDOF 12
ENDMDL
MODEL 2
REMARK VINA RESULT: -8.404537885      1.273      1.809
REMARK  12 active torsions:
REMARK  status: ('A' for Active; 'I' for Inactive)
REMARK    1  A    between atoms: C4_4  and  C5_5 
REMARK    2  A    between atoms: C7_7  and  C8_8 
REMARK    3  A    between atoms: C8_8  and  O1_9 
REMARK    4  A    between atoms: C10_12  and  C11_13 
REMARK    5  A    between atoms: C11_13  and  C12_14 
REMARK    6  A    between atoms: C12_14  and  C13_15 
REMARK    7  A    between atoms: C15_17  and  C16_18 
REMARK    8  A    between atoms: C18_20  and  O2_21 
REMARK    9  A    between atoms: C19_23  and  C20_24 
REMARK   10  A    between atoms: C20_24  and  O4_26 
REMARK   11  A    between atoms: O4_26  and  C21_27 
REMARK   12  A    between atoms: C26_32  and  C27_33 
ROOT
HETATM    1  C16 UNL     1      14.803  23.470   6.437  1.00  0.00    -0.068 C 
HETATM    2  C17 UNL     1      15.885  23.882   5.464  1.00  0.00     0.071 C 
HETATM    3  C18 UNL     1      16.171  22.715   4.508  1.00  0.00     0.161 C 
HETATM    4  C19 UNL     1      16.158  21.439   5.256  1.00  0.00     0.043 C 
HETATM    5  C25 UNL     1      15.663  21.236   6.441  1.00  0.00    -0.001 C 
HETATM    6  C26 UNL     1      15.013  22.295   7.255  1.00  0.00     0.045 C 
ENDROOT
BRANCH   1   7
HETATM    7  C15 UNL     1      13.973  24.551   6.935  1.00  0.00     0.018 C 
HETATM    8  C13 UNL     1      12.694  24.782   7.016  1.00  0.00    -0.021 C 
HETATM    9  C14 UNL     1      11.786  23.751   6.438  1.00  0.00     0.057 C 
BRANCH   8  10
HETATM   10  C12 UNL     1      12.201  25.984   7.586  1.00  0.00    -0.146 C 
BRANCH  10  11
HETATM   11  C11 UNL     1      11.767  27.039   8.085  1.00  0.00     0.117 C 
BRANCH  11  12
HETATM   12  C10 UNL     1      10.436  27.675   7.817  1.00  0.00     0.133 C 
HETATM   13  C9  UNL     1       9.715  28.223   8.973  1.00  0.00     0.039 C 
HETATM   14  C7  UNL     1       8.298  28.563   8.515  1.00  0.00     0.014 C 
HETATM   15  C6  UNL     1       8.241  28.674   7.006  1.00  0.00     0.042 C 
HETATM   16  C5  UNL     1       8.676  27.363   6.391  1.00  0.00     0.145 C 
HETATM   17  O5  UNL     1       9.618  26.716   7.206  1.00  0.00    -0.376 OA
BRANCH  14  18
HETATM   18  C8  UNL     1       7.844  29.854   9.155  1.00  0.00     0.168 C 
BRANCH  18  19
HETATM   19  O1  UNL     1       8.130  30.878   8.281  1.00  0.00    -0.400 OA
ATOM     20  H1  UNL     1       8.810  31.412   8.675  1.00  0.00     0.209 HD
ENDBRANCH  18  19
ENDBRANCH  14  18
BRANCH  16  21
HETATM   21  C4  UNL     1       9.304  27.557   5.062  1.00  0.00     0.007 C 
HETATM   22  C2  UNL     1       9.421  26.621   4.140  1.00  0.00    -0.089 C 
HETATM   23  C1  UNL     1       8.947  25.220   4.277  1.00  0.00     0.042 C 
HETATM   24  C3  UNL     1      10.080  26.957   2.825  1.00  0.00     0.042 C 
ENDBRANCH  16  21
ENDBRANCH  11  12
ENDBRANCH  10  11
ENDBRANCH   8  10
ENDBRANCH   1   7
BRANCH   6  25
HETATM   25  C27 UNL     1      15.693  22.340   8.562  1.00  0.00    -0.041 C 
HETATM   26  C28 UNL     1      16.903  23.168   8.724  1.00  0.00     0.015 C 
HETATM   27  C29 UNL     1      16.159  20.895   8.844  1.00  0.00     0.015 C 
HETATM   28  C30 UNL     1      14.746  22.665   9.718  1.00  0.00     0.015 C 
ENDBRANCH   6  25
BRANCH   3  29
HETATM   29  O2  UNL     1      15.318  22.716   3.415  1.00  0.00    -0.390 OA
ATOM     30  H2  UNL     1      14.414  22.863   3.669  1.00  0.00     0.210 HD
ENDBRANCH   3  29
BRANCH   4  31
HETATM   31  C20 UNL     1      16.812  20.306   4.558  1.00  0.00     0.292 C 
HETATM   32  O3  UNL     1      16.826  20.201   3.307  1.00  0.00    -0.259 OA
BRANCH  31  33
HETATM   33  O4  UNL     1      17.453  19.288   5.246  1.00  0.00    -0.307 OA
BRANCH  33  34
HETATM   34  C21 UNL     1      18.832  19.205   5.390  1.00  0.00     0.060 C 
HETATM   35  C22 UNL     1      19.570  18.603   4.255  1.00  0.00     0.046 C 
HETATM   36  C23 UNL     1      19.100  18.320   6.619  1.00  0.00     0.046 C 
HETATM   37  C24 UNL     1      19.495  20.534   5.729  1.00  0.00     0.046 C 
ENDBRANCH  33  34
ENDBRANCH  31  33
ENDBRANCH   4  31
TORSDOF 12
ENDMDL
MODEL 3
REMARK VINA RESULT: -8.153569671      1.613     10.003
REMARK  12 active torsions:
REMARK  status: ('A' for Active; 'I' for Inactive)
REMARK    1  A    between atoms: C4_4  and  C5_5 
REMARK    2  A    between atoms: C7_7  and  C8_8 
REMARK    3  A    between atoms: C8_8  and  O1_9 
REMARK    4  A    between atoms: C10_12  and  C11_13 
REMARK    5  A    between atoms: C11_13  and  C12_14 
REMARK    6  A    between atoms: C12_14  and  C13_15 
REMARK    7  A    between atoms: C15_17  and  C16_18 
REMARK    8  A    between atoms: C18_20  and  O2_21 
REMARK    9  A    between atoms: C19_23  and  C20_24 
REMARK   10  A    between atoms: C20_24  and  O4_26 
REMARK   11  A    between atoms: O4_26  and  C21_27 
REMARK   12  A    between atoms: C26_32  and  C27_33 
ROOT
HETATM    1  C16 UNL     1      11.662  25.885   4.619  1.00  0.00    -0.068 C 
HETATM    2  C17 UNL     1      10.342  25.445   4.025  1.00  0.00     0.071 C 
HETATM    3  C18 UNL     1       9.473  26.684   3.764  1.00  0.00     0.161 C 
HETATM    4  C19 UNL     1       9.613  27.640   4.884  1.00  0.00     0.043 C 
HETATM    5  C25 UNL     1      10.544  27.648   5.790  1.00  0.00    -0.001 C 
HETATM    6  C26 UNL     1      11.652  26.660   5.841  1.00  0.00     0.045 C 
ENDROOT
BRANCH   1   7
HETATM    7  C15 UNL     1      12.791  25.020   4.328  1.00  0.00     0.018 C 
HETATM    8  C13 UNL     1      13.091  23.773   4.551  1.00  0.00    -0.021 C 
HETATM    9  C14 UNL     1      12.106  22.974   5.334  1.00  0.00     0.057 C 
BRANCH   8  10
HETATM   10  C12 UNL     1      14.323  23.225   4.109  1.00  0.00    -0.146 C 
BRANCH  10  11
HETATM   11  C11 UNL     1      15.404  22.744   3.720  1.00  0.00     0.117 C 
BRANCH  11  12
HETATM   12  C10 UNL     1      16.236  21.720   4.433  1.00  0.00     0.133 C 
HETATM   13  C9  UNL     1      16.545  20.487   3.699  1.00  0.00     0.039 C 
HETATM   14  C7  UNL     1      17.152  19.498   4.693  1.00  0.00     0.014 C 
HETATM   15  C6  UNL     1      17.656  20.224   5.923  1.00  0.00     0.042 C 
HETATM   16  C5  UNL     1      16.507  20.963   6.573  1.00  0.00     0.145 C 
HETATM   17  O5  UNL     1      15.568  21.372   5.614  1.00  0.00    -0.376 OA
BRANCH  14  18
HETATM   18  C8  UNL     1      18.277  18.731   4.037  1.00  0.00     0.168 C 
BRANCH  18  19
HETATM   19  O1  UNL     1      18.810  19.531   3.053  1.00  0.00    -0.400 OA
ATOM     20  H1  UNL     1      19.564  19.080   2.691  1.00  0.00     0.209 HD
ENDBRANCH  18  19
ENDBRANCH  14  18
BRANCH  16  21
HETATM   21  C4  UNL     1      16.965  22.179   7.286  1.00  0.00     0.007 C 
HETATM   22  C2  UNL     1      16.265  22.828   8.196  1.00  0.00    -0.089 C 
HETATM   23  C1  UNL     1      14.903  22.453   8.657  1.00  0.00     0.042 C 
HETATM   24  C3  UNL     1      16.855  24.053   8.849  1.00  0.00     0.042 C 
ENDBRANCH  16  21
ENDBRANCH  11  12
ENDBRANCH  10  11
ENDBRANCH   8  10
ENDBRANCH   1   7
BRANCH   6  25
HETATM   25  C27 UNL     1      11.647  26.044   7.180  1.00  0.00    -0.041 C 
HETATM   26  C28 UNL     1      10.712  24.940   7.469  1.00  0.00     0.015 C 
HETATM   27  C29 UNL     1      11.247  27.170   8.159  1.00  0.00     0.015 C 
HETATM   28  C30 UNL     1      13.037  25.613   7.647  1.00  0.00     0.015 C 
ENDBRANCH   6  25
BRANCH   3  29
HETATM   29  O2  UNL     1       9.735  27.251   2.526  1.00  0.00    -0.390 OA
ATOM     30  H2  UNL     1       9.219  26.854   1.835  1.00  0.00     0.210 HD
ENDBRANCH   3  29
BRANCH   4  31
HETATM   31  C20 UNL     1       8.540  28.662   4.961  1.00  0.00     0.292 C 
HETATM   32  O3  UNL     1       7.631  28.753   4.101  1.00  0.00    -0.259 OA
BRANCH  31  33
HETATM   33  O4  UNL     1       8.475  29.585   5.993  1.00  0.00    -0.307 OA
BRANCH  33  34
HETATM   34  C21 UNL     1       7.690  29.418   7.128  1.00  0.00     0.060 C 
HETATM   35  C22 UNL     1       6.434  30.203   7.170  1.00  0.00     0.046 C 
HETATM   36  C23 UNL     1       8.540  29.865   8.328  1.00  0.00     0.046 C 
HETATM   37  C24 UNL     1       7.346  27.964   7.427  1.00  0.00     0.046 C 
ENDBRANCH  33  34
ENDBRANCH  31  33
ENDBRANCH   4  31
TORSDOF 12
ENDMDL
MODEL 4
REMARK VINA RESULT: -8.119676294      1.624     10.236
REMARK  12 active torsions:
REMARK  status: ('A' for Active; 'I' for Inactive)
REMARK    1  A    between atoms: C4_4  and  C5_5 
REMARK    2  A    between atoms: C7_7  and  C8_8 
REMARK    3  A    between atoms: C8_8  and  O1_9 
REMARK    4  A    between atoms: C10_12  and  C11_13 
REMARK    5  A    between atoms: C11_13  and  C12_14 
REMARK    6  A    between atoms: C12_14  and  C13_15 
REMARK    7  A    between atoms: C15_17  and  C16_18 
REMARK    8  A    between atoms: C18_20  and  O2_21 
REMARK    9  A    between atoms: C19_23  and  C20_24 
REMARK   10  A    between atoms: C20_24  and  O4_26 
REMARK   11  A    between atoms: O4_26  and  C21_27 
REMARK   12  A    between atoms: C26_32  and  C27_33 
ROOT
HETATM    1  C16 UNL     1      11.716  24.816   5.385  1.00  0.00    -0.068 C 
HETATM    2  C17 UNL     1      12.417  26.114   5.720  1.00  0.00     0.071 C 
HETATM    3  C18 UNL     1      11.398  27.093   6.320  1.00  0.00     0.161 C 
HETATM    4  C19 UNL     1      10.117  26.996   5.586  1.00  0.00     0.043 C 
HETATM    5  C25 UNL     1       9.745  26.038   4.791  1.00  0.00    -0.001 C 
HETATM    6  C26 UNL     1      10.582  24.849   4.487  1.00  0.00     0.045 C 
ENDROOT
BRANCH   1   7
HETATM    7  C15 UNL     1      12.549  23.629   5.445  1.00  0.00     0.018 C 
HETATM    8  C13 UNL     1      13.269  23.042   6.357  1.00  0.00    -0.021 C 
HETATM    9  C14 UNL     1      13.349  23.712   7.685  1.00  0.00     0.057 C 
BRANCH   8  10
HETATM   10  C12 UNL     1      13.980  21.847   6.073  1.00  0.00    -0.146 C 
BRANCH  10  11
HETATM   11  C11 UNL     1      14.603  20.798   5.823  1.00  0.00     0.117 C 
BRANCH  11  12
HETATM   12  C10 UNL     1      16.074  20.672   5.562  1.00  0.00     0.133 C 
HETATM   13  C9  UNL     1      16.492  19.665   4.579  1.00  0.00     0.039 C 
HETATM   14  C7  UNL     1      18.010  19.527   4.677  1.00  0.00     0.014 C 
HETATM   15  C6  UNL     1      18.610  20.736   5.363  1.00  0.00     0.042 C 
HETATM   16  C5  UNL     1      18.019  20.869   6.749  1.00  0.00     0.145 C 
HETATM   17  O5  UNL     1      16.703  20.383   6.780  1.00  0.00    -0.376 OA
BRANCH  14  18
HETATM   18  C8  UNL     1      18.604  19.356   3.297  1.00  0.00     0.168 C 
BRANCH  18  19
HETATM   19  O1  UNL     1      19.790  18.673   3.434  1.00  0.00    -0.400 OA
ATOM     20  H1  UNL     1      20.036  18.703   4.352  1.00  0.00     0.209 HD
ENDBRANCH  18  19
ENDBRANCH  14  18
BRANCH  16  21
HETATM   21  C4  UNL     1      17.977  22.281   7.199  1.00  0.00     0.007 C 
HETATM   22  C2  UNL     1      17.369  22.707   8.288  1.00  0.00    -0.089 C 
HETATM   23  C1  UNL     1      16.624  21.848   9.245  1.00  0.00     0.042 C 
HETATM   24  C3  UNL     1      17.409  24.176   8.632  1.00  0.00     0.042 C 
ENDBRANCH  16  21
ENDBRANCH  11  12
ENDBRANCH  10  11
ENDBRANCH   8  10
ENDBRANCH   1   7
BRANCH   6  25
HETATM   25  C27 UNL     1      10.717  24.755   3.022  1.00  0.00    -0.041 C 
HETATM   26  C28 UNL     1      11.763  25.538   2.337  1.00  0.00     0.015 C 
HETATM   27  C29 UNL     1       9.385  25.278   2.442  1.00  0.00     0.015 C 
HETATM   28  C30 UNL     1      10.808  23.314   2.519  1.00  0.00     0.015 C 
ENDBRANCH   6  25
BRANCH   3  29
HETATM   29  O2  UNL     1      11.257  26.924   7.689  1.00  0.00    -0.390 OA
ATOM     30  H2  UNL     1      10.348  26.969   7.962  1.00  0.00     0.210 HD
ENDBRANCH   3  29
BRANCH   4  31
HETATM   31  C20 UNL     1       9.204  28.148   5.783  1.00  0.00     0.292 C 
HETATM   32  O3  UNL     1       8.207  28.353   5.048  1.00  0.00    -0.259 OA
BRANCH  31  33
HETATM   33  O4  UNL     1       9.395  29.076   6.795  1.00  0.00    -0.307 OA
BRANCH  33  34
HETATM   34  C21 UNL     1       8.571  29.182   7.909  1.00  0.00     0.060 C 
HETATM   35  C22 UNL     1       7.434  30.125   7.788  1.00  0.00     0.046 C 
HETATM   36  C23 UNL     1       9.448  29.681   9.068  1.00  0.00     0.046 C 
HETATM   37  C24 UNL     1       8.023  27.846   8.396  1.00  0.00     0.046 C 
ENDBRANCH  33  34
ENDBRANCH  31  33
ENDBRANCH   4  31
TORSDOF 12
ENDMDL
MODEL 5
REMARK VINA RESULT: -7.928907639      1.695     10.145
REMARK  12 active torsions:
REMARK  status: ('A' for Active; 'I' for Inactive)
REMARK    1  A    between atoms: C4_4  and  C5_5 
REMARK    2  A    between atoms: C7_7  and  C8_8 
REMARK    3  A    between atoms: C8_8  and  O1_9 
REMARK    4  A    between atoms: C10_12  and  C11_13 
REMARK    5  A    between atoms: C11_13  and  C12_14 
REMARK    6  A    between atoms: C12_14  and  C13_15 
REMARK    7  A    between atoms: C15_17  and  C16_18 
REMARK    8  A    between atoms: C18_20  and  O2_21 
REMARK    9  A    between atoms: C19_23  and  C20_24 
REMARK   10  A    between atoms: C20_24  and  O4_26 
REMARK   11  A    between atoms: O4_26  and  C21_27 
REMARK   12  A    between atoms: C26_32  and  C27_33 
ROOT
HETATM    1  C16 UNL     1      12.277  25.002   5.318  1.00  0.00    -0.068 C 
HETATM    2  C17 UNL     1      12.677  26.434   5.597  1.00  0.00     0.071 C 
HETATM    3  C18 UNL     1      11.702  27.038   6.617  1.00  0.00     0.161 C 
HETATM    4  C19 UNL     1      10.323  26.596   6.316  1.00  0.00     0.043 C 
HETATM    5  C25 UNL     1       9.973  25.605   5.551  1.00  0.00    -0.001 C 
HETATM    6  C26 UNL     1      10.940  24.734   4.835  1.00  0.00     0.045 C 
ENDROOT
BRANCH   1   7
HETATM    7  C15 UNL     1      13.365  24.116   4.946  1.00  0.00     0.018 C 
HETATM    8  C13 UNL     1      13.801  22.957   5.348  1.00  0.00    -0.021 C 
HETATM    9  C14 UNL     1      13.091  22.334   6.501  1.00  0.00     0.057 C 
BRANCH   8  10
HETATM   10  C12 UNL     1      14.929  22.347   4.741  1.00  0.00    -0.146 C 
BRANCH  10  11
HETATM   11  C11 UNL     1      15.920  21.814   4.208  1.00  0.00     0.117 C 
BRANCH  11  12
HETATM   12  C10 UNL     1      17.062  21.143   4.911  1.00  0.00     0.133 C 
HETATM   13  C9  UNL     1      17.611  19.934   4.285  1.00  0.00     0.039 C 
HETATM   14  C7  UNL     1      18.557  19.281   5.291  1.00  0.00     0.014 C 
HETATM   15  C6  UNL     1      18.971  20.278   6.353  1.00  0.00     0.042 C 
HETATM   16  C5  UNL     1      17.740  20.791   7.066  1.00  0.00     0.145 C 
HETATM   17  O5  UNL     1      16.634  20.810   6.203  1.00  0.00    -0.376 OA
BRANCH  14  18
HETATM   18  C8  UNL     1      19.773  18.734   4.579  1.00  0.00     0.168 C 
BRANCH  18  19
HETATM   19  O1  UNL     1      19.618  18.986   3.235  1.00  0.00    -0.400 OA
ATOM     20  H1  UNL     1      20.211  18.412   2.764  1.00  0.00     0.209 HD
ENDBRANCH  18  19
ENDBRANCH  14  18
BRANCH  16  21
HETATM   21  C4  UNL     1      17.928  22.171   7.571  1.00  0.00     0.007 C 
HETATM   22  C2  UNL     1      17.111  22.789   8.401  1.00  0.00    -0.089 C 
HETATM   23  C1  UNL     1      15.866  22.207   8.968  1.00  0.00     0.042 C 
HETATM   24  C3  UNL     1      17.426  24.197   8.840  1.00  0.00     0.042 C 
ENDBRANCH  16  21
ENDBRANCH  11  12
ENDBRANCH  10  11
ENDBRANCH   8  10
ENDBRANCH   1   7
BRANCH   6  25
HETATM   25  C27 UNL     1      10.588  24.750   3.403  1.00  0.00    -0.041 C 
HETATM   26  C28 UNL     1      11.209  25.747   2.512  1.00  0.00     0.015 C 
HETATM   27  C29 UNL     1       9.074  25.052   3.346  1.00  0.00     0.015 C 
HETATM   28  C30 UNL     1      10.724  23.380   2.739  1.00  0.00     0.015 C 
ENDBRANCH   6  25
BRANCH   3  29
HETATM   29  O2  UNL     1      12.087  26.774   7.923  1.00  0.00    -0.390 OA
ATOM     30  H2  UNL     1      11.945  27.520   8.494  1.00  0.00     0.210 HD
ENDBRANCH   3  29
BRANCH   4  31
HETATM   31  C20 UNL     1       9.260  27.413   6.949  1.00  0.00     0.292 C 
HETATM   32  O3  UNL     1       9.474  28.147   7.945  1.00  0.00    -0.259 OA
BRANCH  31  33
HETATM   33  O4  UNL     1       7.956  27.416   6.480  1.00  0.00    -0.307 OA
BRANCH  33  34
HETATM   34  C21 UNL     1       7.481  28.313   5.530  1.00  0.00     0.060 C 
HETATM   35  C22 UNL     1       8.511  29.052   4.763  1.00  0.00     0.046 C 
HETATM   36  C23 UNL     1       6.645  29.360   6.283  1.00  0.00     0.046 C 
HETATM   37  C24 UNL     1       6.507  27.695   4.535  1.00  0.00     0.046 C 
ENDBRANCH  33  34
ENDBRANCH  31  33
ENDBRANCH   4  31
TORSDOF 12
ENDMDL
