MODEL 1
REMARK VINA RESULT: -7.479912276      0.000      0.000
REMARK  15 active torsions:
REMARK  status: ('A' for Active; 'I' for Inactive)
REMARK    1  A    between atoms: C2_2  and  C3_3 
REMARK    2  A    between atoms: C3_3  and  C4_4 
REMARK    3  A    between atoms: C4_4  and  C5_5 
REMARK    4  A    between atoms: C4_4  and  N1_8 
REMARK    5  A    between atoms: C5_5  and  O1_6 
REMARK    6  A    between atoms: N1_8  and  C6_10 
REMARK    7  A    between atoms: C6_10  and  C8_12 
REMARK    8  A    between atoms: C8_12  and  N2_13 
REMARK    9  A    between atoms: N2_13  and  C9_15 
REMARK   10  A    between atoms: C10_18  and  N4_19 
REMARK   11  A    between atoms: C13_22  and  C14_23 
REMARK   12  A    between atoms: C14_23  and  C15_24 
REMARK   13  A    between atoms: C15_24  and  N5_25 
REMARK   14  A    between atoms: C18_33  and  N7_34 
REMARK   15  A    between atoms: N7_34  and  C19_36 
ROOT
HETATM    1  C9  UNL     1      44.818  21.213  38.943  1.00  0.00     0.707 A 
HETATM    2  N3  UNL     1      45.228  20.031  38.455  1.00  0.00    -0.021 N 
ATOM      3  H3  UNL     1      44.809  19.652  37.606  1.00  0.00     0.203 HD
HETATM    4  C10 UNL     1      46.196  19.350  39.096  1.00  0.00     0.709 A 
HETATM    5  N6  UNL     1      46.741  19.846  40.204  1.00  0.00    -0.021 N 
ATOM      6  H6  UNL     1      47.472  19.309  40.669  1.00  0.00     0.203 HD
HETATM    7  C18 UNL     1      46.364  21.047  40.748  1.00  0.00     0.707 A 
HETATM    8  N8  UNL     1      45.402  21.696  40.088  1.00  0.00    -0.022 N 
ATOM      9  H8  UNL     1      45.085  22.594  40.452  1.00  0.00     0.203 HD
ENDROOT
BRANCH   1  10
HETATM   10  N2  UNL     1      43.921  21.876  38.332  1.00  0.00    -0.223 N 
ATOM     11  H2  UNL     1      42.997  21.454  38.243  1.00  0.00     0.177 HD
BRANCH  10  12
HETATM   12  C8  UNL     1      44.115  23.166  37.762  1.00  0.00     0.162 C 
BRANCH  12  13
HETATM   13  C6  UNL     1      44.854  22.952  36.411  1.00  0.00     0.091 C 
HETATM   14  C7  UNL     1      43.941  22.102  35.579  1.00  0.00     0.033 C 
BRANCH  13  15
HETATM   15  N1  UNL     1      45.193  24.162  35.830  1.00  0.00    -0.410 N 
ATOM     16  H1  UNL     1      45.668  24.843  36.422  1.00  0.00     0.154 HD
BRANCH  15  17
HETATM   17  C4  UNL     1      44.945  24.534  34.506  1.00  0.00     0.100 C 
BRANCH  17  18
HETATM   18  C3  UNL     1      44.485  25.944  34.273  1.00  0.00     0.026 C 
BRANCH  18  19
HETATM   19  C2  UNL     1      45.339  26.646  33.228  1.00  0.00    -0.002 C 
HETATM   20  C1  UNL     1      44.542  27.098  32.029  1.00  0.00     0.005 C 
ENDBRANCH  18  19
ENDBRANCH  17  18
BRANCH  17  21
HETATM   21  C5  UNL     1      46.285  24.317  33.748  1.00  0.00     0.188 C 
BRANCH  21  22
HETATM   22  O1  UNL     1      46.291  23.046  33.186  1.00  0.00    -0.399 OA
ATOM     23  H1  UNL     1      46.465  23.118  32.255  1.00  0.00     0.209 HD
ENDBRANCH  21  22
ENDBRANCH  17  21
ENDBRANCH  15  17
ENDBRANCH  13  15
ENDBRANCH  12  13
ENDBRANCH  10  12
ENDBRANCH   1  10
BRANCH   4  24
HETATM   24  N4  UNL     1      46.583  18.097  38.531  1.00  0.00    -0.217 N 
HETATM   25  C11 UNL     1      47.906  17.542  38.633  1.00  0.00     0.141 C 
HETATM   26  C12 UNL     1      48.441  17.356  37.232  1.00  0.00     0.025 C 
HETATM   27  C13 UNL     1      47.485  16.762  36.273  1.00  0.00    -0.010 C 
HETATM   28  C16 UNL     1      46.183  16.320  36.875  1.00  0.00     0.025 C 
HETATM   29  C17 UNL     1      45.587  17.315  37.819  1.00  0.00     0.141 C 
BRANCH  27  30
HETATM   30  C14 UNL     1      48.075  15.565  35.563  1.00  0.00     0.032 C 
BRANCH  30  31
HETATM   31  C15 UNL     1      48.851  15.917  34.334  1.00  0.00     0.230 C 
BRANCH  31  32
HETATM   32  N5  UNL     1      48.110  16.979  33.661  1.00  0.00    -0.079 N 
ATOM     33  H53 UNL     1      48.376  17.099  32.684  1.00  0.00     0.274 HD
ATOM     34  H52 UNL     1      47.130  16.745  33.498  1.00  0.00     0.274 HD
ATOM     35  H51 UNL     1      48.235  17.823  34.221  1.00  0.00     0.274 HD
ENDBRANCH  31  32
ENDBRANCH  30  31
ENDBRANCH  27  30
ENDBRANCH   4  24
BRANCH   7  36
HETATM   36  N7  UNL     1      46.912  21.474  41.788  1.00  0.00    -0.220 N 
ATOM     37  H7  UNL     1      46.229  21.581  42.538  1.00  0.00     0.178 HD
BRANCH  36  38
HETATM   38  C19 UNL     1      48.174  21.843  42.214  1.00  0.00     0.099 C 
HETATM   39  C20 UNL     1      49.131  20.778  42.663  1.00  0.00     0.026 C 
HETATM   40  C21 UNL     1      50.129  21.483  43.605  1.00  0.00     0.002 C 
HETATM   41  C22 UNL     1      50.612  22.762  42.940  1.00  0.00     0.000 C 
HETATM   42  C23 UNL     1      50.353  22.785  41.459  1.00  0.00     0.002 C 
HETATM   43  C24 UNL     1      48.864  22.706  41.142  1.00  0.00     0.026 C 
ENDBRANCH  36  38
ENDBRANCH   7  36
TORSDOF 15
ENDMDL
MODEL 2
REMARK VINA RESULT: -7.352459086      1.087      1.218
REMARK  15 active torsions:
REMARK  status: ('A' for Active; 'I' for Inactive)
REMARK    1  A    between atoms: C2_2  and  C3_3 
REMARK    2  A    between atoms: C3_3  and  C4_4 
REMARK    3  A    between atoms: C4_4  and  C5_5 
REMARK    4  A    between atoms: C4_4  and  N1_8 
REMARK    5  A    between atoms: C5_5  and  O1_6 
REMARK    6  A    between atoms: N1_8  and  C6_10 
REMARK    7  A    between atoms: C6_10  and  C8_12 
REMARK    8  A    between atoms: C8_12  and  N2_13 
REMARK    9  A    between atoms: N2_13  and  C9_15 
REMARK   10  A    between atoms: C10_18  and  N4_19 
REMARK   11  A    between atoms: C13_22  and  C14_23 
REMARK   12  A    between atoms: C14_23  and  C15_24 
REMARK   13  A    between atoms: C15_24  and  N5_25 
REMARK   14  A    between atoms: C18_33  and  N7_34 
REMARK   15  A    between atoms: N7_34  and  C19_36 
ROOT
HETATM    1  C9  UNL     1      46.084  22.476  39.193  1.00  0.00     0.707 A 
HETATM    2  N3  UNL     1      46.090  21.180  38.839  1.00  0.00    -0.021 N 
ATOM      3  H3  UNL     1      45.630  20.878  37.981  1.00  0.00     0.203 HD
HETATM    4  C10 UNL     1      46.709  20.283  39.629  1.00  0.00     0.709 A 
HETATM    5  N6  UNL     1      47.309  20.678  40.749  1.00  0.00    -0.021 N 
ATOM      6  H6  UNL     1      47.770  19.977  41.328  1.00  0.00     0.203 HD
HETATM    7  C18 UNL     1      47.336  21.986  41.159  1.00  0.00     0.707 A 
HETATM    8  N8  UNL     1      46.713  22.850  40.354  1.00  0.00    -0.022 N 
ATOM      9  H8  UNL     1      46.704  23.836  40.615  1.00  0.00     0.203 HD
ENDROOT
BRANCH   1  10
HETATM   10  N2  UNL     1      45.523  23.336  38.441  1.00  0.00    -0.223 N 
ATOM     11  H2  UNL     1      45.896  24.285  38.446  1.00  0.00     0.177 HD
BRANCH  10  12
HETATM   12  C8  UNL     1      44.410  23.067  37.595  1.00  0.00     0.162 C 
BRANCH  12  13
HETATM   13  C6  UNL     1      44.966  22.964  36.147  1.00  0.00     0.091 C 
HETATM   14  C7  UNL     1      43.950  22.175  35.377  1.00  0.00     0.033 C 
BRANCH  13  15
HETATM   15  N1  UNL     1      45.230  24.218  35.623  1.00  0.00    -0.410 N 
ATOM     16  H1  UNL     1      45.768  24.859  36.204  1.00  0.00     0.154 HD
BRANCH  15  17
HETATM   17  C4  UNL     1      44.827  24.684  34.368  1.00  0.00     0.100 C 
BRANCH  17  18
HETATM   18  C3  UNL     1      44.557  26.157  34.247  1.00  0.00     0.026 C 
BRANCH  18  19
HETATM   19  C2  UNL     1      45.353  26.779  33.109  1.00  0.00    -0.002 C 
HETATM   20  C1  UNL     1      44.488  27.176  31.939  1.00  0.00     0.005 C 
ENDBRANCH  18  19
ENDBRANCH  17  18
BRANCH  17  21
HETATM   21  C5  UNL     1      45.973  24.307  33.388  1.00  0.00     0.188 C 
BRANCH  21  22
HETATM   22  O1  UNL     1      45.433  23.664  32.280  1.00  0.00    -0.399 OA
ATOM     23  H1  UNL     1      46.107  23.141  31.864  1.00  0.00     0.209 HD
ENDBRANCH  21  22
ENDBRANCH  17  21
ENDBRANCH  15  17
ENDBRANCH  13  15
ENDBRANCH  12  13
ENDBRANCH  10  12
ENDBRANCH   1  10
BRANCH   4  24
HETATM   24  N4  UNL     1      46.675  18.920  39.203  1.00  0.00    -0.217 N 
HETATM   25  C11 UNL     1      47.842  18.090  39.066  1.00  0.00     0.141 C 
HETATM   26  C12 UNL     1      47.922  17.634  37.628  1.00  0.00     0.025 C 
HETATM   27  C13 UNL     1      46.641  17.175  37.048  1.00  0.00    -0.010 C 
HETATM   28  C16 UNL     1      45.497  17.113  38.016  1.00  0.00     0.025 C 
HETATM   29  C17 UNL     1      45.389  18.316  38.899  1.00  0.00     0.141 C 
BRANCH  27  30
HETATM   30  C14 UNL     1      46.769  15.804  36.424  1.00  0.00     0.032 C 
BRANCH  30  31
HETATM   31  C15 UNL     1      48.153  15.482  35.957  1.00  0.00     0.230 C 
BRANCH  31  32
HETATM   32  N5  UNL     1      48.149  15.627  34.505  1.00  0.00    -0.079 N 
ATOM     33  H53 UNL     1      48.356  14.758  34.013  1.00  0.00     0.274 HD
ATOM     34  H52 UNL     1      47.217  15.773  34.118  1.00  0.00     0.274 HD
ATOM     35  H51 UNL     1      48.800  16.381  34.285  1.00  0.00     0.274 HD
ENDBRANCH  31  32
ENDBRANCH  30  31
ENDBRANCH  27  30
ENDBRANCH   4  24
BRANCH   7  36
HETATM   36  N7  UNL     1      47.919  22.310  42.217  1.00  0.00    -0.220 N 
ATOM     37  H7  UNL     1      47.247  22.470  42.967  1.00  0.00     0.178 HD
BRANCH  36  38
HETATM   38  C19 UNL     1      49.211  22.512  42.664  1.00  0.00     0.099 C 
HETATM   39  C20 UNL     1      49.922  21.394  43.369  1.00  0.00     0.026 C 
HETATM   40  C21 UNL     1      51.001  22.068  44.241  1.00  0.00     0.002 C 
HETATM   41  C22 UNL     1      51.752  23.082  43.394  1.00  0.00     0.000 C 
HETATM   42  C23 UNL     1      51.561  22.868  41.918  1.00  0.00     0.002 C 
HETATM   43  C24 UNL     1      50.100  23.008  41.508  1.00  0.00     0.026 C 
ENDBRANCH  36  38
ENDBRANCH   7  36
TORSDOF 15
ENDMDL
MODEL 3
REMARK VINA RESULT: -7.311106657      1.798      6.305
REMARK  15 active torsions:
REMARK  status: ('A' for Active; 'I' for Inactive)
REMARK    1  A    between atoms: C2_2  and  C3_3 
REMARK    2  A    between atoms: C3_3  and  C4_4 
REMARK    3  A    between atoms: C4_4  and  C5_5 
REMARK    4  A    between atoms: C4_4  and  N1_8 
REMARK    5  A    between atoms: C5_5  and  O1_6 
REMARK    6  A    between atoms: N1_8  and  C6_10 
REMARK    7  A    between atoms: C6_10  and  C8_12 
REMARK    8  A    between atoms: C8_12  and  N2_13 
REMARK    9  A    between atoms: N2_13  and  C9_15 
REMARK   10  A    between atoms: C10_18  and  N4_19 
REMARK   11  A    between atoms: C13_22  and  C14_23 
REMARK   12  A    between atoms: C14_23  and  C15_24 
REMARK   13  A    between atoms: C15_24  and  N5_25 
REMARK   14  A    between atoms: C18_33  and  N7_34 
REMARK   15  A    between atoms: N7_34  and  C19_36 
ROOT
HETATM    1  C9  UNL     1      45.742  19.943  39.932  1.00  0.00     0.707 A 
HETATM    2  N3  UNL     1      45.500  20.815  38.939  1.00  0.00    -0.021 N 
ATOM      3  H3  UNL     1      44.993  20.519  38.105  1.00  0.00     0.203 HD
HETATM    4  C10 UNL     1      45.934  22.084  39.055  1.00  0.00     0.709 A 
HETATM    5  N6  UNL     1      46.595  22.469  40.143  1.00  0.00    -0.021 N 
ATOM      6  H6  UNL     1      46.913  23.436  40.203  1.00  0.00     0.203 HD
HETATM    7  C18 UNL     1      46.870  21.624  41.187  1.00  0.00     0.707 A 
HETATM    8  N8  UNL     1      46.426  20.373  41.041  1.00  0.00    -0.022 N 
ATOM      9  H8  UNL     1      46.605  19.704  41.790  1.00  0.00     0.203 HD
ENDROOT
BRANCH   1  10
HETATM   10  N2  UNL     1      45.315  18.747  39.843  1.00  0.00    -0.223 N 
ATOM     11  H2  UNL     1      44.422  18.596  39.374  1.00  0.00     0.177 HD
BRANCH  10  12
HETATM   12  C8  UNL     1      45.996  17.606  40.353  1.00  0.00     0.162 C 
BRANCH  12  13
HETATM   13  C6  UNL     1      47.415  17.613  39.721  1.00  0.00     0.091 C 
HETATM   14  C7  UNL     1      48.334  17.077  40.778  1.00  0.00     0.033 C 
BRANCH  13  15
HETATM   15  N1  UNL     1      47.437  16.901  38.534  1.00  0.00    -0.410 N 
ATOM     16  H1  UNL     1      47.265  15.898  38.591  1.00  0.00     0.154 HD
BRANCH  15  17
HETATM   17  C4  UNL     1      47.672  17.433  37.263  1.00  0.00     0.100 C 
BRANCH  17  18
HETATM   18  C3  UNL     1      48.672  16.716  36.402  1.00  0.00     0.026 C 
BRANCH  18  19
HETATM   19  C2  UNL     1      48.802  17.369  35.034  1.00  0.00    -0.002 C 
HETATM   20  C1  UNL     1      50.237  17.617  34.639  1.00  0.00     0.005 C 
ENDBRANCH  18  19
ENDBRANCH  17  18
BRANCH  17  21
HETATM   21  C5  UNL     1      46.296  17.424  36.540  1.00  0.00     0.188 C 
BRANCH  21  22
HETATM   22  O1  UNL     1      45.681  18.658  36.713  1.00  0.00    -0.399 OA
ATOM     23  H1  UNL     1      44.745  18.560  36.587  1.00  0.00     0.209 HD
ENDBRANCH  21  22
ENDBRANCH  17  21
ENDBRANCH  15  17
ENDBRANCH  13  15
ENDBRANCH  12  13
ENDBRANCH  10  12
ENDBRANCH   1  10
BRANCH   4  24
HETATM   24  N4  UNL     1      45.653  22.962  37.963  1.00  0.00    -0.217 N 
HETATM   25  C11 UNL     1      44.341  23.160  37.408  1.00  0.00     0.141 C 
HETATM   26  C12 UNL     1      44.389  22.766  35.950  1.00  0.00     0.025 C 
HETATM   27  C13 UNL     1      45.567  23.265  35.208  1.00  0.00    -0.010 C 
HETATM   28  C16 UNL     1      46.456  24.190  35.987  1.00  0.00     0.025 C 
HETATM   29  C17 UNL     1      46.745  23.718  37.377  1.00  0.00     0.141 C 
BRANCH  27  30
HETATM   30  C14 UNL     1      45.165  23.995  33.946  1.00  0.00     0.032 C 
BRANCH  30  31
HETATM   31  C15 UNL     1      45.295  25.482  34.044  1.00  0.00     0.230 C 
BRANCH  31  32
HETATM   32  N5  UNL     1      43.983  25.991  34.432  1.00  0.00    -0.079 N 
ATOM     33  H53 UNL     1      43.296  25.254  34.592  1.00  0.00     0.274 HD
ATOM     34  H52 UNL     1      43.966  26.387  35.372  1.00  0.00     0.274 HD
ATOM     35  H51 UNL     1      43.702  26.655  33.709  1.00  0.00     0.274 HD
ENDBRANCH  31  32
ENDBRANCH  30  31
ENDBRANCH  27  30
ENDBRANCH   4  24
BRANCH   7  36
HETATM   36  N7  UNL     1      47.489  22.034  42.193  1.00  0.00    -0.220 N 
ATOM     37  H7  UNL     1      46.843  22.396  42.894  1.00  0.00     0.178 HD
BRANCH  36  38
HETATM   38  C19 UNL     1      48.797  22.140  42.629  1.00  0.00     0.099 C 
HETATM   39  C20 UNL     1      49.535  20.894  43.025  1.00  0.00     0.026 C 
HETATM   40  C21 UNL     1      50.644  21.356  43.993  1.00  0.00     0.002 C 
HETATM   41  C22 UNL     1      51.362  22.549  43.382  1.00  0.00     0.000 C 
HETATM   42  C23 UNL     1      51.117  22.686  41.906  1.00  0.00     0.002 C 
HETATM   43  C24 UNL     1      49.641  22.903  41.592  1.00  0.00     0.026 C 
ENDBRANCH  36  38
ENDBRANCH   7  36
TORSDOF 15
ENDMDL
MODEL 4
REMARK VINA RESULT: -7.284172347      3.063      4.509
REMARK  15 active torsions:
REMARK  status: ('A' for Active; 'I' for Inactive)
REMARK    1  A    between atoms: C2_2  and  C3_3 
REMARK    2  A    between atoms: C3_3  and  C4_4 
REMARK    3  A    between atoms: C4_4  and  C5_5 
REMARK    4  A    between atoms: C4_4  and  N1_8 
REMARK    5  A    between atoms: C5_5  and  O1_6 
REMARK    6  A    between atoms: N1_8  and  C6_10 
REMARK    7  A    between atoms: C6_10  and  C8_12 
REMARK    8  A    between atoms: C8_12  and  N2_13 
REMARK    9  A    between atoms: N2_13  and  C9_15 
REMARK   10  A    between atoms: C10_18  and  N4_19 
REMARK   11  A    between atoms: C13_22  and  C14_23 
REMARK   12  A    between atoms: C14_23  and  C15_24 
REMARK   13  A    between atoms: C15_24  and  N5_25 
REMARK   14  A    between atoms: C18_33  and  N7_34 
REMARK   15  A    between atoms: N7_34  and  C19_36 
ROOT
HETATM    1  C9  UNL     1      45.496  19.450  39.312  1.00  0.00     0.707 A 
HETATM    2  N3  UNL     1      46.064  18.915  38.219  1.00  0.00    -0.021 N 
ATOM      3  H3  UNL     1      45.972  19.375  37.313  1.00  0.00     0.203 HD
HETATM    4  C10 UNL     1      46.756  17.766  38.330  1.00  0.00     0.709 A 
HETATM    5  N6  UNL     1      46.875  17.167  39.512  1.00  0.00    -0.021 N 
ATOM      6  H6  UNL     1      47.404  16.297  39.566  1.00  0.00     0.203 HD
HETATM    7  C18 UNL     1      46.318  17.667  40.660  1.00  0.00     0.707 A 
HETATM    8  N8  UNL     1      45.638  18.808  40.516  1.00  0.00    -0.022 N 
ATOM      9  H8  UNL     1      45.204  19.221  41.341  1.00  0.00     0.203 HD
ENDROOT
BRANCH   1  10
HETATM   10  N2  UNL     1      44.860  20.549  39.223  1.00  0.00    -0.223 N 
ATOM     11  H2  UNL     1      44.145  20.627  38.500  1.00  0.00     0.177 HD
BRANCH  10  12
HETATM   12  C8  UNL     1      45.076  21.679  40.062  1.00  0.00     0.162 C 
BRANCH  12  13
HETATM   13  C6  UNL     1      45.776  22.757  39.188  1.00  0.00     0.091 C 
HETATM   14  C7  UNL     1      47.184  22.843  39.698  1.00  0.00     0.033 C 
BRANCH  13  15
HETATM   15  N1  UNL     1      45.676  22.450  37.842  1.00  0.00    -0.410 N 
ATOM     16  H1  UNL     1      46.017  21.536  37.548  1.00  0.00     0.154 HD
BRANCH  15  17
HETATM   17  C4  UNL     1      45.149  23.281  36.849  1.00  0.00     0.100 C 
BRANCH  17  18
HETATM   18  C3  UNL     1      46.110  23.798  35.817  1.00  0.00     0.026 C 
BRANCH  18  19
HETATM   19  C2  UNL     1      45.681  23.409  34.410  1.00  0.00    -0.002 C 
HETATM   20  C1  UNL     1      46.398  24.198  33.341  1.00  0.00     0.005 C 
ENDBRANCH  18  19
ENDBRANCH  17  18
BRANCH  17  21
HETATM   21  C5  UNL     1      44.055  22.441  36.132  1.00  0.00     0.188 C 
BRANCH  21  22
HETATM   22  O1  UNL     1      43.178  21.928  37.081  1.00  0.00    -0.399 OA
ATOM     23  H1  UNL     1      43.623  21.261  37.589  1.00  0.00     0.209 HD
ENDBRANCH  21  22
ENDBRANCH  17  21
ENDBRANCH  15  17
ENDBRANCH  13  15
ENDBRANCH  12  13
ENDBRANCH  10  12
ENDBRANCH   1  10
BRANCH   4  24
HETATM   24  N4  UNL     1      47.331  17.243  37.130  1.00  0.00    -0.217 N 
HETATM   25  C11 UNL     1      48.403  16.286  37.103  1.00  0.00     0.141 C 
HETATM   26  C12 UNL     1      49.563  16.907  36.361  1.00  0.00     0.025 C 
HETATM   27  C13 UNL     1      49.198  17.614  35.114  1.00  0.00    -0.010 C 
HETATM   28  C16 UNL     1      47.756  17.489  34.718  1.00  0.00     0.025 C 
HETATM   29  C17 UNL     1      46.801  17.687  35.853  1.00  0.00     0.141 C 
BRANCH  27  30
HETATM   30  C14 UNL     1      50.023  17.138  33.939  1.00  0.00     0.032 C 
BRANCH  30  31
HETATM   31  C15 UNL     1      49.227  16.933  32.689  1.00  0.00     0.230 C 
BRANCH  31  32
HETATM   32  N5  UNL     1      49.662  17.956  31.744  1.00  0.00    -0.079 N 
ATOM     33  H53 UNL     1      48.889  18.422  31.270  1.00  0.00     0.274 HD
ATOM     34  H52 UNL     1      50.051  18.784  32.197  1.00  0.00     0.274 HD
ATOM     35  H51 UNL     1      50.315  17.503  31.104  1.00  0.00     0.274 HD
ENDBRANCH  31  32
ENDBRANCH  30  31
ENDBRANCH  27  30
ENDBRANCH   4  24
BRANCH   7  36
HETATM   36  N7  UNL     1      46.463  17.071  41.750  1.00  0.00    -0.220 N 
ATOM     37  H7  UNL     1      47.378  17.271  42.153  1.00  0.00     0.178 HD
BRANCH  36  38
HETATM   38  C19 UNL     1      45.742  16.219  42.566  1.00  0.00     0.099 C 
HETATM   39  C20 UNL     1      45.519  14.802  42.124  1.00  0.00     0.026 C 
HETATM   40  C21 UNL     1      44.251  14.329  42.862  1.00  0.00     0.002 C 
HETATM   41  C22 UNL     1      44.373  14.697  44.332  1.00  0.00     0.000 C 
HETATM   42  C23 UNL     1      45.785  15.008  44.742  1.00  0.00     0.002 C 
HETATM   43  C24 UNL     1      46.346  16.204  43.981  1.00  0.00     0.026 C 
ENDBRANCH  36  38
ENDBRANCH   7  36
TORSDOF 15
ENDMDL
MODEL 5
REMARK VINA RESULT: -7.236657006      1.916      2.263
REMARK  15 active torsions:
REMARK  status: ('A' for Active; 'I' for Inactive)
REMARK    1  A    between atoms: C2_2  and  C3_3 
REMARK    2  A    between atoms: C3_3  and  C4_4 
REMARK    3  A    between atoms: C4_4  and  C5_5 
REMARK    4  A    between atoms: C4_4  and  N1_8 
REMARK    5  A    between atoms: C5_5  and  O1_6 
REMARK    6  A    between atoms: N1_8  and  C6_10 
REMARK    7  A    between atoms: C6_10  and  C8_12 
REMARK    8  A    between atoms: C8_12  and  N2_13 
REMARK    9  A    between atoms: N2_13  and  C9_15 
REMARK   10  A    between atoms: C10_18  and  N4_19 
REMARK   11  A    between atoms: C13_22  and  C14_23 
REMARK   12  A    between atoms: C14_23  and  C15_24 
REMARK   13  A    between atoms: C15_24  and  N5_25 
REMARK   14  A    between atoms: C18_33  and  N7_34 
REMARK   15  A    between atoms: N7_34  and  C19_36 
ROOT
HETATM    1  C9  UNL     1      45.781  22.438  39.074  1.00  0.00     0.707 A 
HETATM    2  N3  UNL     1      45.637  21.134  38.783  1.00  0.00    -0.021 N 
ATOM      3  H3  UNL     1      45.146  20.847  37.937  1.00  0.00     0.203 HD
HETATM    4  C10 UNL     1      46.146  20.211  39.619  1.00  0.00     0.709 A 
HETATM    5  N6  UNL     1      46.786  20.588  40.723  1.00  0.00    -0.021 N 
ATOM      6  H6  UNL     1      47.161  19.866  41.339  1.00  0.00     0.203 HD
HETATM    7  C18 UNL     1      46.964  21.902  41.070  1.00  0.00     0.707 A 
HETATM    8  N8  UNL     1      46.447  22.793  40.220  1.00  0.00    -0.022 N 
ATOM      9  H8  UNL     1      46.552  23.784  40.433  1.00  0.00     0.203 HD
ENDROOT
BRANCH   1  10
HETATM   10  N2  UNL     1      45.325  23.320  38.277  1.00  0.00    -0.223 N 
ATOM     11  H2  UNL     1      45.770  24.237  38.280  1.00  0.00     0.177 HD
BRANCH  10  12
HETATM   12  C8  UNL     1      44.235  23.116  37.383  1.00  0.00     0.162 C 
BRANCH  12  13
HETATM   13  C6  UNL     1      44.833  23.095  35.949  1.00  0.00     0.091 C 
HETATM   14  C7  UNL     1      44.278  21.865  35.295  1.00  0.00     0.033 C 
BRANCH  13  15
HETATM   15  N1  UNL     1      44.557  24.273  35.275  1.00  0.00    -0.410 N 
ATOM     16  H1  UNL     1      43.634  24.682  35.417  1.00  0.00     0.154 HD
BRANCH  15  17
HETATM   17  C4  UNL     1      45.428  24.952  34.419  1.00  0.00     0.100 C 
BRANCH  17  18
HETATM   18  C3  UNL     1      45.796  24.261  33.138  1.00  0.00     0.026 C 
BRANCH  18  19
HETATM   19  C2  UNL     1      46.138  25.259  32.042  1.00  0.00    -0.002 C 
HETATM   20  C1  UNL     1      45.509  24.910  30.716  1.00  0.00     0.005 C 
ENDBRANCH  18  19
ENDBRANCH  17  18
BRANCH  17  21
HETATM   21  C5  UNL     1      44.722  26.293  34.075  1.00  0.00     0.188 C 
BRANCH  21  22
HETATM   22  O1  UNL     1      43.348  26.089  34.032  1.00  0.00    -0.399 OA
ATOM     23  H1  UNL     1      42.914  26.916  33.864  1.00  0.00     0.209 HD
ENDBRANCH  21  22
ENDBRANCH  17  21
ENDBRANCH  15  17
ENDBRANCH  13  15
ENDBRANCH  12  13
ENDBRANCH  10  12
ENDBRANCH   1  10
BRANCH   4  24
HETATM   24  N4  UNL     1      45.954  18.842  39.259  1.00  0.00    -0.217 N 
HETATM   25  C11 UNL     1      46.012  17.748  40.192  1.00  0.00     0.141 C 
HETATM   26  C12 UNL     1      47.111  16.813  39.743  1.00  0.00     0.025 C 
HETATM   27  C13 UNL     1      47.129  16.523  38.294  1.00  0.00    -0.010 C 
HETATM   28  C16 UNL     1      45.979  17.098  37.521  1.00  0.00     0.025 C 
HETATM   29  C17 UNL     1      45.669  18.519  37.872  1.00  0.00     0.141 C 
BRANCH  27  30
HETATM   30  C14 UNL     1      47.147  15.036  38.021  1.00  0.00     0.032 C 
BRANCH  30  31
HETATM   31  C15 UNL     1      47.499  14.209  39.217  1.00  0.00     0.230 C 
BRANCH  31  32
HETATM   32  N5  UNL     1      46.769  12.952  39.086  1.00  0.00    -0.079 N 
ATOM     33  H53 UNL     1      45.784  13.081  38.856  1.00  0.00     0.274 HD
ATOM     34  H52 UNL     1      47.025  12.423  38.253  1.00  0.00     0.274 HD
ATOM     35  H51 UNL     1      46.918  12.436  39.953  1.00  0.00     0.274 HD
ENDBRANCH  31  32
ENDBRANCH  30  31
ENDBRANCH  27  30
ENDBRANCH   4  24
BRANCH   7  36
HETATM   36  N7  UNL     1      47.579  22.207  42.116  1.00  0.00    -0.220 N 
ATOM     37  H7  UNL     1      46.927  22.461  42.858  1.00  0.00     0.178 HD
BRANCH  36  38
HETATM   38  C19 UNL     1      48.886  22.298  42.556  1.00  0.00     0.099 C 
HETATM   39  C20 UNL     1      49.574  21.062  43.055  1.00  0.00     0.026 C 
HETATM   40  C21 UNL     1      50.693  21.558  43.995  1.00  0.00     0.002 C 
HETATM   41  C22 UNL     1      51.458  22.673  43.302  1.00  0.00     0.000 C 
HETATM   42  C23 UNL     1      51.230  22.703  41.817  1.00  0.00     0.002 C 
HETATM   43  C24 UNL     1      49.765  22.948  41.472  1.00  0.00     0.026 C 
ENDBRANCH  36  38
ENDBRANCH   7  36
TORSDOF 15
ENDMDL
