MODEL 1
REMARK VINA RESULT: -7.360028215      0.000      0.000
REMARK  6 active torsions:
REMARK  status: ('A' for Active; 'I' for Inactive)
REMARK    1  A    between atoms: C5_5  and  N1_6 
REMARK       I    between atoms: N1_6  and  C6_8 
REMARK    2  A    between atoms: C6_8  and  C7_10 
REMARK    3  A    between atoms: N3_15  and  C9_16 
REMARK    4  A    between atoms: C9_16  and  C10_17 
REMARK    5  A    between atoms: C10_17  and  C11_18 
REMARK    6  A    between atoms: C14_21  and  C15_22 
ROOT
HETATM    1  C1  UNL     1      16.938  -9.216  33.778  1.00  0.00     0.012 C 
HETATM    2  C2  UNL     1      15.809  -9.457  34.094  1.00  0.00    -0.110 C 
HETATM    3  C3  UNL     1      14.432  -9.777  34.478  1.00  0.00     0.089 A 
HETATM    4  C4  UNL     1      13.745  -8.667  35.270  1.00  0.00     0.045 A 
HETATM    5  C5  UNL     1      14.137  -9.891  35.983  1.00  0.00     0.101 A 
ENDROOT
BRANCH   5   6
HETATM    6  N1  UNL     1      13.164 -10.924  36.289  1.00  0.00    -0.350 N 
HETATM    7  C6  UNL     1      12.374 -10.916  37.456  1.00  0.00     0.271 C 
HETATM    8  O1  UNL     1      12.475 -10.011  38.292  1.00  0.00    -0.266 OA
ATOM      9  H1  UNL     1      13.047 -11.692  35.627  1.00  0.00     0.163 HD
BRANCH   7  10
HETATM   10  C7  UNL     1      11.409 -12.014  37.677  1.00  0.00     0.131 A 
HETATM   11  N2  UNL     1      11.828 -13.258  37.984  1.00  0.00    -0.327 N 
HETATM   12  C8  UNL     1      10.780 -13.984  38.256  1.00  0.00     0.179 A 
ATOM     13  H2  UNL     1      12.797 -13.575  38.000  1.00  0.00     0.168 HD
HETATM   14  S1  UNL     1      10.825 -15.558  38.687  1.00  0.00    -0.040 SA
HETATM   15  N3  UNL     1       9.602 -13.215  38.125  1.00  0.00    -0.321 N 
HETATM   16  C14 UNL     1      10.022 -11.999  37.765  1.00  0.00     0.083 A 
BRANCH  15  17
HETATM   17  C9  UNL     1       8.372 -13.881  38.327  1.00  0.00     0.132 C 
BRANCH  17  18
HETATM   18  C10 UNL     1       7.552 -14.155  37.098  1.00  0.00     0.024 C 
BRANCH  18  19
HETATM   19  C11 UNL     1       6.130 -14.462  37.187  1.00  0.00    -0.021 C 
HETATM   20  C12 UNL     1       5.788 -15.288  38.403  1.00  0.00     0.009 C 
HETATM   21  C13 UNL     1       5.776 -15.337  35.967  1.00  0.00     0.009 C 
ENDBRANCH  18  19
ENDBRANCH  17  18
ENDBRANCH  15  17
BRANCH  16  22
HETATM   22  C15 UNL     1       9.182 -10.939  37.142  1.00  0.00     0.041 A 
HETATM   23  C16 UNL     1       9.181 -10.437  35.863  1.00  0.00     0.036 A 
HETATM   24  C17 UNL     1       9.574 -11.148  34.596  1.00  0.00     0.070 C 
HETATM   25  N4  UNL     1       8.603  -9.228  35.851  1.00  0.00    -0.302 N 
HETATM   26  N5  UNL     1       8.220  -8.917  37.056  1.00  0.00    -0.300 N 
ATOM     27  H4  UNL     1       8.480  -8.643  35.025  1.00  0.00     0.186 HD
HETATM   28  C18 UNL     1       7.549  -7.687  37.431  1.00  0.00     0.177 C 
HETATM   29  C19 UNL     1       8.549  -9.935  37.909  1.00  0.00     0.038 A 
HETATM   30  C20 UNL     1       8.307  -9.767  39.341  1.00  0.00     0.071 C 
ENDBRANCH  16  22
ENDBRANCH   7  10
ENDBRANCH   5   6
TORSDOF 6
ENDMDL
MODEL 2
REMARK VINA RESULT: -6.820889734      3.979      9.454
REMARK  6 active torsions:
REMARK  status: ('A' for Active; 'I' for Inactive)
REMARK    1  A    between atoms: C5_5  and  N1_6 
REMARK       I    between atoms: N1_6  and  C6_8 
REMARK    2  A    between atoms: C6_8  and  C7_10 
REMARK    3  A    between atoms: N3_15  and  C9_16 
REMARK    4  A    between atoms: C9_16  and  C10_17 
REMARK    5  A    between atoms: C10_17  and  C11_18 
REMARK    6  A    between atoms: C14_21  and  C15_22 
ROOT
HETATM    1  C1  UNL     1       7.870  -8.533  36.293  1.00  0.00     0.012 C 
HETATM    2  C2  UNL     1       8.860  -9.193  36.163  1.00  0.00    -0.110 C 
HETATM    3  C3  UNL     1      10.074  -9.993  35.981  1.00  0.00     0.089 A 
HETATM    4  C4  UNL     1      10.820 -10.279  37.281  1.00  0.00     0.045 A 
HETATM    5  C5  UNL     1      11.411  -9.322  36.336  1.00  0.00     0.101 A 
ENDROOT
BRANCH   5   6
HETATM    6  N1  UNL     1      12.491  -9.716  35.449  1.00  0.00    -0.350 N 
HETATM    7  C6  UNL     1      13.677  -8.968  35.301  1.00  0.00     0.271 C 
HETATM    8  O1  UNL     1      13.856  -7.920  35.931  1.00  0.00    -0.266 OA
ATOM      9  H1  UNL     1      12.386 -10.574  34.907  1.00  0.00     0.163 HD
BRANCH   7  10
HETATM   10  C7  UNL     1      14.719  -9.453  34.372  1.00  0.00     0.131 A 
HETATM   11  N2  UNL     1      14.403 -10.219  33.310  1.00  0.00    -0.327 N 
HETATM   12  C8  UNL     1      15.480 -10.387  32.594  1.00  0.00     0.179 A 
ATOM     13  H2  UNL     1      13.481 -10.602  33.102  1.00  0.00     0.168 HD
HETATM   14  S1  UNL     1      15.553 -11.246  31.208  1.00  0.00    -0.040 SA
HETATM   15  N3  UNL     1      16.573  -9.717  33.189  1.00  0.00    -0.321 N 
HETATM   16  C14 UNL     1      16.072  -9.149  34.288  1.00  0.00     0.083 A 
BRANCH  15  17
HETATM   17  C9  UNL     1      17.832  -9.857  32.562  1.00  0.00     0.132 C 
BRANCH  17  18
HETATM   18  C10 UNL     1      18.573  -8.585  32.262  1.00  0.00     0.024 C 
BRANCH  18  19
HETATM   19  C11 UNL     1      17.936  -7.485  31.549  1.00  0.00    -0.021 C 
HETATM   20  C12 UNL     1      17.710  -7.792  30.088  1.00  0.00     0.009 C 
HETATM   21  C13 UNL     1      18.914  -6.292  31.584  1.00  0.00     0.009 C 
ENDBRANCH  18  19
ENDBRANCH  17  18
ENDBRANCH  15  17
BRANCH  16  22
HETATM   22  C15 UNL     1      16.866  -8.655  35.449  1.00  0.00     0.041 A 
HETATM   23  C16 UNL     1      17.412  -7.419  35.696  1.00  0.00     0.036 A 
HETATM   24  C17 UNL     1      16.918  -6.082  35.210  1.00  0.00     0.070 C 
HETATM   25  N4  UNL     1      18.392  -7.529  36.602  1.00  0.00    -0.302 N 
HETATM   26  N5  UNL     1      18.511  -8.774  36.966  1.00  0.00    -0.300 N 
ATOM     27  H4  UNL     1      18.957  -6.757  36.955  1.00  0.00     0.186 HD
HETATM   28  C18 UNL     1      19.462  -9.276  37.937  1.00  0.00     0.177 C 
HETATM   29  C19 UNL     1      17.592  -9.529  36.288  1.00  0.00     0.038 A 
HETATM   30  C20 UNL     1      17.604 -10.981  36.457  1.00  0.00     0.071 C 
ENDBRANCH  16  22
ENDBRANCH   7  10
ENDBRANCH   5   6
TORSDOF 6
ENDMDL
MODEL 3
REMARK VINA RESULT: -6.784167256      2.948      7.509
REMARK  6 active torsions:
REMARK  status: ('A' for Active; 'I' for Inactive)
REMARK    1  A    between atoms: C5_5  and  N1_6 
REMARK       I    between atoms: N1_6  and  C6_8 
REMARK    2  A    between atoms: C6_8  and  C7_10 
REMARK    3  A    between atoms: N3_15  and  C9_16 
REMARK    4  A    between atoms: C9_16  and  C10_17 
REMARK    5  A    between atoms: C10_17  and  C11_18 
REMARK    6  A    between atoms: C14_21  and  C15_22 
ROOT
HETATM    1  C1  UNL     1       6.018  -7.063  40.286  1.00  0.00     0.012 C 
HETATM    2  C2  UNL     1       6.513  -7.485  39.280  1.00  0.00    -0.110 C 
HETATM    3  C3  UNL     1       7.139  -7.986  38.054  1.00  0.00     0.089 A 
HETATM    4  C4  UNL     1       6.533  -9.293  37.549  1.00  0.00     0.045 A 
HETATM    5  C5  UNL     1       7.874  -9.334  38.149  1.00  0.00     0.101 A 
ENDROOT
BRANCH   5   6
HETATM    6  N1  UNL     1       9.065  -9.384  37.319  1.00  0.00    -0.350 N 
HETATM    7  C6  UNL     1      10.330  -9.764  37.811  1.00  0.00     0.271 C 
HETATM    8  O1  UNL     1      10.489 -10.077  38.996  1.00  0.00    -0.266 OA
ATOM      9  H1  UNL     1       8.981  -9.132  36.334  1.00  0.00     0.163 HD
BRANCH   7  10
HETATM   10  C7  UNL     1      11.483  -9.784  36.886  1.00  0.00     0.131 A 
HETATM   11  N2  UNL     1      11.977  -8.644  36.364  1.00  0.00    -0.327 N 
HETATM   12  C8  UNL     1      13.060  -8.937  35.701  1.00  0.00     0.179 A 
ATOM     13  H2  UNL     1      11.573  -7.714  36.469  1.00  0.00     0.168 HD
HETATM   14  S1  UNL     1      13.990  -7.852  34.911  1.00  0.00    -0.040 SA
HETATM   15  N3  UNL     1      13.315 -10.325  35.765  1.00  0.00    -0.321 N 
HETATM   16  C14 UNL     1      12.322 -10.824  36.504  1.00  0.00     0.083 A 
BRANCH  15  17
HETATM   17  C9  UNL     1      14.427 -10.810  35.039  1.00  0.00     0.132 C 
BRANCH  17  18
HETATM   18  C10 UNL     1      15.672 -11.089  35.833  1.00  0.00     0.024 C 
BRANCH  18  19
HETATM   19  C11 UNL     1      16.973 -10.587  35.408  1.00  0.00    -0.021 C 
HETATM   20  C12 UNL     1      17.343  -9.287  36.082  1.00  0.00     0.009 C 
HETATM   21  C13 UNL     1      16.868 -10.268  33.903  1.00  0.00     0.009 C 
ENDBRANCH  18  19
ENDBRANCH  17  18
ENDBRANCH  15  17
BRANCH  16  22
HETATM   22  C15 UNL     1      11.913 -12.256  36.559  1.00  0.00     0.041 A 
HETATM   23  C16 UNL     1      12.613 -13.369  36.959  1.00  0.00     0.036 A 
HETATM   24  C17 UNL     1      13.723 -13.441  37.973  1.00  0.00     0.070 C 
HETATM   25  N4  UNL     1      12.051 -14.468  36.439  1.00  0.00    -0.302 N 
HETATM   26  N5  UNL     1      11.017 -14.131  35.722  1.00  0.00    -0.300 N 
ATOM     27  H4  UNL     1      12.382 -15.423  36.582  1.00  0.00     0.186 HD
HETATM   28  C18 UNL     1      10.156 -15.054  35.009  1.00  0.00     0.177 C 
HETATM   29  C19 UNL     1      10.873 -12.771  35.753  1.00  0.00     0.038 A 
HETATM   30  C20 UNL     1       9.834 -12.149  34.934  1.00  0.00     0.071 C 
ENDBRANCH  16  22
ENDBRANCH   7  10
ENDBRANCH   5   6
TORSDOF 6
ENDMDL
MODEL 4
REMARK VINA RESULT: -6.720618528      2.944      7.433
REMARK  6 active torsions:
REMARK  status: ('A' for Active; 'I' for Inactive)
REMARK    1  A    between atoms: C5_5  and  N1_6 
REMARK       I    between atoms: N1_6  and  C6_8 
REMARK    2  A    between atoms: C6_8  and  C7_10 
REMARK    3  A    between atoms: N3_15  and  C9_16 
REMARK    4  A    between atoms: C9_16  and  C10_17 
REMARK    5  A    between atoms: C10_17  and  C11_18 
REMARK    6  A    between atoms: C14_21  and  C15_22 
ROOT
HETATM    1  C1  UNL     1       6.056  -7.054  40.242  1.00  0.00     0.012 C 
HETATM    2  C2  UNL     1       6.548  -7.486  39.239  1.00  0.00    -0.110 C 
HETATM    3  C3  UNL     1       7.170  -8.000  38.017  1.00  0.00     0.089 A 
HETATM    4  C4  UNL     1       6.561  -9.311  37.526  1.00  0.00     0.045 A 
HETATM    5  C5  UNL     1       7.903  -9.349  38.123  1.00  0.00     0.101 A 
ENDROOT
BRANCH   5   6
HETATM    6  N1  UNL     1       9.091  -9.409  37.290  1.00  0.00    -0.350 N 
HETATM    7  C6  UNL     1      10.361  -9.768  37.787  1.00  0.00     0.271 C 
HETATM    8  O1  UNL     1      10.526 -10.054  38.978  1.00  0.00    -0.266 OA
ATOM      9  H1  UNL     1       9.003  -9.180  36.300  1.00  0.00     0.163 HD
BRANCH   7  10
HETATM   10  C7  UNL     1      11.511  -9.800  36.858  1.00  0.00     0.131 A 
HETATM   11  N2  UNL     1      12.040  -8.664  36.365  1.00  0.00    -0.327 N 
HETATM   12  C8  UNL     1      13.113  -8.973  35.692  1.00  0.00     0.179 A 
ATOM     13  H2  UNL     1      11.666  -7.724  36.495  1.00  0.00     0.168 HD
HETATM   14  S1  UNL     1      14.075  -7.899  34.929  1.00  0.00    -0.040 SA
HETATM   15  N3  UNL     1      13.324 -10.370  35.720  1.00  0.00    -0.321 N 
HETATM   16  C14 UNL     1      12.316 -10.856  36.448  1.00  0.00     0.083 A 
BRANCH  15  17
HETATM   17  C9  UNL     1      14.418 -10.871  34.979  1.00  0.00     0.132 C 
BRANCH  17  18
HETATM   18  C10 UNL     1      15.652 -11.217  35.764  1.00  0.00     0.024 C 
BRANCH  18  19
HETATM   19  C11 UNL     1      16.966 -10.723  35.370  1.00  0.00    -0.021 C 
HETATM   20  C12 UNL     1      17.370  -9.480  36.126  1.00  0.00     0.009 C 
HETATM   21  C13 UNL     1      16.871 -10.306  33.889  1.00  0.00     0.009 C 
ENDBRANCH  18  19
ENDBRANCH  17  18
ENDBRANCH  15  17
BRANCH  16  22
HETATM   22  C15 UNL     1      11.863 -12.276  36.466  1.00  0.00     0.041 A 
HETATM   23  C16 UNL     1      10.676 -12.839  36.064  1.00  0.00     0.036 A 
HETATM   24  C17 UNL     1       9.743 -12.347  34.990  1.00  0.00     0.070 C 
HETATM   25  N4  UNL     1      10.518 -14.032  36.652  1.00  0.00    -0.302 N 
HETATM   26  N5  UNL     1      11.544 -14.280  37.417  1.00  0.00    -0.300 N 
ATOM     27  H4  UNL     1       9.718 -14.651  36.522  1.00  0.00     0.186 HD
HETATM   28  C18 UNL     1      11.727 -15.480  38.208  1.00  0.00     0.177 C 
HETATM   29  C19 UNL     1      12.418 -13.230  37.348  1.00  0.00     0.038 A 
HETATM   30  C20 UNL     1      13.603 -13.237  38.204  1.00  0.00     0.071 C 
ENDBRANCH  16  22
ENDBRANCH   7  10
ENDBRANCH   5   6
TORSDOF 6
ENDMDL
MODEL 5
REMARK VINA RESULT: -6.692792751      2.942      6.998
REMARK  6 active torsions:
REMARK  status: ('A' for Active; 'I' for Inactive)
REMARK    1  A    between atoms: C5_5  and  N1_6 
REMARK       I    between atoms: N1_6  and  C6_8 
REMARK    2  A    between atoms: C6_8  and  C7_10 
REMARK    3  A    between atoms: N3_15  and  C9_16 
REMARK    4  A    between atoms: C9_16  and  C10_17 
REMARK    5  A    between atoms: C10_17  and  C11_18 
REMARK    6  A    between atoms: C14_21  and  C15_22 
ROOT
HETATM    1  C1  UNL     1       5.983  -7.069  40.840  1.00  0.00     0.012 C 
HETATM    2  C2  UNL     1       6.444  -7.412  39.789  1.00  0.00    -0.110 C 
HETATM    3  C3  UNL     1       7.030  -7.820  38.510  1.00  0.00     0.089 A 
HETATM    4  C4  UNL     1       6.300  -8.985  37.847  1.00  0.00     0.045 A 
HETATM    5  C5  UNL     1       7.622  -9.238  38.437  1.00  0.00     0.101 A 
ENDROOT
BRANCH   5   6
HETATM    6  N1  UNL     1       8.811  -9.308  37.606  1.00  0.00    -0.350 N 
HETATM    7  C6  UNL     1       9.931 -10.101  37.931  1.00  0.00     0.271 C 
HETATM    8  O1  UNL     1       9.955 -10.787  38.959  1.00  0.00    -0.266 OA
ATOM      9  H1  UNL     1       8.838  -8.758  36.747  1.00  0.00     0.163 HD
BRANCH   7  10
HETATM   10  C7  UNL     1      11.095 -10.105  37.019  1.00  0.00     0.131 A 
HETATM   11  N2  UNL     1      11.611  -8.955  36.543  1.00  0.00    -0.327 N 
HETATM   12  C8  UNL     1      12.699  -9.240  35.884  1.00  0.00     0.179 A 
ATOM     13  H2  UNL     1      11.218  -8.024  36.675  1.00  0.00     0.168 HD
HETATM   14  S1  UNL     1      13.653  -8.142  35.143  1.00  0.00    -0.040 SA
HETATM   15  N3  UNL     1      12.934 -10.633  35.903  1.00  0.00    -0.321 N 
HETATM   16  C14 UNL     1      11.925 -11.143  36.613  1.00  0.00     0.083 A 
BRANCH  15  17
HETATM   17  C9  UNL     1      14.048 -11.108  35.174  1.00  0.00     0.132 C 
BRANCH  17  18
HETATM   18  C10 UNL     1      15.081 -11.870  35.957  1.00  0.00     0.024 C 
BRANCH  18  19
HETATM   19  C11 UNL     1      15.605 -13.145  35.482  1.00  0.00    -0.021 C 
HETATM   20  C12 UNL     1      14.530 -14.041  34.917  1.00  0.00     0.009 C 
HETATM   21  C13 UNL     1      16.174 -13.888  36.708  1.00  0.00     0.009 C 
ENDBRANCH  18  19
ENDBRANCH  17  18
ENDBRANCH  15  17
BRANCH  16  22
HETATM   22  C15 UNL     1      11.497 -12.571  36.613  1.00  0.00     0.041 A 
HETATM   23  C16 UNL     1      10.365 -13.163  36.108  1.00  0.00     0.036 A 
HETATM   24  C17 UNL     1       9.531 -12.707  34.941  1.00  0.00     0.070 C 
HETATM   25  N4  UNL     1      10.171 -14.349  36.700  1.00  0.00    -0.302 N 
HETATM   26  N5  UNL     1      11.122 -14.565  37.564  1.00  0.00    -0.300 N 
ATOM     27  H4  UNL     1       9.398 -14.985  36.505  1.00  0.00     0.186 HD
HETATM   28  C18 UNL     1      11.249 -15.748  38.392  1.00  0.00     0.177 C 
HETATM   29  C19 UNL     1      11.981 -13.499  37.561  1.00  0.00     0.038 A 
HETATM   30  C20 UNL     1      13.077 -13.470  38.528  1.00  0.00     0.071 C 
ENDBRANCH  16  22
ENDBRANCH   7  10
ENDBRANCH   5   6
TORSDOF 6
ENDMDL
