MODEL 1
REMARK VINA RESULT: -9.691468006      0.000      0.000
REMARK  6 active torsions:
REMARK  status: ('A' for Active; 'I' for Inactive)
REMARK    1  A    between atoms: C2_2  and  C3_3 
REMARK    2  A    between atoms: C5_7  and  C6_8 
REMARK    3  A    between atoms: C8_10  and  C9_11 
REMARK    4  A    between atoms: C11_19  and  S1_20 
REMARK    5  A    between atoms: S1_20  and  C12_21 
REMARK    6  A    between atoms: C12_21  and  C13_22 
ROOT
HETATM    1  C6  UNL     1       8.198  -9.329  38.341  1.00  0.00     0.015 A 
HETATM    2  C7  UNL     1       8.763 -10.571  38.531  1.00  0.00     0.032 A 
HETATM    3  C8  UNL     1       9.646 -11.153  37.640  1.00  0.00     0.027 A 
HETATM    4  C11 UNL     1       9.996 -10.464  36.479  1.00  0.00     0.015 A 
HETATM    5  C16 UNL     1       9.425  -9.232  36.303  1.00  0.00     0.027 A 
HETATM    6  C17 UNL     1       8.532  -8.634  37.196  1.00  0.00    -0.047 A 
HETATM    7  C18 UNL     1       7.978  -7.296  36.876  1.00  0.00     0.049 C 
ENDROOT
BRANCH   1   8
HETATM    8  C5  UNL     1       7.331  -8.741  39.353  1.00  0.00     0.118 A 
HETATM    9  N1  UNL     1       7.746  -8.581  40.621  1.00  0.00    -0.351 N 
HETATM   10  C4  UNL     1       6.947  -8.008  41.579  1.00  0.00     0.102 A 
ATOM     11  H1  UNL     1       8.682  -8.896  40.878  1.00  0.00     0.166 HD
HETATM   12  C3  UNL     1       5.688  -7.568  41.287  1.00  0.00     0.025 A 
HETATM   13  C19 UNL     1       5.271  -7.739  39.976  1.00  0.00     0.254 A 
HETATM   14  N6  UNL     1       6.093  -8.300  39.110  1.00  0.00    -0.308 N 
HETATM   15  O2  UNL     1       4.102  -7.332  39.721  1.00  0.00    -0.268 OA
ATOM     16  H6  UNL     1       5.748  -8.409  38.157  1.00  0.00     0.170 HD
BRANCH  12  17
HETATM   17  C2  UNL     1       4.798  -6.937  42.298  1.00  0.00     0.041 C 
HETATM   18  C1  UNL     1       5.493  -6.711  43.608  1.00  0.00     0.010 C 
ENDBRANCH  12  17
ENDBRANCH   1   8
BRANCH   3  19
HETATM   19  C9  UNL     1      10.236 -12.475  37.905  1.00  0.00     0.132 A 
HETATM   20  N2  UNL     1       9.723 -13.688  37.668  1.00  0.00    -0.336 N 
HETATM   21  C10 UNL     1      10.604 -14.616  38.070  1.00  0.00     0.199 A 
ATOM     22  H2  UNL     1       8.812 -13.875  37.250  1.00  0.00     0.168 HD
HETATM   23  N3  UNL     1      11.687 -13.957  38.568  1.00  0.00    -0.295 N 
HETATM   24  N4  UNL     1      11.438 -12.673  38.455  1.00  0.00    -0.284 N 
ATOM     25  H3  UNL     1      12.530 -14.380  38.955  1.00  0.00     0.187 HD
ATOM     26  H4  UNL     1      12.072 -11.929  38.747  1.00  0.00     0.188 HD
ENDBRANCH   3  19
BRANCH   4  27
HETATM   27  S1  UNL     1      11.180 -11.232  35.413  1.00  0.00    -0.123 SA
BRANCH  27  28
HETATM   28  C12 UNL     1      12.880 -11.040  35.791  1.00  0.00     0.132 C 
BRANCH  28  29
HETATM   29  C13 UNL     1      13.358  -9.631  35.541  1.00  0.00     0.008 A 
HETATM   30  N5  UNL     1      12.805  -8.565  35.241  1.00  0.00    -0.333 N 
HETATM   31  C14 UNL     1      13.952  -7.827  35.227  1.00  0.00     0.227 A 
ATOM     32  H5  UNL     1      11.830  -8.322  35.065  1.00  0.00     0.168 HD
HETATM   33  O1  UNL     1      14.294  -6.599  35.026  1.00  0.00    -0.273 OA
HETATM   34  C15 UNL     1      14.686  -9.041  35.552  1.00  0.00     0.156 A 
ENDBRANCH  28  29
ENDBRANCH  27  28
ENDBRANCH   4  27
TORSDOF 6
ENDMDL
MODEL 2
REMARK VINA RESULT: -9.631991681      3.294      8.972
REMARK  6 active torsions:
REMARK  status: ('A' for Active; 'I' for Inactive)
REMARK    1  A    between atoms: C2_2  and  C3_3 
REMARK    2  A    between atoms: C5_7  and  C6_8 
REMARK    3  A    between atoms: C8_10  and  C9_11 
REMARK    4  A    between atoms: C11_19  and  S1_20 
REMARK    5  A    between atoms: S1_20  and  C12_21 
REMARK    6  A    between atoms: C12_21  and  C13_22 
ROOT
HETATM    1  C6  UNL     1       8.023  -9.268  39.133  1.00  0.00     0.015 A 
HETATM    2  C7  UNL     1       7.783  -9.132  40.483  1.00  0.00     0.032 A 
HETATM    3  C8  UNL     1       6.690  -8.463  41.001  1.00  0.00     0.027 A 
HETATM    4  C11 UNL     1       5.768  -7.885  40.128  1.00  0.00     0.015 A 
HETATM    5  C16 UNL     1       6.022  -8.026  38.789  1.00  0.00     0.027 A 
HETATM    6  C17 UNL     1       7.123  -8.699  38.255  1.00  0.00    -0.047 A 
HETATM    7  C18 UNL     1       7.283  -8.768  36.782  1.00  0.00     0.049 C 
ENDROOT
BRANCH   1   8
HETATM    8  C5  UNL     1       9.156 -10.047  38.652  1.00  0.00     0.118 A 
HETATM    9  N1  UNL     1       9.084 -11.384  38.533  1.00  0.00    -0.351 N 
HETATM   10  C4  UNL     1      10.136 -12.128  38.059  1.00  0.00     0.102 A 
ATOM     11  H1  UNL     1       8.222 -11.859  38.803  1.00  0.00     0.166 HD
HETATM   12  C3  UNL     1      11.310 -11.542  37.682  1.00  0.00     0.025 A 
HETATM   13  C19 UNL     1      11.373 -10.163  37.810  1.00  0.00     0.254 A 
HETATM   14  N6  UNL     1      10.322  -9.514  38.276  1.00  0.00    -0.308 N 
HETATM   15  O2  UNL     1      12.466  -9.635  37.463  1.00  0.00    -0.268 OA
ATOM     16  H6  UNL     1      10.409  -8.502  38.356  1.00  0.00     0.170 HD
BRANCH  12  17
HETATM   17  C2  UNL     1      12.467 -12.316  37.160  1.00  0.00     0.041 C 
HETATM   18  C1  UNL     1      13.219 -13.025  38.247  1.00  0.00     0.010 C 
ENDBRANCH  12  17
ENDBRANCH   1   8
BRANCH   3  19
HETATM   19  C9  UNL     1       6.471  -8.368  42.453  1.00  0.00     0.132 A 
HETATM   20  N2  UNL     1       7.198  -7.722  43.372  1.00  0.00    -0.336 N 
HETATM   21  C10 UNL     1       6.635  -7.905  44.576  1.00  0.00     0.199 A 
ATOM     22  H2  UNL     1       8.042  -7.180  43.188  1.00  0.00     0.168 HD
HETATM   23  N3  UNL     1       5.533  -8.684  44.393  1.00  0.00    -0.295 N 
HETATM   24  N4  UNL     1       5.459  -8.945  43.108  1.00  0.00    -0.284 N 
ATOM     25  H3  UNL     1       4.888  -9.004  45.115  1.00  0.00     0.187 HD
ATOM     26  H4  UNL     1       4.732  -9.511  42.670  1.00  0.00     0.188 HD
ENDBRANCH   3  19
BRANCH   4  27
HETATM   27  S1  UNL     1       4.357  -7.101  40.850  1.00  0.00    -0.123 SA
BRANCH  27  28
HETATM   28  C12 UNL     1       4.622  -5.710  41.881  1.00  0.00     0.132 C 
BRANCH  28  29
HETATM   29  C13 UNL     1       3.910  -5.845  43.205  1.00  0.00     0.008 A 
HETATM   30  N5  UNL     1       2.903  -6.450  43.594  1.00  0.00    -0.333 N 
HETATM   31  C14 UNL     1       2.996  -6.032  44.889  1.00  0.00     0.227 A 
ATOM     32  H5  UNL     1       2.235  -7.052  43.113  1.00  0.00     0.168 HD
HETATM   33  O1  UNL     1       2.357  -6.207  45.997  1.00  0.00    -0.273 OA
HETATM   34  C15 UNL     1       4.174  -5.266  44.511  1.00  0.00     0.156 A 
ENDBRANCH  28  29
ENDBRANCH  27  28
ENDBRANCH   4  27
TORSDOF 6
ENDMDL
MODEL 3
REMARK VINA RESULT: -9.619180603      1.099      1.297
REMARK  6 active torsions:
REMARK  status: ('A' for Active; 'I' for Inactive)
REMARK    1  A    between atoms: C2_2  and  C3_3 
REMARK    2  A    between atoms: C5_7  and  C6_8 
REMARK    3  A    between atoms: C8_10  and  C9_11 
REMARK    4  A    between atoms: C11_19  and  S1_20 
REMARK    5  A    between atoms: S1_20  and  C12_21 
REMARK    6  A    between atoms: C12_21  and  C13_22 
ROOT
HETATM    1  C6  UNL     1       7.894  -9.792  38.141  1.00  0.00     0.015 A 
HETATM    2  C7  UNL     1       8.182 -11.110  38.421  1.00  0.00     0.032 A 
HETATM    3  C8  UNL     1       8.863 -11.944  37.552  1.00  0.00     0.027 A 
HETATM    4  C11 UNL     1       9.287 -11.445  36.321  1.00  0.00     0.015 A 
HETATM    5  C16 UNL     1       8.990 -10.134  36.056  1.00  0.00     0.027 A 
HETATM    6  C17 UNL     1       8.304  -9.283  36.926  1.00  0.00    -0.047 A 
HETATM    7  C18 UNL     1       8.038  -7.885  36.508  1.00  0.00     0.049 C 
ENDROOT
BRANCH   1   8
HETATM    8  C5  UNL     1       7.237  -8.947  39.129  1.00  0.00     0.118 A 
HETATM    9  N1  UNL     1       7.854  -8.599  40.271  1.00  0.00    -0.351 N 
HETATM   10  C4  UNL     1       7.256  -7.785  41.200  1.00  0.00     0.102 A 
ATOM     11  H1  UNL     1       8.794  -8.951  40.453  1.00  0.00     0.166 HD
HETATM   12  C3  UNL     1       5.999  -7.285  41.005  1.00  0.00     0.025 A 
HETATM   13  C19 UNL     1       5.373  -7.651  39.825  1.00  0.00     0.254 A 
HETATM   14  N6  UNL     1       6.010  -8.439  38.980  1.00  0.00    -0.308 N 
HETATM   15  O2  UNL     1       4.211  -7.186  39.660  1.00  0.00    -0.268 OA
ATOM     16  H6  UNL     1       5.515  -8.687  38.123  1.00  0.00     0.170 HD
BRANCH  12  17
HETATM   17  C2  UNL     1       5.324  -6.396  41.988  1.00  0.00     0.041 C 
HETATM   18  C1  UNL     1       5.580  -6.812  43.406  1.00  0.00     0.010 C 
ENDBRANCH  12  17
ENDBRANCH   1   8
BRANCH   3  19
HETATM   19  C9  UNL     1       9.164 -13.339  37.912  1.00  0.00     0.132 A 
HETATM   20  N2  UNL     1       8.430 -14.438  37.703  1.00  0.00    -0.336 N 
HETATM   21  C10 UNL     1       9.088 -15.497  38.198  1.00  0.00     0.199 A 
ATOM     22  H2  UNL     1       7.521 -14.466  37.242  1.00  0.00     0.168 HD
HETATM   23  N3  UNL     1      10.256 -15.037  38.727  1.00  0.00    -0.295 N 
HETATM   24  N4  UNL     1      10.274 -13.738  38.540  1.00  0.00    -0.284 N 
ATOM     25  H3  UNL     1      10.978 -15.596  39.181  1.00  0.00     0.187 HD
ATOM     26  H4  UNL     1      11.030 -13.119  38.833  1.00  0.00     0.188 HD
ENDBRANCH   3  19
BRANCH   4  27
HETATM   27  S1  UNL     1      10.209 -12.540  35.283  1.00  0.00    -0.123 SA
BRANCH  27  28
HETATM   28  C12 UNL     1      11.950 -12.587  35.470  1.00  0.00     0.132 C 
BRANCH  28  29
HETATM   29  C13 UNL     1      12.537 -11.207  35.645  1.00  0.00     0.008 A 
HETATM   30  N5  UNL     1      12.936 -10.327  34.871  1.00  0.00    -0.333 N 
HETATM   31  C14 UNL     1      13.280  -9.444  35.852  1.00  0.00     0.227 A 
ATOM     32  H5  UNL     1      12.989 -10.279  33.854  1.00  0.00     0.168 HD
HETATM   33  O1  UNL     1      13.763  -8.250  35.934  1.00  0.00    -0.273 OA
HETATM   34  C15 UNL     1      12.860 -10.434  36.832  1.00  0.00     0.156 A 
ENDBRANCH  28  29
ENDBRANCH  27  28
ENDBRANCH   4  27
TORSDOF 6
ENDMDL
MODEL 4
REMARK VINA RESULT: -9.083864865      3.695      9.140
REMARK  6 active torsions:
REMARK  status: ('A' for Active; 'I' for Inactive)
REMARK    1  A    between atoms: C2_2  and  C3_3 
REMARK    2  A    between atoms: C5_7  and  C6_8 
REMARK    3  A    between atoms: C8_10  and  C9_11 
REMARK    4  A    between atoms: C11_19  and  S1_20 
REMARK    5  A    between atoms: S1_20  and  C12_21 
REMARK    6  A    between atoms: C12_21  and  C13_22 
ROOT
HETATM    1  C6  UNL     1       7.855  -8.963  39.391  1.00  0.00     0.015 A 
HETATM    2  C7  UNL     1       7.615  -9.026  40.746  1.00  0.00     0.032 A 
HETATM    3  C8  UNL     1       6.847  -8.101  41.430  1.00  0.00     0.027 A 
HETATM    4  C11 UNL     1       6.276  -7.038  40.730  1.00  0.00     0.015 A 
HETATM    5  C16 UNL     1       6.526  -6.988  39.383  1.00  0.00     0.027 A 
HETATM    6  C17 UNL     1       7.301  -7.916  38.683  1.00  0.00    -0.047 A 
HETATM    7  C18 UNL     1       7.501  -7.736  37.225  1.00  0.00     0.049 C 
ENDROOT
BRANCH   1   8
HETATM    8  C5  UNL     1       8.614 -10.009  38.719  1.00  0.00     0.118 A 
HETATM    9  N1  UNL     1       8.001 -10.955  37.987  1.00  0.00    -0.351 N 
HETATM   10  C4  UNL     1       8.706 -11.933  37.330  1.00  0.00     0.102 A 
ATOM     11  H1  UNL     1       6.983 -10.945  37.918  1.00  0.00     0.166 HD
HETATM   12  C3  UNL     1      10.069 -11.990  37.387  1.00  0.00     0.025 A 
HETATM   13  C19 UNL     1      10.689 -11.010  38.146  1.00  0.00     0.254 A 
HETATM   14  N6  UNL     1       9.947 -10.103  38.751  1.00  0.00    -0.308 N 
HETATM   15  O2  UNL     1      11.949 -11.077  38.195  1.00  0.00    -0.268 OA
ATOM     16  H6  UNL     1      10.440  -9.400  39.301  1.00  0.00     0.170 HD
BRANCH  12  17
HETATM   17  C2  UNL     1      10.864 -13.031  36.683  1.00  0.00     0.041 C 
HETATM   18  C1  UNL     1      10.214 -13.482  35.408  1.00  0.00     0.010 C 
ENDBRANCH  12  17
ENDBRANCH   1   8
BRANCH   3  19
HETATM   19  C9  UNL     1       6.605  -8.230  42.876  1.00  0.00     0.132 A 
HETATM   20  N2  UNL     1       7.337  -7.766  43.895  1.00  0.00    -0.336 N 
HETATM   21  C10 UNL     1       6.746  -8.117  45.047  1.00  0.00     0.199 A 
ATOM     22  H2  UNL     1       8.202  -7.234  43.810  1.00  0.00     0.168 HD
HETATM   23  N3  UNL     1       5.620  -8.815  44.728  1.00  0.00    -0.295 N 
HETATM   24  N4  UNL     1       5.562  -8.866  43.417  1.00  0.00    -0.284 N 
ATOM     25  H3  UNL     1       4.951  -9.221  45.382  1.00  0.00     0.187 HD
ATOM     26  H4  UNL     1       4.823  -9.327  42.885  1.00  0.00     0.188 HD
ENDBRANCH   3  19
BRANCH   4  27
HETATM   27  S1  UNL     1       5.251  -5.927  41.647  1.00  0.00    -0.123 SA
BRANCH  27  28
HETATM   28  C12 UNL     1       3.642  -6.461  42.089  1.00  0.00     0.132 C 
BRANCH  28  29
HETATM   29  C13 UNL     1       3.356  -6.238  43.554  1.00  0.00     0.008 A 
HETATM   30  N5  UNL     1       2.448  -6.576  44.324  1.00  0.00    -0.333 N 
HETATM   31  C14 UNL     1       2.981  -5.967  45.422  1.00  0.00     0.227 A 
ATOM     32  H5  UNL     1       1.597  -7.120  44.186  1.00  0.00     0.168 HD
HETATM   33  O1  UNL     1       2.692  -5.832  46.673  1.00  0.00    -0.273 OA
HETATM   34  C15 UNL     1       4.073  -5.502  44.581  1.00  0.00     0.156 A 
ENDBRANCH  28  29
ENDBRANCH  27  28
ENDBRANCH   4  27
TORSDOF 6
ENDMDL
MODEL 5
REMARK VINA RESULT: -9.070671832      1.459      1.865
REMARK  6 active torsions:
REMARK  status: ('A' for Active; 'I' for Inactive)
REMARK    1  A    between atoms: C2_2  and  C3_3 
REMARK    2  A    between atoms: C5_7  and  C6_8 
REMARK    3  A    between atoms: C8_10  and  C9_11 
REMARK    4  A    between atoms: C11_19  and  S1_20 
REMARK    5  A    between atoms: S1_20  and  C12_21 
REMARK    6  A    between atoms: C12_21  and  C13_22 
ROOT
HETATM    1  C6  UNL     1       7.746  -9.452  38.292  1.00  0.00     0.015 A 
HETATM    2  C7  UNL     1       7.974 -10.794  38.501  1.00  0.00     0.032 A 
HETATM    3  C8  UNL     1       8.599 -11.615  37.580  1.00  0.00     0.027 A 
HETATM    4  C11 UNL     1       9.026 -11.077  36.367  1.00  0.00     0.015 A 
HETATM    5  C16 UNL     1       8.790  -9.741  36.172  1.00  0.00     0.027 A 
HETATM    6  C17 UNL     1       8.160  -8.903  37.095  1.00  0.00    -0.047 A 
HETATM    7  C18 UNL     1       7.956  -7.475  36.752  1.00  0.00     0.049 C 
ENDROOT
BRANCH   1   8
HETATM    8  C5  UNL     1       7.147  -8.626  39.333  1.00  0.00     0.118 A 
HETATM    9  N1  UNL     1       6.117  -7.805  39.066  1.00  0.00    -0.351 N 
HETATM   10  C4  UNL     1       5.529  -7.039  40.042  1.00  0.00     0.102 A 
ATOM     11  H1  UNL     1       5.763  -7.750  38.111  1.00  0.00     0.166 HD
HETATM   12  C3  UNL     1       5.964  -7.077  41.336  1.00  0.00     0.025 A 
HETATM   13  C19 UNL     1       7.027  -7.927  41.598  1.00  0.00     0.254 A 
HETATM   14  N6  UNL     1       7.543  -8.631  40.609  1.00  0.00    -0.308 N 
HETATM   15  O2  UNL     1       7.422  -7.949  42.798  1.00  0.00    -0.268 OA
ATOM     16  H6  UNL     1       8.324  -9.243  40.842  1.00  0.00     0.170 HD
BRANCH  12  17
HETATM   17  C2  UNL     1       5.347  -6.266  42.419  1.00  0.00     0.041 C 
HETATM   18  C1  UNL     1       3.848  -6.288  42.366  1.00  0.00     0.010 C 
ENDBRANCH  12  17
ENDBRANCH   1   8
BRANCH   3  19
HETATM   19  C9  UNL     1       8.837 -13.039  37.866  1.00  0.00     0.132 A 
HETATM   20  N2  UNL     1       8.087 -14.098  37.541  1.00  0.00    -0.336 N 
HETATM   21  C10 UNL     1       8.682 -15.208  38.005  1.00  0.00     0.199 A 
ATOM     22  H2  UNL     1       7.208 -14.068  37.026  1.00  0.00     0.168 HD
HETATM   23  N3  UNL     1       9.828 -14.820  38.632  1.00  0.00    -0.295 N 
HETATM   24  N4  UNL     1       9.895 -13.513  38.532  1.00  0.00    -0.284 N 
ATOM     25  H3  UNL     1      10.505 -15.429  39.091  1.00  0.00     0.187 HD
ATOM     26  H4  UNL     1      10.648 -12.938  38.909  1.00  0.00     0.188 HD
ENDBRANCH   3  19
BRANCH   4  27
HETATM   27  S1  UNL     1       9.876 -12.162  35.259  1.00  0.00    -0.123 SA
BRANCH  27  28
HETATM   28  C12 UNL     1      11.585 -12.440  35.524  1.00  0.00     0.132 C 
BRANCH  28  29
HETATM   29  C13 UNL     1      12.340 -11.153  35.748  1.00  0.00     0.008 A 
HETATM   30  N5  UNL     1      12.815 -10.283  35.007  1.00  0.00    -0.333 N 
HETATM   31  C14 UNL     1      13.297  -9.505  36.019  1.00  0.00     0.227 A 
ATOM     32  H5  UNL     1      12.839 -10.182  33.993  1.00  0.00     0.168 HD
HETATM   33  O1  UNL     1      13.922  -8.383  36.146  1.00  0.00    -0.273 OA
HETATM   34  C15 UNL     1      12.794 -10.494  36.961  1.00  0.00     0.156 A 
ENDBRANCH  28  29
ENDBRANCH  27  28
ENDBRANCH   4  27
TORSDOF 6
ENDMDL
