MODEL 1
REMARK VINA RESULT: -6.621287517      0.000      0.000
REMARK  2 active torsions:
REMARK  status: ('A' for Active; 'I' for Inactive)
REMARK       I    between atoms: C1_4  and  N3_6 
REMARK    1  A    between atoms: C2_7  and  N4_8 
REMARK    2  A    between atoms: N4_8  and  N5_10 
ROOT
HETATM    1  N1  UNL     1      12.326  55.450  52.724  1.00  0.00    -0.373 N 
ATOM      2  H11 UNL     1      12.804  54.549  52.706  1.00  0.00     0.158 HD
ATOM      3  H12 UNL     1      11.309  55.511  52.763  1.00  0.00     0.158 HD
HETATM    4  C1  UNL     1      13.082  56.501  52.695  1.00  0.00     0.198 C 
HETATM    5  N2  UNL     1      12.416  57.758  52.719  1.00  0.00    -0.063 NA
HETATM    6  N3  UNL     1      14.501  56.416  52.641  1.00  0.00    -0.221 N 
HETATM    7  C2  UNL     1      15.176  56.364  53.807  1.00  0.00     0.138 A 
HETATM    8  C3  UNL     1      16.563  56.279  53.800  1.00  0.00     0.125 A 
HETATM    9  C4  UNL     1      17.195  56.252  52.574  1.00  0.00     0.252 A 
HETATM   10  O1  UNL     1      18.452  56.176  52.539  1.00  0.00    -0.268 OA
HETATM   11  N6  UNL     1      16.470  56.308  51.428  1.00  0.00    -0.275 N 
ATOM     12  H6  UNL     1      16.952  56.288  50.529  1.00  0.00     0.173 HD
HETATM   13  C5  UNL     1      15.134  56.389  51.455  1.00  0.00     0.337 A 
HETATM   14  O2  UNL     1      14.445  56.441  50.405  1.00  0.00    -0.246 OA
ENDROOT
BRANCH   7  15
HETATM   15  N4  UNL     1      14.455  56.397  55.029  1.00  0.00    -0.291 N 
ATOM     16  H4  UNL     1      13.908  55.575  55.287  1.00  0.00     0.188 HD
BRANCH  15  17
HETATM   17  N5  UNL     1      14.453  57.483  55.893  1.00  0.00    -0.344 N 
ATOM     18  H52 UNL     1      15.130  58.223  55.710  1.00  0.00     0.176 HD
ATOM     19  H51 UNL     1      13.819  57.574  56.686  1.00  0.00     0.176 HD
ENDBRANCH  15  17
ENDBRANCH   7  15
TORSDOF 2
ENDMDL
MODEL 2
REMARK VINA RESULT: -4.206053646      1.924      2.520
REMARK  2 active torsions:
REMARK  status: ('A' for Active; 'I' for Inactive)
REMARK       I    between atoms: C1_4  and  N3_6 
REMARK    1  A    between atoms: C2_7  and  N4_8 
REMARK    2  A    between atoms: N4_8  and  N5_10 
ROOT
HETATM    1  N1  UNL     1      11.047  55.579  54.768  1.00  0.00    -0.373 N 
ATOM      2  H11 UNL     1      11.141  54.816  54.098  1.00  0.00     0.158 HD
ATOM      3  H12 UNL     1      10.297  55.589  55.459  1.00  0.00     0.158 HD
HETATM    4  C1  UNL     1      11.929  56.524  54.691  1.00  0.00     0.198 C 
HETATM    5  N2  UNL     1      11.797  57.588  55.626  1.00  0.00    -0.063 NA
HETATM    6  N3  UNL     1      12.976  56.509  53.728  1.00  0.00    -0.221 N 
HETATM    7  C2  UNL     1      14.133  55.902  54.060  1.00  0.00     0.138 A 
HETATM    8  C3  UNL     1      15.181  55.865  53.149  1.00  0.00     0.125 A 
HETATM    9  C4  UNL     1      14.982  56.463  51.921  1.00  0.00     0.252 A 
HETATM   10  O1  UNL     1      15.916  56.443  51.076  1.00  0.00    -0.268 OA
HETATM   11  N6  UNL     1      13.798  57.061  51.635  1.00  0.00    -0.275 N 
ATOM     12  H6  UNL     1      13.666  57.499  50.723  1.00  0.00     0.173 HD
HETATM   13  C5  UNL     1      12.800  57.087  52.526  1.00  0.00     0.337 A 
HETATM   14  O2  UNL     1      11.696  57.636  52.280  1.00  0.00    -0.246 OA
ENDROOT
BRANCH   7  15
HETATM   15  N4  UNL     1      14.263  55.310  55.343  1.00  0.00    -0.291 N 
ATOM     16  H4  UNL     1      14.166  55.909  56.162  1.00  0.00     0.188 HD
BRANCH  15  17
HETATM   17  N5  UNL     1      14.513  53.960  55.546  1.00  0.00    -0.344 N 
ATOM     18  H52 UNL     1      15.050  53.474  54.827  1.00  0.00     0.176 HD
ATOM     19  H51 UNL     1      14.191  53.441  56.363  1.00  0.00     0.176 HD
ENDBRANCH  15  17
ENDBRANCH   7  15
TORSDOF 2
ENDMDL
MODEL 3
REMARK VINA RESULT: -4.141102926      1.872      3.107
REMARK  2 active torsions:
REMARK  status: ('A' for Active; 'I' for Inactive)
REMARK       I    between atoms: C1_4  and  N3_6 
REMARK    1  A    between atoms: C2_7  and  N4_8 
REMARK    2  A    between atoms: N4_8  and  N5_10 
ROOT
HETATM    1  N1  UNL     1      14.251  54.936  55.577  1.00  0.00    -0.373 N 
ATOM      2  H11 UNL     1      14.356  54.131  54.959  1.00  0.00     0.158 HD
ATOM      3  H12 UNL     1      14.171  54.822  56.588  1.00  0.00     0.158 HD
HETATM    4  C1  UNL     1      14.227  56.099  55.008  1.00  0.00     0.198 C 
HETATM    5  N2  UNL     1      14.080  57.220  55.871  1.00  0.00    -0.063 NA
HETATM    6  N3  UNL     1      14.339  56.257  53.599  1.00  0.00    -0.221 N 
HETATM    7  C2  UNL     1      15.574  56.388  53.074  1.00  0.00     0.138 A 
HETATM    8  C3  UNL     1      15.729  56.545  51.702  1.00  0.00     0.125 A 
HETATM    9  C4  UNL     1      14.588  56.559  50.927  1.00  0.00     0.252 A 
HETATM   10  O1  UNL     1      14.700  56.700  49.681  1.00  0.00    -0.268 OA
HETATM   11  N6  UNL     1      13.367  56.424  51.505  1.00  0.00    -0.275 N 
ATOM     12  H6  UNL     1      12.532  56.437  50.919  1.00  0.00     0.173 HD
HETATM   13  C5  UNL     1      13.237  56.274  52.829  1.00  0.00     0.337 A 
HETATM   14  O2  UNL     1      12.116  56.146  53.382  1.00  0.00    -0.246 OA
ENDROOT
BRANCH   7  15
HETATM   15  N4  UNL     1      16.701  56.365  53.936  1.00  0.00    -0.291 N 
ATOM     16  H4  UNL     1      16.554  56.115  54.914  1.00  0.00     0.188 HD
BRANCH  15  17
HETATM   17  N5  UNL     1      17.993  56.662  53.523  1.00  0.00    -0.344 N 
ATOM     18  H52 UNL     1      18.680  55.910  53.573  1.00  0.00     0.176 HD
ATOM     19  H51 UNL     1      18.281  57.578  53.180  1.00  0.00     0.176 HD
ENDBRANCH  15  17
ENDBRANCH   7  15
TORSDOF 2
ENDMDL
MODEL 4
REMARK VINA RESULT: -3.825220732      1.833      3.013
REMARK  2 active torsions:
REMARK  status: ('A' for Active; 'I' for Inactive)
REMARK       I    between atoms: C1_4  and  N3_6 
REMARK    1  A    between atoms: C2_7  and  N4_8 
REMARK    2  A    between atoms: N4_8  and  N5_10 
ROOT
HETATM    1  N1  UNL     1      12.525  57.593  53.184  1.00  0.00    -0.373 N 
ATOM      2  H11 UNL     1      13.067  58.453  53.106  1.00  0.00     0.158 HD
ATOM      3  H12 UNL     1      11.506  57.610  53.237  1.00  0.00     0.158 HD
HETATM    4  C1  UNL     1      13.200  56.488  53.210  1.00  0.00     0.198 C 
HETATM    5  N2  UNL     1      12.443  55.289  53.319  1.00  0.00    -0.063 NA
HETATM    6  N3  UNL     1      14.620  56.464  53.135  1.00  0.00    -0.221 N 
HETATM    7  C2  UNL     1      15.189  56.401  51.913  1.00  0.00     0.138 A 
HETATM    8  C3  UNL     1      16.572  56.376  51.795  1.00  0.00     0.125 A 
HETATM    9  C4  UNL     1      17.314  56.418  52.957  1.00  0.00     0.252 A 
HETATM   10  O1  UNL     1      18.571  56.396  52.878  1.00  0.00    -0.268 OA
HETATM   11  N6  UNL     1      16.694  56.480  54.163  1.00  0.00    -0.275 N 
ATOM     12  H6  UNL     1      17.257  56.510  55.013  1.00  0.00     0.173 HD
HETATM   13  C5  UNL     1      15.359  56.504  54.257  1.00  0.00     0.337 A 
HETATM   14  O2  UNL     1      14.767  56.562  55.364  1.00  0.00    -0.246 OA
ENDROOT
BRANCH   7  15
HETATM   15  N4  UNL     1      14.358  56.360  50.763  1.00  0.00    -0.291 N 
ATOM     16  H4  UNL     1      13.525  55.772  50.791  1.00  0.00     0.188 HD
BRANCH  15  17
HETATM   17  N5  UNL     1      14.616  57.075  49.602  1.00  0.00    -0.344 N 
ATOM     18  H52 UNL     1      13.810  57.441  49.094  1.00  0.00     0.176 HD
ATOM     19  H51 UNL     1      15.553  57.248  49.239  1.00  0.00     0.176 HD
ENDBRANCH  15  17
ENDBRANCH   7  15
TORSDOF 2
ENDMDL
MODEL 5
REMARK VINA RESULT: -3.731353897      2.633      4.120
REMARK  2 active torsions:
REMARK  status: ('A' for Active; 'I' for Inactive)
REMARK       I    between atoms: C1_4  and  N3_6 
REMARK    1  A    between atoms: C2_7  and  N4_8 
REMARK    2  A    between atoms: N4_8  and  N5_10 
ROOT
HETATM    1  N1  UNL     1      14.735  57.056  51.302  1.00  0.00    -0.373 N 
ATOM      2  H11 UNL     1      14.201  57.924  51.353  1.00  0.00     0.158 HD
ATOM      3  H12 UNL     1      15.443  56.909  50.583  1.00  0.00     0.158 HD
HETATM    4  C1  UNL     1      14.463  56.161  52.197  1.00  0.00     0.198 C 
HETATM    5  N2  UNL     1      15.208  54.951  52.126  1.00  0.00    -0.063 NA
HETATM    6  N3  UNL     1      13.475  56.366  53.201  1.00  0.00    -0.221 N 
HETATM    7  C2  UNL     1      13.860  56.937  54.360  1.00  0.00     0.138 A 
HETATM    8  C3  UNL     1      12.927  57.156  55.366  1.00  0.00     0.125 A 
HETATM    9  C4  UNL     1      11.625  56.769  55.125  1.00  0.00     0.252 A 
HETATM   10  O1  UNL     1      10.759  56.956  56.021  1.00  0.00    -0.268 OA
HETATM   11  N6  UNL     1      11.289  56.197  53.941  1.00  0.00    -0.275 N 
ATOM     12  H6  UNL     1      10.321  55.916  53.778  1.00  0.00     0.173 HD
HETATM   13  C5  UNL     1      12.201  55.995  52.983  1.00  0.00     0.337 A 
HETATM   14  O2  UNL     1      11.909  55.467  51.881  1.00  0.00    -0.246 OA
ENDROOT
BRANCH   7  15
HETATM   15  N4  UNL     1      15.219  57.307  54.534  1.00  0.00    -0.291 N 
ATOM     16  H4  UNL     1      15.429  58.284  54.741  1.00  0.00     0.188 HD
BRANCH  15  17
HETATM   17  N5  UNL     1      16.278  56.416  54.438  1.00  0.00    -0.344 N 
ATOM     18  H52 UNL     1      16.297  55.645  55.105  1.00  0.00     0.176 HD
ATOM     19  H51 UNL     1      17.023  56.494  53.746  1.00  0.00     0.176 HD
ENDBRANCH  15  17
ENDBRANCH   7  15
TORSDOF 2
ENDMDL
