MODEL 1
REMARK VINA RESULT: -7.578018085      0.000      0.000
REMARK  1 active torsions:
REMARK  status: ('A' for Active; 'I' for Inactive)
REMARK    1  A    between atoms: N3_8  and  C3_10 
ROOT
HETATM    1  O1  UNL     1      18.879  56.249  52.595  1.00  0.00    -0.244 OA
HETATM    2  C1  UNL     1      17.626  56.206  52.689  1.00  0.00     0.354 A 
HETATM    3  N1  UNL     1      16.828  55.846  51.573  1.00  0.00    -0.236 N 
ATOM      4  H1  UNL     1      17.285  55.621  50.689  1.00  0.00     0.192 HD
HETATM    5  N2  UNL     1      15.449  55.792  51.650  1.00  0.00    -0.126 N 
ATOM      6  H2  UNL     1      14.908  55.528  50.827  1.00  0.00     0.206 HD
HETATM    7  C2  UNL     1      14.766  56.104  52.886  1.00  0.00     0.726 A 
HETATM    8  N3  UNL     1      13.511  56.029  52.866  1.00  0.00    -0.017 N 
ATOM      9  H3  UNL     1      13.132  55.751  51.961  1.00  0.00     0.203 HD
HETATM   10  N8  UNL     1      15.555  56.462  53.998  1.00  0.00    -0.126 N 
ATOM     11  H8  UNL     1      15.104  56.687  54.885  1.00  0.00     0.206 HD
HETATM   12  N9  UNL     1      16.957  56.512  53.899  1.00  0.00    -0.236 N 
ATOM     13  H9  UNL     1      17.506  56.774  54.719  1.00  0.00     0.192 HD
ENDROOT
BRANCH   8  14
HETATM   14  C3  UNL     1      12.539  56.248  53.832  1.00  0.00     0.725 A 
HETATM   15  N4  UNL     1      12.515  57.143  54.829  1.00  0.00    -0.113 N 
HETATM   16  N5  UNL     1      11.406  57.036  55.541  1.00  0.00     0.009 NA
ATOM     17  H4  UNL     1      13.257  57.818  55.015  1.00  0.00     0.203 HD
HETATM   18  N6  UNL     1      10.678  56.051  55.004  1.00  0.00    -0.212 N 
HETATM   19  N7  UNL     1      11.352  55.575  53.980  1.00  0.00    -0.117 N 
ATOM     20  H6  UNL     1       9.767  55.727  55.330  1.00  0.00     0.206 HD
ATOM     21  H7  UNL     1      11.037  54.812  53.381  1.00  0.00     0.207 HD
ENDBRANCH   8  14
TORSDOF 1
ENDMDL
MODEL 2
REMARK VINA RESULT: -7.188168666      2.614      5.478
REMARK  1 active torsions:
REMARK  status: ('A' for Active; 'I' for Inactive)
REMARK    1  A    between atoms: N3_8  and  C3_10 
ROOT
HETATM    1  O1  UNL     1      10.846  56.865  55.541  1.00  0.00    -0.244 OA
HETATM    2  C1  UNL     1      11.852  56.655  54.817  1.00  0.00     0.354 A 
HETATM    3  N1  UNL     1      11.704  56.144  53.502  1.00  0.00    -0.236 N 
ATOM      4  H1  UNL     1      10.767  55.948  53.149  1.00  0.00     0.192 HD
HETATM    5  N2  UNL     1      12.793  55.904  52.686  1.00  0.00    -0.126 N 
ATOM      6  H2  UNL     1      12.648  55.536  51.746  1.00  0.00     0.206 HD
HETATM    7  C2  UNL     1      14.137  56.169  53.152  1.00  0.00     0.726 A 
HETATM    8  N3  UNL     1      15.068  55.922  52.343  1.00  0.00    -0.017 N 
ATOM      9  H3  UNL     1      14.745  55.558  51.446  1.00  0.00     0.203 HD
HETATM   10  N8  UNL     1      14.289  56.678  54.457  1.00  0.00    -0.126 N 
ATOM     11  H8  UNL     1      15.223  56.876  54.815  1.00  0.00     0.206 HD
HETATM   12  N9  UNL     1      13.167  56.915  55.273  1.00  0.00    -0.236 N 
ATOM     13  H9  UNL     1      13.305  57.283  56.214  1.00  0.00     0.192 HD
ENDROOT
BRANCH   8  14
HETATM   14  C3  UNL     1      16.447  56.044  52.429  1.00  0.00     0.725 A 
HETATM   15  N4  UNL     1      17.399  55.555  51.622  1.00  0.00    -0.113 N 
HETATM   16  N5  UNL     1      18.605  55.892  52.046  1.00  0.00     0.009 NA
ATOM     17  H4  UNL     1      17.215  54.996  50.788  1.00  0.00     0.203 HD
HETATM   18  N6  UNL     1      18.451  56.620  53.157  1.00  0.00    -0.212 N 
HETATM   19  N7  UNL     1      17.161  56.714  53.392  1.00  0.00    -0.117 N 
ATOM     20  H6  UNL     1      19.198  57.028  53.719  1.00  0.00     0.206 HD
ATOM     21  H7  UNL     1      16.748  57.215  54.179  1.00  0.00     0.207 HD
ENDBRANCH   8  14
TORSDOF 1
ENDMDL
MODEL 3
REMARK VINA RESULT: -6.783351377      2.749      5.439
REMARK  1 active torsions:
REMARK  status: ('A' for Active; 'I' for Inactive)
REMARK    1  A    between atoms: N3_8  and  C3_10 
ROOT
HETATM    1  O1  UNL     1      10.339  57.130  56.032  1.00  0.00    -0.244 OA
HETATM    2  C1  UNL     1      11.284  56.807  55.269  1.00  0.00     0.354 A 
HETATM    3  N1  UNL     1      11.055  55.976  54.142  1.00  0.00    -0.236 N 
ATOM      4  H1  UNL     1      10.109  55.642  53.957  1.00  0.00     0.192 HD
HETATM    5  N2  UNL     1      12.077  55.608  53.288  1.00  0.00    -0.126 N 
ATOM      6  H2  UNL     1      11.874  55.009  52.488  1.00  0.00     0.206 HD
HETATM    7  C2  UNL     1      13.431  56.062  53.518  1.00  0.00     0.726 A 
HETATM    8  N3  UNL     1      14.298  55.679  52.691  1.00  0.00    -0.017 N 
ATOM      9  H3  UNL     1      13.923  55.084  51.952  1.00  0.00     0.203 HD
HETATM   10  N8  UNL     1      13.664  56.889  54.636  1.00  0.00    -0.126 N 
ATOM     11  H8  UNL     1      14.607  57.227  54.825  1.00  0.00     0.206 HD
HETATM   12  N9  UNL     1      12.610  57.253  55.493  1.00  0.00    -0.236 N 
ATOM     13  H9  UNL     1      12.805  57.852  56.296  1.00  0.00     0.192 HD
ENDROOT
BRANCH   8  14
HETATM   14  C3  UNL     1      15.663  55.903  52.585  1.00  0.00     0.725 A 
HETATM   15  N4  UNL     1      16.493  56.524  53.435  1.00  0.00    -0.113 N 
HETATM   16  N5  UNL     1      17.731  56.534  52.972  1.00  0.00     0.009 NA
ATOM     17  H4  UNL     1      16.206  56.934  54.324  1.00  0.00     0.203 HD
HETATM   18  N6  UNL     1      17.723  55.907  51.791  1.00  0.00    -0.212 N 
HETATM   19  N7  UNL     1      16.486  55.527  51.553  1.00  0.00    -0.117 N 
ATOM     20  H6  UNL     1      18.529  55.753  51.184  1.00  0.00     0.206 HD
ATOM     21  H7  UNL     1      16.183  55.025  50.720  1.00  0.00     0.207 HD
ENDBRANCH   8  14
TORSDOF 1
ENDMDL
MODEL 4
REMARK VINA RESULT: -6.653996104      0.428      1.074
REMARK  1 active torsions:
REMARK  status: ('A' for Active; 'I' for Inactive)
REMARK    1  A    between atoms: N3_8  and  C3_10 
ROOT
HETATM    1  O1  UNL     1      18.513  56.005  52.372  1.00  0.00    -0.244 OA
HETATM    2  C1  UNL     1      17.270  56.092  52.535  1.00  0.00     0.354 A 
HETATM    3  N1  UNL     1      16.390  56.068  51.423  1.00  0.00    -0.236 N 
ATOM      4  H1  UNL     1      16.780  55.977  50.485  1.00  0.00     0.192 HD
HETATM    5  N2  UNL     1      15.020  56.163  51.575  1.00  0.00    -0.126 N 
ATOM      6  H2  UNL     1      14.418  56.141  50.752  1.00  0.00     0.206 HD
HETATM    7  C2  UNL     1      14.430  56.292  52.890  1.00  0.00     0.726 A 
HETATM    8  N3  UNL     1      13.176  56.372  52.935  1.00  0.00    -0.017 N 
ATOM      9  H3  UNL     1      12.730  56.335  52.018  1.00  0.00     0.203 HD
HETATM   10  N8  UNL     1      15.300  56.317  53.998  1.00  0.00    -0.126 N 
ATOM     11  H8  UNL     1      14.916  56.406  54.939  1.00  0.00     0.206 HD
HETATM   12  N9  UNL     1      16.693  56.219  53.823  1.00  0.00    -0.236 N 
ATOM     13  H9  UNL     1      17.301  56.240  54.641  1.00  0.00     0.192 HD
ENDROOT
BRANCH   8  14
HETATM   14  C3  UNL     1      12.278  56.502  53.985  1.00  0.00     0.725 A 
HETATM   15  N4  UNL     1      11.113  55.872  54.192  1.00  0.00    -0.113 N 
HETATM   16  N5  UNL     1      10.546  56.275  55.317  1.00  0.00     0.009 NA
ATOM     17  H4  UNL     1      10.716  55.172  53.564  1.00  0.00     0.203 HD
HETATM   18  N6  UNL     1      11.351  57.190  55.867  1.00  0.00    -0.212 N 
HETATM   19  N7  UNL     1      12.389  57.331  55.073  1.00  0.00    -0.117 N 
ATOM     20  H6  UNL     1      11.188  57.689  56.742  1.00  0.00     0.206 HD
ATOM     21  H7  UNL     1      13.168  57.967  55.242  1.00  0.00     0.207 HD
ENDBRANCH   8  14
TORSDOF 1
ENDMDL
MODEL 5
REMARK VINA RESULT: -6.602705976      1.174      1.237
REMARK  1 active torsions:
REMARK  status: ('A' for Active; 'I' for Inactive)
REMARK    1  A    between atoms: N3_8  and  C3_10 
ROOT
HETATM    1  O1  UNL     1      17.575  55.807  51.479  1.00  0.00    -0.244 OA
HETATM    2  C1  UNL     1      16.389  56.001  51.846  1.00  0.00     0.354 A 
HETATM    3  N1  UNL     1      15.388  56.356  50.906  1.00  0.00    -0.236 N 
ATOM      4  H1  UNL     1      15.643  56.452  49.923  1.00  0.00     0.192 HD
HETATM    5  N2  UNL     1      14.077  56.575  51.284  1.00  0.00    -0.126 N 
ATOM      6  H2  UNL     1      13.384  56.828  50.579  1.00  0.00     0.206 HD
HETATM    7  C2  UNL     1      13.676  56.449  52.668  1.00  0.00     0.726 A 
HETATM    8  N3  UNL     1      12.464  56.666  52.922  1.00  0.00    -0.017 N 
ATOM      9  H3  UNL     1      11.911  56.908  52.100  1.00  0.00     0.203 HD
HETATM   10  N8  UNL     1      14.667  56.095  53.606  1.00  0.00    -0.126 N 
ATOM     11  H8  UNL     1      14.417  55.998  54.590  1.00  0.00     0.206 HD
HETATM   12  N9  UNL     1      15.997  55.877  53.202  1.00  0.00    -0.236 N 
ATOM     13  H9  UNL     1      16.695  55.623  53.901  1.00  0.00     0.192 HD
ENDROOT
BRANCH   8  14
HETATM   14  C3  UNL     1      11.729  56.641  54.099  1.00  0.00     0.725 A 
HETATM   15  N4  UNL     1      11.909  57.336  55.230  1.00  0.00    -0.113 N 
HETATM   16  N5  UNL     1      10.991  57.029  56.131  1.00  0.00     0.009 NA
ATOM     17  H4  UNL     1      12.657  58.015  55.377  1.00  0.00     0.203 HD
HETATM   18  N6  UNL     1      10.186  56.111  55.586  1.00  0.00    -0.212 N 
HETATM   19  N7  UNL     1      10.623  55.874  54.368  1.00  0.00    -0.117 N 
ATOM     20  H6  UNL     1       9.380  55.674  56.033  1.00  0.00     0.206 HD
ATOM     21  H7  UNL     1      10.200  55.214  53.717  1.00  0.00     0.207 HD
ENDBRANCH   8  14
TORSDOF 1
ENDMDL
