MODEL 1
REMARK VINA RESULT: -5.531040781      0.000      0.000
REMARK  1 active torsions:
REMARK  status: ('A' for Active; 'I' for Inactive)
REMARK    1  A    between atoms: C2_3  and  C3_4 
ROOT
HETATM    1  C1  UNL     1      25.747   9.328   3.229  1.00  0.00     0.222 C 
HETATM    2  N1  UNL     1      26.461   8.454   3.485  1.00  0.00    -0.456 NA
HETATM    3  C2  UNL     1      27.334   7.410   3.806  1.00  0.00     0.108 C 
HETATM    4  C5  UNL     1      26.712   6.077   3.452  1.00  0.00     0.050 C 
HETATM    5  C6  UNL     1      25.466   5.924   4.279  1.00  0.00     0.004 C 
HETATM    6  C7  UNL     1      25.802   5.892   5.742  1.00  0.00     0.000 C 
HETATM    7  C8  UNL     1      26.532   7.119   6.166  1.00  0.00     0.004 C 
HETATM    8  C9  UNL     1      27.654   7.520   5.276  1.00  0.00     0.050 C 
ENDROOT
BRANCH   3   9
HETATM    9  C3  UNL     1      28.579   7.535   3.004  1.00  0.00     0.008 C 
HETATM   10  C4  UNL     1      28.545   7.589   1.664  1.00  0.00     0.010 C 
ENDBRANCH   3   9
TORSDOF 1
ENDMDL
MODEL 2
REMARK VINA RESULT: -5.398469299      1.259      3.585
REMARK  1 active torsions:
REMARK  status: ('A' for Active; 'I' for Inactive)
REMARK    1  A    between atoms: C2_3  and  C3_4 
ROOT
HETATM    1  C1  UNL     1      26.805   5.573   2.789  1.00  0.00     0.222 C 
HETATM    2  N1  UNL     1      26.959   6.470   3.503  1.00  0.00    -0.456 NA
HETATM    3  C2  UNL     1      27.165   7.548   4.371  1.00  0.00     0.108 C 
HETATM    4  C5  UNL     1      26.126   8.621   4.132  1.00  0.00     0.050 C 
HETATM    5  C6  UNL     1      26.295   9.110   2.721  1.00  0.00     0.004 C 
HETATM    6  C7  UNL     1      27.645   9.739   2.537  1.00  0.00     0.000 C 
HETATM    7  C8  UNL     1      28.745   8.791   2.870  1.00  0.00     0.004 C 
HETATM    8  C9  UNL     1      28.569   8.051   4.148  1.00  0.00     0.050 C 
ENDROOT
BRANCH   3   9
HETATM    9  C3  UNL     1      27.006   7.094   5.777  1.00  0.00     0.008 C 
HETATM   10  C4  UNL     1      25.999   6.284   6.142  1.00  0.00     0.010 C 
ENDBRANCH   3   9
TORSDOF 1
ENDMDL
MODEL 3
REMARK VINA RESULT: -5.336079518      1.403      3.690
REMARK  1 active torsions:
REMARK  status: ('A' for Active; 'I' for Inactive)
REMARK    1  A    between atoms: C2_3  and  C3_4 
ROOT
HETATM    1  C1  UNL     1      28.887   9.558   4.870  1.00  0.00     0.222 C 
HETATM    2  N1  UNL     1      28.032   8.949   4.383  1.00  0.00    -0.456 NA
HETATM    3  C2  UNL     1      26.986   8.228   3.797  1.00  0.00     0.108 C 
HETATM    4  C5  UNL     1      27.534   7.105   2.946  1.00  0.00     0.050 C 
HETATM    5  C6  UNL     1      28.354   7.724   1.849  1.00  0.00     0.004 C 
HETATM    6  C7  UNL     1      27.496   8.583   0.967  1.00  0.00     0.000 C 
HETATM    7  C8  UNL     1      26.809   9.654   1.741  1.00  0.00     0.004 C 
HETATM    8  C9  UNL     1      26.156   9.200   2.997  1.00  0.00     0.050 C 
ENDROOT
BRANCH   3   9
HETATM    9  C3  UNL     1      26.155   7.604   4.859  1.00  0.00     0.008 C 
HETATM   10  C4  UNL     1      26.701   6.838   5.816  1.00  0.00     0.010 C 
ENDBRANCH   3   9
TORSDOF 1
ENDMDL
MODEL 4
REMARK VINA RESULT: -5.178455714      1.725      2.653
REMARK  1 active torsions:
REMARK  status: ('A' for Active; 'I' for Inactive)
REMARK    1  A    between atoms: C2_3  and  C3_4 
ROOT
HETATM    1  C1  UNL     1      27.388   8.698   0.720  1.00  0.00     0.222 C 
HETATM    2  N1  UNL     1      27.499   8.025   1.655  1.00  0.00    -0.456 NA
HETATM    3  C2  UNL     1      27.654   7.212   2.783  1.00  0.00     0.108 C 
HETATM    4  C5  UNL     1      26.416   7.273   3.649  1.00  0.00     0.050 C 
HETATM    5  C6  UNL     1      26.254   8.695   4.110  1.00  0.00     0.004 C 
HETATM    6  C7  UNL     1      27.420   9.112   4.957  1.00  0.00     0.000 C 
HETATM    7  C8  UNL     1      28.711   8.970   4.227  1.00  0.00     0.004 C 
HETATM    8  C9  UNL     1      28.888   7.677   3.514  1.00  0.00     0.050 C 
ENDROOT
BRANCH   3   9
HETATM    9  C3  UNL     1      27.818   5.797   2.359  1.00  0.00     0.008 C 
HETATM   10  C4  UNL     1      26.897   4.866   2.653  1.00  0.00     0.010 C 
ENDBRANCH   3   9
TORSDOF 1
ENDMDL
MODEL 5
REMARK VINA RESULT: -5.064972743      1.098      2.504
REMARK  1 active torsions:
REMARK  status: ('A' for Active; 'I' for Inactive)
REMARK    1  A    between atoms: C2_3  and  C3_4 
ROOT
HETATM    1  C1  UNL     1      29.239   7.630   3.463  1.00  0.00     0.222 C 
HETATM    2  N1  UNL     1      28.119   7.818   3.685  1.00  0.00    -0.456 NA
HETATM    3  C2  UNL     1      26.760   8.036   3.937  1.00  0.00     0.108 C 
HETATM    4  C5  UNL     1      26.530   8.269   5.413  1.00  0.00     0.050 C 
HETATM    5  C6  UNL     1      26.951   7.023   6.141  1.00  0.00     0.004 C 
HETATM    6  C7  UNL     1      26.101   5.857   5.729  1.00  0.00     0.000 C 
HETATM    7  C8  UNL     1      26.164   5.620   4.259  1.00  0.00     0.004 C 
HETATM    8  C9  UNL     1      26.003   6.838   3.421  1.00  0.00     0.050 C 
ENDROOT
BRANCH   3   9
HETATM    9  C3  UNL     1      26.313   9.263   3.228  1.00  0.00     0.008 C 
HETATM   10  C4  UNL     1      26.808   9.597   2.026  1.00  0.00     0.010 C 
ENDBRANCH   3   9
TORSDOF 1
ENDMDL
