MODEL 1
REMARK VINA RESULT: -4.037411522      0.000      0.000
REMARK  1 active torsions:
REMARK  status: ('A' for Active; 'I' for Inactive)
REMARK    1  A    between atoms: C6_6  and  N1_7 
ROOT
HETATM    1  C1  UNL     1      26.922   4.037   4.094  1.00  0.00     0.012 C 
HETATM    2  C2  UNL     1      26.259   5.354   3.961  1.00  0.00     0.013 C 
HETATM    3  C3  UNL     1      25.141   5.670   4.909  1.00  0.00    -0.006 C 
HETATM    4  C4  UNL     1      25.691   5.460   6.298  1.00  0.00     0.007 C 
HETATM    5  C5  UNL     1      27.105   6.034   6.075  1.00  0.00     0.031 C 
HETATM    6  C6  UNL     1      26.957   6.521   4.672  1.00  0.00     0.027 C 
HETATM    7  C7  UNL     1      25.552   7.136   4.680  1.00  0.00     0.035 C 
ENDROOT
BRANCH   6   8
HETATM    8  N1  UNL     1      27.969   7.186   4.020  1.00  0.00    -0.421 N 
ATOM      9  H12 UNL     1      28.814   7.443   4.531  1.00  0.00     0.150 HD
ATOM     10  H11 UNL     1      27.854   7.412   3.032  1.00  0.00     0.150 HD
ENDBRANCH   6   8
TORSDOF 1
ENDMDL
MODEL 2
REMARK VINA RESULT: -4.006416241      0.792      2.187
REMARK  1 active torsions:
REMARK  status: ('A' for Active; 'I' for Inactive)
REMARK    1  A    between atoms: C6_6  and  N1_7 
ROOT
HETATM    1  C1  UNL     1      26.326   6.699   6.712  1.00  0.00     0.012 C 
HETATM    2  C2  UNL     1      26.910   5.843   5.653  1.00  0.00     0.013 C 
HETATM    3  C3  UNL     1      26.003   4.864   4.971  1.00  0.00    -0.006 C 
HETATM    4  C4  UNL     1      24.827   5.659   4.460  1.00  0.00     0.007 C 
HETATM    5  C5  UNL     1      25.586   6.921   4.001  1.00  0.00     0.031 C 
HETATM    6  C6  UNL     1      26.987   6.477   4.259  1.00  0.00     0.027 C 
HETATM    7  C7  UNL     1      26.967   5.019   3.780  1.00  0.00     0.035 C 
ENDROOT
BRANCH   6   8
HETATM    8  N1  UNL     1      28.071   7.263   3.945  1.00  0.00    -0.421 N 
ATOM      9  H12 UNL     1      27.932   8.252   3.734  1.00  0.00     0.150 HD
ATOM     10  H11 UNL     1      28.999   6.839   3.929  1.00  0.00     0.150 HD
ENDBRANCH   6   8
TORSDOF 1
ENDMDL
MODEL 3
REMARK VINA RESULT: -3.814640858      1.622      2.237
REMARK  1 active torsions:
REMARK  status: ('A' for Active; 'I' for Inactive)
REMARK    1  A    between atoms: C6_6  and  N1_7 
ROOT
HETATM    1  C1  UNL     1      27.202   4.950   3.262  1.00  0.00     0.012 C 
HETATM    2  C2  UNL     1      26.354   4.750   4.459  1.00  0.00     0.013 C 
HETATM    3  C3  UNL     1      26.909   5.176   5.784  1.00  0.00    -0.006 C 
HETATM    4  C4  UNL     1      27.320   6.620   5.627  1.00  0.00     0.007 C 
HETATM    5  C5  UNL     1      26.147   7.099   4.750  1.00  0.00     0.031 C 
HETATM    6  C6  UNL     1      25.324   5.854   4.731  1.00  0.00     0.027 C 
HETATM    7  C7  UNL     1      25.433   5.364   6.181  1.00  0.00     0.035 C 
ENDROOT
BRANCH   6   8
HETATM    8  N1  UNL     1      24.103   5.795   4.101  1.00  0.00    -0.421 N 
ATOM      9  H12 UNL     1      24.065   5.723   3.084  1.00  0.00     0.150 HD
ATOM     10  H11 UNL     1      23.255   5.824   4.666  1.00  0.00     0.150 HD
ENDBRANCH   6   8
TORSDOF 1
ENDMDL
MODEL 4
REMARK VINA RESULT: -3.747022725      1.408      2.468
REMARK  1 active torsions:
REMARK  status: ('A' for Active; 'I' for Inactive)
REMARK    1  A    between atoms: C6_6  and  N1_7 
ROOT
HETATM    1  C1  UNL     1      24.343   6.229   3.942  1.00  0.00     0.012 C 
HETATM    2  C2  UNL     1      25.181   5.488   4.913  1.00  0.00     0.013 C 
HETATM    3  C3  UNL     1      26.187   4.521   4.370  1.00  0.00    -0.006 C 
HETATM    4  C4  UNL     1      27.029   5.293   3.383  1.00  0.00     0.007 C 
HETATM    5  C5  UNL     1      27.126   6.623   4.156  1.00  0.00     0.031 C 
HETATM    6  C6  UNL     1      26.425   6.232   5.414  1.00  0.00     0.027 C 
HETATM    7  C7  UNL     1      26.962   4.817   5.667  1.00  0.00     0.035 C 
ENDROOT
BRANCH   6   8
HETATM    8  N1  UNL     1      26.301   7.094   6.479  1.00  0.00    -0.421 N 
ATOM      9  H12 UNL     1      26.681   6.829   7.388  1.00  0.00     0.150 HD
ATOM     10  H11 UNL     1      25.829   7.987   6.338  1.00  0.00     0.150 HD
ENDBRANCH   6   8
TORSDOF 1
ENDMDL
MODEL 5
REMARK VINA RESULT: -3.659041576      1.738      2.631
REMARK  1 active torsions:
REMARK  status: ('A' for Active; 'I' for Inactive)
REMARK    1  A    between atoms: C6_6  and  N1_7 
ROOT
HETATM    1  C1  UNL     1      27.667   7.161   5.272  1.00  0.00     0.012 C 
HETATM    2  C2  UNL     1      26.253   6.825   4.988  1.00  0.00     0.013 C 
HETATM    3  C3  UNL     1      25.926   6.281   3.630  1.00  0.00    -0.006 C 
HETATM    4  C4  UNL     1      26.834   5.095   3.418  1.00  0.00     0.007 C 
HETATM    5  C5  UNL     1      26.792   4.515   4.846  1.00  0.00     0.031 C 
HETATM    6  C6  UNL     1      25.795   5.439   5.461  1.00  0.00     0.027 C 
HETATM    7  C7  UNL     1      24.751   5.590   4.347  1.00  0.00     0.035 C 
ENDROOT
BRANCH   6   8
HETATM    8  N1  UNL     1      25.363   5.289   6.758  1.00  0.00    -0.421 N 
ATOM      9  H12 UNL     1      24.997   6.096   7.264  1.00  0.00     0.150 HD
ATOM     10  H11 UNL     1      25.418   4.367   7.192  1.00  0.00     0.150 HD
ENDBRANCH   6   8
TORSDOF 1
ENDMDL
