MODEL 1
REMARK VINA RESULT: -6.277471561      0.000      0.000
REMARK  11 active torsions:
REMARK  status: ('A' for Active; 'I' for Inactive)
REMARK    1  A    between atoms: N1_1  and  C1_5 
REMARK    2  A    between atoms: C1_5  and  C2_6 
REMARK    3  A    between atoms: C2_6  and  S1_7 
REMARK    4  A    between atoms: S1_7  and  C3_8 
REMARK    5  A    between atoms: C3_8  and  C4_9 
REMARK    6  A    between atoms: C7_12  and  C8_13 
REMARK    7  A    between atoms: C8_13  and  C9_14 
REMARK    8  A    between atoms: C9_14  and  C10_15 
REMARK    9  A    between atoms: C10_15  and  C11_16 
REMARK   10  A    between atoms: C11_16  and  C12_17 
REMARK   11  A    between atoms: C12_17  and  C13_18 
ROOT
HETATM    1  C4  UNL     1      13.975  21.459  58.241  1.00  0.00     0.093 C 
HETATM    2  C5  UNL     1      14.584  20.100  58.469  1.00  0.00     0.027 C 
HETATM    3  C6  UNL     1      13.514  19.000  58.583  1.00  0.00     0.016 C 
HETATM    4  C7  UNL     1      12.702  19.089  57.345  1.00  0.00     0.078 C 
HETATM    5  C18 UNL     1      11.860  20.320  57.491  1.00  0.00     0.222 C 
HETATM    6  O1  UNL     1      10.675  20.285  57.144  1.00  0.00    -0.273 OA
HETATM    7  N3  UNL     1      12.543  21.434  58.032  1.00  0.00    -0.355 N 
ATOM      8  H3  UNL     1      12.000  22.259  58.288  1.00  0.00     0.162 HD
ENDROOT
BRANCH   4   9
HETATM    9  C8  UNL     1      12.014  17.906  56.834  1.00  0.00     0.014 C 
BRANCH   9  10
HETATM   10  C9  UNL     1      11.383  16.931  57.731  1.00  0.00     0.001 C 
BRANCH  10  11
HETATM   11  C10 UNL     1      10.159  17.340  58.474  1.00  0.00     0.000 C 
BRANCH  11  12
HETATM   12  C11 UNL     1      10.404  17.404  59.981  1.00  0.00     0.000 C 
BRANCH  12  13
HETATM   13  C12 UNL     1      10.408  18.806  60.509  1.00  0.00     0.005 C 
BRANCH  13  14
HETATM   14  C13 UNL     1      11.060  18.891  61.877  1.00  0.00    -0.011 C 
HETATM   15  C14 UNL     1      10.271  19.714  62.845  1.00  0.00     0.032 C 
HETATM   16  C15 UNL     1      11.226  20.397  63.796  1.00  0.00     0.232 C 
HETATM   17  N2  UNL     1      11.923  21.432  63.067  1.00  0.00    -0.075 N 
HETATM   18  C16 UNL     1      12.382  21.013  61.773  1.00  0.00     0.232 C 
ATOM     19  H22 UNL     1      11.346  22.271  62.991  1.00  0.00     0.277 HD
ATOM     20  H21 UNL     1      12.694  21.807  63.620  1.00  0.00     0.277 HD
HETATM   21  C17 UNL     1      12.440  19.491  61.732  1.00  0.00     0.032 C 
ENDBRANCH  13  14
ENDBRANCH  12  13
ENDBRANCH  11  12
ENDBRANCH  10  11
ENDBRANCH   9  10
ENDBRANCH   4   9
BRANCH   1  22
HETATM   22  C3  UNL     1      14.665  22.181  57.096  1.00  0.00     0.099 C 
BRANCH  22  23
HETATM   23  S1  UNL     1      15.792  21.040  56.255  1.00  0.00    -0.165 SA
BRANCH  23  24
HETATM   24  C2  UNL     1      16.835  21.907  55.055  1.00  0.00     0.101 C 
BRANCH  24  25
HETATM   25  C1  UNL     1      16.223  21.784  53.663  1.00  0.00     0.239 C 
BRANCH  25  26
HETATM   26  N1  UNL     1      15.063  20.935  53.669  1.00  0.00    -0.079 N 
ATOM     27  H13 UNL     1      14.634  20.895  54.593  1.00  0.00     0.274 HD
ATOM     28  H12 UNL     1      14.291  21.357  53.154  1.00  0.00     0.274 HD
ATOM     29  H11 UNL     1      15.280  20.002  53.318  1.00  0.00     0.274 HD
ENDBRANCH  25  26
ENDBRANCH  24  25
ENDBRANCH  23  24
ENDBRANCH  22  23
ENDBRANCH   1  22
TORSDOF 11
ENDMDL
MODEL 2
REMARK VINA RESULT: -6.239091975      3.370      4.153
REMARK  11 active torsions:
REMARK  status: ('A' for Active; 'I' for Inactive)
REMARK    1  A    between atoms: N1_1  and  C1_5 
REMARK    2  A    between atoms: C1_5  and  C2_6 
REMARK    3  A    between atoms: C2_6  and  S1_7 
REMARK    4  A    between atoms: S1_7  and  C3_8 
REMARK    5  A    between atoms: C3_8  and  C4_9 
REMARK    6  A    between atoms: C7_12  and  C8_13 
REMARK    7  A    between atoms: C8_13  and  C9_14 
REMARK    8  A    between atoms: C9_14  and  C10_15 
REMARK    9  A    between atoms: C10_15  and  C11_16 
REMARK   10  A    between atoms: C11_16  and  C12_17 
REMARK   11  A    between atoms: C12_17  and  C13_18 
ROOT
HETATM    1  C4  UNL     1      13.958  20.786  58.371  1.00  0.00     0.093 C 
HETATM    2  C5  UNL     1      13.946  19.774  59.487  1.00  0.00     0.027 C 
HETATM    3  C6  UNL     1      12.520  19.300  59.820  1.00  0.00     0.016 C 
HETATM    4  C7  UNL     1      11.951  18.791  58.548  1.00  0.00     0.078 C 
HETATM    5  C18 UNL     1      11.659  20.001  57.714  1.00  0.00     0.222 C 
HETATM    6  O1  UNL     1      10.604  20.053  57.074  1.00  0.00    -0.273 OA
HETATM    7  N3  UNL     1      12.667  20.993  57.751  1.00  0.00    -0.355 N 
ATOM      8  H3  UNL     1      12.474  21.898  57.321  1.00  0.00     0.162 HD
ENDROOT
BRANCH   4   9
HETATM    9  C8  UNL     1      10.908  17.769  58.570  1.00  0.00     0.014 C 
BRANCH   9  10
HETATM   10  C9  UNL     1      10.230  17.382  59.813  1.00  0.00     0.001 C 
BRANCH  10  11
HETATM   11  C10 UNL     1       9.067  18.194  60.268  1.00  0.00     0.000 C 
BRANCH  11  12
HETATM   12  C11 UNL     1       8.171  18.606  59.101  1.00  0.00     0.000 C 
BRANCH  12  13
HETATM   13  C12 UNL     1       6.715  18.601  59.457  1.00  0.00     0.005 C 
BRANCH  13  14
HETATM   14  C13 UNL     1       5.897  19.441  58.493  1.00  0.00    -0.011 C 
HETATM   15  C14 UNL     1       6.499  20.786  58.240  1.00  0.00     0.032 C 
HETATM   16  C15 UNL     1       5.387  21.779  57.995  1.00  0.00     0.232 C 
HETATM   17  N2  UNL     1       4.712  22.018  59.250  1.00  0.00    -0.075 N 
HETATM   18  C16 UNL     1       4.446  20.820  59.995  1.00  0.00     0.232 C 
ATOM     19  H22 UNL     1       5.231  22.689  59.818  1.00  0.00     0.277 HD
ATOM     20  H21 UNL     1       3.854  22.549  59.102  1.00  0.00     0.277 HD
HETATM   21  C17 UNL     1       4.505  19.623  59.055  1.00  0.00     0.032 C 
ENDBRANCH  13  14
ENDBRANCH  12  13
ENDBRANCH  11  12
ENDBRANCH  10  11
ENDBRANCH   9  10
ENDBRANCH   4   9
BRANCH   1  22
HETATM   22  C3  UNL     1      14.999  20.430  57.323  1.00  0.00     0.099 C 
BRANCH  22  23
HETATM   23  S1  UNL     1      15.510  21.930  56.446  1.00  0.00    -0.165 SA
BRANCH  23  24
HETATM   24  C2  UNL     1      16.831  21.582  55.257  1.00  0.00     0.101 C 
BRANCH  24  25
HETATM   25  C1  UNL     1      16.277  21.666  53.838  1.00  0.00     0.239 C 
BRANCH  25  26
HETATM   26  N1  UNL     1      15.056  20.919  53.703  1.00  0.00    -0.079 N 
ATOM     27  H13 UNL     1      14.808  20.448  54.573  1.00  0.00     0.274 HD
ATOM     28  H12 UNL     1      14.249  21.537  53.621  1.00  0.00     0.274 HD
ATOM     29  H11 UNL     1      15.103  20.263  52.923  1.00  0.00     0.274 HD
ENDBRANCH  25  26
ENDBRANCH  24  25
ENDBRANCH  23  24
ENDBRANCH  22  23
ENDBRANCH   1  22
TORSDOF 11
ENDMDL
MODEL 3
REMARK VINA RESULT: -6.146824486      1.200      1.488
REMARK  11 active torsions:
REMARK  status: ('A' for Active; 'I' for Inactive)
REMARK    1  A    between atoms: N1_1  and  C1_5 
REMARK    2  A    between atoms: C1_5  and  C2_6 
REMARK    3  A    between atoms: C2_6  and  S1_7 
REMARK    4  A    between atoms: S1_7  and  C3_8 
REMARK    5  A    between atoms: C3_8  and  C4_9 
REMARK    6  A    between atoms: C7_12  and  C8_13 
REMARK    7  A    between atoms: C8_13  and  C9_14 
REMARK    8  A    between atoms: C9_14  and  C10_15 
REMARK    9  A    between atoms: C10_15  and  C11_16 
REMARK   10  A    between atoms: C11_16  and  C12_17 
REMARK   11  A    between atoms: C12_17  and  C13_18 
ROOT
HETATM    1  C4  UNL     1      13.722  21.392  58.465  1.00  0.00     0.093 C 
HETATM    2  C5  UNL     1      14.271  20.029  58.796  1.00  0.00     0.027 C 
HETATM    3  C6  UNL     1      13.176  18.947  58.782  1.00  0.00     0.016 C 
HETATM    4  C7  UNL     1      12.540  19.025  57.444  1.00  0.00     0.078 C 
HETATM    5  C18 UNL     1      11.708  20.271  57.454  1.00  0.00     0.222 C 
HETATM    6  O1  UNL     1      10.580  20.248  56.951  1.00  0.00    -0.273 OA
HETATM    7  N3  UNL     1      12.331  21.385  58.065  1.00  0.00    -0.355 N 
ATOM      8  H3  UNL     1      11.773  22.223  58.231  1.00  0.00     0.162 HD
ENDROOT
BRANCH   4   9
HETATM    9  C8  UNL     1      11.907  17.844  56.865  1.00  0.00     0.014 C 
BRANCH   9  10
HETATM   10  C9  UNL     1      11.084  16.934  57.670  1.00  0.00     0.001 C 
BRANCH  10  11
HETATM   11  C10 UNL     1      10.751  17.329  59.068  1.00  0.00     0.000 C 
BRANCH  11  12
HETATM   12  C11 UNL     1       9.376  17.989  59.158  1.00  0.00     0.000 C 
BRANCH  12  13
HETATM   13  C12 UNL     1       9.013  18.387  60.557  1.00  0.00     0.005 C 
BRANCH  13  14
HETATM   14  C13 UNL     1      10.094  18.004  61.550  1.00  0.00    -0.011 C 
HETATM   15  C14 UNL     1       9.582  17.143  62.661  1.00  0.00     0.032 C 
HETATM   16  C15 UNL     1      10.370  17.446  63.915  1.00  0.00     0.232 C 
HETATM   17  N2  UNL     1       9.979  18.755  64.386  1.00  0.00    -0.075 N 
HETATM   18  C16 UNL     1       9.893  19.738  63.343  1.00  0.00     0.232 C 
ATOM     19  H22 UNL     1       9.104  18.705  64.908  1.00  0.00     0.277 HD
ATOM     20  H21 UNL     1      10.602  19.071  65.130  1.00  0.00     0.277 HD
HETATM   21  C17 UNL     1      10.694  19.260  62.139  1.00  0.00     0.032 C 
ENDBRANCH  13  14
ENDBRANCH  12  13
ENDBRANCH  11  12
ENDBRANCH  10  11
ENDBRANCH   9  10
ENDBRANCH   4   9
BRANCH   1  22
HETATM   22  C3  UNL     1      14.573  22.082  57.412  1.00  0.00     0.099 C 
BRANCH  22  23
HETATM   23  S1  UNL     1      15.420  20.835  56.409  1.00  0.00    -0.165 SA
BRANCH  23  24
HETATM   24  C2  UNL     1      16.704  21.581  55.373  1.00  0.00     0.101 C 
BRANCH  24  25
HETATM   25  C1  UNL     1      16.208  21.678  53.934  1.00  0.00     0.239 C 
BRANCH  25  26
HETATM   26  N1  UNL     1      15.045  20.860  53.720  1.00  0.00    -0.079 N 
ATOM     27  H13 UNL     1      15.131  20.306  52.868  1.00  0.00     0.274 HD
ATOM     28  H12 UNL     1      14.994  20.100  54.398  1.00  0.00     0.274 HD
ATOM     29  H11 UNL     1      14.190  21.416  53.718  1.00  0.00     0.274 HD
ENDBRANCH  25  26
ENDBRANCH  24  25
ENDBRANCH  23  24
ENDBRANCH  22  23
ENDBRANCH   1  22
TORSDOF 11
ENDMDL
MODEL 4
REMARK VINA RESULT: -6.125430220      1.700      2.147
REMARK  11 active torsions:
REMARK  status: ('A' for Active; 'I' for Inactive)
REMARK    1  A    between atoms: N1_1  and  C1_5 
REMARK    2  A    between atoms: C1_5  and  C2_6 
REMARK    3  A    between atoms: C2_6  and  S1_7 
REMARK    4  A    between atoms: S1_7  and  C3_8 
REMARK    5  A    between atoms: C3_8  and  C4_9 
REMARK    6  A    between atoms: C7_12  and  C8_13 
REMARK    7  A    between atoms: C8_13  and  C9_14 
REMARK    8  A    between atoms: C9_14  and  C10_15 
REMARK    9  A    between atoms: C10_15  and  C11_16 
REMARK   10  A    between atoms: C11_16  and  C12_17 
REMARK   11  A    between atoms: C12_17  and  C13_18 
ROOT
HETATM    1  C4  UNL     1      13.967  20.752  58.316  1.00  0.00     0.093 C 
HETATM    2  C5  UNL     1      13.974  19.657  59.352  1.00  0.00     0.027 C 
HETATM    3  C6  UNL     1      12.558  19.127  59.640  1.00  0.00     0.016 C 
HETATM    4  C7  UNL     1      12.005  18.704  58.330  1.00  0.00     0.078 C 
HETATM    5  C18 UNL     1      11.690  19.967  57.588  1.00  0.00     0.222 C 
HETATM    6  O1  UNL     1      10.636  20.044  56.948  1.00  0.00    -0.273 OA
HETATM    7  N3  UNL     1      12.674  20.976  57.707  1.00  0.00    -0.355 N 
ATOM      8  H3  UNL     1      12.463  21.907  57.345  1.00  0.00     0.162 HD
ENDROOT
BRANCH   4   9
HETATM    9  C8  UNL     1      10.985  17.661  58.268  1.00  0.00     0.014 C 
BRANCH   9  10
HETATM   10  C9  UNL     1      10.136  17.341  59.421  1.00  0.00     0.001 C 
BRANCH  10  11
HETATM   11  C10 UNL     1       8.981  18.233  59.720  1.00  0.00     0.000 C 
BRANCH  11  12
HETATM   12  C11 UNL     1       8.872  18.539  61.213  1.00  0.00     0.000 C 
BRANCH  12  13
HETATM   13  C12 UNL     1       9.871  17.784  62.035  1.00  0.00     0.005 C 
BRANCH  13  14
HETATM   14  C13 UNL     1      10.309  18.573  63.255  1.00  0.00    -0.011 C 
HETATM   15  C14 UNL     1      11.773  18.878  63.254  1.00  0.00     0.032 C 
HETATM   16  C15 UNL     1      12.266  18.907  64.682  1.00  0.00     0.232 C 
HETATM   17  N2  UNL     1      12.274  17.552  65.182  1.00  0.00    -0.075 N 
HETATM   18  C16 UNL     1      11.089  16.811  64.852  1.00  0.00     0.232 C 
ATOM     19  H22 UNL     1      13.109  17.055  64.869  1.00  0.00     0.277 HD
ATOM     20  H21 UNL     1      12.438  17.540  66.189  1.00  0.00     0.277 HD
HETATM   21  C17 UNL     1       9.972  17.786  64.501  1.00  0.00     0.032 C 
ENDBRANCH  13  14
ENDBRANCH  12  13
ENDBRANCH  11  12
ENDBRANCH  10  11
ENDBRANCH   9  10
ENDBRANCH   4   9
BRANCH   1  22
HETATM   22  C3  UNL     1      15.020  20.499  57.250  1.00  0.00     0.099 C 
BRANCH  22  23
HETATM   23  S1  UNL     1      15.457  22.065  56.451  1.00  0.00    -0.165 SA
BRANCH  23  24
HETATM   24  C2  UNL     1      16.952  21.897  55.443  1.00  0.00     0.101 C 
BRANCH  24  25
HETATM   25  C1  UNL     1      16.574  21.901  53.965  1.00  0.00     0.239 C 
BRANCH  25  26
HETATM   26  N1  UNL     1      15.371  21.151  53.724  1.00  0.00    -0.079 N 
ATOM     27  H13 UNL     1      15.578  20.229  53.340  1.00  0.00     0.274 HD
ATOM     28  H12 UNL     1      14.931  20.864  54.598  1.00  0.00     0.274 HD
ATOM     29  H11 UNL     1      14.721  21.666  53.130  1.00  0.00     0.274 HD
ENDBRANCH  25  26
ENDBRANCH  24  25
ENDBRANCH  23  24
ENDBRANCH  22  23
ENDBRANCH   1  22
TORSDOF 11
ENDMDL
MODEL 5
REMARK VINA RESULT: -6.097770999      2.263      2.751
REMARK  11 active torsions:
REMARK  status: ('A' for Active; 'I' for Inactive)
REMARK    1  A    between atoms: N1_1  and  C1_5 
REMARK    2  A    between atoms: C1_5  and  C2_6 
REMARK    3  A    between atoms: C2_6  and  S1_7 
REMARK    4  A    between atoms: S1_7  and  C3_8 
REMARK    5  A    between atoms: C3_8  and  C4_9 
REMARK    6  A    between atoms: C7_12  and  C8_13 
REMARK    7  A    between atoms: C8_13  and  C9_14 
REMARK    8  A    between atoms: C9_14  and  C10_15 
REMARK    9  A    between atoms: C10_15  and  C11_16 
REMARK   10  A    between atoms: C11_16  and  C12_17 
REMARK   11  A    between atoms: C12_17  and  C13_18 
ROOT
HETATM    1  C4  UNL     1      14.021  20.763  58.301  1.00  0.00     0.093 C 
HETATM    2  C5  UNL     1      14.036  19.704  59.373  1.00  0.00     0.027 C 
HETATM    3  C6  UNL     1      12.622  19.195  59.702  1.00  0.00     0.016 C 
HETATM    4  C7  UNL     1      12.044  18.732  58.416  1.00  0.00     0.078 C 
HETATM    5  C18 UNL     1      11.726  19.972  57.637  1.00  0.00     0.222 C 
HETATM    6  O1  UNL     1      10.662  20.035  57.012  1.00  0.00    -0.273 OA
HETATM    7  N3  UNL     1      12.719  20.977  57.705  1.00  0.00    -0.355 N 
ATOM      8  H3  UNL     1      12.508  21.896  57.315  1.00  0.00     0.162 HD
ENDROOT
BRANCH   4   9
HETATM    9  C8  UNL     1      11.017  17.695  58.406  1.00  0.00     0.014 C 
BRANCH   9  10
HETATM   10  C9  UNL     1      10.219  17.386  59.598  1.00  0.00     0.001 C 
BRANCH  10  11
HETATM   11  C10 UNL     1       9.016  18.218  59.880  1.00  0.00     0.000 C 
BRANCH  11  12
HETATM   12  C11 UNL     1       8.964  18.664  61.341  1.00  0.00     0.000 C 
BRANCH  12  13
HETATM   13  C12 UNL     1      10.139  18.184  62.137  1.00  0.00     0.005 C 
BRANCH  13  14
HETATM   14  C13 UNL     1       9.785  17.979  63.598  1.00  0.00    -0.011 C 
HETATM   15  C14 UNL     1      10.951  17.534  64.421  1.00  0.00     0.032 C 
HETATM   16  C15 UNL     1      10.452  16.637  65.530  1.00  0.00     0.232 C 
HETATM   17  N2  UNL     1      10.044  15.382  64.942  1.00  0.00    -0.075 N 
HETATM   18  C16 UNL     1       9.267  15.534  63.744  1.00  0.00     0.232 C 
ATOM     19  H22 UNL     1      10.852  14.781  64.774  1.00  0.00     0.277 HD
ATOM     20  H21 UNL     1       9.546  14.809  65.624  1.00  0.00     0.277 HD
HETATM   21  C17 UNL     1       8.688  16.943  63.700  1.00  0.00     0.032 C 
ENDBRANCH  13  14
ENDBRANCH  12  13
ENDBRANCH  11  12
ENDBRANCH  10  11
ENDBRANCH   9  10
ENDBRANCH   4   9
BRANCH   1  22
HETATM   22  C3  UNL     1      15.054  20.467  57.226  1.00  0.00     0.099 C 
BRANCH  22  23
HETATM   23  S1  UNL     1      15.507  22.006  56.386  1.00  0.00    -0.165 SA
BRANCH  23  24
HETATM   24  C2  UNL     1      16.817  21.729  55.165  1.00  0.00     0.101 C 
BRANCH  24  25
HETATM   25  C1  UNL     1      16.219  21.748  53.762  1.00  0.00     0.239 C 
BRANCH  25  26
HETATM   26  N1  UNL     1      15.051  20.915  53.674  1.00  0.00    -0.079 N 
ATOM     27  H13 UNL     1      14.508  21.121  52.836  1.00  0.00     0.274 HD
ATOM     28  H12 UNL     1      15.299  19.947  53.468  1.00  0.00     0.274 HD
ATOM     29  H11 UNL     1      14.478  20.982  54.515  1.00  0.00     0.274 HD
ENDBRANCH  25  26
ENDBRANCH  24  25
ENDBRANCH  23  24
ENDBRANCH  22  23
ENDBRANCH   1  22
TORSDOF 11
ENDMDL
