MODEL 1
REMARK VINA RESULT: 4.505775759      0.000      0.000
REMARK  3 active torsions:
REMARK  status: ('A' for Active; 'I' for Inactive)
REMARK    1  A    between atoms: C3_4  and  C4_5 
REMARK    2  A    between atoms: C13_15  and  C14_16 
REMARK    3  A    between atoms: C15_17  and  C16_18 
ROOT
HETATM    1  O1  UNL     1      25.644   8.395  61.941  1.00  0.00    -0.287 OA
HETATM    2  C1  UNL     1      24.494   8.645  61.549  1.00  0.00     0.187 A 
HETATM    3  C2  UNL     1      24.227   8.867  60.187  1.00  0.00     0.093 A 
HETATM    4  C3  UNL     1      22.955   9.144  59.761  1.00  0.00     0.090 A 
HETATM    5  O2  UNL     1      21.978   9.200  60.644  1.00  0.00    -0.309 OA
HETATM    6  C10 UNL     1      22.185   9.001  61.916  1.00  0.00     0.090 A 
HETATM    7  C11 UNL     1      21.109   9.074  62.807  1.00  0.00     0.040 A 
HETATM    8  C12 UNL     1      21.329   8.864  64.145  1.00  0.00     0.023 A 
HETATM    9  C13 UNL     1      22.569   8.579  64.671  1.00  0.00     0.019 A 
HETATM   10  C22 UNL     1      23.622   8.510  63.787  1.00  0.00     0.039 A 
HETATM   11  C23 UNL     1      23.438   8.718  62.416  1.00  0.00     0.049 A 
ENDROOT
BRANCH   9  12
HETATM   12  C14 UNL     1      22.832   8.355  66.061  1.00  0.00    -0.061 C 
HETATM   13  C15 UNL     1      23.041   8.183  67.237  1.00  0.00    -0.061 C 
BRANCH  13  14
HETATM   14  C16 UNL     1      23.315   7.981  68.634  1.00  0.00     0.018 A 
HETATM   15  C17 UNL     1      24.627   7.790  69.050  1.00  0.00     0.020 A 
HETATM   16  C18 UNL     1      24.908   7.594  70.380  1.00  0.00     0.001 A 
HETATM   17  C19 UNL     1      23.915   7.583  71.327  1.00  0.00     0.000 A 
HETATM   18  C20 UNL     1      22.616   7.769  70.932  1.00  0.00     0.001 A 
HETATM   19  C21 UNL     1      22.330   7.966  69.601  1.00  0.00     0.020 A 
ENDBRANCH  13  14
ENDBRANCH   9  12
BRANCH   4  20
HETATM   20  C4  UNL     1      22.649   9.381  58.331  1.00  0.00    -0.002 A 
HETATM   21  C5  UNL     1      21.533  10.140  57.991  1.00  0.00     0.014 A 
HETATM   22  C6  UNL     1      21.233  10.372  56.671  1.00  0.00     0.001 A 
HETATM   23  C7  UNL     1      22.037   9.851  55.683  1.00  0.00     0.000 A 
HETATM   24  C8  UNL     1      23.143   9.099  56.003  1.00  0.00     0.001 A 
HETATM   25  C9  UNL     1      23.425   8.879  57.339  1.00  0.00     0.014 A 
ENDBRANCH   4  20
TORSDOF 3
ENDMDL
MODEL 2
REMARK VINA RESULT: 4.610803543      0.089      1.341
REMARK  3 active torsions:
REMARK  status: ('A' for Active; 'I' for Inactive)
REMARK    1  A    between atoms: C3_4  and  C4_5 
REMARK    2  A    between atoms: C13_15  and  C14_16 
REMARK    3  A    between atoms: C15_17  and  C16_18 
ROOT
HETATM    1  O1  UNL     1      25.669   8.479  61.910  1.00  0.00    -0.287 OA
HETATM    2  C1  UNL     1      24.511   8.696  61.522  1.00  0.00     0.187 A 
HETATM    3  C2  UNL     1      24.234   8.917  60.163  1.00  0.00     0.093 A 
HETATM    4  C3  UNL     1      22.952   9.156  59.742  1.00  0.00     0.090 A 
HETATM    5  O2  UNL     1      21.977   9.177  60.627  1.00  0.00    -0.309 OA
HETATM    6  C10 UNL     1      22.193   8.978  61.897  1.00  0.00     0.090 A 
HETATM    7  C11 UNL     1      21.118   9.012  62.792  1.00  0.00     0.040 A 
HETATM    8  C12 UNL     1      21.348   8.802  64.128  1.00  0.00     0.023 A 
HETATM    9  C13 UNL     1      22.598   8.553  64.649  1.00  0.00     0.019 A 
HETATM   10  C22 UNL     1      23.650   8.520  63.762  1.00  0.00     0.039 A 
HETATM   11  C23 UNL     1      23.456   8.731  62.393  1.00  0.00     0.049 A 
ENDROOT
BRANCH   9  12
HETATM   12  C14 UNL     1      22.871   8.329  66.038  1.00  0.00    -0.061 C 
HETATM   13  C15 UNL     1      23.090   8.157  67.212  1.00  0.00    -0.061 C 
BRANCH  13  14
HETATM   14  C16 UNL     1      23.374   7.956  68.607  1.00  0.00     0.018 A 
HETATM   15  C17 UNL     1      22.358   8.120  69.539  1.00  0.00     0.020 A 
HETATM   16  C18 UNL     1      22.611   7.933  70.877  1.00  0.00     0.001 A 
HETATM   17  C19 UNL     1      23.859   7.582  71.326  1.00  0.00     0.000 A 
HETATM   18  C20 UNL     1      24.872   7.416  70.418  1.00  0.00     0.001 A 
HETATM   19  C21 UNL     1      24.623   7.602  69.078  1.00  0.00     0.020 A 
ENDBRANCH  13  14
ENDBRANCH   9  12
BRANCH   4  20
HETATM   20  C4  UNL     1      22.635   9.392  58.314  1.00  0.00    -0.002 A 
HETATM   21  C5  UNL     1      23.460   8.847  57.335  1.00  0.00     0.014 A 
HETATM   22  C6  UNL     1      23.183   9.053  56.005  1.00  0.00     0.001 A 
HETATM   23  C7  UNL     1      22.087   9.803  55.642  1.00  0.00     0.000 A 
HETATM   24  C8  UNL     1      21.263  10.349  56.597  1.00  0.00     0.001 A 
HETATM   25  C9  UNL     1      21.562  10.127  57.930  1.00  0.00     0.014 A 
ENDBRANCH   4  20
TORSDOF 3
ENDMDL
MODEL 3
REMARK VINA RESULT: 4.941988582      1.098      1.930
REMARK  3 active torsions:
REMARK  status: ('A' for Active; 'I' for Inactive)
REMARK    1  A    between atoms: C3_4  and  C4_5 
REMARK    2  A    between atoms: C13_15  and  C14_16 
REMARK    3  A    between atoms: C15_17  and  C16_18 
ROOT
HETATM    1  O1  UNL     1      21.694  11.748  62.724  1.00  0.00    -0.287 OA
HETATM    2  C1  UNL     1      22.048  10.799  62.009  1.00  0.00     0.187 A 
HETATM    3  C2  UNL     1      21.984  10.887  60.608  1.00  0.00     0.093 A 
HETATM    4  C3  UNL     1      22.377   9.835  59.824  1.00  0.00     0.090 A 
HETATM    5  O2  UNL     1      22.819   8.734  60.397  1.00  0.00    -0.309 OA
HETATM    6  C10 UNL     1      22.893   8.613  61.693  1.00  0.00     0.090 A 
HETATM    7  C11 UNL     1      23.370   7.420  62.247  1.00  0.00     0.040 A 
HETATM    8  C12 UNL     1      23.448   7.295  63.611  1.00  0.00     0.023 A 
HETATM    9  C13 UNL     1      23.078   8.294  64.482  1.00  0.00     0.019 A 
HETATM   10  C22 UNL     1      22.609   9.465  63.930  1.00  0.00     0.039 A 
HETATM   11  C23 UNL     1      22.515   9.630  62.544  1.00  0.00     0.049 A 
ENDROOT
BRANCH   9  12
HETATM   12  C14 UNL     1      23.146   8.195  65.910  1.00  0.00    -0.061 C 
HETATM   13  C15 UNL     1      23.196   8.131  67.114  1.00  0.00    -0.061 C 
BRANCH  13  14
HETATM   14  C16 UNL     1      23.279   8.052  68.547  1.00  0.00     0.018 A 
HETATM   15  C17 UNL     1      24.525   7.939  69.151  1.00  0.00     0.020 A 
HETATM   16  C18 UNL     1      24.624   7.862  70.520  1.00  0.00     0.001 A 
HETATM   17  C19 UNL     1      23.511   7.895  71.321  1.00  0.00     0.000 A 
HETATM   18  C20 UNL     1      22.275   8.007  70.739  1.00  0.00     0.001 A 
HETATM   19  C21 UNL     1      22.171   8.084  69.370  1.00  0.00     0.020 A 
ENDBRANCH  13  14
ENDBRANCH   9  12
BRANCH   4  20
HETATM   20  C4  UNL     1      22.318   9.904  58.345  1.00  0.00    -0.002 A 
HETATM   21  C5  UNL     1      23.011   8.962  57.592  1.00  0.00     0.014 A 
HETATM   22  C6  UNL     1      22.970   9.008  56.220  1.00  0.00     0.001 A 
HETATM   23  C7  UNL     1      22.240   9.991  55.589  1.00  0.00     0.000 A 
HETATM   24  C8  UNL     1      21.550  10.929  56.319  1.00  0.00     0.001 A 
HETATM   25  C9  UNL     1      21.608  10.862  57.700  1.00  0.00     0.014 A 
ENDBRANCH   4  20
TORSDOF 3
ENDMDL
MODEL 4
REMARK VINA RESULT: 6.417100983      3.192     11.657
REMARK  3 active torsions:
REMARK  status: ('A' for Active; 'I' for Inactive)
REMARK    1  A    between atoms: C3_4  and  C4_5 
REMARK    2  A    between atoms: C13_15  and  C14_16 
REMARK    3  A    between atoms: C15_17  and  C16_18 
ROOT
HETATM    1  O1  UNL     1      23.582   7.885  57.181  1.00  0.00    -0.287 OA
HETATM    2  C1  UNL     1      23.073   8.642  58.021  1.00  0.00     0.187 A 
HETATM    3  C2  UNL     1      23.217   8.395  59.397  1.00  0.00     0.093 A 
HETATM    4  C3  UNL     1      22.652   9.236  60.319  1.00  0.00     0.090 A 
HETATM    5  O2  UNL     1      21.968  10.283  59.903  1.00  0.00    -0.309 OA
HETATM    6  C10 UNL     1      21.812  10.545  58.635  1.00  0.00     0.090 A 
HETATM    7  C11 UNL     1      21.075  11.671  58.252  1.00  0.00     0.040 A 
HETATM    8  C12 UNL     1      20.912  11.946  56.918  1.00  0.00     0.023 A 
HETATM    9  C13 UNL     1      21.441  11.164  55.916  1.00  0.00     0.019 A 
HETATM   10  C22 UNL     1      22.164  10.057  56.302  1.00  0.00     0.039 A 
HETATM   11  C23 UNL     1      22.352   9.744  57.652  1.00  0.00     0.049 A 
ENDROOT
BRANCH   9  12
HETATM   12  C14 UNL     1      21.288  11.423  54.515  1.00  0.00    -0.061 C 
HETATM   13  C15 UNL     1      21.142  11.630  53.335  1.00  0.00    -0.061 C 
BRANCH  13  14
HETATM   14  C16 UNL     1      20.988  11.865  51.925  1.00  0.00     0.018 A 
HETATM   15  C17 UNL     1      19.843  12.500  51.462  1.00  0.00     0.020 A 
HETATM   16  C18 UNL     1      19.678  12.732  50.117  1.00  0.00     0.001 A 
HETATM   17  C19 UNL     1      20.627  12.350  49.204  1.00  0.00     0.000 A 
HETATM   18  C20 UNL     1      21.763  11.722  49.646  1.00  0.00     0.001 A 
HETATM   19  C21 UNL     1      21.932  11.488  50.990  1.00  0.00     0.020 A 
ENDBRANCH  13  14
ENDBRANCH   9  12
BRANCH   4  20
HETATM   20  C4  UNL     1      22.789   8.997  61.774  1.00  0.00    -0.002 A 
HETATM   21  C5  UNL     1      22.048   9.769  62.664  1.00  0.00     0.014 A 
HETATM   22  C6  UNL     1      22.161   9.563  64.017  1.00  0.00     0.001 A 
HETATM   23  C7  UNL     1      23.011   8.591  64.494  1.00  0.00     0.000 A 
HETATM   24  C8  UNL     1      23.751   7.821  63.628  1.00  0.00     0.001 A 
HETATM   25  C9  UNL     1      23.620   8.047  62.270  1.00  0.00     0.014 A 
ENDBRANCH   4  20
TORSDOF 3
ENDMDL
MODEL 5
REMARK VINA RESULT: 7.013458640      4.189     11.914
REMARK  3 active torsions:
REMARK  status: ('A' for Active; 'I' for Inactive)
REMARK    1  A    between atoms: C3_4  and  C4_5 
REMARK    2  A    between atoms: C13_15  and  C14_16 
REMARK    3  A    between atoms: C15_17  and  C16_18 
ROOT
HETATM    1  O1  UNL     1      21.916   8.351  57.556  1.00  0.00    -0.287 OA
HETATM    2  C1  UNL     1      22.504   9.320  58.059  1.00  0.00     0.187 A 
HETATM    3  C2  UNL     1      23.080   9.232  59.338  1.00  0.00     0.093 A 
HETATM    4  C3  UNL     1      23.729  10.306  59.886  1.00  0.00     0.090 A 
HETATM    5  O2  UNL     1      23.809  11.429  59.201  1.00  0.00    -0.309 OA
HETATM    6  C10 UNL     1      23.288  11.550  58.012  1.00  0.00     0.090 A 
HETATM    7  C11 UNL     1      23.404  12.767  57.332  1.00  0.00     0.040 A 
HETATM    8  C12 UNL     1      22.854  12.893  56.081  1.00  0.00     0.023 A 
HETATM    9  C13 UNL     1      22.184  11.873  55.445  1.00  0.00     0.019 A 
HETATM   10  C22 UNL     1      22.075  10.679  56.121  1.00  0.00     0.039 A 
HETATM   11  C23 UNL     1      22.621  10.512  57.398  1.00  0.00     0.049 A 
ENDROOT
BRANCH   9  12
HETATM   12  C14 UNL     1      21.600  11.972  54.140  1.00  0.00    -0.061 C 
HETATM   13  C15 UNL     1      21.102  12.076  53.046  1.00  0.00    -0.061 C 
BRANCH  13  14
HETATM   14  C16 UNL     1      20.494  12.181  51.747  1.00  0.00     0.018 A 
HETATM   15  C17 UNL     1      21.089  11.549  50.663  1.00  0.00     0.020 A 
HETATM   16  C18 UNL     1      20.523  11.639  49.414  1.00  0.00     0.001 A 
HETATM   17  C19 UNL     1      19.366  12.346  49.203  1.00  0.00     0.000 A 
HETATM   18  C20 UNL     1      18.766  12.974  50.264  1.00  0.00     0.001 A 
HETATM   19  C21 UNL     1      19.330  12.886  51.515  1.00  0.00     0.020 A 
ENDBRANCH  13  14
ENDBRANCH   9  12
BRANCH   4  20
HETATM   20  C4  UNL     1      24.344  10.237  61.232  1.00  0.00    -0.002 A 
HETATM   21  C5  UNL     1      24.291  11.353  62.062  1.00  0.00     0.014 A 
HETATM   22  C6  UNL     1      24.855  11.310  63.314  1.00  0.00     0.001 A 
HETATM   23  C7  UNL     1      25.474  10.159  63.748  1.00  0.00     0.000 A 
HETATM   24  C8  UNL     1      25.535   9.049  62.939  1.00  0.00     0.001 A 
HETATM   25  C9  UNL     1      24.960   9.117  61.683  1.00  0.00     0.014 A 
ENDBRANCH   4  20
TORSDOF 3
ENDMDL
