MODEL 1
REMARK VINA RESULT: -6.231204252      0.000      0.000
REMARK  5 active torsions:
REMARK  status: ('A' for Active; 'I' for Inactive)
REMARK    1  A    between atoms: C2_5  and  N3_6 
REMARK    2  A    between atoms: N3_6  and  O1_8 
REMARK    3  A    between atoms: C4_12  and  C5_13 
REMARK    4  A    between atoms: C6_14  and  C7_15 
REMARK    5  A    between atoms: N5_21  and  N6_22 
ROOT
HETATM    1  C1  UNL     1     -20.555  71.660  64.241  1.00  0.00     0.180 C 
HETATM    2  N1  UNL     1     -21.669  72.576  64.273  1.00  0.00    -0.264 N 
HETATM    3  N2  UNL     1     -22.954  72.268  64.548  1.00  0.00    -0.125 N 
ATOM      4  H2  UNL     1     -23.272  71.374  64.923  1.00  0.00     0.206 HD
HETATM    5  C2  UNL     1     -23.751  73.300  64.259  1.00  0.00     0.741 A 
HETATM    6  N4  UNL     1     -22.968  74.287  63.789  1.00  0.00    -0.044 N 
HETATM    7  C3  UNL     1     -21.686  73.823  63.822  1.00  0.00     0.174 A 
HETATM    8  C4  UNL     1     -20.490  74.563  63.497  1.00  0.00     0.012 C 
HETATM    9  C8  UNL     1     -20.461  75.472  62.482  1.00  0.00     0.017 C 
HETATM   10  C9  UNL     1     -21.505  75.916  61.574  1.00  0.00     0.022 C 
HETATM   11  C10 UNL     1     -22.820  75.908  61.902  1.00  0.00     0.137 C 
HETATM   12  N5  UNL     1     -23.438  75.472  63.144  1.00  0.00    -0.192 N 
ENDROOT
BRANCH   8  13
HETATM   13  C5  UNL     1     -19.334  74.447  64.281  1.00  0.00     0.022 C 
HETATM   14  C6  UNL     1     -18.147  74.905  64.358  1.00  0.00     0.085 C 
BRANCH  14  15
HETATM   15  C7  UNL     1     -17.202  74.477  65.438  1.00  0.00     0.198 C 
HETATM   16  O2  UNL     1     -16.376  75.299  65.895  1.00  0.00    -0.645 OA
HETATM   17  O3  UNL     1     -17.270  73.188  65.894  1.00  0.00    -0.645 OA
ENDBRANCH  14  15
ENDBRANCH   8  13
BRANCH   5  18
HETATM   18  N3  UNL     1     -25.037  73.460  64.371  1.00  0.00    -0.095 N 
ATOM     19  H3  UNL     1     -25.648  73.298  63.571  1.00  0.00     0.213 HD
BRANCH  18  20
HETATM   20  O1  UNL     1     -25.562  73.849  65.574  1.00  0.00    -0.276 OA
ATOM     21  H1  UNL     1     -26.327  74.413  65.587  1.00  0.00     0.245 HD
ENDBRANCH  18  20
ENDBRANCH   5  18
BRANCH  12  22
HETATM   22  N6  UNL     1     -24.502  76.064  63.717  1.00  0.00    -0.324 N 
ATOM     23  H62 UNL     1     -24.890  75.805  64.624  1.00  0.00     0.178 HD
ATOM     24  H61 UNL     1     -24.887  76.862  63.212  1.00  0.00     0.178 HD
ENDBRANCH  12  22
TORSDOF 5
ENDMDL
MODEL 2
REMARK VINA RESULT: -6.171583165      1.211      1.394
REMARK  5 active torsions:
REMARK  status: ('A' for Active; 'I' for Inactive)
REMARK    1  A    between atoms: C2_5  and  N3_6 
REMARK    2  A    between atoms: N3_6  and  O1_8 
REMARK    3  A    between atoms: C4_12  and  C5_13 
REMARK    4  A    between atoms: C6_14  and  C7_15 
REMARK    5  A    between atoms: N5_21  and  N6_22 
ROOT
HETATM    1  C1  UNL     1     -20.872  72.312  63.762  1.00  0.00     0.180 C 
HETATM    2  N1  UNL     1     -22.076  73.097  63.887  1.00  0.00    -0.264 N 
HETATM    3  N2  UNL     1     -23.239  72.700  64.444  1.00  0.00    -0.125 N 
ATOM      4  H2  UNL     1     -23.362  71.847  64.991  1.00  0.00     0.206 HD
HETATM    5  C2  UNL     1     -24.206  73.582  64.179  1.00  0.00     0.741 A 
HETATM    6  N4  UNL     1     -23.659  74.561  63.438  1.00  0.00    -0.044 N 
HETATM    7  C3  UNL     1     -22.340  74.248  63.283  1.00  0.00     0.174 A 
HETATM    8  C4  UNL     1     -21.332  75.052  62.635  1.00  0.00     0.012 C 
HETATM    9  C8  UNL     1     -21.605  75.787  61.521  1.00  0.00     0.017 C 
HETATM   10  C9  UNL     1     -22.843  75.968  60.783  1.00  0.00     0.022 C 
HETATM   11  C10 UNL     1     -24.066  75.871  61.358  1.00  0.00     0.137 C 
HETATM   12  N5  UNL     1     -24.391  75.572  62.743  1.00  0.00    -0.192 N 
ENDROOT
BRANCH   8  13
HETATM   13  C5  UNL     1     -20.051  75.185  63.189  1.00  0.00     0.022 C 
HETATM   14  C6  UNL     1     -18.825  74.994  62.892  1.00  0.00     0.085 C 
BRANCH  14  15
HETATM   15  C7  UNL     1     -17.721  75.306  63.852  1.00  0.00     0.198 C 
HETATM   16  O2  UNL     1     -16.827  76.119  63.520  1.00  0.00    -0.645 OA
HETATM   17  O3  UNL     1     -17.720  74.689  65.074  1.00  0.00    -0.645 OA
ENDBRANCH  14  15
ENDBRANCH   8  13
BRANCH   5  18
HETATM   18  N3  UNL     1     -25.462  73.619  64.517  1.00  0.00    -0.095 N 
ATOM     19  H3  UNL     1     -25.739  73.970  65.433  1.00  0.00     0.213 HD
BRANCH  18  20
HETATM   20  O1  UNL     1     -26.409  73.181  63.630  1.00  0.00    -0.276 OA
ATOM     21  H1  UNL     1     -26.651  73.735  62.897  1.00  0.00     0.245 HD
ENDBRANCH  18  20
ENDBRANCH   5  18
BRANCH  12  22
HETATM   22  N6  UNL     1     -25.407  76.129  63.427  1.00  0.00    -0.324 N 
ATOM     23  H62 UNL     1     -26.066  75.611  64.009  1.00  0.00     0.178 HD
ATOM     24  H61 UNL     1     -25.459  77.147  63.389  1.00  0.00     0.178 HD
ENDBRANCH  12  22
TORSDOF 5
ENDMDL
MODEL 3
REMARK VINA RESULT: -6.147147822      2.798      6.165
REMARK  5 active torsions:
REMARK  status: ('A' for Active; 'I' for Inactive)
REMARK    1  A    between atoms: C2_5  and  N3_6 
REMARK    2  A    between atoms: N3_6  and  O1_8 
REMARK    3  A    between atoms: C4_12  and  C5_13 
REMARK    4  A    between atoms: C6_14  and  C7_15 
REMARK    5  A    between atoms: N5_21  and  N6_22 
ROOT
HETATM    1  C1  UNL     1     -21.713  75.602  61.561  1.00  0.00     0.180 C 
HETATM    2  N1  UNL     1     -20.608  75.521  62.485  1.00  0.00    -0.264 N 
HETATM    3  N2  UNL     1     -19.473  76.250  62.446  1.00  0.00    -0.125 N 
ATOM      4  H2  UNL     1     -19.323  77.062  61.848  1.00  0.00     0.206 HD
HETATM    5  C2  UNL     1     -18.574  75.756  63.301  1.00  0.00     0.741 A 
HETATM    6  N4  UNL     1     -19.137  74.691  63.899  1.00  0.00    -0.044 N 
HETATM    7  C3  UNL     1     -20.398  74.575  63.391  1.00  0.00     0.174 A 
HETATM    8  C4  UNL     1     -21.410  73.631  63.799  1.00  0.00     0.012 C 
HETATM    9  C8  UNL     1     -21.101  72.350  64.147  1.00  0.00     0.017 C 
HETATM   10  C9  UNL     1     -19.819  71.670  64.222  1.00  0.00     0.022 C 
HETATM   11  C10 UNL     1     -18.655  72.315  64.476  1.00  0.00     0.137 C 
HETATM   12  N5  UNL     1     -18.441  73.736  64.702  1.00  0.00    -0.192 N 
ENDROOT
BRANCH   8  13
HETATM   13  C5  UNL     1     -22.747  74.027  63.950  1.00  0.00     0.022 C 
HETATM   14  C6  UNL     1     -23.923  73.535  63.965  1.00  0.00     0.085 C 
BRANCH  14  15
HETATM   15  C7  UNL     1     -25.134  74.388  64.181  1.00  0.00     0.198 C 
HETATM   16  O2  UNL     1     -24.997  75.621  64.355  1.00  0.00    -0.645 OA
HETATM   17  O3  UNL     1     -26.365  73.790  64.184  1.00  0.00    -0.645 OA
ENDBRANCH  14  15
ENDBRANCH   8  13
BRANCH   5  18
HETATM   18  N3  UNL     1     -17.367  76.134  63.605  1.00  0.00    -0.095 N 
ATOM     19  H3  UNL     1     -16.887  75.728  64.407  1.00  0.00     0.213 HD
BRANCH  18  20
HETATM   20  O1  UNL     1     -16.748  77.083  62.837  1.00  0.00    -0.276 OA
ATOM     21  H1  UNL     1     -16.193  76.809  62.116  1.00  0.00     0.245 HD
ENDBRANCH  18  20
ENDBRANCH   5  18
BRANCH  12  22
HETATM   22  N6  UNL     1     -17.556  74.246  65.577  1.00  0.00    -0.324 N 
ATOM     23  H62 UNL     1     -17.168  75.188  65.527  1.00  0.00     0.178 HD
ATOM     24  H61 UNL     1     -17.322  73.646  66.368  1.00  0.00     0.178 HD
ENDBRANCH  12  22
TORSDOF 5
ENDMDL
MODEL 4
REMARK VINA RESULT: -5.971808480      3.647      5.377
REMARK  5 active torsions:
REMARK  status: ('A' for Active; 'I' for Inactive)
REMARK    1  A    between atoms: C2_5  and  N3_6 
REMARK    2  A    between atoms: N3_6  and  O1_8 
REMARK    3  A    between atoms: C4_12  and  C5_13 
REMARK    4  A    between atoms: C6_14  and  C7_15 
REMARK    5  A    between atoms: N5_21  and  N6_22 
ROOT
HETATM    1  C1  UNL     1     -24.611  72.859  61.573  1.00  0.00     0.180 C 
HETATM    2  N1  UNL     1     -23.851  74.085  61.539  1.00  0.00    -0.264 N 
HETATM    3  N2  UNL     1     -23.849  75.001  60.548  1.00  0.00    -0.125 N 
ATOM      4  H2  UNL     1     -24.507  75.017  59.769  1.00  0.00     0.206 HD
HETATM    5  C2  UNL     1     -22.863  75.883  60.733  1.00  0.00     0.741 A 
HETATM    6  N4  UNL     1     -22.219  75.529  61.858  1.00  0.00    -0.044 N 
HETATM    7  C3  UNL     1     -22.856  74.426  62.347  1.00  0.00     0.174 A 
HETATM    8  C4  UNL     1     -22.574  73.744  63.588  1.00  0.00     0.012 C 
HETATM    9  C8  UNL     1     -21.302  73.595  64.053  1.00  0.00     0.017 C 
HETATM   10  C9  UNL     1     -20.033  74.050  63.512  1.00  0.00     0.022 C 
HETATM   11  C10 UNL     1     -19.916  75.153  62.734  1.00  0.00     0.137 C 
HETATM   12  N5  UNL     1     -20.963  76.058  62.288  1.00  0.00    -0.192 N 
ENDROOT
BRANCH   8  13
HETATM   13  C5  UNL     1     -23.612  73.294  64.415  1.00  0.00     0.022 C 
HETATM   14  C6  UNL     1     -23.932  72.293  65.137  1.00  0.00     0.085 C 
BRANCH  14  15
HETATM   15  C7  UNL     1     -25.220  72.245  65.898  1.00  0.00     0.198 C 
HETATM   16  O2  UNL     1     -26.076  73.142  65.718  1.00  0.00    -0.645 OA
HETATM   17  O3  UNL     1     -25.423  71.216  66.777  1.00  0.00    -0.645 OA
ENDBRANCH  14  15
ENDBRANCH   8  13
BRANCH   5  18
HETATM   18  N3  UNL     1     -22.495  76.927  60.050  1.00  0.00    -0.095 N 
ATOM     19  H3  UNL     1     -21.825  77.588  60.442  1.00  0.00     0.213 HD
BRANCH  18  20
HETATM   20  O1  UNL     1     -23.017  77.131  58.801  1.00  0.00    -0.276 OA
ATOM     21  H1  UNL     1     -23.114  78.018  58.476  1.00  0.00     0.245 HD
ENDBRANCH  18  20
ENDBRANCH   5  18
BRANCH  12  22
HETATM   22  N6  UNL     1     -20.821  77.390  62.165  1.00  0.00    -0.324 N 
ATOM     23  H62 UNL     1     -20.820  77.894  61.277  1.00  0.00     0.178 HD
ATOM     24  H61 UNL     1     -20.774  77.912  63.041  1.00  0.00     0.178 HD
ENDBRANCH  12  22
TORSDOF 5
ENDMDL
MODEL 5
REMARK VINA RESULT: -5.874680363      3.042      5.275
REMARK  5 active torsions:
REMARK  status: ('A' for Active; 'I' for Inactive)
REMARK    1  A    between atoms: C2_5  and  N3_6 
REMARK    2  A    between atoms: N3_6  and  O1_8 
REMARK    3  A    between atoms: C4_12  and  C5_13 
REMARK    4  A    between atoms: C6_14  and  C7_15 
REMARK    5  A    between atoms: N5_21  and  N6_22 
ROOT
HETATM    1  C1  UNL     1     -24.753  76.171  62.877  1.00  0.00     0.180 C 
HETATM    2  N1  UNL     1     -24.029  74.969  63.214  1.00  0.00    -0.264 N 
HETATM    3  N2  UNL     1     -24.450  73.982  64.032  1.00  0.00    -0.125 N 
ATOM      4  H2  UNL     1     -25.400  73.887  64.391  1.00  0.00     0.206 HD
HETATM    5  C2  UNL     1     -23.445  73.146  64.306  1.00  0.00     0.741 A 
HETATM    6  N4  UNL     1     -22.360  73.603  63.656  1.00  0.00    -0.044 N 
HETATM    7  C3  UNL     1     -22.749  74.720  62.976  1.00  0.00     0.174 A 
HETATM    8  C4  UNL     1     -21.946  75.501  62.067  1.00  0.00     0.012 C 
HETATM    9  C8  UNL     1     -20.619  75.723  62.287  1.00  0.00     0.017 C 
HETATM   10  C9  UNL     1     -19.745  75.267  63.354  1.00  0.00     0.022 C 
HETATM   11  C10 UNL     1     -19.950  74.112  64.033  1.00  0.00     0.137 C 
HETATM   12  N5  UNL     1     -21.023  73.145  63.866  1.00  0.00    -0.192 N 
ENDROOT
BRANCH   8  13
HETATM   13  C5  UNL     1     -22.480  75.981  60.863  1.00  0.00     0.022 C 
HETATM   14  C6  UNL     1     -22.591  77.062  60.197  1.00  0.00     0.085 C 
BRANCH  14  15
HETATM   15  C7  UNL     1     -23.279  77.107  58.868  1.00  0.00     0.198 C 
HETATM   16  O2  UNL     1     -24.259  76.356  58.657  1.00  0.00    -0.645 OA
HETATM   17  O3  UNL     1     -22.812  77.973  57.917  1.00  0.00    -0.645 OA
ENDBRANCH  14  15
ENDBRANCH   8  13
BRANCH   5  18
HETATM   18  N3  UNL     1     -23.388  72.065  65.027  1.00  0.00    -0.095 N 
ATOM     19  H3  UNL     1     -22.549  71.486  65.022  1.00  0.00     0.213 HD
BRANCH  18  20
HETATM   20  O1  UNL     1     -24.466  71.712  65.794  1.00  0.00    -0.276 OA
ATOM     21  H1  UNL     1     -25.293  72.163  65.669  1.00  0.00     0.245 HD
ENDBRANCH  18  20
ENDBRANCH   5  18
BRANCH  12  22
HETATM   22  N6  UNL     1     -20.874  71.813  63.974  1.00  0.00    -0.324 N 
ATOM     23  H62 UNL     1     -20.034  71.299  63.707  1.00  0.00     0.178 HD
ATOM     24  H61 UNL     1     -21.650  71.316  64.413  1.00  0.00     0.178 HD
ENDBRANCH  12  22
TORSDOF 5
ENDMDL
