MODEL 1
REMARK VINA RESULT: -5.164916246      0.000      0.000
REMARK  2 active torsions:
REMARK  status: ('A' for Active; 'I' for Inactive)
REMARK    1  A    between atoms: N1_2  and  N2_4 
REMARK    2  A    between atoms: C2_6  and  N3_7 
ROOT
HETATM    1  N2  UNL     1     183.438   6.771  62.300  1.00  0.00    -0.299 N 
ATOM      2  H2  UNL     1     182.859   6.093  62.795  1.00  0.00     0.187 HD
HETATM    3  C2  UNL     1     184.206   7.560  62.953  1.00  0.00     0.215 C 
ENDROOT
BRANCH   3   4
HETATM    4  N3  UNL     1     184.313   7.557  64.365  1.00  0.00    -0.297 N 
HETATM    5  C3  UNL     1     185.614   7.631  64.960  1.00  0.00     0.178 C 
HETATM    6  N4  UNL     1     183.294   7.491  65.087  1.00  0.00    -0.342 N 
ATOM      7  H42 UNL     1     182.368   7.437  64.662  1.00  0.00     0.177 HD
ATOM      8  H41 UNL     1     183.371   7.488  66.104  1.00  0.00     0.177 HD
ENDBRANCH   3   4
BRANCH   1   9
HETATM    9  N1  UNL     1     183.398   6.846  60.915  1.00  0.00    -0.340 N 
HETATM   10  C1  UNL     1     184.609   6.909  60.097  1.00  0.00     0.167 C 
ATOM     11  H1  UNL     1     182.491   6.857  60.450  1.00  0.00     0.179 HD
ENDBRANCH   1   9
TORSDOF 2
ENDMDL
MODEL 2
REMARK VINA RESULT: -5.018424070      0.920      3.854
REMARK  2 active torsions:
REMARK  status: ('A' for Active; 'I' for Inactive)
REMARK    1  A    between atoms: N1_2  and  N2_4 
REMARK    2  A    between atoms: C2_6  and  N3_7 
ROOT
HETATM    1  N2  UNL     1     183.663   6.517  62.772  1.00  0.00    -0.299 N 
ATOM      2  H2  UNL     1     183.268   5.615  62.510  1.00  0.00     0.187 HD
HETATM    3  C2  UNL     1     184.109   7.311  61.873  1.00  0.00     0.215 C 
ENDROOT
BRANCH   3   4
HETATM    4  N3  UNL     1     184.093   7.014  60.489  1.00  0.00    -0.297 N 
HETATM    5  C3  UNL     1     185.277   7.252  59.716  1.00  0.00     0.178 C 
HETATM    6  N4  UNL     1     183.069   6.550  59.942  1.00  0.00    -0.342 N 
ATOM      7  H42 UNL     1     182.227   6.381  60.493  1.00  0.00     0.177 HD
ATOM      8  H41 UNL     1     183.057   6.336  58.945  1.00  0.00     0.177 HD
ENDBRANCH   3   4
BRANCH   1   9
HETATM    9  N1  UNL     1     183.721   6.893  64.107  1.00  0.00    -0.340 N 
HETATM   10  C1  UNL     1     184.901   7.524  64.694  1.00  0.00     0.167 C 
ATOM     11  H1  UNL     1     182.909   6.722  64.700  1.00  0.00     0.179 HD
ENDBRANCH   1   9
TORSDOF 2
ENDMDL
MODEL 3
REMARK VINA RESULT: -4.866361386      1.079      3.768
REMARK  2 active torsions:
REMARK  status: ('A' for Active; 'I' for Inactive)
REMARK    1  A    between atoms: N1_2  and  N2_4 
REMARK    2  A    between atoms: C2_6  and  N3_7 
ROOT
HETATM    1  N2  UNL     1     184.598   7.548  63.694  1.00  0.00    -0.299 N 
ATOM      2  H2  UNL     1     185.224   6.909  63.205  1.00  0.00     0.187 HD
HETATM    3  C2  UNL     1     183.500   7.918  63.148  1.00  0.00     0.215 C 
ENDROOT
BRANCH   3   4
HETATM    4  N3  UNL     1     183.080   7.487  61.867  1.00  0.00    -0.297 N 
HETATM    5  C3  UNL     1     184.073   7.120  60.901  1.00  0.00     0.178 C 
HETATM    6  N4  UNL     1     181.866   7.424  61.575  1.00  0.00    -0.342 N 
ATOM      7  H42 UNL     1     181.160   7.686  62.263  1.00  0.00     0.177 HD
ATOM      8  H41 UNL     1     181.563   7.114  60.652  1.00  0.00     0.177 HD
ENDBRANCH   3   4
BRANCH   1   9
HETATM    9  N1  UNL     1     184.929   8.023  64.955  1.00  0.00    -0.340 N 
HETATM   10  C1  UNL     1     186.198   7.703  65.606  1.00  0.00     0.167 C 
ATOM     11  H1  UNL     1     184.262   8.618  65.446  1.00  0.00     0.179 HD
ENDBRANCH   1   9
TORSDOF 2
ENDMDL
MODEL 4
REMARK VINA RESULT: -4.675648491      1.553      4.141
REMARK  2 active torsions:
REMARK  status: ('A' for Active; 'I' for Inactive)
REMARK    1  A    between atoms: N1_2  and  N2_4 
REMARK    2  A    between atoms: C2_6  and  N3_7 
ROOT
HETATM    1  N2  UNL     1     183.531   6.746  61.865  1.00  0.00    -0.299 N 
ATOM      2  H2  UNL     1     182.935   6.137  61.306  1.00  0.00     0.187 HD
HETATM    3  C2  UNL     1     184.441   7.450  61.303  1.00  0.00     0.215 C 
ENDROOT
BRANCH   3   4
HETATM    4  N3  UNL     1     184.688   7.440  59.909  1.00  0.00    -0.297 N 
HETATM    5  C3  UNL     1     184.433   6.238  59.170  1.00  0.00     0.178 C 
HETATM    6  N4  UNL     1     185.121   8.456  59.325  1.00  0.00    -0.342 N 
ATOM      7  H42 UNL     1     185.303   9.311  59.852  1.00  0.00     0.177 HD
ATOM      8  H41 UNL     1     185.300   8.450  58.321  1.00  0.00     0.177 HD
ENDBRANCH   3   4
BRANCH   1   9
HETATM    9  N1  UNL     1     183.361   6.820  63.240  1.00  0.00    -0.340 N 
HETATM   10  C1  UNL     1     183.729   8.004  64.015  1.00  0.00     0.167 C 
ATOM     11  H1  UNL     1     182.964   6.017  63.729  1.00  0.00     0.179 HD
ENDBRANCH   1   9
TORSDOF 2
ENDMDL
MODEL 5
REMARK VINA RESULT: -4.624751320      1.461      1.985
REMARK  2 active torsions:
REMARK  status: ('A' for Active; 'I' for Inactive)
REMARK    1  A    between atoms: N1_2  and  N2_4 
REMARK    2  A    between atoms: C2_6  and  N3_7 
ROOT
HETATM    1  N2  UNL     1     183.549   6.779  60.372  1.00  0.00    -0.299 N 
ATOM      2  H2  UNL     1     182.574   6.505  60.489  1.00  0.00     0.187 HD
HETATM    3  C2  UNL     1     184.222   7.213  61.371  1.00  0.00     0.215 C 
ENDROOT
BRANCH   3   4
HETATM    4  N3  UNL     1     183.687   7.343  62.676  1.00  0.00    -0.297 N 
HETATM    5  C3  UNL     1     184.586   7.548  63.774  1.00  0.00     0.178 C 
HETATM    6  N4  UNL     1     182.455   7.282  62.875  1.00  0.00    -0.342 N 
ATOM      7  H42 UNL     1     181.816   7.137  62.093  1.00  0.00     0.177 HD
ATOM      8  H41 UNL     1     182.069   7.376  63.815  1.00  0.00     0.177 HD
ENDBRANCH   3   4
BRANCH   1   9
HETATM    9  N1  UNL     1     184.157   6.685  59.128  1.00  0.00    -0.340 N 
HETATM   10  C1  UNL     1     183.777   5.673  58.143  1.00  0.00     0.167 C 
ATOM     11  H1  UNL     1     184.896   7.347  58.891  1.00  0.00     0.179 HD
ENDBRANCH   1   9
TORSDOF 2
ENDMDL
