MODEL 1
REMARK VINA RESULT: -4.790792829      0.000      0.000
REMARK  2 active torsions:
REMARK  status: ('A' for Active; 'I' for Inactive)
REMARK    1  A    between atoms: C5_6  and  O2_7 
REMARK    2  A    between atoms: C6_9  and  O3_10 
ROOT
HETATM    1  C1  UNL     1      19.320  88.797  76.145  1.00  0.00     0.020 C 
HETATM    2  C2  UNL     1      18.936  89.569  74.928  1.00  0.00     0.015 A 
HETATM    3  C3  UNL     1      19.853  90.749  74.583  1.00  0.00     0.047 A 
HETATM    4  C4  UNL     1      18.444  90.949  74.961  1.00  0.00     0.136 A 
HETATM    5  O1  UNL     1      17.430  91.124  74.063  1.00  0.00    -0.353 OA
HETATM    6  C5  UNL     1      17.127  89.942  73.460  1.00  0.00     0.286 C 
HETATM    7  C6  UNL     1      18.165  88.924  73.812  1.00  0.00     0.183 C 
ENDROOT
BRANCH   6   8
HETATM    8  O2  UNL     1      15.845  89.458  73.800  1.00  0.00    -0.369 OA
ATOM      9  H2  UNL     1      15.865  88.597  74.201  1.00  0.00     0.212 HD
ENDBRANCH   6   8
BRANCH   7  10
HETATM   10  O3  UNL     1      18.965  88.618  72.708  1.00  0.00    -0.390 OA
ATOM     11  H3  UNL     1      18.535  88.035  72.093  1.00  0.00     0.210 HD
ENDBRANCH   7  10
TORSDOF 2
ENDMDL
MODEL 2
REMARK VINA RESULT: -4.738255003      3.250      3.974
REMARK  2 active torsions:
REMARK  status: ('A' for Active; 'I' for Inactive)
REMARK    1  A    between atoms: C5_6  and  O2_7 
REMARK    2  A    between atoms: C6_9  and  O3_10 
ROOT
HETATM    1  C1  UNL     1      22.169  89.858  77.575  1.00  0.00     0.020 C 
HETATM    2  C2  UNL     1      22.111  90.518  76.240  1.00  0.00     0.015 A 
HETATM    3  C3  UNL     1      22.331  92.036  76.248  1.00  0.00     0.047 A 
HETATM    4  C4  UNL     1      21.048  91.442  75.834  1.00  0.00     0.136 A 
HETATM    5  O1  UNL     1      20.690  91.230  74.534  1.00  0.00    -0.353 OA
HETATM    6  C5  UNL     1      21.373  90.167  74.026  1.00  0.00     0.286 C 
HETATM    7  C6  UNL     1      22.446  89.762  74.986  1.00  0.00     0.183 C 
ENDROOT
BRANCH   6   8
HETATM    8  O2  UNL     1      20.545  89.062  73.737  1.00  0.00    -0.369 OA
ATOM      9  H2  UNL     1      21.032  88.265  73.564  1.00  0.00     0.212 HD
ENDBRANCH   6   8
BRANCH   7  10
HETATM   10  O3  UNL     1      23.713  90.077  74.487  1.00  0.00    -0.390 OA
ATOM     11  H3  UNL     1      23.677  90.548  73.663  1.00  0.00     0.210 HD
ENDBRANCH   7  10
TORSDOF 2
ENDMDL
MODEL 3
REMARK VINA RESULT: -4.681563648      1.984      2.779
REMARK  2 active torsions:
REMARK  status: ('A' for Active; 'I' for Inactive)
REMARK    1  A    between atoms: C5_6  and  O2_7 
REMARK    2  A    between atoms: C6_9  and  O3_10 
ROOT
HETATM    1  C1  UNL     1      19.267  91.206  75.037  1.00  0.00     0.020 C 
HETATM    2  C2  UNL     1      17.812  91.156  75.358  1.00  0.00     0.015 A 
HETATM    3  C3  UNL     1      17.431  91.652  76.758  1.00  0.00     0.047 A 
HETATM    4  C4  UNL     1      17.228  90.251  76.352  1.00  0.00     0.136 A 
HETATM    5  O1  UNL     1      16.037  89.750  75.911  1.00  0.00    -0.353 OA
HETATM    6  C5  UNL     1      15.786  90.179  74.644  1.00  0.00     0.286 C 
HETATM    7  C6  UNL     1      16.775  91.237  74.273  1.00  0.00     0.183 C 
ENDROOT
BRANCH   6   8
HETATM    8  O2  UNL     1      15.815  89.139  73.690  1.00  0.00    -0.369 OA
ATOM      9  H2  UNL     1      14.952  88.900  73.372  1.00  0.00     0.212 HD
ENDBRANCH   6   8
BRANCH   7  10
HETATM   10  O3  UNL     1      16.167  92.493  74.200  1.00  0.00    -0.390 OA
ATOM     11  H3  UNL     1      16.525  93.035  73.507  1.00  0.00     0.210 HD
ENDBRANCH   7  10
TORSDOF 2
ENDMDL
MODEL 4
REMARK VINA RESULT: -4.654325262      4.853      6.286
REMARK  2 active torsions:
REMARK  status: ('A' for Active; 'I' for Inactive)
REMARK    1  A    between atoms: C5_6  and  O2_7 
REMARK    2  A    between atoms: C6_9  and  O3_10 
ROOT
HETATM    1  C1  UNL     1      22.497  90.258  75.983  1.00  0.00     0.020 C 
HETATM    2  C2  UNL     1      22.788  91.087  74.778  1.00  0.00     0.015 A 
HETATM    3  C3  UNL     1      22.035  90.681  73.505  1.00  0.00     0.047 A 
HETATM    4  C4  UNL     1      23.501  90.586  73.599  1.00  0.00     0.136 A 
HETATM    5  O1  UNL     1      24.359  91.531  73.114  1.00  0.00    -0.353 OA
HETATM    6  C5  UNL     1      24.354  92.629  73.920  1.00  0.00     0.286 C 
HETATM    7  C6  UNL     1      23.238  92.514  74.908  1.00  0.00     0.183 C 
ENDROOT
BRANCH   6   8
HETATM    8  O2  UNL     1      25.577  92.827  74.596  1.00  0.00    -0.369 OA
ATOM      9  H2  UNL     1      25.853  92.069  75.098  1.00  0.00     0.212 HD
ENDBRANCH   6   8
BRANCH   7  10
HETATM   10  O3  UNL     1      22.220  93.429  74.628  1.00  0.00    -0.390 OA
ATOM     11  H3  UNL     1      21.989  93.450  73.706  1.00  0.00     0.210 HD
ENDBRANCH   7  10
TORSDOF 2
ENDMDL
MODEL 5
REMARK VINA RESULT: -4.651339107      1.423      2.097
REMARK  2 active torsions:
REMARK  status: ('A' for Active; 'I' for Inactive)
REMARK    1  A    between atoms: C5_6  and  O2_7 
REMARK    2  A    between atoms: C6_9  and  O3_10 
ROOT
HETATM    1  C1  UNL     1      19.532  88.346  76.054  1.00  0.00     0.020 C 
HETATM    2  C2  UNL     1      18.990  89.362  75.108  1.00  0.00     0.015 A 
HETATM    3  C3  UNL     1      18.042  90.396  75.729  1.00  0.00     0.047 A 
HETATM    4  C4  UNL     1      17.580  89.435  74.713  1.00  0.00     0.136 A 
HETATM    5  O1  UNL     1      17.464  89.727  73.384  1.00  0.00    -0.353 OA
HETATM    6  C5  UNL     1      18.695  89.785  72.805  1.00  0.00     0.286 C 
HETATM    7  C6  UNL     1      19.745  89.750  73.869  1.00  0.00     0.183 C 
ENDROOT
BRANCH   6   8
HETATM    8  O2  UNL     1      18.919  88.747  71.874  1.00  0.00    -0.369 OA
ATOM      9  H2  UNL     1      18.298  88.033  71.954  1.00  0.00     0.212 HD
ENDBRANCH   6   8
BRANCH   7  10
HETATM   10  O3  UNL     1      20.381  90.988  73.989  1.00  0.00    -0.390 OA
ATOM     11  H3  UNL     1      21.276  90.912  74.300  1.00  0.00     0.210 HD
ENDBRANCH   7  10
TORSDOF 2
ENDMDL
