MODEL 1
REMARK VINA RESULT: -6.019729449      0.000      0.000
REMARK  14 active torsions:
REMARK  status: ('A' for Active; 'I' for Inactive)
REMARK    1  A    between atoms: C3_3  and  C4_4 
REMARK    2  A    between atoms: C4_4  and  C5_5 
REMARK    3  A    between atoms: C5_5  and  C6_6 
REMARK    4  A    between atoms: C6_6  and  C7_7 
REMARK    5  A    between atoms: C7_7  and  C8_8 
REMARK    6  A    between atoms: C8_8  and  C9_9 
REMARK    7  A    between atoms: C9_9  and  C10_10 
REMARK    8  A    between atoms: C10_10  and  C11_11 
REMARK    9  A    between atoms: C11_11  and  C12_12 
REMARK   10  A    between atoms: C12_12  and  C13_13 
REMARK   11  A    between atoms: C13_13  and  C14_14 
REMARK   12  A    between atoms: C14_14  and  C15_15 
REMARK   13  A    between atoms: C15_15  and  N1_16 
REMARK   14  A    between atoms: N1_16  and  C16_18 
ROOT
HETATM    1  C11 UNL     1     -49.088  68.755  -9.021  1.00  0.00     0.000 C 
ENDROOT
BRANCH   1   2
HETATM    2  C10 UNL     1     -50.362  68.013  -9.309  1.00  0.00     0.000 C 
BRANCH   2   3
HETATM    3  C9  UNL     1     -50.099  66.712  -9.975  1.00  0.00     0.000 C 
BRANCH   3   4
HETATM    4  C8  UNL     1     -48.782  66.717 -10.671  1.00  0.00     0.000 C 
BRANCH   4   5
HETATM    5  C7  UNL     1     -48.928  66.710 -12.186  1.00  0.00     0.000 C 
BRANCH   5   6
HETATM    6  C6  UNL     1     -48.308  67.960 -12.713  1.00  0.00     0.000 C 
BRANCH   6   7
HETATM    7  C5  UNL     1     -49.316  68.931 -13.309  1.00  0.00     0.001 C 
BRANCH   7   8
HETATM    8  C4  UNL     1     -50.706  68.416 -13.242  1.00  0.00     0.009 C 
BRANCH   8   9
HETATM    9  C3  UNL     1     -51.636  69.383 -12.558  1.00  0.00     0.011 A 
HETATM   10  C2  UNL     1     -51.488  70.784 -12.953  1.00  0.00    -0.026 A 
HETATM   11  C1  UNL     1     -52.716  70.905 -13.383  1.00  0.00    -0.030 A 
HETATM   12  C21 UNL     1     -53.027  69.508 -13.040  1.00  0.00     0.035 A 
ENDBRANCH   8   9
ENDBRANCH   7   8
ENDBRANCH   6   7
ENDBRANCH   5   6
ENDBRANCH   4   5
ENDBRANCH   3   4
ENDBRANCH   2   3
ENDBRANCH   1   2
BRANCH   1  13
HETATM   13  C12 UNL     1     -49.306  70.200  -9.502  1.00  0.00     0.000 C 
BRANCH  13  14
HETATM   14  C13 UNL     1     -50.715  70.646  -9.179  1.00  0.00     0.002 C 
BRANCH  14  15
HETATM   15  C14 UNL     1     -50.930  72.101  -9.333  1.00  0.00     0.020 C 
BRANCH  15  16
HETATM   16  C15 UNL     1     -51.213  72.913  -8.133  1.00  0.00     0.119 C 
BRANCH  16  17
HETATM   17  N1  UNL     1     -50.102  73.489  -7.443  1.00  0.00    -0.393 N 
ATOM     18  H1  UNL     1     -50.144  74.498  -7.295  1.00  0.00     0.159 HD
BRANCH  17  19
HETATM   19  C16 UNL     1     -48.946  72.836  -6.937  1.00  0.00     0.001 C 
HETATM   20  C17 UNL     1     -48.807  72.041  -5.914  1.00  0.00    -0.002 C 
HETATM   21  C18 UNL     1     -47.399  71.574  -5.742  1.00  0.00     0.029 C 
HETATM   22  C19 UNL     1     -46.849  71.789  -7.161  1.00  0.00     0.010 C 
HETATM   23  C20 UNL     1     -47.610  73.023  -7.559  1.00  0.00     0.056 C 
ENDBRANCH  17  19
ENDBRANCH  16  17
ENDBRANCH  15  16
ENDBRANCH  14  15
ENDBRANCH  13  14
ENDBRANCH   1  13
TORSDOF 14
ENDMDL
MODEL 2
REMARK VINA RESULT: -5.990745885      2.027      7.195
REMARK  14 active torsions:
REMARK  status: ('A' for Active; 'I' for Inactive)
REMARK    1  A    between atoms: C3_3  and  C4_4 
REMARK    2  A    between atoms: C4_4  and  C5_5 
REMARK    3  A    between atoms: C5_5  and  C6_6 
REMARK    4  A    between atoms: C6_6  and  C7_7 
REMARK    5  A    between atoms: C7_7  and  C8_8 
REMARK    6  A    between atoms: C8_8  and  C9_9 
REMARK    7  A    between atoms: C9_9  and  C10_10 
REMARK    8  A    between atoms: C10_10  and  C11_11 
REMARK    9  A    between atoms: C11_11  and  C12_12 
REMARK   10  A    between atoms: C12_12  and  C13_13 
REMARK   11  A    between atoms: C13_13  and  C14_14 
REMARK   12  A    between atoms: C14_14  and  C15_15 
REMARK   13  A    between atoms: C15_15  and  N1_16 
REMARK   14  A    between atoms: N1_16  and  C16_18 
ROOT
HETATM    1  C11 UNL     1     -49.566  69.790  -9.604  1.00  0.00     0.000 C 
ENDROOT
BRANCH   1   2
HETATM    2  C10 UNL     1     -50.664  70.643  -9.034  1.00  0.00     0.000 C 
BRANCH   2   3
HETATM    3  C9  UNL     1     -50.317  72.086  -9.081  1.00  0.00     0.000 C 
BRANCH   3   4
HETATM    4  C8  UNL     1     -50.943  72.830  -7.953  1.00  0.00     0.000 C 
BRANCH   4   5
HETATM    5  C7  UNL     1     -49.913  73.347  -6.959  1.00  0.00     0.000 C 
BRANCH   5   6
HETATM    6  C6  UNL     1     -49.594  72.241  -6.011  1.00  0.00     0.000 C 
BRANCH   6   7
HETATM    7  C5  UNL     1     -48.102  72.046  -5.790  1.00  0.00     0.001 C 
BRANCH   7   8
HETATM    8  C4  UNL     1     -47.505  71.091  -6.756  1.00  0.00     0.009 C 
BRANCH   8   9
HETATM    9  C3  UNL     1     -46.392  71.714  -7.556  1.00  0.00     0.011 A 
HETATM   10  C2  UNL     1     -46.661  71.885  -8.983  1.00  0.00    -0.026 A 
HETATM   11  C1  UNL     1     -46.510  73.183  -8.966  1.00  0.00    -0.030 A 
HETATM   12  C21 UNL     1     -46.216  73.181  -7.523  1.00  0.00     0.035 A 
ENDBRANCH   8   9
ENDBRANCH   7   8
ENDBRANCH   6   7
ENDBRANCH   5   6
ENDBRANCH   4   5
ENDBRANCH   3   4
ENDBRANCH   2   3
ENDBRANCH   1   2
BRANCH   1  13
HETATM   13  C12 UNL     1     -50.118  68.357  -9.676  1.00  0.00     0.000 C 
BRANCH  13  14
HETATM   14  C13 UNL     1     -49.005  67.390 -10.015  1.00  0.00     0.002 C 
BRANCH  14  15
HETATM   15  C14 UNL     1     -49.220  66.652 -11.279  1.00  0.00     0.020 C 
BRANCH  15  16
HETATM   16  C15 UNL     1     -48.551  67.125 -12.506  1.00  0.00     0.119 C 
BRANCH  16  17
HETATM   17  N1  UNL     1     -49.367  67.706 -13.526  1.00  0.00    -0.393 N 
ATOM     18  H1  UNL     1     -49.008  67.635 -14.478  1.00  0.00     0.159 HD
BRANCH  17  19
HETATM   19  C16 UNL     1     -50.616  68.368 -13.382  1.00  0.00     0.001 C 
HETATM   20  C17 UNL     1     -51.830  67.897 -13.429  1.00  0.00    -0.002 C 
HETATM   21  C18 UNL     1     -52.860  68.958 -13.223  1.00  0.00     0.029 C 
HETATM   22  C19 UNL     1     -52.031  70.031 -12.500  1.00  0.00     0.010 C 
HETATM   23  C20 UNL     1     -50.699  69.836 -13.170  1.00  0.00     0.056 C 
ENDBRANCH  17  19
ENDBRANCH  16  17
ENDBRANCH  15  16
ENDBRANCH  14  15
ENDBRANCH  13  14
ENDBRANCH   1  13
TORSDOF 14
ENDMDL
MODEL 3
REMARK VINA RESULT: -5.929458748      2.080      7.157
REMARK  14 active torsions:
REMARK  status: ('A' for Active; 'I' for Inactive)
REMARK    1  A    between atoms: C3_3  and  C4_4 
REMARK    2  A    between atoms: C4_4  and  C5_5 
REMARK    3  A    between atoms: C5_5  and  C6_6 
REMARK    4  A    between atoms: C6_6  and  C7_7 
REMARK    5  A    between atoms: C7_7  and  C8_8 
REMARK    6  A    between atoms: C8_8  and  C9_9 
REMARK    7  A    between atoms: C9_9  and  C10_10 
REMARK    8  A    between atoms: C10_10  and  C11_11 
REMARK    9  A    between atoms: C11_11  and  C12_12 
REMARK   10  A    between atoms: C12_12  and  C13_13 
REMARK   11  A    between atoms: C13_13  and  C14_14 
REMARK   12  A    between atoms: C14_14  and  C15_15 
REMARK   13  A    between atoms: C15_15  and  N1_16 
REMARK   14  A    between atoms: N1_16  and  C16_18 
ROOT
HETATM    1  C11 UNL     1     -49.669  69.267  -9.239  1.00  0.00     0.000 C 
ENDROOT
BRANCH   1   2
HETATM    2  C10 UNL     1     -50.264  70.603  -9.584  1.00  0.00     0.000 C 
BRANCH   2   3
HETATM    3  C9  UNL     1     -50.779  71.300  -8.379  1.00  0.00     0.000 C 
BRANCH   3   4
HETATM    4  C8  UNL     1     -50.427  72.748  -8.400  1.00  0.00     0.000 C 
BRANCH   4   5
HETATM    5  C7  UNL     1     -50.074  73.277  -7.017  1.00  0.00     0.000 C 
BRANCH   5   6
HETATM    6  C6  UNL     1     -49.694  72.114  -6.163  1.00  0.00     0.000 C 
BRANCH   6   7
HETATM    7  C5  UNL     1     -48.208  72.058  -5.845  1.00  0.00     0.001 C 
BRANCH   7   8
HETATM    8  C4  UNL     1     -47.478  71.099  -6.711  1.00  0.00     0.009 C 
BRANCH   8   9
HETATM    9  C3  UNL     1     -46.432  71.778  -7.555  1.00  0.00     0.011 A 
HETATM   10  C2  UNL     1     -46.766  71.926  -8.971  1.00  0.00    -0.026 A 
HETATM   11  C1  UNL     1     -46.686  73.230  -8.964  1.00  0.00    -0.030 A 
HETATM   12  C21 UNL     1     -46.337  73.252  -7.535  1.00  0.00     0.035 A 
ENDBRANCH   8   9
ENDBRANCH   7   8
ENDBRANCH   6   7
ENDBRANCH   5   6
ENDBRANCH   4   5
ENDBRANCH   3   4
ENDBRANCH   2   3
ENDBRANCH   1   2
BRANCH   1  13
HETATM   13  C12 UNL     1     -48.494  69.049 -10.208  1.00  0.00     0.000 C 
BRANCH  13  14
HETATM   14  C13 UNL     1     -48.106  67.587 -10.229  1.00  0.00     0.002 C 
BRANCH  14  15
HETATM   15  C14 UNL     1     -48.598  66.856 -11.417  1.00  0.00     0.020 C 
BRANCH  15  16
HETATM   16  C15 UNL     1     -48.268  67.370 -12.761  1.00  0.00     0.119 C 
BRANCH  16  17
HETATM   17  N1  UNL     1     -49.353  67.733 -13.618  1.00  0.00    -0.393 N 
ATOM     18  H1  UNL     1     -49.284  67.413 -14.584  1.00  0.00     0.159 HD
BRANCH  17  19
HETATM   19  C16 UNL     1     -50.516  68.483 -13.294  1.00  0.00     0.001 C 
HETATM   20  C17 UNL     1     -50.681  69.770 -13.168  1.00  0.00    -0.002 C 
HETATM   21  C18 UNL     1     -52.086  70.131 -12.816  1.00  0.00     0.029 C 
HETATM   22  C19 UNL     1     -52.836  68.881 -13.299  1.00  0.00     0.010 C 
HETATM   23  C20 UNL     1     -51.812  67.822 -12.999  1.00  0.00     0.056 C 
ENDBRANCH  17  19
ENDBRANCH  16  17
ENDBRANCH  15  16
ENDBRANCH  14  15
ENDBRANCH  13  14
ENDBRANCH   1  13
TORSDOF 14
ENDMDL
MODEL 4
REMARK VINA RESULT: -5.895128380      2.015      7.203
REMARK  14 active torsions:
REMARK  status: ('A' for Active; 'I' for Inactive)
REMARK    1  A    between atoms: C3_3  and  C4_4 
REMARK    2  A    between atoms: C4_4  and  C5_5 
REMARK    3  A    between atoms: C5_5  and  C6_6 
REMARK    4  A    between atoms: C6_6  and  C7_7 
REMARK    5  A    between atoms: C7_7  and  C8_8 
REMARK    6  A    between atoms: C8_8  and  C9_9 
REMARK    7  A    between atoms: C9_9  and  C10_10 
REMARK    8  A    between atoms: C10_10  and  C11_11 
REMARK    9  A    between atoms: C11_11  and  C12_12 
REMARK   10  A    between atoms: C12_12  and  C13_13 
REMARK   11  A    between atoms: C13_13  and  C14_14 
REMARK   12  A    between atoms: C14_14  and  C15_15 
REMARK   13  A    between atoms: C15_15  and  N1_16 
REMARK   14  A    between atoms: N1_16  and  C16_18 
ROOT
HETATM    1  C11 UNL     1     -50.264  68.018  -9.449  1.00  0.00     0.000 C 
ENDROOT
BRANCH   1   2
HETATM    2  C10 UNL     1     -49.208  68.905  -8.853  1.00  0.00     0.000 C 
BRANCH   2   3
HETATM    3  C9  UNL     1     -49.452  70.335  -9.170  1.00  0.00     0.000 C 
BRANCH   3   4
HETATM    4  C8  UNL     1     -50.903  70.665  -9.100  1.00  0.00     0.000 C 
BRANCH   4   5
HETATM    5  C7  UNL     1     -51.152  72.165  -9.031  1.00  0.00     0.000 C 
BRANCH   5   6
HETATM    6  C6  UNL     1     -49.976  72.796  -8.364  1.00  0.00     0.000 C 
BRANCH   6   7
HETATM    7  C5  UNL     1     -50.262  73.256  -6.943  1.00  0.00     0.001 C 
BRANCH   7   8
HETATM    8  C4  UNL     1     -49.511  72.472  -5.931  1.00  0.00     0.009 C 
BRANCH   8   9
HETATM    9  C3  UNL     1     -48.082  72.234  -6.345  1.00  0.00     0.011 A 
HETATM   10  C2  UNL     1     -47.074  72.944  -5.559  1.00  0.00    -0.026 A 
HETATM   11  C1  UNL     1     -46.464  71.858  -5.162  1.00  0.00    -0.030 A 
HETATM   12  C21 UNL     1     -47.401  71.000  -5.905  1.00  0.00     0.035 A 
ENDBRANCH   8   9
ENDBRANCH   7   8
ENDBRANCH   6   7
ENDBRANCH   5   6
ENDBRANCH   4   5
ENDBRANCH   3   4
ENDBRANCH   2   3
ENDBRANCH   1   2
BRANCH   1  13
HETATM   13  C12 UNL     1     -49.529  66.816 -10.065  1.00  0.00     0.000 C 
BRANCH  13  14
HETATM   14  C13 UNL     1     -48.075  67.161 -10.294  1.00  0.00     0.002 C 
BRANCH  14  15
HETATM   15  C14 UNL     1     -47.809  67.783 -11.610  1.00  0.00     0.020 C 
BRANCH  15  16
HETATM   16  C15 UNL     1     -48.295  67.111 -12.830  1.00  0.00     0.119 C 
BRANCH  16  17
HETATM   17  N1  UNL     1     -49.245  67.808 -13.640  1.00  0.00    -0.393 N 
ATOM     18  H1  UNL     1     -49.034  67.850 -14.637  1.00  0.00     0.159 HD
BRANCH  17  19
HETATM   19  C16 UNL     1     -50.445  68.448 -13.232  1.00  0.00     0.001 C 
HETATM   20  C17 UNL     1     -50.676  69.697 -12.937  1.00  0.00    -0.002 C 
HETATM   21  C18 UNL     1     -52.099  69.937 -12.554  1.00  0.00     0.029 C 
HETATM   22  C19 UNL     1     -52.783  68.726 -13.208  1.00  0.00     0.010 C 
HETATM   23  C20 UNL     1     -51.707  67.689 -13.041  1.00  0.00     0.056 C 
ENDBRANCH  17  19
ENDBRANCH  16  17
ENDBRANCH  15  16
ENDBRANCH  14  15
ENDBRANCH  13  14
ENDBRANCH   1  13
TORSDOF 14
ENDMDL
MODEL 5
REMARK VINA RESULT: -5.762628030      2.279      7.485
REMARK  14 active torsions:
REMARK  status: ('A' for Active; 'I' for Inactive)
REMARK    1  A    between atoms: C3_3  and  C4_4 
REMARK    2  A    between atoms: C4_4  and  C5_5 
REMARK    3  A    between atoms: C5_5  and  C6_6 
REMARK    4  A    between atoms: C6_6  and  C7_7 
REMARK    5  A    between atoms: C7_7  and  C8_8 
REMARK    6  A    between atoms: C8_8  and  C9_9 
REMARK    7  A    between atoms: C9_9  and  C10_10 
REMARK    8  A    between atoms: C10_10  and  C11_11 
REMARK    9  A    between atoms: C11_11  and  C12_12 
REMARK   10  A    between atoms: C12_12  and  C13_13 
REMARK   11  A    between atoms: C13_13  and  C14_14 
REMARK   12  A    between atoms: C14_14  and  C15_15 
REMARK   13  A    between atoms: C15_15  and  N1_16 
REMARK   14  A    between atoms: N1_16  and  C16_18 
ROOT
HETATM    1  C11 UNL     1     -49.598  69.950  -9.249  1.00  0.00     0.000 C 
ENDROOT
BRANCH   1   2
HETATM    2  C10 UNL     1     -50.713  70.943  -9.087  1.00  0.00     0.000 C 
BRANCH   2   3
HETATM    3  C9  UNL     1     -50.196  72.323  -8.907  1.00  0.00     0.000 C 
BRANCH   3   4
HETATM    4  C8  UNL     1     -50.699  72.930  -7.643  1.00  0.00     0.000 C 
BRANCH   4   5
HETATM    5  C7  UNL     1     -49.570  73.347  -6.712  1.00  0.00     0.000 C 
BRANCH   5   6
HETATM    6  C6  UNL     1     -49.081  72.127  -6.006  1.00  0.00     0.000 C 
BRANCH   6   7
HETATM    7  C5  UNL     1     -47.567  71.988  -6.016  1.00  0.00     0.001 C 
BRANCH   7   8
HETATM    8  C4  UNL     1     -47.085  70.968  -5.052  1.00  0.00     0.009 C 
BRANCH   8   9
HETATM    9  C3  UNL     1     -46.298  69.877  -5.728  1.00  0.00     0.011 A 
HETATM   10  C2  UNL     1     -46.463  68.539  -5.162  1.00  0.00    -0.026 A 
HETATM   11  C1  UNL     1     -46.919  68.010  -6.266  1.00  0.00    -0.030 A 
HETATM   12  C21 UNL     1     -46.811  69.291  -6.983  1.00  0.00     0.035 A 
ENDBRANCH   8   9
ENDBRANCH   7   8
ENDBRANCH   6   7
ENDBRANCH   5   6
ENDBRANCH   4   5
ENDBRANCH   3   4
ENDBRANCH   2   3
ENDBRANCH   1   2
BRANCH   1  13
HETATM   13  C12 UNL     1     -50.258  68.565  -9.355  1.00  0.00     0.000 C 
BRANCH  13  14
HETATM   14  C13 UNL     1     -49.196  67.493  -9.461  1.00  0.00     0.002 C 
BRANCH  14  15
HETATM   15  C14 UNL     1     -49.383  66.579 -10.609  1.00  0.00     0.020 C 
BRANCH  15  16
HETATM   16  C15 UNL     1     -48.699  66.881 -11.883  1.00  0.00     0.119 C 
BRANCH  16  17
HETATM   17  N1  UNL     1     -49.510  67.248 -13.001  1.00  0.00    -0.393 N 
ATOM     18  H1  UNL     1     -49.234  66.854 -13.900  1.00  0.00     0.159 HD
BRANCH  17  19
HETATM   19  C16 UNL     1     -50.653  68.092 -13.019  1.00  0.00     0.001 C 
HETATM   20  C17 UNL     1     -51.921  67.794 -13.047  1.00  0.00    -0.002 C 
HETATM   21  C18 UNL     1     -52.791  69.007 -13.056  1.00  0.00     0.029 C 
HETATM   22  C19 UNL     1     -51.832  70.056 -12.472  1.00  0.00     0.010 C 
HETATM   23  C20 UNL     1     -50.528  69.572 -13.043  1.00  0.00     0.056 C 
ENDBRANCH  17  19
ENDBRANCH  16  17
ENDBRANCH  15  16
ENDBRANCH  14  15
ENDBRANCH  13  14
ENDBRANCH   1  13
TORSDOF 14
ENDMDL
