MODEL 1
REMARK VINA RESULT: -6.587578542      0.000      0.000
REMARK  14 active torsions:
REMARK  status: ('A' for Active; 'I' for Inactive)
REMARK       I    between atoms: C2_2  and  N1_4 
REMARK    1  A    between atoms: N1_4  and  C3_6 
REMARK    2  A    between atoms: C6_17  and  N7_18 
REMARK    3  A    between atoms: N7_18  and  C7_20 
REMARK    4  A    between atoms: C8_23  and  S1_24 
REMARK    5  A    between atoms: S1_24  and  C9_25 
REMARK    6  A    between atoms: C9_25  and  N9_26 
REMARK    7  A    between atoms: N9_26  and  C10_27 
REMARK    8  A    between atoms: N9_26  and  C11_34 
REMARK    9  A    between atoms: C10_27  and  N10_28 
REMARK   10  A    between atoms: C10_27  and  O2_32 
REMARK   11  A    between atoms: C13_36  and  N11_37 
REMARK   12  A    between atoms: N11_37  and  O3_39 
REMARK   13  A    between atoms: C14_41  and  C15_42 
REMARK   14  A    between atoms: C15_42  and  N12_43 
ROOT
HETATM    1  C7  UNL     1      41.115  -1.007  22.442  1.00  0.00     0.150 A 
HETATM    2  N8  UNL     1      41.572  -2.250  22.619  1.00  0.00    -0.320 N 
ATOM      3  H8  UNL     1      41.141  -3.082  22.216  1.00  0.00     0.169 HD
HETATM    4  C8  UNL     1      42.687  -2.268  23.404  1.00  0.00     0.152 A 
HETATM    5  N14 UNL     1      42.904  -0.977  23.709  1.00  0.00    -0.322 N 
ATOM      6  H14 UNL     1      43.672  -0.641  24.290  1.00  0.00     0.169 HD
HETATM    7  C16 UNL     1      41.974  -0.191  23.144  1.00  0.00     0.162 A 
HETATM    8  N15 UNL     1      41.909   1.235  23.266  1.00  0.00    -0.079 NA
ENDROOT
BRANCH   4   9
HETATM    9  S1  UNL     1      43.615  -3.712  23.862  1.00  0.00    -0.049 SA
BRANCH   9  10
HETATM   10  C9  UNL     1      42.892  -4.632  25.218  1.00  0.00     0.145 C 
BRANCH  10  11
HETATM   11  N9  UNL     1      41.603  -4.341  25.611  1.00  0.00    -0.315 N 
BRANCH  11  12
HETATM   12  C10 UNL     1      40.409  -4.813  25.135  1.00  0.00     0.427 C 
BRANCH  12  13
HETATM   13  N10 UNL     1      40.381  -5.396  23.801  1.00  0.00    -0.035 N 
ATOM     14 3H10 UNL     1      40.683  -4.695  23.125  1.00  0.00     0.279 HD
ATOM     15 2H10 UNL     1      41.133  -6.081  23.721  1.00  0.00     0.279 HD
ATOM     16 1H10 UNL     1      39.511  -5.818  23.476  1.00  0.00     0.279 HD
ENDBRANCH  12  13
BRANCH  12  17
HETATM   17  O2  UNL     1      39.357  -3.898  25.329  1.00  0.00    -0.354 OA
ATOM     18  H2  UNL     1      39.030  -3.547  24.509  1.00  0.00     0.213 HD
ENDBRANCH  12  17
ENDBRANCH  11  12
BRANCH  11  19
HETATM   19  C11 UNL     1      41.456  -3.661  26.877  1.00  0.00     0.190 C 
HETATM   20  C12 UNL     1      42.787  -3.047  27.242  1.00  0.00     0.080 C 
HETATM   21  C13 UNL     1      42.847  -3.256  28.743  1.00  0.00     0.156 C 
HETATM   22  C14 UNL     1      41.855  -4.327  28.994  1.00  0.00     0.034 C 
HETATM   23  N13 UNL     1      41.137  -4.502  27.962  1.00  0.00    -0.372 N 
ATOM     24  H13 UNL     1      40.390  -5.195  27.921  1.00  0.00     0.161 HD
BRANCH  21  25
HETATM   25  N11 UNL     1      44.136  -3.679  29.147  1.00  0.00    -0.295 N 
ATOM     26  H11 UNL     1      44.489  -3.428  30.071  1.00  0.00     0.188 HD
BRANCH  25  27
HETATM   27  O3  UNL     1      44.820  -4.338  28.396  1.00  0.00    -0.294 OA
ATOM     28  H3  UNL     1      45.573  -4.809  28.731  1.00  0.00     0.244 HD
ENDBRANCH  25  27
ENDBRANCH  21  25
BRANCH  22  29
HETATM   29  C15 UNL     1      41.778  -5.052  30.313  1.00  0.00     0.283 C 
BRANCH  29  30
HETATM   30  N12 UNL     1      41.951  -6.485  30.118  1.00  0.00    -0.074 N 
ATOM     31 3H12 UNL     1      42.901  -6.716  29.824  1.00  0.00     0.274 HD
ATOM     32 2H12 UNL     1      41.938  -6.993  31.002  1.00  0.00     0.274 HD
ATOM     33 1H12 UNL     1      41.254  -6.841  29.464  1.00  0.00     0.274 HD
ENDBRANCH  29  30
ENDBRANCH  22  29
ENDBRANCH  11  19
ENDBRANCH  10  11
ENDBRANCH   9  10
ENDBRANCH   4   9
BRANCH   1  34
HETATM   34  N7  UNL     1      39.974  -0.621  21.681  1.00  0.00    -0.326 N 
ATOM     35  H7  UNL     1      39.925  -0.878  20.695  1.00  0.00     0.169 HD
BRANCH  34  36
HETATM   36  C6  UNL     1      38.894   0.119  22.264  1.00  0.00     0.128 C 
HETATM   37  C3  UNL     1      37.765  -0.636  22.831  1.00  0.00     0.255 C 
HETATM   38  N2  UNL     1      37.450  -0.152  24.151  1.00  0.00    -0.337 N 
HETATM   39  C4  UNL     1      37.276   1.061  24.523  1.00  0.00     0.192 C 
ATOM     40  H2  UNL     1      37.354  -0.862  24.878  1.00  0.00     0.164 HD
HETATM   41  N3  UNL     1      36.970   1.219  25.911  1.00  0.00    -0.063 NA
HETATM   42  N4  UNL     1      37.355   2.276  23.742  1.00  0.00    -0.305 N 
HETATM   43  C5  UNL     1      38.166   2.387  22.709  1.00  0.00     0.196 C 
ATOM     44  H4  UNL     1      36.767   3.070  23.998  1.00  0.00     0.171 HD
HETATM   45  N5  UNL     1      38.175   3.619  22.001  1.00  0.00    -0.063 NA
HETATM   46  N6  UNL     1      39.057   1.389  22.215  1.00  0.00    -0.317 N 
ATOM     47  H6  UNL     1      39.917   1.722  21.777  1.00  0.00     0.170 HD
BRANCH  37  48
HETATM   48  N1  UNL     1      38.004  -2.066  22.829  1.00  0.00    -0.334 N 
HETATM   49  C2  UNL     1      36.927  -2.984  22.832  1.00  0.00     0.215 C 
HETATM   50  C1  UNL     1      37.156  -4.435  22.831  1.00  0.00     0.117 C 
HETATM   51  O1  UNL     1      35.750  -2.547  22.835  1.00  0.00    -0.274 OA
ATOM     52  H1  UNL     1      38.963  -2.415  22.826  1.00  0.00     0.165 HD
ENDBRANCH  37  48
ENDBRANCH  34  36
ENDBRANCH   1  34
TORSDOF 14
ENDMDL
MODEL 2
REMARK VINA RESULT: -6.491430190      5.407      8.682
REMARK  14 active torsions:
REMARK  status: ('A' for Active; 'I' for Inactive)
REMARK       I    between atoms: C2_2  and  N1_4 
REMARK    1  A    between atoms: N1_4  and  C3_6 
REMARK    2  A    between atoms: C6_17  and  N7_18 
REMARK    3  A    between atoms: N7_18  and  C7_20 
REMARK    4  A    between atoms: C8_23  and  S1_24 
REMARK    5  A    between atoms: S1_24  and  C9_25 
REMARK    6  A    between atoms: C9_25  and  N9_26 
REMARK    7  A    between atoms: N9_26  and  C10_27 
REMARK    8  A    between atoms: N9_26  and  C11_34 
REMARK    9  A    between atoms: C10_27  and  N10_28 
REMARK   10  A    between atoms: C10_27  and  O2_32 
REMARK   11  A    between atoms: C13_36  and  N11_37 
REMARK   12  A    between atoms: N11_37  and  O3_39 
REMARK   13  A    between atoms: C14_41  and  C15_42 
REMARK   14  A    between atoms: C15_42  and  N12_43 
ROOT
HETATM    1  C7  UNL     1      38.022  -5.828  19.760  1.00  0.00     0.150 A 
HETATM    2  N8  UNL     1      38.306  -4.669  20.361  1.00  0.00    -0.320 N 
ATOM      3  H8  UNL     1      37.911  -3.769  20.088  1.00  0.00     0.169 HD
HETATM    4  C8  UNL     1      39.190  -4.840  21.386  1.00  0.00     0.152 A 
HETATM    5  N14 UNL     1      39.444  -6.159  21.395  1.00  0.00    -0.322 N 
ATOM      6  H14 UNL     1      40.074  -6.623  22.050  1.00  0.00     0.169 HD
HETATM    7  C16 UNL     1      38.755  -6.784  20.428  1.00  0.00     0.162 A 
HETATM    8  N15 UNL     1      38.794  -8.191  20.158  1.00  0.00    -0.079 NA
ENDROOT
BRANCH   4   9
HETATM    9  S1  UNL     1      39.808  -3.559  22.451  1.00  0.00    -0.049 SA
BRANCH   9  10
HETATM   10  C9  UNL     1      39.492  -1.904  21.845  1.00  0.00     0.145 C 
BRANCH  10  11
HETATM   11  N9  UNL     1      38.577  -1.113  22.506  1.00  0.00    -0.315 N 
BRANCH  11  12
HETATM   12  C10 UNL     1      37.459  -1.463  23.215  1.00  0.00     0.427 C 
BRANCH  12  13
HETATM   13  N10 UNL     1      37.477  -2.718  23.955  1.00  0.00    -0.035 N 
ATOM     14 3H10 UNL     1      37.635  -3.486  23.303  1.00  0.00     0.279 HD
ATOM     15 2H10 UNL     1      38.328  -2.760  24.517  1.00  0.00     0.279 HD
ATOM     16 1H10 UNL     1      36.676  -2.942  24.545  1.00  0.00     0.279 HD
ENDBRANCH  12  13
BRANCH  12  17
HETATM   17  O2  UNL     1      36.280  -1.318  22.460  1.00  0.00    -0.354 OA
ATOM     18  H2  UNL     1      35.951  -0.427  22.473  1.00  0.00     0.213 HD
ENDBRANCH  12  17
ENDBRANCH  11  12
BRANCH  11  19
HETATM   19  C11 UNL     1      38.965   0.259  22.741  1.00  0.00     0.190 C 
HETATM   20  C12 UNL     1      39.141   0.453  24.229  1.00  0.00     0.080 C 
HETATM   21  C13 UNL     1      38.587   1.847  24.448  1.00  0.00     0.156 C 
HETATM   22  C14 UNL     1      37.756   2.094  23.247  1.00  0.00     0.034 C 
HETATM   23  N13 UNL     1      37.999   1.214  22.365  1.00  0.00    -0.372 N 
ATOM     24  H13 UNL     1      37.534   1.200  21.457  1.00  0.00     0.161 HD
BRANCH  21  25
HETATM   25  N11 UNL     1      37.786   1.898  25.615  1.00  0.00    -0.295 N 
ATOM     26  H11 UNL     1      37.846   2.702  26.240  1.00  0.00     0.188 HD
BRANCH  25  27
HETATM   27  O3  UNL     1      37.031   0.988  25.872  1.00  0.00    -0.294 OA
ATOM     28  H3  UNL     1      37.014   0.617  26.746  1.00  0.00     0.244 HD
ENDBRANCH  25  27
ENDBRANCH  21  25
BRANCH  22  29
HETATM   29  C15 UNL     1      36.789   3.248  23.168  1.00  0.00     0.283 C 
BRANCH  29  30
HETATM   30  N12 UNL     1      37.169   4.157  22.096  1.00  0.00    -0.074 N 
ATOM     31 3H12 UNL     1      37.541   3.657  21.287  1.00  0.00     0.274 HD
ATOM     32 2H12 UNL     1      36.355   4.581  21.651  1.00  0.00     0.274 HD
ATOM     33 1H12 UNL     1      37.822   4.860  22.441  1.00  0.00     0.274 HD
ENDBRANCH  29  30
ENDBRANCH  22  29
ENDBRANCH  11  19
ENDBRANCH  10  11
ENDBRANCH   9  10
ENDBRANCH   4   9
BRANCH   1  34
HETATM   34  N7  UNL     1      37.140  -6.020  18.657  1.00  0.00    -0.326 N 
ATOM     35  H7  UNL     1      36.176  -6.302  18.836  1.00  0.00     0.169 HD
BRANCH  34  36
HETATM   36  C6  UNL     1      37.571  -5.826  17.304  1.00  0.00     0.128 C 
HETATM   37  C3  UNL     1      37.801  -7.021  16.475  1.00  0.00     0.255 C 
HETATM   38  N2  UNL     1      37.144  -6.881  15.201  1.00  0.00    -0.337 N 
HETATM   39  C4  UNL     1      37.192  -5.887  14.395  1.00  0.00     0.192 C 
ATOM     40  H2  UNL     1      36.569  -7.670  14.904  1.00  0.00     0.164 HD
HETATM   41  N3  UNL     1      36.426  -6.052  13.199  1.00  0.00    -0.063 NA
HETATM   42  N4  UNL     1      37.901  -4.632  14.535  1.00  0.00    -0.305 N 
HETATM   43  C5  UNL     1      38.115  -4.082  15.713  1.00  0.00     0.196 C 
ATOM     44  H4  UNL     1      38.244  -4.160  13.698  1.00  0.00     0.171 HD
HETATM   45  N5  UNL     1      38.820  -2.848  15.753  1.00  0.00    -0.063 NA
HETATM   46  N6  UNL     1      37.704  -4.595  16.980  1.00  0.00    -0.317 N 
ATOM     47  H6  UNL     1      37.494  -3.907  17.703  1.00  0.00     0.170 HD
BRANCH  37  48
HETATM   48  N1  UNL     1      37.406  -8.242  17.149  1.00  0.00    -0.334 N 
HETATM   49  C2  UNL     1      38.004  -9.482  16.817  1.00  0.00     0.215 C 
HETATM   50  C1  UNL     1      37.612 -10.727  17.492  1.00  0.00     0.117 C 
HETATM   51  O1  UNL     1      38.888  -9.516  15.926  1.00  0.00    -0.274 OA
ATOM     52  H1  UNL     1      36.688  -8.208  17.872  1.00  0.00     0.165 HD
ENDBRANCH  37  48
ENDBRANCH  34  36
ENDBRANCH   1  34
TORSDOF 14
ENDMDL
MODEL 3
REMARK VINA RESULT: -6.477946842      3.490      7.193
REMARK  14 active torsions:
REMARK  status: ('A' for Active; 'I' for Inactive)
REMARK       I    between atoms: C2_2  and  N1_4 
REMARK    1  A    between atoms: N1_4  and  C3_6 
REMARK    2  A    between atoms: C6_17  and  N7_18 
REMARK    3  A    between atoms: N7_18  and  C7_20 
REMARK    4  A    between atoms: C8_23  and  S1_24 
REMARK    5  A    between atoms: S1_24  and  C9_25 
REMARK    6  A    between atoms: C9_25  and  N9_26 
REMARK    7  A    between atoms: N9_26  and  C10_27 
REMARK    8  A    between atoms: N9_26  and  C11_34 
REMARK    9  A    between atoms: C10_27  and  N10_28 
REMARK   10  A    between atoms: C10_27  and  O2_32 
REMARK   11  A    between atoms: C13_36  and  N11_37 
REMARK   12  A    between atoms: N11_37  and  O3_39 
REMARK   13  A    between atoms: C14_41  and  C15_42 
REMARK   14  A    between atoms: C15_42  and  N12_43 
ROOT
HETATM    1  C7  UNL     1      40.767  -2.818  23.043  1.00  0.00     0.150 A 
HETATM    2  N8  UNL     1      41.407  -1.743  22.571  1.00  0.00    -0.320 N 
ATOM      3  H8  UNL     1      41.605  -1.582  21.584  1.00  0.00     0.169 HD
HETATM    4  C8  UNL     1      41.759  -0.890  23.575  1.00  0.00     0.152 A 
HETATM    5  N14 UNL     1      41.310  -1.482  24.694  1.00  0.00    -0.322 N 
ATOM      6  H14 UNL     1      41.414  -1.099  25.633  1.00  0.00     0.169 HD
HETATM    7  C16 UNL     1      40.707  -2.647  24.408  1.00  0.00     0.162 A 
HETATM    8  N15 UNL     1      40.117  -3.532  25.367  1.00  0.00    -0.079 NA
ENDROOT
BRANCH   4   9
HETATM    9  S1  UNL     1      42.603   0.661  23.374  1.00  0.00    -0.049 SA
BRANCH   9  10
HETATM   10  C9  UNL     1      41.522   2.085  23.464  1.00  0.00     0.145 C 
BRANCH  10  11
HETATM   11  N9  UNL     1      40.915   2.390  24.664  1.00  0.00    -0.315 N 
BRANCH  11  12
HETATM   12  C10 UNL     1      41.341   3.192  25.688  1.00  0.00     0.427 C 
BRANCH  12  13
HETATM   13  N10 UNL     1      42.562   3.964  25.496  1.00  0.00    -0.035 N 
ATOM     14 3H10 UNL     1      42.580   4.730  26.169  1.00  0.00     0.279 HD
ATOM     15 2H10 UNL     1      43.358   3.409  25.811  1.00  0.00     0.279 HD
ATOM     16 1H10 UNL     1      42.759   4.333  24.566  1.00  0.00     0.279 HD
ENDBRANCH  12  13
BRANCH  12  17
HETATM   17  O2  UNL     1      41.332   2.527  26.928  1.00  0.00    -0.354 OA
ATOM     18  H2  UNL     1      41.619   3.087  27.640  1.00  0.00     0.213 HD
ENDBRANCH  12  17
ENDBRANCH  11  12
BRANCH  11  19
HETATM   19  C11 UNL     1      39.513   2.058  24.777  1.00  0.00     0.190 C 
HETATM   20  C12 UNL     1      38.960   1.858  23.385  1.00  0.00     0.080 C 
HETATM   21  C13 UNL     1      37.576   2.469  23.490  1.00  0.00     0.156 C 
HETATM   22  C14 UNL     1      37.657   3.335  24.689  1.00  0.00     0.034 C 
HETATM   23  N13 UNL     1      38.714   3.072  25.341  1.00  0.00    -0.372 N 
ATOM     24  H13 UNL     1      38.964   3.556  26.204  1.00  0.00     0.161 HD
BRANCH  21  25
HETATM   25  N11 UNL     1      37.275   3.245  22.345  1.00  0.00    -0.295 N 
ATOM     26  H11 UNL     1      37.050   4.235  22.445  1.00  0.00     0.188 HD
BRANCH  25  27
HETATM   27  O3  UNL     1      37.284   2.735  21.248  1.00  0.00    -0.294 OA
ATOM     28  H3  UNL     1      36.853   3.165  20.520  1.00  0.00     0.244 HD
ENDBRANCH  25  27
ENDBRANCH  21  25
BRANCH  22  29
HETATM   29  C15 UNL     1      36.594   4.353  25.013  1.00  0.00     0.283 C 
BRANCH  29  30
HETATM   30  N12 UNL     1      35.337   3.691  25.337  1.00  0.00    -0.074 N 
ATOM     31 3H12 UNL     1      35.326   3.347  26.297  1.00  0.00     0.274 HD
ATOM     32 2H12 UNL     1      34.565   4.355  25.404  1.00  0.00     0.274 HD
ATOM     33 1H12 UNL     1      35.143   2.949  24.665  1.00  0.00     0.274 HD
ENDBRANCH  29  30
ENDBRANCH  22  29
ENDBRANCH  11  19
ENDBRANCH  10  11
ENDBRANCH   9  10
ENDBRANCH   4   9
BRANCH   1  34
HETATM   34  N7  UNL     1      40.258  -3.908  22.278  1.00  0.00    -0.326 N 
ATOM     35  H7  UNL     1      40.913  -4.527  21.800  1.00  0.00     0.169 HD
BRANCH  34  36
HETATM   36  C6  UNL     1      38.852  -4.156  22.163  1.00  0.00     0.128 C 
HETATM   37  C3  UNL     1      38.420  -5.379  21.466  1.00  0.00     0.255 C 
HETATM   38  N2  UNL     1      37.437  -6.082  22.249  1.00  0.00    -0.337 N 
HETATM   39  C4  UNL     1      36.382  -5.607  22.798  1.00  0.00     0.192 C 
ATOM     40  H2  UNL     1      37.601  -7.080  22.383  1.00  0.00     0.164 HD
HETATM   41  N3  UNL     1      35.600  -6.567  23.513  1.00  0.00    -0.063 NA
HETATM   42  N4  UNL     1      35.886  -4.247  22.800  1.00  0.00    -0.305 N 
HETATM   43  C5  UNL     1      36.700  -3.211  22.753  1.00  0.00     0.196 C 
ATOM     44  H4  UNL     1      34.880  -4.086  22.839  1.00  0.00     0.171 HD
HETATM   45  N5  UNL     1      36.123  -1.912  22.759  1.00  0.00    -0.063 NA
HETATM   46  N6  UNL     1      38.125  -3.249  22.701  1.00  0.00    -0.317 N 
ATOM     47  H6  UNL     1      38.618  -2.471  23.140  1.00  0.00     0.170 HD
BRANCH  37  48
HETATM   48  N1  UNL     1      39.537  -6.235  21.116  1.00  0.00    -0.334 N 
HETATM   49  C2  UNL     1      39.329  -7.468  20.454  1.00  0.00     0.215 C 
HETATM   50  C1  UNL     1      40.451  -8.345  20.095  1.00  0.00     0.117 C 
HETATM   51  O1  UNL     1      38.157  -7.819  20.167  1.00  0.00    -0.274 OA
ATOM     52  H1  UNL     1      40.486  -5.944  21.351  1.00  0.00     0.165 HD
ENDBRANCH  37  48
ENDBRANCH  34  36
ENDBRANCH   1  34
TORSDOF 14
ENDMDL
MODEL 4
REMARK VINA RESULT: -6.407474942      4.768      7.714
REMARK  14 active torsions:
REMARK  status: ('A' for Active; 'I' for Inactive)
REMARK       I    between atoms: C2_2  and  N1_4 
REMARK    1  A    between atoms: N1_4  and  C3_6 
REMARK    2  A    between atoms: C6_17  and  N7_18 
REMARK    3  A    between atoms: N7_18  and  C7_20 
REMARK    4  A    between atoms: C8_23  and  S1_24 
REMARK    5  A    between atoms: S1_24  and  C9_25 
REMARK    6  A    between atoms: C9_25  and  N9_26 
REMARK    7  A    between atoms: N9_26  and  C10_27 
REMARK    8  A    between atoms: N9_26  and  C11_34 
REMARK    9  A    between atoms: C10_27  and  N10_28 
REMARK   10  A    between atoms: C10_27  and  O2_32 
REMARK   11  A    between atoms: C13_36  and  N11_37 
REMARK   12  A    between atoms: N11_37  and  O3_39 
REMARK   13  A    between atoms: C14_41  and  C15_42 
REMARK   14  A    between atoms: C15_42  and  N12_43 
ROOT
HETATM    1  C7  UNL     1      40.912   0.796  21.944  1.00  0.00     0.150 A 
HETATM    2  N8  UNL     1      41.005  -0.259  21.129  1.00  0.00    -0.320 N 
ATOM      3  H8  UNL     1      40.503  -1.136  21.268  1.00  0.00     0.169 HD
HETATM    4  C8  UNL     1      41.853  -0.016  20.089  1.00  0.00     0.152 A 
HETATM    5  N14 UNL     1      42.285   1.240  20.294  1.00  0.00    -0.322 N 
ATOM      6  H14 UNL     1      42.940   1.732  19.687  1.00  0.00     0.169 HD
HETATM    7  C16 UNL     1      41.736   1.758  21.404  1.00  0.00     0.162 A 
HETATM    8  N15 UNL     1      41.981   3.075  21.913  1.00  0.00    -0.079 NA
ENDROOT
BRANCH   4   9
HETATM    9  S1  UNL     1      42.236  -1.147  18.773  1.00  0.00    -0.049 SA
BRANCH   9  10
HETATM   10  C9  UNL     1      41.963  -0.468  17.139  1.00  0.00     0.145 C 
BRANCH  10  11
HETATM   11  N9  UNL     1      40.670  -0.330  16.680  1.00  0.00    -0.315 N 
BRANCH  11  12
HETATM   12  C10 UNL     1      39.671  -1.259  16.566  1.00  0.00     0.427 C 
BRANCH  12  13
HETATM   13  N10 UNL     1      40.035  -2.620  16.195  1.00  0.00    -0.035 N 
ATOM     14 3H10 UNL     1      40.201  -2.657  15.190  1.00  0.00     0.279 HD
ATOM     15 2H10 UNL     1      40.968  -2.824  16.555  1.00  0.00     0.279 HD
ATOM     16 1H10 UNL     1      39.404  -3.377  16.456  1.00  0.00     0.279 HD
ENDBRANCH  12  13
BRANCH  12  17
HETATM   17  O2  UNL     1      38.583  -0.784  15.811  1.00  0.00    -0.354 OA
ATOM     18  H2  UNL     1      37.871  -1.412  15.770  1.00  0.00     0.213 HD
ENDBRANCH  12  17
ENDBRANCH  11  12
BRANCH  11  19
HETATM   19  C11 UNL     1      40.175   1.022  16.553  1.00  0.00     0.190 C 
HETATM   20  C12 UNL     1      41.361   1.952  16.440  1.00  0.00     0.080 C 
HETATM   21  C13 UNL     1      40.912   3.157  17.242  1.00  0.00     0.156 C 
HETATM   22  C14 UNL     1      39.809   2.637  18.083  1.00  0.00     0.034 C 
HETATM   23  N13 UNL     1      39.454   1.491  17.669  1.00  0.00    -0.372 N 
ATOM     24  H13 UNL     1      38.706   0.953  18.108  1.00  0.00     0.161 HD
BRANCH  21  25
HETATM   25  N11 UNL     1      41.962   3.644  18.059  1.00  0.00    -0.295 N 
ATOM     26  H11 UNL     1      41.842   4.514  18.578  1.00  0.00     0.188 HD
BRANCH  25  27
HETATM   27  O3  UNL     1      43.000   3.028  18.141  1.00  0.00    -0.294 OA
ATOM     28  H3  UNL     1      43.004   2.148  18.498  1.00  0.00     0.244 HD
ENDBRANCH  25  27
ENDBRANCH  21  25
BRANCH  22  29
HETATM   29  C15 UNL     1      39.249   3.421  19.242  1.00  0.00     0.283 C 
BRANCH  29  30
HETATM   30  N12 UNL     1      37.899   2.973  19.554  1.00  0.00    -0.074 N 
ATOM     31 3H12 UNL     1      37.857   1.963  19.693  1.00  0.00     0.274 HD
ATOM     32 2H12 UNL     1      37.608   3.266  20.487  1.00  0.00     0.274 HD
ATOM     33 1H12 UNL     1      37.246   3.286  18.836  1.00  0.00     0.274 HD
ENDBRANCH  29  30
ENDBRANCH  22  29
ENDBRANCH  11  19
ENDBRANCH  10  11
ENDBRANCH   9  10
ENDBRANCH   4   9
BRANCH   1  34
HETATM   34  N7  UNL     1      40.119   0.892  23.125  1.00  0.00    -0.326 N 
ATOM     35  H7  UNL     1      40.505   0.561  24.010  1.00  0.00     0.169 HD
BRANCH  34  36
HETATM   36  C6  UNL     1      38.796   1.440  23.102  1.00  0.00     0.128 C 
HETATM   37  C3  UNL     1      37.659   0.507  23.165  1.00  0.00     0.255 C 
HETATM   38  N2  UNL     1      36.712   0.937  24.161  1.00  0.00    -0.337 N 
HETATM   39  C4  UNL     1      36.208   2.104  24.316  1.00  0.00     0.192 C 
ATOM     40  H2  UNL     1      36.404   0.225  24.824  1.00  0.00     0.164 HD
HETATM   41  N3  UNL     1      35.287   2.214  25.404  1.00  0.00    -0.063 NA
HETATM   42  N4  UNL     1      36.451   3.312  23.556  1.00  0.00    -0.305 N 
HETATM   43  C5  UNL     1      37.616   3.553  22.988  1.00  0.00     0.196 C 
ATOM     44  H4  UNL     1      35.700   3.995  23.457  1.00  0.00     0.171 HD
HETATM   45  N5  UNL     1      37.761   4.766  22.261  1.00  0.00    -0.063 NA
HETATM   46  N6  UNL     1      38.772   2.719  23.028  1.00  0.00    -0.317 N 
ATOM     47  H6  UNL     1      39.676   3.191  22.994  1.00  0.00     0.170 HD
BRANCH  37  48
HETATM   48  N1  UNL     1      38.084  -0.862  23.387  1.00  0.00    -0.334 N 
HETATM   49  C2  UNL     1      37.215  -1.946  23.116  1.00  0.00     0.215 C 
HETATM   50  C1  UNL     1      37.633  -3.337  23.337  1.00  0.00     0.117 C 
HETATM   51  O1  UNL     1      36.062  -1.712  22.678  1.00  0.00    -0.274 OA
ATOM     52  H1  UNL     1      39.022  -1.046  23.742  1.00  0.00     0.165 HD
ENDBRANCH  37  48
ENDBRANCH  34  36
ENDBRANCH   1  34
TORSDOF 14
ENDMDL
MODEL 5
REMARK VINA RESULT: -6.403559476      3.343      7.211
REMARK  14 active torsions:
REMARK  status: ('A' for Active; 'I' for Inactive)
REMARK       I    between atoms: C2_2  and  N1_4 
REMARK    1  A    between atoms: N1_4  and  C3_6 
REMARK    2  A    between atoms: C6_17  and  N7_18 
REMARK    3  A    between atoms: N7_18  and  C7_20 
REMARK    4  A    between atoms: C8_23  and  S1_24 
REMARK    5  A    between atoms: S1_24  and  C9_25 
REMARK    6  A    between atoms: C9_25  and  N9_26 
REMARK    7  A    between atoms: N9_26  and  C10_27 
REMARK    8  A    between atoms: N9_26  and  C11_34 
REMARK    9  A    between atoms: C10_27  and  N10_28 
REMARK   10  A    between atoms: C10_27  and  O2_32 
REMARK   11  A    between atoms: C13_36  and  N11_37 
REMARK   12  A    between atoms: N11_37  and  O3_39 
REMARK   13  A    between atoms: C14_41  and  C15_42 
REMARK   14  A    between atoms: C15_42  and  N12_43 
ROOT
HETATM    1  C7  UNL     1      40.816  -2.135  19.804  1.00  0.00     0.150 A 
HETATM    2  N8  UNL     1      41.035  -0.855  20.119  1.00  0.00    -0.320 N 
ATOM      3  H8  UNL     1      41.367  -0.538  21.029  1.00  0.00     0.169 HD
HETATM    4  C8  UNL     1      40.758  -0.026  19.071  1.00  0.00     0.152 A 
HETATM    5  N14 UNL     1      40.356  -0.849  18.088  1.00  0.00    -0.322 N 
ATOM      6  H14 UNL     1      40.071  -0.544  17.158  1.00  0.00     0.169 HD
HETATM    7  C16 UNL     1      40.379  -2.127  18.497  1.00  0.00     0.162 A 
HETATM    8  N15 UNL     1      40.011  -3.260  17.700  1.00  0.00    -0.079 NA
ENDROOT
BRANCH   4   9
HETATM    9  S1  UNL     1      40.937   1.741  19.068  1.00  0.00    -0.049 SA
BRANCH   9  10
HETATM   10  C9  UNL     1      40.740   2.488  20.683  1.00  0.00     0.145 C 
BRANCH  10  11
HETATM   11  N9  UNL     1      39.537   2.350  21.342  1.00  0.00    -0.315 N 
BRANCH  11  12
HETATM   12  C10 UNL     1      38.261   2.583  20.904  1.00  0.00     0.427 C 
BRANCH  12  13
HETATM   13  N10 UNL     1      38.029   2.667  19.468  1.00  0.00    -0.035 N 
ATOM     14 3H10 UNL     1      37.054   2.441  19.274  1.00  0.00     0.279 HD
ATOM     15 2H10 UNL     1      38.063   3.646  19.182  1.00  0.00     0.279 HD
ATOM     16 1H10 UNL     1      38.627   2.118  18.850  1.00  0.00     0.279 HD
ENDBRANCH  12  13
BRANCH  12  17
HETATM   17  O2  UNL     1      37.643   3.642  21.596  1.00  0.00    -0.354 OA
ATOM     18  H2  UNL     1      36.827   3.911  21.190  1.00  0.00     0.213 HD
ENDBRANCH  12  17
ENDBRANCH  11  12
BRANCH  11  19
HETATM   19  C11 UNL     1      39.561   1.594  22.573  1.00  0.00     0.190 C 
HETATM   20  C12 UNL     1      38.827   0.293  22.345  1.00  0.00     0.080 C 
HETATM   21  C13 UNL     1      38.095   0.094  23.658  1.00  0.00     0.156 C 
HETATM   22  C14 UNL     1      38.084   1.442  24.270  1.00  0.00     0.034 C 
HETATM   23  N13 UNL     1      38.887   2.205  23.650  1.00  0.00    -0.372 N 
ATOM     24  H13 UNL     1      39.034   3.180  23.910  1.00  0.00     0.161 HD
BRANCH  21  25
HETATM   25  N11 UNL     1      36.770  -0.354  23.438  1.00  0.00    -0.295 N 
ATOM     26  H11 UNL     1      36.039  -0.137  24.116  1.00  0.00     0.188 HD
BRANCH  25  27
HETATM   27  O3  UNL     1      36.504  -0.994  22.445  1.00  0.00    -0.294 OA
ATOM     28  H3  UNL     1      35.876  -0.657  21.817  1.00  0.00     0.244 HD
ENDBRANCH  25  27
ENDBRANCH  21  25
BRANCH  22  29
HETATM   29  C15 UNL     1      37.217   1.774  25.457  1.00  0.00     0.283 C 
BRANCH  29  30
HETATM   30  N12 UNL     1      37.271   3.201  25.743  1.00  0.00    -0.074 N 
ATOM     31 3H12 UNL     1      37.816   3.400  26.583  1.00  0.00     0.274 HD
ATOM     32 2H12 UNL     1      37.847   3.702  25.066  1.00  0.00     0.274 HD
ATOM     33 1H12 UNL     1      36.329   3.588  25.801  1.00  0.00     0.274 HD
ENDBRANCH  29  30
ENDBRANCH  22  29
ENDBRANCH  11  19
ENDBRANCH  10  11
ENDBRANCH   9  10
ENDBRANCH   4   9
BRANCH   1  34
HETATM   34  N7  UNL     1      41.000  -3.264  20.654  1.00  0.00    -0.326 N 
ATOM     35  H7  UNL     1      41.949  -3.568  20.876  1.00  0.00     0.169 HD
BRANCH  34  36
HETATM   36  C6  UNL     1      39.890  -3.983  21.204  1.00  0.00     0.128 C 
HETATM   37  C3  UNL     1      39.738  -4.005  22.668  1.00  0.00     0.255 C 
HETATM   38  N2  UNL     1      38.385  -3.674  23.037  1.00  0.00    -0.337 N 
HETATM   39  C4  UNL     1      37.300  -4.168  22.570  1.00  0.00     0.192 C 
ATOM     40  H2  UNL     1      38.278  -2.960  23.758  1.00  0.00     0.164 HD
HETATM   41  N3  UNL     1      36.106  -3.631  23.145  1.00  0.00    -0.063 NA
HETATM   42  N4  UNL     1      37.121  -5.175  21.546  1.00  0.00    -0.305 N 
HETATM   43  C5  UNL     1      37.973  -5.312  20.549  1.00  0.00     0.196 C 
ATOM     44  H4  UNL     1      36.313  -5.795  21.596  1.00  0.00     0.171 HD
HETATM   45  N5  UNL     1      37.716  -6.329  19.590  1.00  0.00    -0.063 NA
HETATM   46  N6  UNL     1      39.146  -4.534  20.319  1.00  0.00    -0.317 N 
ATOM     47  H6  UNL     1      39.422  -4.402  19.345  1.00  0.00     0.170 HD
BRANCH  37  48
HETATM   48  N1  UNL     1      40.698  -3.145  23.333  1.00  0.00    -0.334 N 
HETATM   49  C2  UNL     1      40.717  -3.030  24.744  1.00  0.00     0.215 C 
HETATM   50  C1  UNL     1      41.684  -2.162  25.429  1.00  0.00     0.117 C 
HETATM   51  O1  UNL     1      39.888  -3.686  25.423  1.00  0.00    -0.274 OA
ATOM     52  H1  UNL     1      41.369  -2.616  22.776  1.00  0.00     0.165 HD
ENDBRANCH  37  48
ENDBRANCH  34  36
ENDBRANCH   1  34
TORSDOF 14
ENDMDL
