MODEL 1
REMARK VINA RESULT: -8.006234775      0.000      0.000
REMARK  14 active torsions:
REMARK  status: ('A' for Active; 'I' for Inactive)
REMARK    1  A    between atoms: C2_2  and  C3_3 
REMARK    2  A    between atoms: C4_4  and  C5_5 
REMARK    3  A    between atoms: C5_5  and  C6_6 
REMARK    4  A    between atoms: C6_6  and  N1_7 
REMARK    5  A    between atoms: C6_6  and  C21_29 
REMARK    6  A    between atoms: N1_7  and  C7_9 
REMARK    7  A    between atoms: C7_9  and  C8_10 
REMARK    8  A    between atoms: C7_9  and  C15_17 
REMARK    9  A    between atoms: C8_10  and  C9_11 
REMARK   10  A    between atoms: C15_17  and  O1_18 
REMARK   11  A    between atoms: C15_17  and  C16_20 
REMARK       I    between atoms: C16_20  and  N2_22 
REMARK   12  A    between atoms: N2_22  and  C17_23 
REMARK   13  A    between atoms: C29_40  and  C30_41 
REMARK   14  A    between atoms: C30_41  and  N5_42 
ROOT
HETATM    1  C6  UNL     1      12.166  23.877   6.158  1.00  0.00     0.135 C 
ENDROOT
BRANCH   1   2
HETATM    2  C5  UNL     1      11.751  23.655   7.601  1.00  0.00     0.124 C 
BRANCH   2   3
HETATM    3  C4  UNL     1      11.469  24.996   8.181  1.00  0.00    -0.104 C 
HETATM    4  C3  UNL     1      11.205  26.054   8.693  1.00  0.00    -0.107 C 
BRANCH   4   5
HETATM    5  C2  UNL     1      10.875  27.316   9.335  1.00  0.00     0.089 C 
HETATM    6  C1  UNL     1       9.414  27.395   9.744  1.00  0.00     0.018 C 
ENDBRANCH   4   5
ENDBRANCH   2   3
ENDBRANCH   1   2
BRANCH   1   7
HETATM    7  N1  UNL     1      11.016  23.864   5.370  1.00  0.00    -0.401 N 
ATOM      8  H1  UNL     1      10.345  23.096   5.391  1.00  0.00     0.154 HD
BRANCH   7   9
HETATM    9  C7  UNL     1      10.835  25.097   4.466  1.00  0.00     0.141 C 
BRANCH   9  10
HETATM   10  C8  UNL     1      10.157  26.074   5.287  1.00  0.00     0.036 C 
BRANCH  10  11
HETATM   11  C9  UNL     1       8.785  26.043   5.766  1.00  0.00    -0.012 C 
HETATM   12  C10 UNL     1       8.184  25.181   6.737  1.00  0.00     0.005 C 
HETATM   13  C11 UNL     1       7.280  25.884   7.752  1.00  0.00     0.000 C 
HETATM   14  C12 UNL     1       6.272  26.735   7.057  1.00  0.00     0.000 C 
HETATM   15  C13 UNL     1       6.901  27.622   5.976  1.00  0.00     0.000 C 
HETATM   16  C14 UNL     1       8.370  27.542   6.151  1.00  0.00     0.005 C 
ENDBRANCH  10  11
ENDBRANCH   9  10
BRANCH   9  17
HETATM   17  C15 UNL     1      10.275  24.392   3.340  1.00  0.00     0.148 C 
BRANCH  17  18
HETATM   18  O1  UNL     1      11.337  24.075   2.468  1.00  0.00    -0.357 OA
ATOM     19  H1  UNL     1      11.627  24.885   2.065  1.00  0.00     0.217 HD
ENDBRANCH  17  18
BRANCH  17  20
HETATM   20  C16 UNL     1       9.077  23.851   2.731  1.00  0.00     0.344 C 
HETATM   21  O2  UNL     1       8.911  22.634   2.501  1.00  0.00    -0.249 OA
HETATM   22  N2  UNL     1       8.079  24.814   2.392  1.00  0.00    -0.370 NA
BRANCH  22  23
HETATM   23  C17 UNL     1       7.142  25.715   2.074  1.00  0.00     0.437 A 
HETATM   24  C18 UNL     1       5.836  26.016   2.807  1.00  0.00     0.303 A 
HETATM   25  C19 UNL     1       5.370  25.061   3.777  1.00  0.00     0.116 C 
HETATM   26  N3  UNL     1       5.868  25.606   1.479  1.00  0.00     0.145 N 
HETATM   27  S1  UNL     1       4.318  23.946   2.729  1.00  0.00    -0.137 SA
HETATM   28  C20 UNL     1       5.052  24.547   1.153  1.00  0.00     0.351 C 
ENDBRANCH  22  23
ENDBRANCH  17  20
ENDBRANCH   9  17
ENDBRANCH   7   9
ENDBRANCH   1   7
BRANCH   1  29
HETATM   29  C21 UNL     1      13.133  22.770   5.729  1.00  0.00     0.022 C 
HETATM   30  N4  UNL     1      13.211  22.540   4.425  1.00  0.00    -0.331 N 
HETATM   31  C22 UNL     1      14.034  21.543   3.889  1.00  0.00     0.230 C 
ATOM     32  H4  UNL     1      12.652  23.109   3.790  1.00  0.00     0.168 HD
HETATM   33  O3  UNL     1      14.415  21.533   2.684  1.00  0.00    -0.272 OA
HETATM   34  C23 UNL     1      14.509  20.444   4.710  1.00  0.00     0.042 C 
HETATM   35  C24 UNL     1      13.885  19.143   4.221  1.00  0.00     0.019 C 
HETATM   36  C27 UNL     1      15.987  20.280   4.416  1.00  0.00     0.019 C 
HETATM   37  C28 UNL     1      14.216  20.574   6.164  1.00  0.00     0.035 C 
HETATM   38  C25 UNL     1      14.998  18.247   3.782  1.00  0.00     0.001 C 
HETATM   39  C26 UNL     1      16.070  19.204   3.332  1.00  0.00     0.001 C 
HETATM   40  C29 UNL     1      13.852  21.945   6.629  1.00  0.00     0.073 C 
BRANCH  40  41
HETATM   41  C30 UNL     1      15.097  22.547   7.290  1.00  0.00     0.067 C 
BRANCH  41  42
HETATM   42  N5  UNL     1      15.551  21.989   8.465  1.00  0.00    -0.401 N 
HETATM   43  C31 UNL     1      14.788  21.217   9.325  1.00  0.00     0.148 C 
HETATM   44  C32 UNL     1      16.900  21.451   8.350  1.00  0.00     0.148 C 
ENDBRANCH  41  42
ENDBRANCH  40  41
ENDBRANCH   1  29
TORSDOF 14
ENDMDL
MODEL 2
REMARK VINA RESULT: -7.821621277      2.781      8.225
REMARK  14 active torsions:
REMARK  status: ('A' for Active; 'I' for Inactive)
REMARK    1  A    between atoms: C2_2  and  C3_3 
REMARK    2  A    between atoms: C4_4  and  C5_5 
REMARK    3  A    between atoms: C5_5  and  C6_6 
REMARK    4  A    between atoms: C6_6  and  N1_7 
REMARK    5  A    between atoms: C6_6  and  C21_29 
REMARK    6  A    between atoms: N1_7  and  C7_9 
REMARK    7  A    between atoms: C7_9  and  C8_10 
REMARK    8  A    between atoms: C7_9  and  C15_17 
REMARK    9  A    between atoms: C8_10  and  C9_11 
REMARK   10  A    between atoms: C15_17  and  O1_18 
REMARK   11  A    between atoms: C15_17  and  C16_20 
REMARK       I    between atoms: C16_20  and  N2_22 
REMARK   12  A    between atoms: N2_22  and  C17_23 
REMARK   13  A    between atoms: C29_40  and  C30_41 
REMARK   14  A    between atoms: C30_41  and  N5_42 
ROOT
HETATM    1  C6  UNL     1      11.427  23.967   6.046  1.00  0.00     0.135 C 
ENDROOT
BRANCH   1   2
HETATM    2  C5  UNL     1      12.229  25.215   6.365  1.00  0.00     0.124 C 
BRANCH   2   3
HETATM    3  C4  UNL     1      11.690  25.763   7.639  1.00  0.00    -0.104 C 
HETATM    4  C3  UNL     1      11.276  26.261   8.655  1.00  0.00    -0.107 C 
BRANCH   4   5
HETATM    5  C2  UNL     1      10.782  26.891   9.868  1.00  0.00     0.089 C 
HETATM    6  C1  UNL     1       9.377  27.446   9.704  1.00  0.00     0.018 C 
ENDBRANCH   4   5
ENDBRANCH   2   3
ENDBRANCH   1   2
BRANCH   1   7
HETATM    7  N1  UNL     1      12.253  23.090   5.344  1.00  0.00    -0.401 N 
ATOM      8  H1  UNL     1      12.628  23.309   4.421  1.00  0.00     0.154 HD
BRANCH   7   9
HETATM    9  C7  UNL     1      12.555  21.765   6.068  1.00  0.00     0.141 C 
BRANCH   9  10
HETATM   10  C8  UNL     1      12.932  22.144   7.411  1.00  0.00     0.036 C 
BRANCH  10  11
HETATM   11  C9  UNL     1      14.206  21.930   8.077  1.00  0.00    -0.012 C 
HETATM   12  C10 UNL     1      14.792  20.708   8.539  1.00  0.00     0.005 C 
HETATM   13  C11 UNL     1      16.276  20.539   8.205  1.00  0.00     0.000 C 
HETATM   14  C12 UNL     1      17.052  21.735   8.642  1.00  0.00     0.000 C 
HETATM   15  C13 UNL     1      16.401  23.050   8.198  1.00  0.00     0.000 C 
HETATM   16  C14 UNL     1      15.330  22.699   7.235  1.00  0.00     0.005 C 
ENDBRANCH  10  11
ENDBRANCH   9  10
BRANCH   9  17
HETATM   17  C15 UNL     1      13.430  21.225   5.057  1.00  0.00     0.148 C 
BRANCH  17  18
HETATM   18  O1  UNL     1      13.507  19.831   5.265  1.00  0.00    -0.357 OA
ATOM     19  H1  UNL     1      14.215  19.501   4.723  1.00  0.00     0.217 HD
ENDBRANCH  17  18
BRANCH  17  20
HETATM   20  C16 UNL     1      14.253  21.506   3.898  1.00  0.00     0.344 C 
HETATM   21  O2  UNL     1      14.788  22.616   3.687  1.00  0.00    -0.249 OA
HETATM   22  N2  UNL     1      14.412  20.420   2.987  1.00  0.00    -0.370 NA
BRANCH  22  23
HETATM   23  C17 UNL     1      14.562  19.401   2.131  1.00  0.00     0.437 A 
HETATM   24  C18 UNL     1      14.694  17.913   2.451  1.00  0.00     0.303 A 
HETATM   25  C19 UNL     1      14.991  17.536   3.807  1.00  0.00     0.116 C 
HETATM   26  N3  UNL     1      15.672  18.616   1.758  1.00  0.00     0.145 N 
HETATM   27  S1  UNL     1      16.848  17.516   3.790  1.00  0.00    -0.137 SA
HETATM   28  C20 UNL     1      16.958  18.491   2.234  1.00  0.00     0.351 C 
ENDBRANCH  22  23
ENDBRANCH  17  20
ENDBRANCH   9  17
ENDBRANCH   7   9
ENDBRANCH   1   7
BRANCH   1  29
HETATM   29  C21 UNL     1      10.202  24.348   5.211  1.00  0.00     0.022 C 
HETATM   30  N4  UNL     1       9.930  23.555   4.183  1.00  0.00    -0.331 N 
HETATM   31  C22 UNL     1       8.856  23.793   3.318  1.00  0.00     0.230 C 
ATOM     32  H4  UNL     1      10.524  22.743   4.017  1.00  0.00     0.168 HD
HETATM   33  O3  UNL     1       8.348  22.899   2.581  1.00  0.00    -0.272 OA
HETATM   34  C23 UNL     1       8.249  25.108   3.223  1.00  0.00     0.042 C 
HETATM   35  C24 UNL     1       8.517  25.689   1.840  1.00  0.00     0.019 C 
HETATM   36  C27 UNL     1       6.747  24.905   3.255  1.00  0.00     0.019 C 
HETATM   37  C28 UNL     1       8.725  26.093   4.234  1.00  0.00     0.035 C 
HETATM   38  C25 UNL     1       7.195  25.908   1.179  1.00  0.00     0.001 C 
HETATM   39  C26 UNL     1       6.312  24.850   1.789  1.00  0.00     0.001 C 
HETATM   40  C29 UNL     1       9.426  25.516   5.418  1.00  0.00     0.073 C 
BRANCH  40  41
HETATM   41  C30 UNL     1       8.423  25.496   6.577  1.00  0.00     0.067 C 
BRANCH  41  42
HETATM   42  N5  UNL     1       7.465  26.484   6.631  1.00  0.00    -0.401 N 
HETATM   43  C31 UNL     1       6.261  26.388   7.307  1.00  0.00     0.148 C 
HETATM   44  C32 UNL     1       8.036  27.816   6.784  1.00  0.00     0.148 C 
ENDBRANCH  41  42
ENDBRANCH  40  41
ENDBRANCH   1  29
TORSDOF 14
ENDMDL
MODEL 3
REMARK VINA RESULT: -7.796849863      3.213      8.897
REMARK  14 active torsions:
REMARK  status: ('A' for Active; 'I' for Inactive)
REMARK    1  A    between atoms: C2_2  and  C3_3 
REMARK    2  A    between atoms: C4_4  and  C5_5 
REMARK    3  A    between atoms: C5_5  and  C6_6 
REMARK    4  A    between atoms: C6_6  and  N1_7 
REMARK    5  A    between atoms: C6_6  and  C21_29 
REMARK    6  A    between atoms: N1_7  and  C7_9 
REMARK    7  A    between atoms: C7_9  and  C8_10 
REMARK    8  A    between atoms: C7_9  and  C15_17 
REMARK    9  A    between atoms: C8_10  and  C9_11 
REMARK   10  A    between atoms: C15_17  and  O1_18 
REMARK   11  A    between atoms: C15_17  and  C16_20 
REMARK       I    between atoms: C16_20  and  N2_22 
REMARK   12  A    between atoms: N2_22  and  C17_23 
REMARK   13  A    between atoms: C29_40  and  C30_41 
REMARK   14  A    between atoms: C30_41  and  N5_42 
ROOT
HETATM    1  C6  UNL     1       5.091  25.859   4.042  1.00  0.00     0.135 C 
ENDROOT
BRANCH   1   2
HETATM    2  C5  UNL     1       3.709  25.385   4.452  1.00  0.00     0.124 C 
BRANCH   2   3
HETATM    3  C4  UNL     1       3.711  23.901   4.345  1.00  0.00    -0.104 C 
HETATM    4  C3  UNL     1       3.720  22.696   4.320  1.00  0.00    -0.107 C 
BRANCH   4   5
HETATM    5  C2  UNL     1       3.725  21.243   4.321  1.00  0.00     0.089 C 
HETATM    6  C1  UNL     1       2.742  20.658   3.321  1.00  0.00     0.018 C 
ENDBRANCH   4   5
ENDBRANCH   2   3
ENDBRANCH   1   2
BRANCH   1   7
HETATM    7  N1  UNL     1       5.748  24.795   3.426  1.00  0.00    -0.401 N 
ATOM      8  H1  UNL     1       5.800  23.866   3.844  1.00  0.00     0.154 HD
BRANCH   7   9
HETATM    9  C7  UNL     1       6.388  25.129   2.066  1.00  0.00     0.141 C 
BRANCH   9  10
HETATM   10  C8  UNL     1       5.568  24.455   1.085  1.00  0.00     0.036 C 
BRANCH  10  11
HETATM   11  C9  UNL     1       4.178  24.717   0.748  1.00  0.00    -0.012 C 
HETATM   12  C10 UNL     1       3.638  25.521  -0.305  1.00  0.00     0.005 C 
HETATM   13  C11 UNL     1       2.479  24.884  -1.073  1.00  0.00     0.000 C 
HETATM   14  C12 UNL     1       1.423  24.409  -0.133  1.00  0.00     0.000 C 
HETATM   15  C13 UNL     1       2.001  23.592   1.029  1.00  0.00     0.000 C 
HETATM   16  C14 UNL     1       3.417  23.308   0.697  1.00  0.00     0.005 C 
ENDBRANCH  10  11
ENDBRANCH   9  10
BRANCH   9  17
HETATM   17  C15 UNL     1       7.738  24.780   2.433  1.00  0.00     0.148 C 
BRANCH  17  18
HETATM   18  O1  UNL     1       8.486  25.976   2.482  1.00  0.00    -0.357 OA
ATOM     19  H1  UNL     1       9.331  25.800   2.084  1.00  0.00     0.217 HD
ENDBRANCH  17  18
BRANCH  17  20
HETATM   20  C16 UNL     1       8.654  23.717   2.795  1.00  0.00     0.344 C 
HETATM   21  O2  UNL     1       8.910  22.747   2.050  1.00  0.00    -0.249 OA
HETATM   22  N2  UNL     1       9.250  23.841   4.085  1.00  0.00    -0.370 NA
BRANCH  22  23
HETATM   23  C17 UNL     1       9.810  23.956   5.296  1.00  0.00     0.437 A 
HETATM   24  C18 UNL     1      11.132  24.630   5.663  1.00  0.00     0.303 A 
HETATM   25  C19 UNL     1      12.055  24.930   4.601  1.00  0.00     0.116 C 
HETATM   26  N3  UNL     1      10.881  23.288   5.925  1.00  0.00     0.145 N 
HETATM   27  S1  UNL     1      13.069  23.375   4.538  1.00  0.00    -0.137 SA
HETATM   28  C20 UNL     1      11.838  22.398   5.495  1.00  0.00     0.351 C 
ENDBRANCH  22  23
ENDBRANCH  17  20
ENDBRANCH   9  17
ENDBRANCH   7   9
ENDBRANCH   1   7
BRANCH   1  29
HETATM   29  C21 UNL     1       5.857  26.328   5.282  1.00  0.00     0.022 C 
HETATM   30  N4  UNL     1       7.173  26.435   5.146  1.00  0.00    -0.331 N 
HETATM   31  C22 UNL     1       8.005  26.830   6.200  1.00  0.00     0.230 C 
ATOM     32  H4  UNL     1       7.593  26.223   4.241  1.00  0.00     0.168 HD
HETATM   33  O3  UNL     1       9.169  27.292   6.028  1.00  0.00    -0.272 OA
HETATM   34  C23 UNL     1       7.562  26.732   7.578  1.00  0.00     0.042 C 
HETATM   35  C24 UNL     1       8.397  25.684   8.303  1.00  0.00     0.019 C 
HETATM   36  C27 UNL     1       7.933  28.036   8.256  1.00  0.00     0.019 C 
HETATM   37  C28 UNL     1       6.126  26.374   7.753  1.00  0.00     0.035 C 
HETATM   38  C25 UNL     1       9.115  26.373   9.419  1.00  0.00     0.001 C 
HETATM   39  C26 UNL     1       9.291  27.781   8.914  1.00  0.00     0.001 C 
HETATM   40  C29 UNL     1       5.265  26.556   6.548  1.00  0.00     0.073 C 
BRANCH  40  41
HETATM   41  C30 UNL     1       4.491  27.866   6.735  1.00  0.00     0.067 C 
BRANCH  41  42
HETATM   42  N5  UNL     1       3.168  27.798   7.116  1.00  0.00    -0.401 N 
HETATM   43  C31 UNL     1       2.566  26.699   7.703  1.00  0.00     0.148 C 
HETATM   44  C32 UNL     1       2.691  29.033   7.724  1.00  0.00     0.148 C 
ENDBRANCH  41  42
ENDBRANCH  40  41
ENDBRANCH   1  29
TORSDOF 14
ENDMDL
MODEL 4
REMARK VINA RESULT: -7.727635151      3.065      9.466
REMARK  14 active torsions:
REMARK  status: ('A' for Active; 'I' for Inactive)
REMARK    1  A    between atoms: C2_2  and  C3_3 
REMARK    2  A    between atoms: C4_4  and  C5_5 
REMARK    3  A    between atoms: C5_5  and  C6_6 
REMARK    4  A    between atoms: C6_6  and  N1_7 
REMARK    5  A    between atoms: C6_6  and  C21_29 
REMARK    6  A    between atoms: N1_7  and  C7_9 
REMARK    7  A    between atoms: C7_9  and  C8_10 
REMARK    8  A    between atoms: C7_9  and  C15_17 
REMARK    9  A    between atoms: C8_10  and  C9_11 
REMARK   10  A    between atoms: C15_17  and  O1_18 
REMARK   11  A    between atoms: C15_17  and  C16_20 
REMARK       I    between atoms: C16_20  and  N2_22 
REMARK   12  A    between atoms: N2_22  and  C17_23 
REMARK   13  A    between atoms: C29_40  and  C30_41 
REMARK   14  A    between atoms: C30_41  and  N5_42 
ROOT
HETATM    1  C6  UNL     1       7.190  26.633   4.653  1.00  0.00     0.135 C 
ENDROOT
BRANCH   1   2
HETATM    2  C5  UNL     1       7.328  27.219   3.260  1.00  0.00     0.124 C 
BRANCH   2   3
HETATM    3  C4  UNL     1       6.698  26.253   2.320  1.00  0.00    -0.104 C 
HETATM    4  C3  UNL     1       6.137  25.472   1.594  1.00  0.00    -0.107 C 
BRANCH   4   5
HETATM    5  C2  UNL     1       5.434  24.538   0.731  1.00  0.00     0.089 C 
HETATM    6  C1  UNL     1       3.976  24.916   0.531  1.00  0.00     0.018 C 
ENDBRANCH   4   5
ENDBRANCH   2   3
ENDBRANCH   1   2
BRANCH   1   7
HETATM    7  N1  UNL     1       7.435  25.263   4.571  1.00  0.00    -0.401 N 
ATOM      8  H1  UNL     1       6.783  24.614   4.129  1.00  0.00     0.154 HD
BRANCH   7   9
HETATM    9  C7  UNL     1       8.763  24.802   5.199  1.00  0.00     0.141 C 
BRANCH   9  10
HETATM   10  C8  UNL     1       9.276  25.960   5.895  1.00  0.00     0.036 C 
BRANCH  10  11
HETATM   11  C9  UNL     1       9.301  26.204   7.328  1.00  0.00    -0.012 C 
HETATM   12  C10 UNL     1      10.365  25.997   8.263  1.00  0.00     0.005 C 
HETATM   13  C11 UNL     1      10.586  27.142   9.253  1.00  0.00     0.000 C 
HETATM   14  C12 UNL     1       9.308  27.507   9.929  1.00  0.00     0.000 C 
HETATM   15  C13 UNL     1       8.150  27.677   8.938  1.00  0.00     0.000 C 
HETATM   16  C14 UNL     1       8.741  27.684   7.579  1.00  0.00     0.005 C 
ENDBRANCH  10  11
ENDBRANCH   9  10
BRANCH   9  17
HETATM   17  C15 UNL     1       9.313  24.214   4.002  1.00  0.00     0.148 C 
BRANCH  17  18
HETATM   18  O1  UNL     1       8.316  23.390   3.439  1.00  0.00    -0.357 OA
ATOM     19  H1  UNL     1       8.558  23.226   2.535  1.00  0.00     0.217 HD
ENDBRANCH  17  18
BRANCH  17  20
HETATM   20  C16 UNL     1      10.456  24.127   3.117  1.00  0.00     0.344 C 
HETATM   21  O2  UNL     1      10.443  24.527   1.933  1.00  0.00    -0.249 OA
HETATM   22  N2  UNL     1      11.622  23.534   3.687  1.00  0.00    -0.370 NA
BRANCH  22  23
HETATM   23  C17 UNL     1      12.717  22.977   4.220  1.00  0.00     0.437 A 
HETATM   24  C18 UNL     1      12.796  21.834   5.231  1.00  0.00     0.303 A 
HETATM   25  C19 UNL     1      11.598  21.476   5.943  1.00  0.00     0.116 C 
HETATM   26  N3  UNL     1      13.333  23.091   5.484  1.00  0.00     0.145 N 
HETATM   27  S1  UNL     1      11.712  22.571   7.439  1.00  0.00    -0.137 SA
HETATM   28  C20 UNL     1      12.971  23.675   6.676  1.00  0.00     0.351 C 
ENDBRANCH  22  23
ENDBRANCH  17  20
ENDBRANCH   9  17
ENDBRANCH   7   9
ENDBRANCH   1   7
BRANCH   1  29
HETATM   29  C21 UNL     1       5.780  26.904   5.184  1.00  0.00     0.022 C 
HETATM   30  N4  UNL     1       5.511  28.165   5.500  1.00  0.00    -0.331 N 
HETATM   31  C22 UNL     1       4.272  28.558   6.019  1.00  0.00     0.230 C 
ATOM     32  H4  UNL     1       6.232  28.872   5.359  1.00  0.00     0.168 HD
HETATM   33  O3  UNL     1       3.853  29.749   5.984  1.00  0.00    -0.272 OA
HETATM   34  C23 UNL     1       3.380  27.593   6.635  1.00  0.00     0.042 C 
HETATM   35  C24 UNL     1       3.256  27.898   8.122  1.00  0.00     0.019 C 
HETATM   36  C27 UNL     1       1.993  27.859   6.084  1.00  0.00     0.019 C 
HETATM   37  C28 UNL     1       3.798  26.170   6.493  1.00  0.00     0.035 C 
HETATM   38  C25 UNL     1       1.820  28.208   8.400  1.00  0.00     0.001 C 
HETATM   39  C26 UNL     1       1.322  28.786   7.101  1.00  0.00     0.001 C 
HETATM   40  C29 UNL     1       4.814  25.899   5.434  1.00  0.00     0.073 C 
BRANCH  40  41
HETATM   41  C30 UNL     1       4.069  25.326   4.223  1.00  0.00     0.067 C 
BRANCH  41  42
HETATM   42  N5  UNL     1       3.422  24.118   4.363  1.00  0.00    -0.401 N 
HETATM   43  C31 UNL     1       2.074  23.906   4.130  1.00  0.00     0.148 C 
HETATM   44  C32 UNL     1       4.211  22.995   3.875  1.00  0.00     0.148 C 
ENDBRANCH  41  42
ENDBRANCH  40  41
ENDBRANCH   1  29
TORSDOF 14
ENDMDL
MODEL 5
REMARK VINA RESULT: -7.714062401      5.605     10.281
REMARK  14 active torsions:
REMARK  status: ('A' for Active; 'I' for Inactive)
REMARK    1  A    between atoms: C2_2  and  C3_3 
REMARK    2  A    between atoms: C4_4  and  C5_5 
REMARK    3  A    between atoms: C5_5  and  C6_6 
REMARK    4  A    between atoms: C6_6  and  N1_7 
REMARK    5  A    between atoms: C6_6  and  C21_29 
REMARK    6  A    between atoms: N1_7  and  C7_9 
REMARK    7  A    between atoms: C7_9  and  C8_10 
REMARK    8  A    between atoms: C7_9  and  C15_17 
REMARK    9  A    between atoms: C8_10  and  C9_11 
REMARK   10  A    between atoms: C15_17  and  O1_18 
REMARK   11  A    between atoms: C15_17  and  C16_20 
REMARK       I    between atoms: C16_20  and  N2_22 
REMARK   12  A    between atoms: N2_22  and  C17_23 
REMARK   13  A    between atoms: C29_40  and  C30_41 
REMARK   14  A    between atoms: C30_41  and  N5_42 
ROOT
HETATM    1  C6  UNL     1      18.122  17.157   8.720  1.00  0.00     0.135 C 
ENDROOT
BRANCH   1   2
HETATM    2  C5  UNL     1      17.798  15.764   9.228  1.00  0.00     0.124 C 
BRANCH   2   3
HETATM    3  C4  UNL     1      16.599  15.889  10.099  1.00  0.00    -0.104 C 
HETATM    4  C3  UNL     1      15.648  15.942  10.838  1.00  0.00    -0.107 C 
BRANCH   4   5
HETATM    5  C2  UNL     1      14.518  15.989  11.750  1.00  0.00     0.089 C 
HETATM    6  C1  UNL     1      14.824  15.339  13.089  1.00  0.00     0.018 C 
ENDBRANCH   4   5
ENDBRANCH   2   3
ENDBRANCH   1   2
BRANCH   1   7
HETATM    7  N1  UNL     1      17.192  18.042   9.264  1.00  0.00    -0.401 N 
ATOM      8  H1  UNL     1      16.186  17.876   9.222  1.00  0.00     0.154 HD
BRANCH   7   9
HETATM    9  C7  UNL     1      17.799  19.288   9.935  1.00  0.00     0.141 C 
BRANCH   9  10
HETATM   10  C8  UNL     1      17.638  19.072  11.354  1.00  0.00     0.036 C 
BRANCH  10  11
HETATM   11  C9  UNL     1      18.546  18.394  12.265  1.00  0.00    -0.012 C 
HETATM   12  C10 UNL     1      18.375  17.153  12.956  1.00  0.00     0.005 C 
HETATM   13  C11 UNL     1      19.590  16.224  12.925  1.00  0.00     0.000 C 
HETATM   14  C12 UNL     1      20.817  16.948  13.366  1.00  0.00     0.000 C 
HETATM   15  C13 UNL     1      20.978  18.304  12.669  1.00  0.00     0.000 C 
HETATM   16  C14 UNL     1      19.987  18.345  11.567  1.00  0.00     0.005 C 
ENDBRANCH  10  11
ENDBRANCH   9  10
BRANCH   9  17
HETATM   17  C15 UNL     1      17.095  20.260   9.135  1.00  0.00     0.148 C 
BRANCH  17  18
HETATM   18  O1  UNL     1      18.055  20.949   8.363  1.00  0.00    -0.357 OA
ATOM     19  H1  UNL     1      18.611  21.431   8.965  1.00  0.00     0.217 HD
ENDBRANCH  17  18
BRANCH  17  20
HETATM   20  C16 UNL     1      15.809  20.820   8.772  1.00  0.00     0.344 C 
HETATM   21  O2  UNL     1      14.845  20.903   9.563  1.00  0.00    -0.249 OA
HETATM   22  N2  UNL     1      15.701  21.270   7.421  1.00  0.00    -0.370 NA
BRANCH  22  23
HETATM   23  C17 UNL     1      15.598  21.692   6.155  1.00  0.00     0.437 A 
HETATM   24  C18 UNL     1      14.582  22.671   5.568  1.00  0.00     0.303 A 
HETATM   25  C19 UNL     1      13.409  22.974   6.344  1.00  0.00     0.116 C 
HETATM   26  N3  UNL     1      14.717  21.368   5.104  1.00  0.00     0.145 N 
HETATM   27  S1  UNL     1      12.226  21.668   5.756  1.00  0.00    -0.137 SA
HETATM   28  C20 UNL     1      13.556  20.632   5.021  1.00  0.00     0.351 C 
ENDBRANCH  22  23
ENDBRANCH  17  20
ENDBRANCH   9  17
ENDBRANCH   7   9
ENDBRANCH   1   7
BRANCH   1  29
HETATM   29  C21 UNL     1      18.056  17.170   7.191  1.00  0.00     0.022 C 
HETATM   30  N4  UNL     1      17.737  18.331   6.633  1.00  0.00    -0.331 N 
HETATM   31  C22 UNL     1      17.617  18.488   5.247  1.00  0.00     0.230 C 
ATOM     32  H4  UNL     1      17.574  19.138   7.235  1.00  0.00     0.168 HD
HETATM   33  O3  UNL     1      17.683  19.609   4.668  1.00  0.00    -0.272 OA
HETATM   34  C23 UNL     1      17.410  17.342   4.381  1.00  0.00     0.042 C 
HETATM   35  C24 UNL     1      16.023  17.425   3.756  1.00  0.00     0.019 C 
HETATM   36  C27 UNL     1      18.356  17.499   3.207  1.00  0.00     0.019 C 
HETATM   37  C28 UNL     1      17.532  16.017   5.052  1.00  0.00     0.035 C 
HETATM   38  C25 UNL     1      16.201  17.507   2.274  1.00  0.00     0.001 C 
HETATM   39  C26 UNL     1      17.536  18.186   2.112  1.00  0.00     0.001 C 
HETATM   40  C29 UNL     1      18.222  16.024   6.375  1.00  0.00     0.073 C 
BRANCH  40  41
HETATM   41  C30 UNL     1      19.655  15.529   6.143  1.00  0.00     0.067 C 
BRANCH  41  42
HETATM   42  N5  UNL     1      20.016  14.304   6.661  1.00  0.00    -0.401 N 
HETATM   43  C31 UNL     1      19.152  13.244   6.872  1.00  0.00     0.148 C 
HETATM   44  C32 UNL     1      21.297  13.832   6.152  1.00  0.00     0.148 C 
ENDBRANCH  41  42
ENDBRANCH  40  41
ENDBRANCH   1  29
TORSDOF 14
ENDMDL
