MODEL 1
REMARK VINA RESULT: -6.897766774      0.000      0.000
REMARK  15 active torsions:
REMARK  status: ('A' for Active; 'I' for Inactive)
REMARK       I    between atoms: C1_2  and  N3_6 
REMARK    1  A    between atoms: N3_6  and  C2_8 
REMARK    2  A    between atoms: C3_9  and  O1_10 
REMARK    3  A    between atoms: C4_12  and  O2_13 
REMARK    4  A    between atoms: C5_15  and  O3_16 
REMARK    5  A    between atoms: C6_18  and  O4_19 
REMARK    6  A    between atoms: C7_21  and  C8_22 
REMARK    7  A    between atoms: C8_22  and  N4_23 
REMARK    8  A    between atoms: C8_22  and  N12_39 
REMARK       I    between atoms: C9_25  and  N6_27 
REMARK    9  A    between atoms: N6_27  and  N7_29 
REMARK   10  A    between atoms: C10_35  and  N11_36 
REMARK   11  A    between atoms: C11_44  and  C12_45 
REMARK   12  A    between atoms: C12_45  and  C13_46 
REMARK   13  A    between atoms: C13_46  and  N15_47 
REMARK   14  A    between atoms: C13_46  and  O5_51 
REMARK   15  A    between atoms: C13_46  and  C14_53 
ROOT
HETATM    1  C8  UNL     1       1.985   1.683  36.842  1.00  0.00     0.267 C 
ENDROOT
BRANCH   1   2
HETATM    2  C7  UNL     1       1.355   2.863  37.462  1.00  0.00     0.053 A 
HETATM    3  C2  UNL     1       0.196   3.391  36.945  1.00  0.00     0.084 A 
HETATM    4  C3  UNL     1      -0.419   4.505  37.517  1.00  0.00     0.129 A 
HETATM    5  C4  UNL     1       0.138   5.092  38.620  1.00  0.00     0.137 A 
HETATM    6  C5  UNL     1       1.320   4.553  39.147  1.00  0.00     0.136 A 
HETATM    7  C6  UNL     1       1.914   3.454  38.570  1.00  0.00     0.114 A 
BRANCH   3   8
HETATM    8  N3  UNL     1      -0.464   2.866  35.809  1.00  0.00    -0.328 N 
HETATM    9  C1  UNL     1      -0.271   3.392  34.516  1.00  0.00     0.186 C 
HETATM   10  N1  UNL     1      -1.273   3.248  33.485  1.00  0.00    -0.064 NA
HETATM   11  N2  UNL     1       0.796   4.028  34.171  1.00  0.00    -0.373 N 
ATOM     12  H22 UNL     1       0.936   4.408  33.235  1.00  0.00     0.158 HD
ATOM     13  H21 UNL     1       1.503   4.130  34.898  1.00  0.00     0.158 HD
ATOM     14  H3  UNL     1      -1.101   2.079  35.931  1.00  0.00     0.168 HD
ENDBRANCH   3   8
BRANCH   4  15
HETATM   15  O1  UNL     1      -1.602   5.055  36.995  1.00  0.00    -0.356 OA
ATOM     16  H1  UNL     1      -2.079   5.745  37.442  1.00  0.00     0.218 HD
ENDBRANCH   4  15
BRANCH   5  17
HETATM   17  O2  UNL     1      -0.481   6.199  39.181  1.00  0.00    -0.356 OA
ATOM     18  H2  UNL     1      -1.245   6.073  39.731  1.00  0.00     0.218 HD
ENDBRANCH   5  17
BRANCH   6  19
HETATM   19  O3  UNL     1       1.807   5.214  40.261  1.00  0.00    -0.356 OA
ATOM     20  H3  UNL     1       2.284   6.013  40.071  1.00  0.00     0.218 HD
ENDBRANCH   6  19
BRANCH   7  21
HETATM   21  O4  UNL     1       3.083   2.975  39.146  1.00  0.00    -0.357 OA
ATOM     22  H4  UNL     1       3.151   2.039  39.293  1.00  0.00     0.217 HD
ENDBRANCH   7  21
ENDBRANCH   1   2
BRANCH   1  23
HETATM   23  N4  UNL     1       2.451   0.729  37.806  1.00  0.00    -0.335 N 
HETATM   24  C9  UNL     1       1.787  -0.355  37.991  1.00  0.00     0.206 C 
HETATM   25  N5  UNL     1       0.595  -0.594  37.231  1.00  0.00    -0.062 NA
HETATM   26  N6  UNL     1       2.151  -1.356  38.906  1.00  0.00    -0.239 N 
ATOM     27  H6  UNL     1       3.134  -1.609  39.001  1.00  0.00     0.192 HD
ATOM     28  H4  UNL     1       3.301   0.910  38.339  1.00  0.00     0.164 HD
BRANCH  26  29
HETATM   29  N7  UNL     1       1.204  -2.012  39.687  1.00  0.00    -0.000 N 
HETATM   30  N8  UNL     1       0.796  -1.646  40.910  1.00  0.00     0.033 NA
HETATM   31  N9  UNL     1      -0.117  -2.518  41.339  1.00  0.00    -0.210 N 
HETATM   32  N10 UNL     1      -0.317  -3.445  40.422  1.00  0.00    -0.117 N 
ATOM     33  H9  UNL     1      -0.592  -2.474  42.241  1.00  0.00     0.206 HD
HETATM   34  C10 UNL     1       0.503  -3.125  39.407  1.00  0.00     0.726 A 
ATOM     35  H10 UNL     1      -0.958  -4.237  40.474  1.00  0.00     0.207 HD
BRANCH  34  36
HETATM   36  N11 UNL     1       0.624  -3.783  38.289  1.00  0.00    -0.231 N 
ATOM     37 2H11 UNL     1       1.370  -4.441  38.063  1.00  0.00     0.174 HD
ATOM     38 1H11 UNL     1      -0.035  -3.698  37.516  1.00  0.00     0.174 HD
ENDBRANCH  34  36
ENDBRANCH  26  29
ENDBRANCH   1  23
BRANCH   1  39
HETATM   39  N12 UNL     1       3.041   1.984  35.908  1.00  0.00    -0.189 N 
HETATM   40  N13 UNL     1       3.811   3.056  35.984  1.00  0.00    -0.222 N 
HETATM   41  N14 UNL     1       4.683   3.070  35.019  1.00  0.00    -0.272 N 
ATOM     42  H13 UNL     1       3.732   3.775  36.703  1.00  0.00     0.210 HD
HETATM   43  C11 UNL     1       4.490   1.972  34.274  1.00  0.00     0.118 A 
ATOM     44  H14 UNL     1       5.389   3.789  34.858  1.00  0.00     0.190 HD
HETATM   45  N16 UNL     1       3.465   1.323  34.854  1.00  0.00    -0.268 N 
ATOM     46  H16 UNL     1       3.072   0.442  34.522  1.00  0.00     0.190 HD
BRANCH  43  47
HETATM   47  C12 UNL     1       5.194   1.498  33.072  1.00  0.00     0.160 C 
BRANCH  47  48
HETATM   48  C13 UNL     1       6.457   0.738  33.403  1.00  0.00     0.317 C 
BRANCH  48  49
HETATM   49  N15 UNL     1       6.650  -0.377  32.496  1.00  0.00    -0.036 N 
ATOM     50 3H15 UNL     1       6.004  -1.140  32.697  1.00  0.00     0.278 HD
ATOM     51 2H15 UNL     1       6.336  -0.151  31.551  1.00  0.00     0.278 HD
ATOM     52 1H15 UNL     1       7.619  -0.694  32.502  1.00  0.00     0.278 HD
ENDBRANCH  48  49
BRANCH  48  53
HETATM   53  O5  UNL     1       6.460   0.271  34.709  1.00  0.00    -0.357 OA
ATOM     54  H5  UNL     1       6.357  -0.673  34.753  1.00  0.00     0.213 HD
ENDBRANCH  48  53
BRANCH  48  55
HETATM   55  C14 UNL     1       7.617   1.650  33.226  1.00  0.00     0.239 C 
HETATM   56  O6  UNL     1       8.771   1.180  33.103  1.00  0.00    -0.644 OA
HETATM   57  O7  UNL     1       7.477   3.036  33.189  1.00  0.00    -0.644 OA
ENDBRANCH  48  55
ENDBRANCH  47  48
ENDBRANCH  43  47
ENDBRANCH   1  39
TORSDOF 15
ENDMDL
MODEL 2
REMARK VINA RESULT: -6.745882609      4.111      7.880
REMARK  15 active torsions:
REMARK  status: ('A' for Active; 'I' for Inactive)
REMARK       I    between atoms: C1_2  and  N3_6 
REMARK    1  A    between atoms: N3_6  and  C2_8 
REMARK    2  A    between atoms: C3_9  and  O1_10 
REMARK    3  A    between atoms: C4_12  and  O2_13 
REMARK    4  A    between atoms: C5_15  and  O3_16 
REMARK    5  A    between atoms: C6_18  and  O4_19 
REMARK    6  A    between atoms: C7_21  and  C8_22 
REMARK    7  A    between atoms: C8_22  and  N4_23 
REMARK    8  A    between atoms: C8_22  and  N12_39 
REMARK       I    between atoms: C9_25  and  N6_27 
REMARK    9  A    between atoms: N6_27  and  N7_29 
REMARK   10  A    between atoms: C10_35  and  N11_36 
REMARK   11  A    between atoms: C11_44  and  C12_45 
REMARK   12  A    between atoms: C12_45  and  C13_46 
REMARK   13  A    between atoms: C13_46  and  N15_47 
REMARK   14  A    between atoms: C13_46  and  O5_51 
REMARK   15  A    between atoms: C13_46  and  C14_53 
ROOT
HETATM    1  C8  UNL     1      -0.431   1.666  38.573  1.00  0.00     0.267 C 
ENDROOT
BRANCH   1   2
HETATM    2  C7  UNL     1      -0.294   2.601  37.442  1.00  0.00     0.053 A 
HETATM    3  C2  UNL     1       0.294   3.831  37.617  1.00  0.00     0.084 A 
HETATM    4  C3  UNL     1       0.437   4.732  36.561  1.00  0.00     0.129 A 
HETATM    5  C4  UNL     1      -0.016   4.388  35.316  1.00  0.00     0.137 A 
HETATM    6  C5  UNL     1      -0.615   3.133  35.137  1.00  0.00     0.136 A 
HETATM    7  C6  UNL     1      -0.748   2.258  36.190  1.00  0.00     0.114 A 
BRANCH   3   8
HETATM    8  N3  UNL     1       0.794   4.289  38.858  1.00  0.00    -0.328 N 
HETATM    9  C1  UNL     1       2.137   4.100  39.245  1.00  0.00     0.186 C 
HETATM   10  N1  UNL     1       2.524   4.069  40.637  1.00  0.00    -0.064 NA
HETATM   11  N2  UNL     1       3.094   3.944  38.397  1.00  0.00    -0.373 N 
ATOM     12  H22 UNL     1       4.065   3.808  38.676  1.00  0.00     0.158 HD
ATOM     13  H21 UNL     1       2.821   3.966  37.415  1.00  0.00     0.158 HD
ATOM     14  H3  UNL     1       0.161   4.772  39.496  1.00  0.00     0.168 HD
ENDBRANCH   3   8
BRANCH   4  15
HETATM   15  O1  UNL     1       1.033   5.993  36.729  1.00  0.00    -0.356 OA
ATOM     16  H1  UNL     1       0.590   6.706  37.173  1.00  0.00     0.218 HD
ENDBRANCH   4  15
BRANCH   5  17
HETATM   17  O2  UNL     1       0.131   5.290  34.272  1.00  0.00    -0.356 OA
ATOM     18  H2  UNL     1       0.820   5.150  33.633  1.00  0.00     0.218 HD
ENDBRANCH   5  17
BRANCH   6  19
HETATM   19  O3  UNL     1      -1.040   2.877  33.845  1.00  0.00    -0.356 OA
ATOM     20  H3  UNL     1      -1.639   2.144  33.764  1.00  0.00     0.218 HD
ENDBRANCH   6  19
BRANCH   7  21
HETATM   21  O4  UNL     1      -1.352   1.033  35.940  1.00  0.00    -0.357 OA
ATOM     22  H4  UNL     1      -0.974   0.263  36.348  1.00  0.00     0.217 HD
ENDBRANCH   7  21
ENDBRANCH   1   2
BRANCH   1  23
HETATM   23  N4  UNL     1       0.133   0.376  38.302  1.00  0.00    -0.335 N 
HETATM   24  C9  UNL     1       0.982  -0.126  39.125  1.00  0.00     0.206 C 
HETATM   25  N5  UNL     1       1.350   0.610  40.299  1.00  0.00    -0.062 NA
HETATM   26  N6  UNL     1       1.597  -1.378  38.959  1.00  0.00    -0.239 N 
ATOM     27  H6  UNL     1       1.042  -2.161  38.614  1.00  0.00     0.192 HD
ATOM     28  H4  UNL     1      -0.137  -0.138  37.463  1.00  0.00     0.164 HD
BRANCH  26  29
HETATM   29  N7  UNL     1       2.942  -1.577  39.253  1.00  0.00    -0.000 N 
HETATM   30  N8  UNL     1       3.432  -2.339  40.240  1.00  0.00     0.033 NA
HETATM   31  N9  UNL     1       4.764  -2.283  40.208  1.00  0.00    -0.210 N 
HETATM   32  N10 UNL     1       5.156  -1.501  39.221  1.00  0.00    -0.117 N 
ATOM     33  H9  UNL     1       5.387  -2.771  40.851  1.00  0.00     0.206 HD
HETATM   34  C10 UNL     1       4.025  -1.071  38.637  1.00  0.00     0.726 A 
ATOM     35  H10 UNL     1       6.115  -1.273  38.956  1.00  0.00     0.207 HD
BRANCH  34  36
HETATM   36  N11 UNL     1       3.954  -0.270  37.612  1.00  0.00    -0.231 N 
ATOM     37 2H11 UNL     1       3.392  -0.422  36.774  1.00  0.00     0.174 HD
ATOM     38 1H11 UNL     1       4.470   0.608  37.551  1.00  0.00     0.174 HD
ENDBRANCH  34  36
ENDBRANCH  26  29
ENDBRANCH   1  23
BRANCH   1  39
HETATM   39  N12 UNL     1      -1.776   1.512  39.068  1.00  0.00    -0.189 N 
HETATM   40  N13 UNL     1      -2.654   0.660  38.568  1.00  0.00    -0.222 N 
HETATM   41  N14 UNL     1      -3.784   0.726  39.210  1.00  0.00    -0.272 N 
ATOM     42  H13 UNL     1      -2.471   0.035  37.782  1.00  0.00     0.210 HD
HETATM   43  C11 UNL     1      -3.656   1.652  40.171  1.00  0.00     0.118 A 
ATOM     44  H14 UNL     1      -4.618   0.172  39.016  1.00  0.00     0.190 HD
HETATM   45  N16 UNL     1      -2.400   2.118  40.054  1.00  0.00    -0.268 N 
ATOM     46  H16 UNL     1      -1.989   2.840  40.646  1.00  0.00     0.190 HD
BRANCH  43  47
HETATM   47  C12 UNL     1      -4.620   2.122  41.179  1.00  0.00     0.160 C 
BRANCH  47  48
HETATM   48  C13 UNL     1      -4.855   3.613  41.104  1.00  0.00     0.317 C 
BRANCH  48  49
HETATM   49  N15 UNL     1      -6.272   3.922  41.148  1.00  0.00    -0.036 N 
ATOM     50 3H15 UNL     1      -6.751   3.606  40.305  1.00  0.00     0.278 HD
ATOM     51 2H15 UNL     1      -6.761   3.345  41.832  1.00  0.00     0.278 HD
ATOM     52 1H15 UNL     1      -6.426   4.916  41.317  1.00  0.00     0.278 HD
ENDBRANCH  48  49
BRANCH  48  53
HETATM   53  O5  UNL     1      -4.300   4.174  39.963  1.00  0.00    -0.357 OA
ATOM     54  H5  UNL     1      -4.781   4.939  39.669  1.00  0.00     0.213 HD
ENDBRANCH  48  53
BRANCH  48  55
HETATM   55  C14 UNL     1      -4.233   4.249  42.294  1.00  0.00     0.239 C 
HETATM   56  O6  UNL     1      -4.798   5.215  42.855  1.00  0.00    -0.644 OA
HETATM   57  O7  UNL     1      -3.022   3.810  42.825  1.00  0.00    -0.644 OA
ENDBRANCH  48  55
ENDBRANCH  47  48
ENDBRANCH  43  47
ENDBRANCH   1  39
TORSDOF 15
ENDMDL
MODEL 3
REMARK VINA RESULT: -6.656755054      2.313      3.081
REMARK  15 active torsions:
REMARK  status: ('A' for Active; 'I' for Inactive)
REMARK       I    between atoms: C1_2  and  N3_6 
REMARK    1  A    between atoms: N3_6  and  C2_8 
REMARK    2  A    between atoms: C3_9  and  O1_10 
REMARK    3  A    between atoms: C4_12  and  O2_13 
REMARK    4  A    between atoms: C5_15  and  O3_16 
REMARK    5  A    between atoms: C6_18  and  O4_19 
REMARK    6  A    between atoms: C7_21  and  C8_22 
REMARK    7  A    between atoms: C8_22  and  N4_23 
REMARK    8  A    between atoms: C8_22  and  N12_39 
REMARK       I    between atoms: C9_25  and  N6_27 
REMARK    9  A    between atoms: N6_27  and  N7_29 
REMARK   10  A    between atoms: C10_35  and  N11_36 
REMARK   11  A    between atoms: C11_44  and  C12_45 
REMARK   12  A    between atoms: C12_45  and  C13_46 
REMARK   13  A    between atoms: C13_46  and  N15_47 
REMARK   14  A    between atoms: C13_46  and  O5_51 
REMARK   15  A    between atoms: C13_46  and  C14_53 
ROOT
HETATM    1  C8  UNL     1      -0.422   1.669  36.872  1.00  0.00     0.267 C 
ENDROOT
BRANCH   1   2
HETATM    2  C7  UNL     1      -0.443   2.974  37.556  1.00  0.00     0.053 A 
HETATM    3  C2  UNL     1      -1.589   3.733  37.583  1.00  0.00     0.084 A 
HETATM    4  C3  UNL     1      -1.634   4.970  38.226  1.00  0.00     0.129 A 
HETATM    5  C4  UNL     1      -0.513   5.447  38.849  1.00  0.00     0.137 A 
HETATM    6  C5  UNL     1       0.657   4.674  38.821  1.00  0.00     0.136 A 
HETATM    7  C6  UNL     1       0.682   3.456  38.182  1.00  0.00     0.114 A 
BRANCH   3   8
HETATM    8  N3  UNL     1      -2.802   3.338  36.972  1.00  0.00    -0.328 N 
HETATM    9  C1  UNL     1      -3.827   2.683  37.686  1.00  0.00     0.186 C 
HETATM   10  N1  UNL     1      -4.787   1.833  37.020  1.00  0.00    -0.064 NA
HETATM   11  N2  UNL     1      -3.974   2.796  38.961  1.00  0.00    -0.373 N 
ATOM     12  H22 UNL     1      -4.715   2.322  39.478  1.00  0.00     0.158 HD
ATOM     13  H21 UNL     1      -3.296   3.395  39.432  1.00  0.00     0.158 HD
ATOM     14  H3  UNL     1      -2.941   3.533  35.981  1.00  0.00     0.168 HD
ENDBRANCH   3   8
BRANCH   4  15
HETATM   15  O1  UNL     1      -2.798   5.755  38.258  1.00  0.00    -0.356 OA
ATOM     16  H1  UNL     1      -2.785   6.669  38.515  1.00  0.00     0.218 HD
ENDBRANCH   4  15
BRANCH   5  17
HETATM   17  O2  UNL     1      -0.566   6.678  39.485  1.00  0.00    -0.356 OA
ATOM     18  H2  UNL     1      -0.177   7.435  39.062  1.00  0.00     0.218 HD
ENDBRANCH   5  17
BRANCH   6  19
HETATM   19  O3  UNL     1       1.736   5.239  39.477  1.00  0.00    -0.356 OA
ATOM     20  H3  UNL     1       2.392   5.620  38.904  1.00  0.00     0.218 HD
ENDBRANCH   6  19
BRANCH   7  21
HETATM   21  O4  UNL     1       1.875   2.745  38.195  1.00  0.00    -0.357 OA
ATOM     22  H4  UNL     1       1.848   1.834  37.926  1.00  0.00     0.217 HD
ENDBRANCH   7  21
ENDBRANCH   1   2
BRANCH   1  23
HETATM   23  N4  UNL     1       0.013   0.601  37.724  1.00  0.00    -0.335 N 
HETATM   24  C9  UNL     1      -0.770  -0.395  37.936  1.00  0.00     0.206 C 
HETATM   25  N5  UNL     1      -2.063  -0.424  37.318  1.00  0.00    -0.062 NA
HETATM   26  N6  UNL     1      -0.448  -1.493  38.751  1.00  0.00    -0.239 N 
ATOM     27  H6  UNL     1       0.495  -1.880  38.712  1.00  0.00     0.192 HD
ATOM     28  H4  UNL     1       0.935   0.631  38.158  1.00  0.00     0.164 HD
BRANCH  26  29
HETATM   29  N7  UNL     1      -1.382  -2.067  39.608  1.00  0.00    -0.000 N 
HETATM   30  N8  UNL     1      -1.592  -1.729  40.889  1.00  0.00     0.033 NA
HETATM   31  N9  UNL     1      -2.564  -2.498  41.383  1.00  0.00    -0.210 N 
HETATM   32  N10 UNL     1      -2.994  -3.329  40.454  1.00  0.00    -0.117 N 
ATOM     33  H9  UNL     1      -2.921  -2.450  42.337  1.00  0.00     0.206 HD
HETATM   34  C10 UNL     1      -2.259  -3.056  39.363  1.00  0.00     0.726 A 
ATOM     35  H10 UNL     1      -3.729  -4.031  40.545  1.00  0.00     0.207 HD
BRANCH  34  36
HETATM   36  N11 UNL     1      -2.359  -3.651  38.208  1.00  0.00    -0.231 N 
ATOM     37 2H11 UNL     1      -1.806  -3.438  37.378  1.00  0.00     0.174 HD
ATOM     38 1H11 UNL     1      -3.018  -4.407  38.024  1.00  0.00     0.174 HD
ENDBRANCH  34  36
ENDBRANCH  26  29
ENDBRANCH   1  23
BRANCH   1  39
HETATM   39  N12 UNL     1       0.329   1.644  35.642  1.00  0.00    -0.189 N 
HETATM   40  N13 UNL     1      -0.199   1.855  34.450  1.00  0.00    -0.222 N 
HETATM   41  N14 UNL     1       0.707   1.780  33.520  1.00  0.00    -0.272 N 
ATOM     42  H13 UNL     1      -1.186   2.049  34.280  1.00  0.00     0.210 HD
HETATM   43  C11 UNL     1       1.881   1.510  34.111  1.00  0.00     0.118 A 
ATOM     44  H14 UNL     1       0.554   1.904  32.520  1.00  0.00     0.190 HD
HETATM   45  N16 UNL     1       1.609   1.433  35.426  1.00  0.00    -0.268 N 
ATOM     46  H16 UNL     1       2.298   1.238  36.152  1.00  0.00     0.190 HD
BRANCH  43  47
HETATM   47  C12 UNL     1       3.221   1.324  33.533  1.00  0.00     0.160 C 
BRANCH  47  48
HETATM   48  C13 UNL     1       4.314   1.886  34.413  1.00  0.00     0.317 C 
BRANCH  48  49
HETATM   49  N15 UNL     1       5.603   1.818  33.752  1.00  0.00    -0.036 N 
ATOM     50 3H15 UNL     1       5.611   1.114  33.015  1.00  0.00     0.278 HD
ATOM     51 2H15 UNL     1       5.775   2.645  33.179  1.00  0.00     0.278 HD
ATOM     52 1H15 UNL     1       6.354   1.666  34.425  1.00  0.00     0.278 HD
ENDBRANCH  48  49
BRANCH  48  53
HETATM   53  O5  UNL     1       4.391   1.232  35.634  1.00  0.00    -0.357 OA
ATOM     54  H5  UNL     1       5.163   1.484  36.127  1.00  0.00     0.213 HD
ENDBRANCH  48  53
BRANCH  48  55
HETATM   55  C14 UNL     1       4.027   3.322  34.663  1.00  0.00     0.239 C 
HETATM   56  O6  UNL     1       4.239   4.170  33.766  1.00  0.00    -0.644 OA
HETATM   57  O7  UNL     1       3.520   3.779  35.878  1.00  0.00    -0.644 OA
ENDBRANCH  48  55
ENDBRANCH  47  48
ENDBRANCH  43  47
ENDBRANCH   1  39
TORSDOF 15
ENDMDL
MODEL 4
REMARK VINA RESULT: -6.603796294      3.537      7.588
REMARK  15 active torsions:
REMARK  status: ('A' for Active; 'I' for Inactive)
REMARK       I    between atoms: C1_2  and  N3_6 
REMARK    1  A    between atoms: N3_6  and  C2_8 
REMARK    2  A    between atoms: C3_9  and  O1_10 
REMARK    3  A    between atoms: C4_12  and  O2_13 
REMARK    4  A    between atoms: C5_15  and  O3_16 
REMARK    5  A    between atoms: C6_18  and  O4_19 
REMARK    6  A    between atoms: C7_21  and  C8_22 
REMARK    7  A    between atoms: C8_22  and  N4_23 
REMARK    8  A    between atoms: C8_22  and  N12_39 
REMARK       I    between atoms: C9_25  and  N6_27 
REMARK    9  A    between atoms: N6_27  and  N7_29 
REMARK   10  A    between atoms: C10_35  and  N11_36 
REMARK   11  A    between atoms: C11_44  and  C12_45 
REMARK   12  A    between atoms: C12_45  and  C13_46 
REMARK   13  A    between atoms: C13_46  and  N15_47 
REMARK   14  A    between atoms: C13_46  and  O5_51 
REMARK   15  A    between atoms: C13_46  and  C14_53 
ROOT
HETATM    1  C8  UNL     1       2.342   2.202  35.550  1.00  0.00     0.267 C 
ENDROOT
BRANCH   1   2
HETATM    2  C7  UNL     1       2.177   0.853  36.120  1.00  0.00     0.053 A 
HETATM    3  C2  UNL     1       1.616  -0.158  35.375  1.00  0.00     0.084 A 
HETATM    4  C3  UNL     1       1.451  -1.443  35.892  1.00  0.00     0.129 A 
HETATM    5  C4  UNL     1       1.855  -1.713  37.171  1.00  0.00     0.137 A 
HETATM    6  C5  UNL     1       2.427  -0.682  37.931  1.00  0.00     0.136 A 
HETATM    7  C6  UNL     1       2.581   0.580  37.405  1.00  0.00     0.114 A 
BRANCH   3   8
HETATM    8  N3  UNL     1       1.163   0.010  34.046  1.00  0.00    -0.328 N 
HETATM    9  C1  UNL     1       1.968  -0.302  32.931  1.00  0.00     0.186 C 
HETATM   10  N1  UNL     1       1.756   0.328  31.647  1.00  0.00    -0.064 NA
HETATM   11  N2  UNL     1       2.932  -1.156  32.980  1.00  0.00    -0.373 N 
ATOM     12  H22 UNL     1       3.514  -1.382  32.174  1.00  0.00     0.158 HD
ATOM     13  H21 UNL     1       3.081  -1.600  33.886  1.00  0.00     0.158 HD
ATOM     14  H3  UNL     1       0.221   0.369  33.888  1.00  0.00     0.168 HD
ENDBRANCH   3   8
BRANCH   4  15
HETATM   15  O1  UNL     1       0.877  -2.483  35.142  1.00  0.00    -0.356 OA
ATOM     16  H1  UNL     1       1.302  -2.846  34.374  1.00  0.00     0.218 HD
ENDBRANCH   4  15
BRANCH   5  17
HETATM   17  O2  UNL     1       1.687  -2.993  37.677  1.00  0.00    -0.356 OA
ATOM     18  H2  UNL     1       2.394  -3.621  37.589  1.00  0.00     0.218 HD
ENDBRANCH   5  17
BRANCH   6  19
HETATM   19  O3  UNL     1       2.804  -1.050  39.210  1.00  0.00    -0.356 OA
ATOM     20  H3  UNL     1       2.994  -0.323  39.792  1.00  0.00     0.218 HD
ENDBRANCH   6  19
BRANCH   7  21
HETATM   21  O4  UNL     1       3.155   1.552  38.214  1.00  0.00    -0.357 OA
ATOM     22  H4  UNL     1       3.064   2.459  37.947  1.00  0.00     0.217 HD
ENDBRANCH   7  21
ENDBRANCH   1   2
BRANCH   1  23
HETATM   23  N4  UNL     1       3.696   2.671  35.613  1.00  0.00    -0.335 N 
HETATM   24  C9  UNL     1       4.410   2.681  34.546  1.00  0.00     0.206 C 
HETATM   25  N5  UNL     1       3.843   2.225  33.310  1.00  0.00    -0.062 NA
HETATM   26  N6  UNL     1       5.744   3.117  34.492  1.00  0.00    -0.239 N 
ATOM     27  H6  UNL     1       6.017   3.946  35.020  1.00  0.00     0.192 HD
ATOM     28  H4  UNL     1       4.089   2.994  36.498  1.00  0.00     0.164 HD
BRANCH  26  29
HETATM   29  N7  UNL     1       6.703   2.449  33.737  1.00  0.00    -0.000 N 
HETATM   30  N8  UNL     1       7.566   3.010  32.878  1.00  0.00     0.033 NA
HETATM   31  N9  UNL     1       8.326   2.052  32.345  1.00  0.00    -0.210 N 
HETATM   32  N10 UNL     1       7.981   0.879  32.838  1.00  0.00    -0.117 N 
ATOM     33  H9  UNL     1       9.065   2.205  31.659  1.00  0.00     0.206 HD
HETATM   34  C10 UNL     1       6.979   1.134  33.696  1.00  0.00     0.726 A 
ATOM     35  H10 UNL     1       8.388  -0.030  32.615  1.00  0.00     0.207 HD
BRANCH  34  36
HETATM   36  N11 UNL     1       6.340   0.247  34.406  1.00  0.00    -0.231 N 
ATOM     37 2H11 UNL     1       5.327   0.172  34.495  1.00  0.00     0.174 HD
ATOM     38 1H11 UNL     1       6.810  -0.473  34.954  1.00  0.00     0.174 HD
ENDBRANCH  34  36
ENDBRANCH  26  29
ENDBRANCH   1  23
BRANCH   1  39
HETATM   39  N12 UNL     1       1.458   3.201  36.096  1.00  0.00    -0.189 N 
HETATM   40  N13 UNL     1       1.423   4.458  35.690  1.00  0.00    -0.222 N 
HETATM   41  N14 UNL     1       0.529   5.134  36.349  1.00  0.00    -0.272 N 
ATOM     42  H13 UNL     1       2.018   4.846  34.959  1.00  0.00     0.210 HD
HETATM   43  C11 UNL     1      -0.054   4.302  37.225  1.00  0.00     0.118 A 
ATOM     44  H14 UNL     1       0.309   6.122  36.223  1.00  0.00     0.190 HD
HETATM   45  N16 UNL     1       0.547   3.113  37.040  1.00  0.00    -0.268 N 
ATOM     46  H16 UNL     1       0.327   2.263  37.559  1.00  0.00     0.190 HD
BRANCH  43  47
HETATM   47  C12 UNL     1      -1.121   4.544  38.208  1.00  0.00     0.160 C 
BRANCH  47  48
HETATM   48  C13 UNL     1      -0.680   5.458  39.328  1.00  0.00     0.317 C 
BRANCH  48  49
HETATM   49  N15 UNL     1      -1.686   5.532  40.370  1.00  0.00    -0.036 N 
ATOM     50 3H15 UNL     1      -2.013   6.488  40.507  1.00  0.00     0.278 HD
ATOM     51 2H15 UNL     1      -2.566   5.108  40.073  1.00  0.00     0.278 HD
ATOM     52 1H15 UNL     1      -1.346   5.122  41.239  1.00  0.00     0.278 HD
ENDBRANCH  48  49
BRANCH  48  53
HETATM   53  O5  UNL     1      -0.393   6.738  38.877  1.00  0.00    -0.357 OA
ATOM     54  H5  UNL     1       0.291   7.154  39.389  1.00  0.00     0.213 HD
ENDBRANCH  48  53
BRANCH  48  55
HETATM   55  C14 UNL     1       0.546   4.889  39.945  1.00  0.00     0.239 C 
HETATM   56  O6  UNL     1       0.471   4.267  41.029  1.00  0.00    -0.644 OA
HETATM   57  O7  UNL     1       1.804   5.019  39.360  1.00  0.00    -0.644 OA
ENDBRANCH  48  55
ENDBRANCH  47  48
ENDBRANCH  43  47
ENDBRANCH   1  39
TORSDOF 15
ENDMDL
MODEL 5
REMARK VINA RESULT: -6.532356090      4.061      7.353
REMARK  15 active torsions:
REMARK  status: ('A' for Active; 'I' for Inactive)
REMARK       I    between atoms: C1_2  and  N3_6 
REMARK    1  A    between atoms: N3_6  and  C2_8 
REMARK    2  A    between atoms: C3_9  and  O1_10 
REMARK    3  A    between atoms: C4_12  and  O2_13 
REMARK    4  A    between atoms: C5_15  and  O3_16 
REMARK    5  A    between atoms: C6_18  and  O4_19 
REMARK    6  A    between atoms: C7_21  and  C8_22 
REMARK    7  A    between atoms: C8_22  and  N4_23 
REMARK    8  A    between atoms: C8_22  and  N12_39 
REMARK       I    between atoms: C9_25  and  N6_27 
REMARK    9  A    between atoms: N6_27  and  N7_29 
REMARK   10  A    between atoms: C10_35  and  N11_36 
REMARK   11  A    between atoms: C11_44  and  C12_45 
REMARK   12  A    between atoms: C12_45  and  C13_46 
REMARK   13  A    between atoms: C13_46  and  N15_47 
REMARK   14  A    between atoms: C13_46  and  O5_51 
REMARK   15  A    between atoms: C13_46  and  C14_53 
ROOT
HETATM    1  C8  UNL     1      -0.338   2.034  38.571  1.00  0.00     0.267 C 
ENDROOT
BRANCH   1   2
HETATM    2  C7  UNL     1      -0.159   2.796  37.322  1.00  0.00     0.053 A 
HETATM    3  C2  UNL     1       0.495   4.005  37.327  1.00  0.00     0.084 A 
HETATM    4  C3  UNL     1       0.678   4.744  36.157  1.00  0.00     0.129 A 
HETATM    5  C4  UNL     1       0.199   4.259  34.972  1.00  0.00     0.137 A 
HETATM    6  C5  UNL     1      -0.469   3.025  34.966  1.00  0.00     0.136 A 
HETATM    7  C6  UNL     1      -0.641   2.311  36.130  1.00  0.00     0.114 A 
BRANCH   3   8
HETATM    8  N3  UNL     1       1.030   4.600  38.494  1.00  0.00    -0.328 N 
HETATM    9  C1  UNL     1       2.268   4.207  39.041  1.00  0.00     0.186 C 
HETATM   10  N1  UNL     1       2.569   4.396  40.441  1.00  0.00    -0.064 NA
HETATM   11  N2  UNL     1       3.201   3.661  38.339  1.00  0.00    -0.373 N 
ATOM     12  H22 UNL     1       4.097   3.376  38.734  1.00  0.00     0.158 HD
ATOM     13  H21 UNL     1       2.988   3.527  37.351  1.00  0.00     0.158 HD
ATOM     14  H3  UNL     1       0.500   5.340  38.956  1.00  0.00     0.168 HD
ENDBRANCH   3   8
BRANCH   4  15
HETATM   15  O1  UNL     1       1.343   5.982  36.151  1.00  0.00    -0.356 OA
ATOM     16  H1  UNL     1       2.036   6.180  35.533  1.00  0.00     0.218 HD
ENDBRANCH   4  15
BRANCH   5  17
HETATM   17  O2  UNL     1       0.385   4.999  33.814  1.00  0.00    -0.356 OA
ATOM     18  H2  UNL     1      -0.342   5.108  33.212  1.00  0.00     0.218 HD
ENDBRANCH   5  17
BRANCH   6  19
HETATM   19  O3  UNL     1      -0.917   2.619  33.722  1.00  0.00    -0.356 OA
ATOM     20  H3  UNL     1      -1.017   1.678  33.625  1.00  0.00     0.218 HD
ENDBRANCH   6  19
BRANCH   7  21
HETATM   21  O4  UNL     1      -1.311   1.098  36.049  1.00  0.00    -0.357 OA
ATOM     22  H4  UNL     1      -1.924   0.886  36.744  1.00  0.00     0.217 HD
ENDBRANCH   7  21
ENDBRANCH   1   2
BRANCH   1  23
HETATM   23  N4  UNL     1       0.085   0.669  38.455  1.00  0.00    -0.335 N 
HETATM   24  C9  UNL     1       1.028   0.234  39.211  1.00  0.00     0.206 C 
HETATM   25  N5  UNL     1       1.642   1.120  40.157  1.00  0.00    -0.062 NA
HETATM   26  N6  UNL     1       1.520  -1.081  39.183  1.00  0.00    -0.239 N 
ATOM     27  H6  UNL     1       0.863  -1.854  39.080  1.00  0.00     0.192 HD
ATOM     28  H4  UNL     1      -0.360   0.048  37.779  1.00  0.00     0.164 HD
BRANCH  26  29
HETATM   29  N7  UNL     1       2.880  -1.356  39.291  1.00  0.00    -0.000 N 
HETATM   30  N8  UNL     1       3.446  -2.222  40.143  1.00  0.00     0.033 NA
HETATM   31  N9  UNL     1       4.766  -2.213  39.952  1.00  0.00    -0.210 N 
HETATM   32  N10 UNL     1       5.075  -1.360  38.995  1.00  0.00    -0.117 N 
ATOM     33  H9  UNL     1       5.437  -2.780  40.470  1.00  0.00     0.206 HD
HETATM   34  C10 UNL     1       3.904  -0.837  38.593  1.00  0.00     0.726 A 
ATOM     35  H10 UNL     1       6.005  -1.145  38.635  1.00  0.00     0.207 HD
BRANCH  34  36
HETATM   36  N11 UNL     1       3.751   0.056  37.656  1.00  0.00    -0.231 N 
ATOM     37 2H11 UNL     1       2.861   0.354  37.257  1.00  0.00     0.174 HD
ATOM     38 1H11 UNL     1       4.530   0.552  37.224  1.00  0.00     0.174 HD
ENDBRANCH  34  36
ENDBRANCH  26  29
ENDBRANCH   1  23
BRANCH   1  39
HETATM   39  N12 UNL     1      -1.668   2.084  39.124  1.00  0.00    -0.189 N 
HETATM   40  N13 UNL     1      -1.963   2.632  40.289  1.00  0.00    -0.222 N 
HETATM   41  N14 UNL     1      -3.238   2.543  40.535  1.00  0.00    -0.272 N 
ATOM     42  H13 UNL     1      -1.283   3.066  40.913  1.00  0.00     0.210 HD
HETATM   43  C11 UNL     1      -3.813   1.915  39.499  1.00  0.00     0.118 A 
ATOM     44  H14 UNL     1      -3.715   2.889  41.367  1.00  0.00     0.190 HD
HETATM   45  N16 UNL     1      -2.811   1.645  38.643  1.00  0.00    -0.268 N 
ATOM     46  H16 UNL     1      -2.922   1.168  37.749  1.00  0.00     0.190 HD
BRANCH  43  47
HETATM   47  C12 UNL     1      -5.220   1.556  39.262  1.00  0.00     0.160 C 
BRANCH  47  48
HETATM   48  C13 UNL     1      -5.368   0.396  38.304  1.00  0.00     0.317 C 
BRANCH  48  49
HETATM   49  N15 UNL     1      -6.710  -0.151  38.349  1.00  0.00    -0.036 N 
ATOM     50 3H15 UNL     1      -6.713  -1.109  38.700  1.00  0.00     0.278 HD
ATOM     51 2H15 UNL     1      -7.270   0.285  39.083  1.00  0.00     0.278 HD
ATOM     52 1H15 UNL     1      -7.166  -0.083  37.440  1.00  0.00     0.278 HD
ENDBRANCH  48  49
BRANCH  48  53
HETATM   53  O5  UNL     1      -4.453  -0.614  38.560  1.00  0.00    -0.357 OA
ATOM     54  H5  UNL     1      -3.556  -0.326  38.435  1.00  0.00     0.213 HD
ENDBRANCH  48  53
BRANCH  48  55
HETATM   55  C14 UNL     1      -5.146   0.894  36.922  1.00  0.00     0.239 C 
HETATM   56  O6  UNL     1      -5.932   1.733  36.424  1.00  0.00    -0.644 OA
HETATM   57  O7  UNL     1      -4.080   0.462  36.136  1.00  0.00    -0.644 OA
ENDBRANCH  48  55
ENDBRANCH  47  48
ENDBRANCH  43  47
ENDBRANCH   1  39
TORSDOF 15
ENDMDL
