MODEL 1
REMARK VINA RESULT: -10.280814934      0.000      0.000
REMARK  13 active torsions:
REMARK  status: ('A' for Active; 'I' for Inactive)
REMARK    1  A    between atoms: C2_2  and  C4_4 
REMARK    2  A    between atoms: C4_4  and  C5_5 
REMARK    3  A    between atoms: C5_5  and  C35_53 
REMARK       I    between atoms: N1_6  and  C6_8 
REMARK    4  A    between atoms: C6_8  and  C7_10 
REMARK    5  A    between atoms: C7_10  and  C8_11 
REMARK    6  A    between atoms: C7_10  and  N3_24 
REMARK    7  A    between atoms: C8_11  and  C9_12 
REMARK    8  A    between atoms: C9_12  and  C10_13 
REMARK       I    between atoms: C10_13  and  N2_15 
REMARK    9  A    between atoms: C11_16  and  O3_17 
REMARK       I    between atoms: N3_24  and  C17_26 
REMARK   10  A    between atoms: C17_26  and  C18_28 
REMARK   11  A    between atoms: C27_40  and  C28_41 
REMARK       I    between atoms: C28_41  and  N5_43 
REMARK   12  A    between atoms: N5_43  and  C29_45 
REMARK   13  A    between atoms: C29_45  and  C30_46 
ROOT
HETATM    1  N3  UNL     1       5.750  -0.927  13.995  1.00  0.00    -0.346 N 
ATOM      2  H3  UNL     1       5.749  -1.328  13.058  1.00  0.00     0.163 HD
HETATM    3  C17 UNL     1       5.111   0.327  14.221  1.00  0.00     0.250 C 
HETATM    4  O4  UNL     1       5.135   0.782  15.394  1.00  0.00    -0.271 OA
ENDROOT
BRANCH   1   5
HETATM    5  C7  UNL     1       6.406  -1.648  15.082  1.00  0.00     0.177 C 
BRANCH   5   6
HETATM    6  C6  UNL     1       5.889  -3.083  15.090  1.00  0.00     0.244 C 
HETATM    7  N1  UNL     1       4.930  -3.486  15.979  1.00  0.00    -0.324 N 
HETATM    8  C5  UNL     1       3.684  -3.722  15.896  1.00  0.00     0.077 C 
ATOM      9  H1  UNL     1       5.299  -3.630  16.920  1.00  0.00     0.169 HD
HETATM   10  O1  UNL     1       6.390  -3.854  14.247  1.00  0.00    -0.271 OA
BRANCH   8  11
HETATM   11  C4  UNL     1       3.015  -4.148  17.135  1.00  0.00     0.066 C 
BRANCH  11  12
HETATM   12  C2  UNL     1       3.422  -5.421  17.754  1.00  0.00    -0.017 C 
HETATM   13  C1  UNL     1       3.153  -6.632  16.873  1.00  0.00     0.010 C 
HETATM   14  C3  UNL     1       3.049  -5.709  19.159  1.00  0.00     0.010 C 
ENDBRANCH  11  12
ENDBRANCH   8  11
BRANCH   8  15
HETATM   15  C35 UNL     1       2.989  -3.603  14.651  1.00  0.00     0.277 C 
HETATM   16  N7  UNL     1       2.995  -2.414  13.852  1.00  0.00    -0.056 NA
HETATM   17  O7  UNL     1       2.315  -4.565  14.181  1.00  0.00    -0.270 OA
ENDBRANCH   8  15
ENDBRANCH   5   6
BRANCH   5  18
HETATM   18  C8  UNL     1       7.886  -1.675  14.971  1.00  0.00     0.044 C 
BRANCH  18  19
HETATM   19  C9  UNL     1       8.621  -2.045  16.206  1.00  0.00     0.105 C 
BRANCH  19  20
HETATM   20  C10 UNL     1       9.486  -3.220  16.135  1.00  0.00     0.222 C 
HETATM   21  O2  UNL     1      10.540  -3.221  15.449  1.00  0.00    -0.273 OA
HETATM   22  N2  UNL     1       9.202  -4.427  16.825  1.00  0.00    -0.320 N 
HETATM   23  C11 UNL     1       8.144  -4.859  17.708  1.00  0.00     0.229 C 
HETATM   24  C16 UNL     1       9.790  -5.717  16.980  1.00  0.00     0.098 C 
HETATM   25  C12 UNL     1       9.062  -5.947  18.294  1.00  0.00     0.057 C 
HETATM   26  C13 UNL     1       8.487  -7.321  18.276  1.00  0.00     0.011 C 
HETATM   27  C14 UNL     1       9.167  -7.985  17.103  1.00  0.00     0.003 C 
HETATM   28  C15 UNL     1       9.294  -6.837  16.128  1.00  0.00     0.026 C 
BRANCH  23  29
HETATM   29  O3  UNL     1       6.991  -5.337  17.144  1.00  0.00    -0.376 OA
ATOM     30  H3  UNL     1       6.296  -5.623  17.725  1.00  0.00     0.212 HD
ENDBRANCH  23  29
ENDBRANCH  19  20
ENDBRANCH  18  19
ENDBRANCH   5  18
ENDBRANCH   1   5
BRANCH   3  31
HETATM   31  C18 UNL     1       4.460   1.025  13.092  1.00  0.00     0.290 C 
HETATM   32  N4  UNL     1       3.029   0.684  13.200  1.00  0.00    -0.057 N 
HETATM   33  C19 UNL     1       2.266   1.595  12.413  1.00  0.00     0.195 C 
ATOM     34  H42 UNL     1       2.844  -0.289  12.954  1.00  0.00     0.278 HD
ATOM     35  H41 UNL     1       2.712   0.652  14.169  1.00  0.00     0.278 HD
HETATM   36  C20 UNL     1       2.691   1.551  10.963  1.00  0.00     0.018 C 
HETATM   37  C24 UNL     1       0.806   1.303  12.489  1.00  0.00     0.016 C 
HETATM   38  C21 UNL     1       1.484   1.037  10.186  1.00  0.00     0.011 C 
HETATM   39  C26 UNL     1       3.819   0.602  10.723  1.00  0.00     0.023 C 
HETATM   40  C22 UNL     1       0.291   1.292  11.084  1.00  0.00    -0.013 C 
HETATM   41  C23 UNL     1      -0.358   2.618  10.788  1.00  0.00     0.010 C 
HETATM   42  C27 UNL     1       4.917   0.635  11.737  1.00  0.00     0.118 C 
HETATM   43  C25 UNL     1       0.488  -0.024  13.138  1.00  0.00     0.012 C 
BRANCH  42  44
HETATM   44  C28 UNL     1       6.066   1.468  11.254  1.00  0.00     0.225 C 
HETATM   45  O5  UNL     1       7.243   1.332  11.664  1.00  0.00    -0.273 OA
HETATM   46  N5  UNL     1       5.819   2.469  10.276  1.00  0.00    -0.343 N 
ATOM     47  H5  UNL     1       4.863   2.582   9.939  1.00  0.00     0.163 HD
BRANCH  46  48
HETATM   48  C29 UNL     1       6.835   3.334   9.731  1.00  0.00     0.111 C 
HETATM   49  C31 UNL     1       8.176   2.668   9.582  1.00  0.00     0.040 C 
HETATM   50  C32 UNL     1       8.778   3.194   8.299  1.00  0.00     0.003 C 
HETATM   51  C33 UNL     1       7.597   3.522   7.445  1.00  0.00     0.003 C 
HETATM   52  C34 UNL     1       6.457   3.866   8.368  1.00  0.00     0.040 C 
BRANCH  48  53
HETATM   53  C30 UNL     1       7.015   4.497  10.627  1.00  0.00     0.259 C 
HETATM   54  N6  UNL     1       5.857   5.105  11.170  1.00  0.00    -0.060 NA
HETATM   55  O6  UNL     1       8.177   4.902  10.873  1.00  0.00    -0.274 OA
ENDBRANCH  48  53
ENDBRANCH  46  48
ENDBRANCH  42  44
ENDBRANCH   3  31
TORSDOF 13
ENDMDL
MODEL 2
REMARK VINA RESULT: -10.161009041      2.050      5.796
REMARK  13 active torsions:
REMARK  status: ('A' for Active; 'I' for Inactive)
REMARK    1  A    between atoms: C2_2  and  C4_4 
REMARK    2  A    between atoms: C4_4  and  C5_5 
REMARK    3  A    between atoms: C5_5  and  C35_53 
REMARK       I    between atoms: N1_6  and  C6_8 
REMARK    4  A    between atoms: C6_8  and  C7_10 
REMARK    5  A    between atoms: C7_10  and  C8_11 
REMARK    6  A    between atoms: C7_10  and  N3_24 
REMARK    7  A    between atoms: C8_11  and  C9_12 
REMARK    8  A    between atoms: C9_12  and  C10_13 
REMARK       I    between atoms: C10_13  and  N2_15 
REMARK    9  A    between atoms: C11_16  and  O3_17 
REMARK       I    between atoms: N3_24  and  C17_26 
REMARK   10  A    between atoms: C17_26  and  C18_28 
REMARK   11  A    between atoms: C27_40  and  C28_41 
REMARK       I    between atoms: C28_41  and  N5_43 
REMARK   12  A    between atoms: N5_43  and  C29_45 
REMARK   13  A    between atoms: C29_45  and  C30_46 
ROOT
HETATM    1  N3  UNL     1       5.732  -1.028  13.834  1.00  0.00    -0.346 N 
ATOM      2  H3  UNL     1       5.530  -0.101  14.207  1.00  0.00     0.163 HD
HETATM    3  C17 UNL     1       5.984  -1.183  12.441  1.00  0.00     0.250 C 
HETATM    4  O4  UNL     1       6.231  -2.346  12.026  1.00  0.00    -0.271 OA
ENDROOT
BRANCH   1   5
HETATM    5  C7  UNL     1       5.755  -2.173  14.739  1.00  0.00     0.177 C 
BRANCH   5   6
HETATM    6  C6  UNL     1       7.108  -2.204  15.443  1.00  0.00     0.244 C 
HETATM    7  N1  UNL     1       7.519  -3.307  16.142  1.00  0.00    -0.324 N 
HETATM    8  C5  UNL     1       8.343  -4.248  15.913  1.00  0.00     0.077 C 
ATOM      9  H1  UNL     1       7.062  -3.394  17.049  1.00  0.00     0.169 HD
HETATM   10  O1  UNL     1       7.805  -1.175  15.345  1.00  0.00    -0.271 OA
BRANCH   8  11
HETATM   11  C4  UNL     1       8.485  -5.264  16.967  1.00  0.00     0.066 C 
BRANCH  11  12
HETATM   12  C2  UNL     1       9.530  -6.290  16.820  1.00  0.00    -0.017 C 
HETATM   13  C1  UNL     1       9.073  -7.680  17.235  1.00  0.00     0.010 C 
HETATM   14  C3  UNL     1      10.899  -6.023  17.321  1.00  0.00     0.010 C 
ENDBRANCH  11  12
ENDBRANCH   8  11
BRANCH   8  15
HETATM   15  C35 UNL     1       9.104  -4.287  14.702  1.00  0.00     0.277 C 
HETATM   16  N7  UNL     1      10.343  -3.592  14.522  1.00  0.00    -0.056 NA
HETATM   17  O7  UNL     1       8.709  -4.952  13.700  1.00  0.00    -0.270 OA
ENDBRANCH   8  15
ENDBRANCH   5   6
BRANCH   5  18
HETATM   18  C8  UNL     1       4.684  -2.144  15.766  1.00  0.00     0.044 C 
BRANCH  18  19
HETATM   19  C9  UNL     1       3.360  -2.659  15.335  1.00  0.00     0.105 C 
BRANCH  19  20
HETATM   20  C10 UNL     1       3.234  -4.105  15.170  1.00  0.00     0.222 C 
HETATM   21  O2  UNL     1       2.656  -4.606  14.172  1.00  0.00    -0.273 OA
HETATM   22  N2  UNL     1       3.746  -5.033  16.113  1.00  0.00    -0.320 N 
HETATM   23  C11 UNL     1       4.468  -4.914  17.358  1.00  0.00     0.229 C 
HETATM   24  C16 UNL     1       3.803  -6.450  16.275  1.00  0.00     0.098 C 
HETATM   25  C12 UNL     1       5.006  -6.347  17.198  1.00  0.00     0.057 C 
HETATM   26  C13 UNL     1       4.771  -7.233  18.372  1.00  0.00     0.011 C 
HETATM   27  C14 UNL     1       3.598  -8.087  17.954  1.00  0.00     0.003 C 
HETATM   28  C15 UNL     1       2.783  -7.114  17.136  1.00  0.00     0.026 C 
BRANCH  23  29
HETATM   29  O3  UNL     1       3.744  -4.707  18.503  1.00  0.00    -0.376 OA
ATOM     30  H3  UNL     1       3.326  -5.458  18.907  1.00  0.00     0.212 HD
ENDBRANCH  23  29
ENDBRANCH  19  20
ENDBRANCH  18  19
ENDBRANCH   5  18
ENDBRANCH   1   5
BRANCH   3  31
HETATM   31  C18 UNL     1       5.948   0.003  11.559  1.00  0.00     0.290 C 
HETATM   32  N4  UNL     1       7.341   0.194  11.112  1.00  0.00    -0.057 N 
HETATM   33  C19 UNL     1       7.358   1.054   9.975  1.00  0.00     0.195 C 
ATOM     34  H42 UNL     1       7.944   0.533  11.862  1.00  0.00     0.278 HD
ATOM     35  H41 UNL     1       7.815  -0.691  10.933  1.00  0.00     0.278 HD
HETATM   36  C20 UNL     1       6.738   2.395  10.296  1.00  0.00     0.018 C 
HETATM   37  C24 UNL     1       8.743   1.280   9.473  1.00  0.00     0.016 C 
HETATM   38  C21 UNL     1       7.856   3.422  10.152  1.00  0.00     0.011 C 
HETATM   39  C26 UNL     1       6.232   2.474  11.699  1.00  0.00     0.023 C 
HETATM   40  C22 UNL     1       8.901   2.756   9.281  1.00  0.00    -0.013 C 
HETATM   41  C23 UNL     1       8.707   3.086   7.824  1.00  0.00     0.010 C 
HETATM   42  C27 UNL     1       5.497   1.266  12.188  1.00  0.00     0.118 C 
HETATM   43  C25 UNL     1       9.816   0.790  10.418  1.00  0.00     0.012 C 
BRANCH  42  44
HETATM   44  C28 UNL     1       4.014   1.465  12.086  1.00  0.00     0.225 C 
HETATM   45  O5  UNL     1       3.259   1.581  13.080  1.00  0.00    -0.273 OA
HETATM   46  N5  UNL     1       3.423   1.527  10.795  1.00  0.00    -0.343 N 
ATOM     47  H5  UNL     1       4.034   1.434   9.985  1.00  0.00     0.163 HD
BRANCH  46  48
HETATM   48  C29 UNL     1       2.013   1.713  10.562  1.00  0.00     0.111 C 
HETATM   49  C31 UNL     1       1.146   0.716  11.282  1.00  0.00     0.040 C 
HETATM   50  C32 UNL     1      -0.084   1.465  11.742  1.00  0.00     0.003 C 
HETATM   51  C33 UNL     1       0.390   2.869  11.932  1.00  0.00     0.003 C 
HETATM   52  C34 UNL     1       1.543   3.086  10.985  1.00  0.00     0.040 C 
BRANCH  48  53
HETATM   53  C30 UNL     1       1.736   1.575   9.116  1.00  0.00     0.259 C 
HETATM   54  N6  UNL     1       1.447   2.750   8.379  1.00  0.00    -0.060 NA
HETATM   55  O6  UNL     1       1.767   0.434   8.595  1.00  0.00    -0.274 OA
ENDBRANCH  48  53
ENDBRANCH  46  48
ENDBRANCH  42  44
ENDBRANCH   3  31
TORSDOF 13
ENDMDL
MODEL 3
REMARK VINA RESULT: -9.952155545      1.945      5.764
REMARK  13 active torsions:
REMARK  status: ('A' for Active; 'I' for Inactive)
REMARK    1  A    between atoms: C2_2  and  C4_4 
REMARK    2  A    between atoms: C4_4  and  C5_5 
REMARK    3  A    between atoms: C5_5  and  C35_53 
REMARK       I    between atoms: N1_6  and  C6_8 
REMARK    4  A    between atoms: C6_8  and  C7_10 
REMARK    5  A    between atoms: C7_10  and  C8_11 
REMARK    6  A    between atoms: C7_10  and  N3_24 
REMARK    7  A    between atoms: C8_11  and  C9_12 
REMARK    8  A    between atoms: C9_12  and  C10_13 
REMARK       I    between atoms: C10_13  and  N2_15 
REMARK    9  A    between atoms: C11_16  and  O3_17 
REMARK       I    between atoms: N3_24  and  C17_26 
REMARK   10  A    between atoms: C17_26  and  C18_28 
REMARK   11  A    between atoms: C27_40  and  C28_41 
REMARK       I    between atoms: C28_41  and  N5_43 
REMARK   12  A    between atoms: N5_43  and  C29_45 
REMARK   13  A    between atoms: C29_45  and  C30_46 
ROOT
HETATM    1  N3  UNL     1       5.713  -1.232  13.856  1.00  0.00    -0.346 N 
ATOM      2  H3  UNL     1       5.286  -0.386  14.231  1.00  0.00     0.163 HD
HETATM    3  C17 UNL     1       6.209  -1.233  12.520  1.00  0.00     0.250 C 
HETATM    4  O4  UNL     1       6.732  -2.298  12.101  1.00  0.00    -0.271 OA
ENDROOT
BRANCH   1   5
HETATM    5  C7  UNL     1       5.806  -2.421  14.698  1.00  0.00     0.177 C 
BRANCH   5   6
HETATM    6  C6  UNL     1       7.140  -2.387  15.436  1.00  0.00     0.244 C 
HETATM    7  N1  UNL     1       7.576  -3.463  16.162  1.00  0.00    -0.324 N 
HETATM    8  C5  UNL     1       8.441  -4.373  15.969  1.00  0.00     0.077 C 
ATOM      9  H1  UNL     1       7.099  -3.553  17.059  1.00  0.00     0.169 HD
HETATM   10  O1  UNL     1       7.798  -1.333  15.338  1.00  0.00    -0.271 OA
BRANCH   8  11
HETATM   11  C4  UNL     1       8.596  -5.366  17.043  1.00  0.00     0.066 C 
BRANCH  11  12
HETATM   12  C2  UNL     1       9.580  -6.447  16.867  1.00  0.00    -0.017 C 
HETATM   13  C1  UNL     1       9.082  -7.801  17.347  1.00  0.00     0.010 C 
HETATM   14  C3  UNL     1      10.987  -6.236  17.280  1.00  0.00     0.010 C 
ENDBRANCH  11  12
ENDBRANCH   8  11
BRANCH   8  15
HETATM   15  C35 UNL     1       9.234  -4.401  14.778  1.00  0.00     0.277 C 
HETATM   16  N7  UNL     1      10.414  -3.611  14.594  1.00  0.00    -0.056 NA
HETATM   17  O7  UNL     1       8.923  -5.141  13.800  1.00  0.00    -0.270 OA
ENDBRANCH   8  15
ENDBRANCH   5   6
BRANCH   5  18
HETATM   18  C8  UNL     1       4.712  -2.531  15.695  1.00  0.00     0.044 C 
BRANCH  18  19
HETATM   19  C9  UNL     1       3.399  -2.980  15.169  1.00  0.00     0.105 C 
BRANCH  19  20
HETATM   20  C10 UNL     1       3.156  -4.420  15.136  1.00  0.00     0.222 C 
HETATM   21  O2  UNL     1       2.458  -4.950  14.234  1.00  0.00    -0.273 OA
HETATM   22  N2  UNL     1       3.683  -5.311  16.106  1.00  0.00    -0.320 N 
HETATM   23  C11 UNL     1       4.520  -5.152  17.273  1.00  0.00     0.229 C 
HETATM   24  C16 UNL     1       3.654  -6.711  16.380  1.00  0.00     0.098 C 
HETATM   25  C12 UNL     1       4.939  -6.631  17.188  1.00  0.00     0.057 C 
HETATM   26  C13 UNL     1       4.747  -7.404  18.448  1.00  0.00     0.011 C 
HETATM   27  C14 UNL     1       3.484  -8.194  18.201  1.00  0.00     0.003 C 
HETATM   28  C15 UNL     1       2.670  -7.225  17.375  1.00  0.00     0.026 C 
BRANCH  23  29
HETATM   29  O3  UNL     1       3.917  -4.803  18.453  1.00  0.00    -0.376 OA
ATOM     30  H3  UNL     1       4.367  -5.012  19.262  1.00  0.00     0.212 HD
ENDBRANCH  23  29
ENDBRANCH  19  20
ENDBRANCH  18  19
ENDBRANCH   5  18
ENDBRANCH   1   5
BRANCH   3  31
HETATM   31  C18 UNL     1       6.094  -0.008  11.701  1.00  0.00     0.290 C 
HETATM   32  N4  UNL     1       7.428   0.181  11.099  1.00  0.00    -0.057 N 
HETATM   33  C19 UNL     1       7.327   1.091  10.006  1.00  0.00     0.195 C 
ATOM     34  H42 UNL     1       8.123   0.476  11.785  1.00  0.00     0.278 HD
ATOM     35  H41 UNL     1       7.858  -0.702  10.827  1.00  0.00     0.278 HD
HETATM   36  C20 UNL     1       6.779   2.426  10.457  1.00  0.00     0.018 C 
HETATM   37  C24 UNL     1       8.648   1.317   9.352  1.00  0.00     0.016 C 
HETATM   38  C21 UNL     1       7.894   3.440  10.224  1.00  0.00     0.011 C 
HETATM   39  C26 UNL     1       6.445   2.449  11.912  1.00  0.00     0.023 C 
HETATM   40  C22 UNL     1       8.813   2.797   9.205  1.00  0.00    -0.013 C 
HETATM   41  C23 UNL     1       8.454   3.196   7.798  1.00  0.00     0.010 C 
HETATM   42  C27 UNL     1       5.749   1.233  12.434  1.00  0.00     0.118 C 
HETATM   43  C25 UNL     1       9.815   0.768  10.139  1.00  0.00     0.012 C 
BRANCH  42  44
HETATM   44  C28 UNL     1       4.269   1.460  12.519  1.00  0.00     0.225 C 
HETATM   45  O5  UNL     1       3.618   1.407  13.589  1.00  0.00    -0.273 OA
HETATM   46  N5  UNL     1       3.555   1.753  11.326  1.00  0.00    -0.343 N 
ATOM     47  H5  UNL     1       4.080   1.799  10.453  1.00  0.00     0.163 HD
BRANCH  46  48
HETATM   48  C29 UNL     1       2.134   1.990  11.272  1.00  0.00     0.111 C 
HETATM   49  C31 UNL     1       1.524   1.694   9.929  1.00  0.00     0.040 C 
HETATM   50  C32 UNL     1       0.168   1.080  10.197  1.00  0.00     0.003 C 
HETATM   51  C33 UNL     1       0.324   0.407  11.522  1.00  0.00     0.003 C 
HETATM   52  C34 UNL     1       1.382   1.160  12.287  1.00  0.00     0.040 C 
BRANCH  48  53
HETATM   53  C30 UNL     1       1.866   3.413  11.576  1.00  0.00     0.259 C 
HETATM   54  N6  UNL     1       2.890   4.354  11.308  1.00  0.00    -0.060 NA
HETATM   55  O6  UNL     1       0.752   3.734  12.056  1.00  0.00    -0.274 OA
ENDBRANCH  48  53
ENDBRANCH  46  48
ENDBRANCH  42  44
ENDBRANCH   3  31
TORSDOF 13
ENDMDL
MODEL 4
REMARK VINA RESULT: -9.940150419      1.879      5.815
REMARK  13 active torsions:
REMARK  status: ('A' for Active; 'I' for Inactive)
REMARK    1  A    between atoms: C2_2  and  C4_4 
REMARK    2  A    between atoms: C4_4  and  C5_5 
REMARK    3  A    between atoms: C5_5  and  C35_53 
REMARK       I    between atoms: N1_6  and  C6_8 
REMARK    4  A    between atoms: C6_8  and  C7_10 
REMARK    5  A    between atoms: C7_10  and  C8_11 
REMARK    6  A    between atoms: C7_10  and  N3_24 
REMARK    7  A    between atoms: C8_11  and  C9_12 
REMARK    8  A    between atoms: C9_12  and  C10_13 
REMARK       I    between atoms: C10_13  and  N2_15 
REMARK    9  A    between atoms: C11_16  and  O3_17 
REMARK       I    between atoms: N3_24  and  C17_26 
REMARK   10  A    between atoms: C17_26  and  C18_28 
REMARK   11  A    between atoms: C27_40  and  C28_41 
REMARK       I    between atoms: C28_41  and  N5_43 
REMARK   12  A    between atoms: N5_43  and  C29_45 
REMARK   13  A    between atoms: C29_45  and  C30_46 
ROOT
HETATM    1  N3  UNL     1       5.539  -1.574  13.424  1.00  0.00    -0.346 N 
ATOM      2  H3  UNL     1       4.765  -0.950  13.646  1.00  0.00     0.163 HD
HETATM    3  C17 UNL     1       6.444  -1.222  12.381  1.00  0.00     0.250 C 
HETATM    4  O4  UNL     1       7.386  -2.022  12.143  1.00  0.00    -0.271 OA
ENDROOT
BRANCH   1   5
HETATM    5  C7  UNL     1       5.700  -2.812  14.179  1.00  0.00     0.177 C 
BRANCH   5   6
HETATM    6  C6  UNL     1       6.448  -2.496  15.470  1.00  0.00     0.244 C 
HETATM    7  N1  UNL     1       7.009  -3.490  16.226  1.00  0.00    -0.324 N 
HETATM    8  C5  UNL     1       8.196  -3.910  16.403  1.00  0.00     0.077 C 
ATOM      9  H1  UNL     1       6.320  -4.010  16.771  1.00  0.00     0.169 HD
HETATM   10  O1  UNL     1       6.513  -1.293  15.790  1.00  0.00    -0.271 OA
BRANCH   8  11
HETATM   11  C4  UNL     1       8.359  -5.038  17.332  1.00  0.00     0.066 C 
BRANCH  11  12
HETATM   12  C2  UNL     1       9.313  -6.105  16.985  1.00  0.00    -0.017 C 
HETATM   13  C1  UNL     1       8.812  -7.498  17.330  1.00  0.00     0.010 C 
HETATM   14  C3  UNL     1      10.742  -5.962  17.352  1.00  0.00     0.010 C 
ENDBRANCH  11  12
ENDBRANCH   8  11
BRANCH   8  15
HETATM   15  C35 UNL     1       9.306  -3.290  15.746  1.00  0.00     0.277 C 
HETATM   16  N7  UNL     1       9.591  -3.450  14.351  1.00  0.00    -0.056 NA
HETATM   17  O7  UNL     1      10.114  -2.551  16.379  1.00  0.00    -0.270 OA
ENDBRANCH   8  15
ENDBRANCH   5   6
BRANCH   5  18
HETATM   18  C8  UNL     1       4.416  -3.473  14.522  1.00  0.00     0.044 C 
BRANCH  18  19
HETATM   19  C9  UNL     1       3.571  -2.768  15.519  1.00  0.00     0.105 C 
BRANCH  19  20
HETATM   20  C10 UNL     1       3.140  -3.536  16.684  1.00  0.00     0.222 C 
HETATM   21  O2  UNL     1       2.525  -2.996  17.638  1.00  0.00    -0.273 OA
HETATM   22  N2  UNL     1       3.383  -4.928  16.819  1.00  0.00    -0.320 N 
HETATM   23  C11 UNL     1       4.022  -5.926  15.993  1.00  0.00     0.229 C 
HETATM   24  C16 UNL     1       3.123  -5.956  17.773  1.00  0.00     0.098 C 
HETATM   25  C12 UNL     1       3.238  -7.039  16.712  1.00  0.00     0.057 C 
HETATM   26  C13 UNL     1       4.082  -8.139  17.258  1.00  0.00     0.011 C 
HETATM   27  C14 UNL     1       4.165  -7.836  18.735  1.00  0.00     0.003 C 
HETATM   28  C15 UNL     1       4.197  -6.325  18.739  1.00  0.00     0.026 C 
BRANCH  23  29
HETATM   29  O3  UNL     1       5.384  -6.051  16.075  1.00  0.00    -0.376 OA
ATOM     30  H3  UNL     1       5.917  -5.429  15.594  1.00  0.00     0.212 HD
ENDBRANCH  23  29
ENDBRANCH  19  20
ENDBRANCH  18  19
ENDBRANCH   5  18
ENDBRANCH   1   5
BRANCH   3  31
HETATM   31  C18 UNL     1       6.244   0.040  11.639  1.00  0.00     0.290 C 
HETATM   32  N4  UNL     1       7.534   0.308  10.976  1.00  0.00    -0.057 N 
HETATM   33  C19 UNL     1       7.342   1.272   9.943  1.00  0.00     0.195 C 
ATOM     34  H42 UNL     1       8.257   0.590  11.638  1.00  0.00     0.278 HD
ATOM     35  H41 UNL     1       7.976  -0.544  10.632  1.00  0.00     0.278 HD
HETATM   36  C20 UNL     1       6.778   2.560  10.497  1.00  0.00     0.018 C 
HETATM   37  C24 UNL     1       8.616   1.579   9.231  1.00  0.00     0.016 C 
HETATM   38  C21 UNL     1       7.846   3.624  10.261  1.00  0.00     0.011 C 
HETATM   39  C26 UNL     1       6.528   2.493  11.968  1.00  0.00     0.023 C 
HETATM   40  C22 UNL     1       8.725   3.070   9.159  1.00  0.00    -0.013 C 
HETATM   41  C23 UNL     1       8.275   3.531   7.798  1.00  0.00     0.010 C 
HETATM   42  C27 UNL     1       5.901   1.227  12.458  1.00  0.00     0.118 C 
HETATM   43  C25 UNL     1       9.842   1.029   9.920  1.00  0.00     0.012 C 
BRANCH  42  44
HETATM   44  C28 UNL     1       4.422   1.397  12.637  1.00  0.00     0.225 C 
HETATM   45  O5  UNL     1       3.847   1.356  13.751  1.00  0.00    -0.273 OA
HETATM   46  N5  UNL     1       3.617   1.619  11.487  1.00  0.00    -0.343 N 
ATOM     47  H5  UNL     1       4.081   1.654  10.579  1.00  0.00     0.163 HD
BRANCH  46  48
HETATM   48  C29 UNL     1       2.188   1.797  11.523  1.00  0.00     0.111 C 
HETATM   49  C31 UNL     1       1.486   1.293  10.291  1.00  0.00     0.040 C 
HETATM   50  C32 UNL     1       0.186   0.676  10.756  1.00  0.00     0.003 C 
HETATM   51  C33 UNL     1       0.479   0.202  12.142  1.00  0.00     0.003 C 
HETATM   52  C34 UNL     1       1.558   1.092  12.703  1.00  0.00     0.040 C 
BRANCH  48  53
HETATM   53  C30 UNL     1       1.879   3.237  11.650  1.00  0.00     0.259 C 
HETATM   54  N6  UNL     1       2.867   4.167  11.244  1.00  0.00    -0.060 NA
HETATM   55  O6  UNL     1       0.764   3.584  12.109  1.00  0.00    -0.274 OA
ENDBRANCH  48  53
ENDBRANCH  46  48
ENDBRANCH  42  44
ENDBRANCH   3  31
TORSDOF 13
ENDMDL
MODEL 5
REMARK VINA RESULT: -9.845417053      2.006      5.788
REMARK  13 active torsions:
REMARK  status: ('A' for Active; 'I' for Inactive)
REMARK    1  A    between atoms: C2_2  and  C4_4 
REMARK    2  A    between atoms: C4_4  and  C5_5 
REMARK    3  A    between atoms: C5_5  and  C35_53 
REMARK       I    between atoms: N1_6  and  C6_8 
REMARK    4  A    between atoms: C6_8  and  C7_10 
REMARK    5  A    between atoms: C7_10  and  C8_11 
REMARK    6  A    between atoms: C7_10  and  N3_24 
REMARK    7  A    between atoms: C8_11  and  C9_12 
REMARK    8  A    between atoms: C9_12  and  C10_13 
REMARK       I    between atoms: C10_13  and  N2_15 
REMARK    9  A    between atoms: C11_16  and  O3_17 
REMARK       I    between atoms: N3_24  and  C17_26 
REMARK   10  A    between atoms: C17_26  and  C18_28 
REMARK   11  A    between atoms: C27_40  and  C28_41 
REMARK       I    between atoms: C28_41  and  N5_43 
REMARK   12  A    between atoms: N5_43  and  C29_45 
REMARK   13  A    between atoms: C29_45  and  C30_46 
ROOT
HETATM    1  N3  UNL     1       5.655  -1.130  13.854  1.00  0.00    -0.346 N 
ATOM      2  H3  UNL     1       5.330  -0.249  14.252  1.00  0.00     0.163 HD
HETATM    3  C17 UNL     1       6.035  -1.180  12.482  1.00  0.00     0.250 C 
HETATM    4  O4  UNL     1       6.432  -2.287  12.036  1.00  0.00    -0.271 OA
ENDROOT
BRANCH   1   5
HETATM    5  C7  UNL     1       5.723  -2.316  14.702  1.00  0.00     0.177 C 
BRANCH   5   6
HETATM    6  C6  UNL     1       7.064  -2.316  15.426  1.00  0.00     0.244 C 
HETATM    7  N1  UNL     1       7.494  -3.412  16.124  1.00  0.00    -0.324 N 
HETATM    8  C5  UNL     1       8.345  -4.330  15.902  1.00  0.00     0.077 C 
ATOM      9  H1  UNL     1       7.025  -3.517  17.024  1.00  0.00     0.169 HD
HETATM   10  O1  UNL     1       7.736  -1.268  15.345  1.00  0.00    -0.271 OA
BRANCH   8  11
HETATM   11  C4  UNL     1       8.498  -5.348  16.953  1.00  0.00     0.066 C 
BRANCH  11  12
HETATM   12  C2  UNL     1       9.573  -6.345  16.816  1.00  0.00    -0.017 C 
HETATM   13  C1  UNL     1       9.155  -7.745  17.239  1.00  0.00     0.010 C 
HETATM   14  C3  UNL     1      10.932  -6.035  17.319  1.00  0.00     0.010 C 
ENDBRANCH  11  12
ENDBRANCH   8  11
BRANCH   8  15
HETATM   15  C35 UNL     1       9.125  -4.342  14.702  1.00  0.00     0.277 C 
HETATM   16  N7  UNL     1      10.345  -3.609  14.544  1.00  0.00    -0.056 NA
HETATM   17  O7  UNL     1       8.766  -5.015  13.693  1.00  0.00    -0.270 OA
ENDBRANCH   8  15
ENDBRANCH   5   6
BRANCH   5  18
HETATM   18  C8  UNL     1       4.637  -2.390  15.711  1.00  0.00     0.044 C 
BRANCH  18  19
HETATM   19  C9  UNL     1       3.329  -2.893  15.220  1.00  0.00     0.105 C 
BRANCH  19  20
HETATM   20  C10 UNL     1       3.162  -4.343  15.151  1.00  0.00     0.222 C 
HETATM   21  O2  UNL     1       2.532  -4.889  14.209  1.00  0.00    -0.273 OA
HETATM   22  N2  UNL     1       3.690  -5.225  16.129  1.00  0.00    -0.320 N 
HETATM   23  C11 UNL     1       4.464  -5.048  17.335  1.00  0.00     0.229 C 
HETATM   24  C16 UNL     1       3.719  -6.629  16.377  1.00  0.00     0.098 C 
HETATM   25  C12 UNL     1       4.961  -6.502  17.244  1.00  0.00     0.057 C 
HETATM   26  C13 UNL     1       4.752  -7.307  18.480  1.00  0.00     0.011 C 
HETATM   27  C14 UNL     1       3.543  -8.154  18.163  1.00  0.00     0.003 C 
HETATM   28  C15 UNL     1       2.719  -7.211  17.317  1.00  0.00     0.026 C 
BRANCH  23  29
HETATM   29  O3  UNL     1       3.792  -4.751  18.492  1.00  0.00    -0.376 OA
ATOM     30  H3  UNL     1       3.872  -3.871  18.840  1.00  0.00     0.212 HD
ENDBRANCH  23  29
ENDBRANCH  19  20
ENDBRANCH  18  19
ENDBRANCH   5  18
ENDBRANCH   1   5
BRANCH   3  31
HETATM   31  C18 UNL     1       5.949   0.044  11.658  1.00  0.00     0.290 C 
HETATM   32  N4  UNL     1       7.295   0.215  11.078  1.00  0.00    -0.057 N 
HETATM   33  C19 UNL     1       7.225   1.124   9.982  1.00  0.00     0.195 C 
ATOM     34  H42 UNL     1       7.982   0.502  11.775  1.00  0.00     0.278 HD
ATOM     35  H41 UNL     1       7.718  -0.675  10.816  1.00  0.00     0.278 HD
HETATM   36  C20 UNL     1       6.686   2.466  10.421  1.00  0.00     0.018 C 
HETATM   37  C24 UNL     1       8.559   1.331   9.350  1.00  0.00     0.016 C 
HETATM   38  C21 UNL     1       7.818   3.465  10.205  1.00  0.00     0.011 C 
HETATM   39  C26 UNL     1       6.329   2.497  11.870  1.00  0.00     0.023 C 
HETATM   40  C22 UNL     1       8.746   2.808   9.203  1.00  0.00    -0.013 C 
HETATM   41  C23 UNL     1       8.416   3.208   7.789  1.00  0.00     0.010 C 
HETATM   42  C27 UNL     1       5.608   1.292  12.383  1.00  0.00     0.118 C 
HETATM   43  C25 UNL     1       9.705   0.768  10.157  1.00  0.00     0.012 C 
BRANCH  42  44
HETATM   44  C28 UNL     1       4.130   1.538  12.442  1.00  0.00     0.225 C 
HETATM   45  O5  UNL     1       3.512   1.803  13.500  1.00  0.00    -0.273 OA
HETATM   46  N5  UNL     1       3.378   1.470  11.238  1.00  0.00    -0.343 N 
ATOM     47  H5  UNL     1       3.877   1.255  10.375  1.00  0.00     0.163 HD
BRANCH  46  48
HETATM   48  C29 UNL     1       1.955   1.685  11.161  1.00  0.00     0.111 C 
HETATM   49  C31 UNL     1       1.532   3.067  11.578  1.00  0.00     0.040 C 
HETATM   50  C32 UNL     1       0.402   3.469  10.658  1.00  0.00     0.003 C 
HETATM   51  C33 UNL     1       0.675   2.723   9.392  1.00  0.00     0.003 C 
HETATM   52  C34 UNL     1       1.423   1.469   9.763  1.00  0.00     0.040 C 
BRANCH  48  53
HETATM   53  C30 UNL     1       1.269   0.724  12.051  1.00  0.00     0.259 C 
HETATM   54  N6  UNL     1       0.294   1.227  12.947  1.00  0.00    -0.060 NA
HETATM   55  O6  UNL     1       1.570  -0.492  11.983  1.00  0.00    -0.274 OA
ENDBRANCH  48  53
ENDBRANCH  46  48
ENDBRANCH  42  44
ENDBRANCH   3  31
TORSDOF 13
ENDMDL
