MODEL 1
REMARK VINA RESULT: -4.368775346      0.000      0.000
REMARK  4 active torsions:
REMARK  status: ('A' for Active; 'I' for Inactive)
REMARK    1  A    between atoms: C2_4  and  C3_5 
REMARK    2  A    between atoms: C3_5  and  C4_6 
REMARK    3  A    between atoms: C4_6  and  O1_7 
REMARK    4  A    between atoms: O1_7  and  C5_8 
ROOT
HETATM    1  C1  UNL     1      22.603  27.196  24.193  1.00  0.00     0.180 A 
HETATM    2  N1  UNL     1      22.896  28.503  24.274  1.00  0.00    -0.355 N 
ATOM      3  H1  UNL     1      22.359  29.203  24.786  1.00  0.00     0.166 HD
HETATM    4  C2  UNL     1      24.035  28.741  23.555  1.00  0.00     0.027 A 
HETATM    5  C6  UNL     1      24.389  27.516  23.056  1.00  0.00     0.114 A 
HETATM    6  N4  UNL     1      23.519  26.567  23.440  1.00  0.00    -0.360 N 
ATOM      7  H4  UNL     1      23.547  25.575  23.207  1.00  0.00     0.166 HD
ENDROOT
BRANCH   4   8
HETATM    8  C3  UNL     1      24.667  30.065  23.401  1.00  0.00     0.084 C 
BRANCH   8   9
HETATM    9  C4  UNL     1      25.481  30.498  24.585  1.00  0.00     0.177 C 
BRANCH   9  10
HETATM   10  O1  UNL     1      25.164  29.853  25.723  1.00  0.00    -0.353 OA
BRANCH  10  11
HETATM   11  C5  UNL     1      24.400  30.473  26.661  1.00  0.00     0.342 A 
HETATM   12  N2  UNL     1      23.011  30.578  26.618  1.00  0.00    -0.094 NA
HETATM   13  N3  UNL     1      23.533  29.607  27.436  1.00  0.00    -0.094 NA
ENDBRANCH  10  11
ENDBRANCH   9  10
ENDBRANCH   8   9
ENDBRANCH   4   8
TORSDOF 4
ENDMDL
MODEL 2
REMARK VINA RESULT: -4.283716422      2.796      5.455
REMARK  4 active torsions:
REMARK  status: ('A' for Active; 'I' for Inactive)
REMARK    1  A    between atoms: C2_4  and  C3_5 
REMARK    2  A    between atoms: C3_5  and  C4_6 
REMARK    3  A    between atoms: C4_6  and  O1_7 
REMARK    4  A    between atoms: O1_7  and  C5_8 
ROOT
HETATM    1  C1  UNL     1      23.494  34.609  28.174  1.00  0.00     0.180 A 
HETATM    2  N1  UNL     1      22.829  33.466  28.401  1.00  0.00    -0.355 N 
ATOM      3  H1  UNL     1      22.136  33.316  29.134  1.00  0.00     0.166 HD
HETATM    4  C2  UNL     1      23.235  32.536  27.484  1.00  0.00     0.027 A 
HETATM    5  C6  UNL     1      24.163  33.189  26.718  1.00  0.00     0.114 A 
HETATM    6  N4  UNL     1      24.327  34.456  27.134  1.00  0.00    -0.360 N 
ATOM      7  H4  UNL     1      24.956  35.156  26.740  1.00  0.00     0.166 HD
ENDROOT
BRANCH   4   8
HETATM    8  C3  UNL     1      22.733  31.149  27.420  1.00  0.00     0.084 C 
BRANCH   8   9
HETATM    9  C4  UNL     1      23.796  30.124  27.157  1.00  0.00     0.177 C 
BRANCH   9  10
HETATM   10  O1  UNL     1      23.644  29.475  25.987  1.00  0.00    -0.353 OA
BRANCH  10  11
HETATM   11  C5  UNL     1      24.265  29.939  24.871  1.00  0.00     0.342 A 
HETATM   12  N2  UNL     1      25.646  29.995  24.689  1.00  0.00    -0.094 NA
HETATM   13  N3  UNL     1      24.984  28.948  24.095  1.00  0.00    -0.094 NA
ENDBRANCH  10  11
ENDBRANCH   9  10
ENDBRANCH   8   9
ENDBRANCH   4   8
TORSDOF 4
ENDMDL
MODEL 3
REMARK VINA RESULT: -4.253491234      3.892      5.268
REMARK  4 active torsions:
REMARK  status: ('A' for Active; 'I' for Inactive)
REMARK    1  A    between atoms: C2_4  and  C3_5 
REMARK    2  A    between atoms: C3_5  and  C4_6 
REMARK    3  A    between atoms: C4_6  and  O1_7 
REMARK    4  A    between atoms: O1_7  and  C5_8 
ROOT
HETATM    1  C1  UNL     1      24.729  32.815  24.630  1.00  0.00     0.180 A 
HETATM    2  N1  UNL     1      24.312  32.705  25.900  1.00  0.00    -0.355 N 
ATOM      3  H1  UNL     1      24.078  31.834  26.378  1.00  0.00     0.166 HD
HETATM    4  C2  UNL     1      24.253  33.956  26.450  1.00  0.00     0.027 A 
HETATM    5  C6  UNL     1      24.653  34.794  25.443  1.00  0.00     0.114 A 
HETATM    6  N4  UNL     1      24.945  34.104  24.328  1.00  0.00    -0.360 N 
ATOM      7  H4  UNL     1      25.264  34.482  23.436  1.00  0.00     0.166 HD
ENDROOT
BRANCH   4   8
HETATM    8  C3  UNL     1      23.827  34.244  27.833  1.00  0.00     0.084 C 
BRANCH   8   9
HETATM    9  C4  UNL     1      22.813  33.280  28.375  1.00  0.00     0.177 C 
BRANCH   9  10
HETATM   10  O1  UNL     1      23.353  32.162  28.896  1.00  0.00    -0.353 OA
BRANCH  10  11
HETATM   11  C5  UNL     1      22.872  30.945  28.530  1.00  0.00     0.342 A 
HETATM   12  N2  UNL     1      22.591  30.558  27.221  1.00  0.00    -0.094 NA
HETATM   13  N3  UNL     1      23.777  30.119  27.756  1.00  0.00    -0.094 NA
ENDBRANCH  10  11
ENDBRANCH   9  10
ENDBRANCH   8   9
ENDBRANCH   4   8
TORSDOF 4
ENDMDL
MODEL 4
REMARK VINA RESULT: -4.245997340      3.579      4.559
REMARK  4 active torsions:
REMARK  status: ('A' for Active; 'I' for Inactive)
REMARK    1  A    between atoms: C2_4  and  C3_5 
REMARK    2  A    between atoms: C3_5  and  C4_6 
REMARK    3  A    between atoms: C4_6  and  O1_7 
REMARK    4  A    between atoms: O1_7  and  C5_8 
ROOT
HETATM    1  C1  UNL     1      24.317  34.167  26.094  1.00  0.00     0.180 A 
HETATM    2  N1  UNL     1      24.683  32.918  26.423  1.00  0.00    -0.355 N 
ATOM      3  H1  UNL     1      25.153  32.643  27.286  1.00  0.00     0.166 HD
HETATM    4  C2  UNL     1      24.320  32.076  25.409  1.00  0.00     0.027 A 
HETATM    5  C6  UNL     1      23.729  32.890  24.479  1.00  0.00     0.114 A 
HETATM    6  N4  UNL     1      23.724  34.169  24.890  1.00  0.00    -0.360 N 
ATOM      7  H4  UNL     1      23.348  34.974  24.391  1.00  0.00     0.166 HD
ENDROOT
BRANCH   4   8
HETATM    8  C3  UNL     1      24.564  30.620  25.401  1.00  0.00     0.084 C 
BRANCH   8   9
HETATM    9  C4  UNL     1      23.823  29.870  26.469  1.00  0.00     0.177 C 
BRANCH   9  10
HETATM   10  O1  UNL     1      22.782  30.550  26.984  1.00  0.00    -0.353 OA
BRANCH  10  11
HETATM   11  C5  UNL     1      22.704  30.753  28.326  1.00  0.00     0.342 A 
HETATM   12  N2  UNL     1      23.758  31.183  29.131  1.00  0.00    -0.094 NA
HETATM   13  N3  UNL     1      22.835  32.130  28.760  1.00  0.00    -0.094 NA
ENDBRANCH  10  11
ENDBRANCH   9  10
ENDBRANCH   8   9
ENDBRANCH   4   8
TORSDOF 4
ENDMDL
MODEL 5
REMARK VINA RESULT: -4.225548255      3.321      4.937
REMARK  4 active torsions:
REMARK  status: ('A' for Active; 'I' for Inactive)
REMARK    1  A    between atoms: C2_4  and  C3_5 
REMARK    2  A    between atoms: C3_5  and  C4_6 
REMARK    3  A    between atoms: C4_6  and  O1_7 
REMARK    4  A    between atoms: O1_7  and  C5_8 
ROOT
HETATM    1  C1  UNL     1      23.921  30.041  26.310  1.00  0.00     0.180 A 
HETATM    2  N1  UNL     1      23.630  31.346  26.189  1.00  0.00    -0.355 N 
ATOM      3  H1  UNL     1      23.772  31.913  25.353  1.00  0.00     0.166 HD
HETATM    4  C2  UNL     1      23.112  31.788  27.374  1.00  0.00     0.027 A 
HETATM    5  C6  UNL     1      23.115  30.685  28.186  1.00  0.00     0.114 A 
HETATM    6  N4  UNL     1      23.609  29.614  27.542  1.00  0.00    -0.360 N 
ATOM      7  H4  UNL     1      23.722  28.671  27.914  1.00  0.00     0.166 HD
ENDROOT
BRANCH   4   8
HETATM    8  C3  UNL     1      22.680  33.176  27.633  1.00  0.00     0.084 C 
BRANCH   8   9
HETATM    9  C4  UNL     1      23.807  34.161  27.725  1.00  0.00     0.177 C 
BRANCH   9  10
HETATM   10  O1  UNL     1      24.751  33.992  26.779  1.00  0.00    -0.353 OA
BRANCH  10  11
HETATM   11  C5  UNL     1      24.617  34.603  25.573  1.00  0.00     0.342 A 
HETATM   12  N2  UNL     1      25.671  34.936  24.724  1.00  0.00    -0.094 NA
HETATM   13  N3  UNL     1      24.966  33.798  24.420  1.00  0.00    -0.094 NA
ENDBRANCH  10  11
ENDBRANCH   9  10
ENDBRANCH   8   9
ENDBRANCH   4   8
TORSDOF 4
ENDMDL
