MODEL 1
REMARK VINA RESULT: -5.745299050      0.000      0.000
REMARK  1 active torsions:
REMARK  status: ('A' for Active; 'I' for Inactive)
REMARK    1  A    between atoms: O1_1  and  N1_3 
ROOT
HETATM    1  N1  UNL     1      -4.394   2.036  16.122  1.00  0.00    -0.149 N 
HETATM    2  N2  UNL     1      -3.732   3.007  15.518  1.00  0.00    -0.246 N 
ATOM      3  H2  UNL     1      -2.728   2.900  15.372  1.00  0.00     0.192 HD
HETATM    4  C1  UNL     1      -4.330   4.128  15.091  1.00  0.00     0.243 A 
HETATM    5  F1  UNL     1      -3.599   5.101  14.473  1.00  0.00    -0.181 F 
HETATM    6  C2  UNL     1      -5.681   4.314  15.268  1.00  0.00     0.176 A 
HETATM    7  F2  UNL     1      -6.296   5.465  14.829  1.00  0.00    -0.201 F 
HETATM    8  C3  UNL     1      -6.395   3.323  15.892  1.00  0.00     0.093 A 
HETATM    9  C4  UNL     1      -5.724   2.198  16.306  1.00  0.00     0.153 A 
HETATM   10 CL1  UNL     1      -6.667   0.948  17.101  1.00  0.00    -0.060 Cl
ENDROOT
BRANCH   1  11
HETATM   11  O1  UNL     1      -3.776   0.882  16.561  1.00  0.00    -0.267 OA
ATOM     12  H1  UNL     1      -4.150   0.331  17.239  1.00  0.00     0.247 HD
ENDBRANCH   1  11
TORSDOF 1
ENDMDL
MODEL 2
REMARK VINA RESULT: -5.562699930      2.732      3.342
REMARK  1 active torsions:
REMARK  status: ('A' for Active; 'I' for Inactive)
REMARK    1  A    between atoms: O1_1  and  N1_3 
ROOT
HETATM    1  N1  UNL     1      -5.112   0.472  16.053  1.00  0.00    -0.149 N 
HETATM    2  N2  UNL     1      -5.683   0.570  17.240  1.00  0.00    -0.246 N 
ATOM      3  H2  UNL     1      -5.622  -0.222  17.881  1.00  0.00     0.192 HD
HETATM    4  C1  UNL     1      -6.339   1.670  17.634  1.00  0.00     0.243 A 
HETATM    5  F1  UNL     1      -6.912   1.719  18.872  1.00  0.00    -0.181 F 
HETATM    6  C2  UNL     1      -6.446   2.761  16.802  1.00  0.00     0.176 A 
HETATM    7  F2  UNL     1      -7.119   3.890  17.206  1.00  0.00    -0.201 F 
HETATM    8  C3  UNL     1      -5.862   2.688  15.563  1.00  0.00     0.093 A 
HETATM    9  C4  UNL     1      -5.203   1.532  15.219  1.00  0.00     0.153 A 
HETATM   10 CL1  UNL     1      -4.468   1.472  13.625  1.00  0.00    -0.060 Cl
ENDROOT
BRANCH   1  11
HETATM   11  O1  UNL     1      -4.436  -0.663  15.649  1.00  0.00    -0.267 OA
ATOM     12  H1  UNL     1      -4.780  -1.251  14.988  1.00  0.00     0.247 HD
ENDBRANCH   1  11
TORSDOF 1
ENDMDL
MODEL 3
REMARK VINA RESULT: -5.337606907      2.348      2.833
REMARK  1 active torsions:
REMARK  status: ('A' for Active; 'I' for Inactive)
REMARK    1  A    between atoms: O1_1  and  N1_3 
ROOT
HETATM    1  N1  UNL     1      -5.221   0.918  15.404  1.00  0.00    -0.149 N 
HETATM    2  N2  UNL     1      -5.889   1.428  16.424  1.00  0.00    -0.246 N 
ATOM      3  H2  UNL     1      -6.118   0.824  17.213  1.00  0.00     0.192 HD
HETATM    4  C1  UNL     1      -6.278   2.711  16.460  1.00  0.00     0.243 A 
HETATM    5  F1  UNL     1      -6.966   3.187  17.537  1.00  0.00    -0.181 F 
HETATM    6  C2  UNL     1      -5.991   3.561  15.417  1.00  0.00     0.176 A 
HETATM    7  F2  UNL     1      -6.389   4.877  15.453  1.00  0.00    -0.201 F 
HETATM    8  C3  UNL     1      -5.298   3.060  14.345  1.00  0.00     0.093 A 
HETATM    9  C4  UNL     1      -4.928   1.736  14.369  1.00  0.00     0.153 A 
HETATM   10 CL1  UNL     1      -4.042   1.125  12.980  1.00  0.00    -0.060 Cl
ENDROOT
BRANCH   1  11
HETATM   11  O1  UNL     1      -4.822  -0.404  15.370  1.00  0.00    -0.267 OA
ATOM     12  H1  UNL     1      -4.029  -0.706  15.797  1.00  0.00     0.247 HD
ENDBRANCH   1  11
TORSDOF 1
ENDMDL
MODEL 4
REMARK VINA RESULT: -5.243313542      1.084      1.084
REMARK  1 active torsions:
REMARK  status: ('A' for Active; 'I' for Inactive)
REMARK    1  A    between atoms: O1_1  and  N1_3 
ROOT
HETATM    1  N1  UNL     1      -5.171   1.342  15.399  1.00  0.00    -0.149 N 
HETATM    2  N2  UNL     1      -4.291   2.027  14.690  1.00  0.00    -0.246 N 
ATOM      3  H2  UNL     1      -3.548   1.520  14.207  1.00  0.00     0.192 HD
HETATM    4  C1  UNL     1      -4.338   3.362  14.580  1.00  0.00     0.243 A 
HETATM    5  F1  UNL     1      -3.403   4.020  13.835  1.00  0.00    -0.181 F 
HETATM    6  C2  UNL     1      -5.321   4.085  15.214  1.00  0.00     0.176 A 
HETATM    7  F2  UNL     1      -5.370   5.455  15.103  1.00  0.00    -0.201 F 
HETATM    8  C3  UNL     1      -6.249   3.401  15.959  1.00  0.00     0.093 A 
HETATM    9  C4  UNL     1      -6.147   2.032  16.031  1.00  0.00     0.153 A 
HETATM   10 CL1  UNL     1      -7.350   1.187  16.992  1.00  0.00    -0.060 Cl
ENDROOT
BRANCH   1  11
HETATM   11  O1  UNL     1      -5.120  -0.034  15.511  1.00  0.00    -0.267 OA
ATOM     12  H1  UNL     1      -4.855  -0.469  16.312  1.00  0.00     0.247 HD
ENDBRANCH   1  11
TORSDOF 1
ENDMDL
MODEL 5
REMARK VINA RESULT: -5.215410032      2.138      2.322
REMARK  1 active torsions:
REMARK  status: ('A' for Active; 'I' for Inactive)
REMARK    1  A    between atoms: O1_1  and  N1_3 
ROOT
HETATM    1  N1  UNL     1      -5.453   0.828  16.048  1.00  0.00    -0.149 N 
HETATM    2  N2  UNL     1      -4.720   0.609  14.971  1.00  0.00    -0.246 N 
ATOM      3  H2  UNL     1      -4.320  -0.319  14.829  1.00  0.00     0.192 HD
HETATM    4  C1  UNL     1      -4.480   1.560  14.058  1.00  0.00     0.243 A 
HETATM    5  F1  UNL     1      -3.715   1.281  12.963  1.00  0.00    -0.181 F 
HETATM    6  C2  UNL     1      -4.999   2.825  14.208  1.00  0.00     0.176 A 
HETATM    7  F2  UNL     1      -4.753   3.802  13.271  1.00  0.00    -0.201 F 
HETATM    8  C3  UNL     1      -5.765   3.083  15.317  1.00  0.00     0.093 A 
HETATM    9  C4  UNL     1      -5.974   2.065  16.216  1.00  0.00     0.153 A 
HETATM   10 CL1  UNL     1      -6.958   2.427  17.625  1.00  0.00    -0.060 Cl
ENDROOT
BRANCH   1  11
HETATM   11  O1  UNL     1      -5.699  -0.154  16.988  1.00  0.00    -0.267 OA
ATOM     12  H1  UNL     1      -5.783   0.039  17.914  1.00  0.00     0.247 HD
ENDBRANCH   1  11
TORSDOF 1
ENDMDL
