MODEL 1
REMARK VINA RESULT: -7.054229227      0.000      0.000
REMARK  5 active torsions:
REMARK  status: ('A' for Active; 'I' for Inactive)
REMARK    1  A    between atoms: C1_4  and  N2_5 
REMARK    2  A    between atoms: C1_4  and  O1_16 
REMARK    3  A    between atoms: N2_5  and  C2_7 
REMARK    4  A    between atoms: C6_11  and  C7_12 
REMARK    5  A    between atoms: O1_16  and  C8_17 
ROOT
HETATM    1  N1  UNL     1      20.956  44.465   7.225  1.00  0.00    -0.365 N 
ATOM      2  H11 UNL     1      20.543  44.834   6.368  1.00  0.00     0.159 HD
ATOM      3  H12 UNL     1      20.571  44.622   8.156  1.00  0.00     0.159 HD
HETATM    4  C1  UNL     1      22.012  43.763   7.166  1.00  0.00     0.213 C 
ENDROOT
BRANCH   4   5
HETATM    5  N2  UNL     1      22.582  43.252   8.353  1.00  0.00    -0.351 N 
ATOM      6  H2  UNL     1      23.594  43.210   8.483  1.00  0.00     0.163 HD
BRANCH   5   7
HETATM    7  C2  UNL     1      21.669  42.789   9.380  1.00  0.00     0.097 C 
HETATM    8  C3  UNL     1      21.721  43.628  10.616  1.00  0.00     0.026 C 
HETATM    9  C4  UNL     1      21.636  42.685  11.800  1.00  0.00     0.003 C 
HETATM   10  C5  UNL     1      21.244  41.349  11.189  1.00  0.00     0.015 C 
HETATM   11  C6  UNL     1      22.013  41.413   9.870  1.00  0.00     0.116 C 
BRANCH  11  12
HETATM   12  C7  UNL     1      21.539  40.332   8.921  1.00  0.00     0.393 C 
HETATM   13  F1  UNL     1      22.547  39.938   8.076  1.00  0.00    -0.171 F 
HETATM   14  F2  UNL     1      21.153  39.227   9.656  1.00  0.00    -0.171 F 
HETATM   15  F3  UNL     1      20.424  40.761   8.235  1.00  0.00    -0.171 F 
ENDBRANCH  11  12
ENDBRANCH   5   7
ENDBRANCH   4   5
BRANCH   4  16
HETATM   16  O1  UNL     1      22.530  43.552   5.910  1.00  0.00    -0.317 OA
BRANCH  16  17
HETATM   17  C8  UNL     1      21.811  43.075   4.851  1.00  0.00     0.132 C 
HETATM   18  C9  UNL     1      21.066  41.811   5.300  1.00  0.00     0.032 C 
HETATM   19  C10 UNL     1      20.049  41.399   4.260  1.00  0.00     0.002 C 
HETATM   20  C11 UNL     1      20.666  41.231   2.905  1.00  0.00     0.000 C 
HETATM   21  C12 UNL     1      21.357  42.525   2.539  1.00  0.00     0.002 C 
HETATM   22  C13 UNL     1      22.469  42.840   3.559  1.00  0.00     0.032 C 
ENDBRANCH  16  17
ENDBRANCH   4  16
TORSDOF 5
ENDMDL
MODEL 2
REMARK VINA RESULT: -7.040998408      2.414      3.302
REMARK  5 active torsions:
REMARK  status: ('A' for Active; 'I' for Inactive)
REMARK    1  A    between atoms: C1_4  and  N2_5 
REMARK    2  A    between atoms: C1_4  and  O1_16 
REMARK    3  A    between atoms: N2_5  and  C2_7 
REMARK    4  A    between atoms: C6_11  and  C7_12 
REMARK    5  A    between atoms: O1_16  and  C8_17 
ROOT
HETATM    1  N1  UNL     1      22.255  40.872   7.143  1.00  0.00    -0.365 N 
ATOM      2  H11 UNL     1      22.668  40.561   6.263  1.00  0.00     0.159 HD
ATOM      3  H12 UNL     1      22.648  40.668   8.061  1.00  0.00     0.159 HD
HETATM    4  C1  UNL     1      21.187  41.559   7.131  1.00  0.00     0.213 C 
ENDROOT
BRANCH   4   5
HETATM    5  N2  UNL     1      20.616  41.991   8.350  1.00  0.00    -0.351 N 
ATOM      6  H2  UNL     1      19.608  41.956   8.507  1.00  0.00     0.163 HD
BRANCH   5   7
HETATM    7  C2  UNL     1      21.523  42.485   9.367  1.00  0.00     0.097 C 
HETATM    8  C3  UNL     1      21.501  41.654  10.610  1.00  0.00     0.026 C 
HETATM    9  C4  UNL     1      21.568  42.608  11.786  1.00  0.00     0.003 C 
HETATM   10  C5  UNL     1      21.922  43.949  11.163  1.00  0.00     0.015 C 
HETATM   11  C6  UNL     1      21.147  43.855   9.849  1.00  0.00     0.116 C 
BRANCH  11  12
HETATM   12  C7  UNL     1      21.586  44.941   8.890  1.00  0.00     0.393 C 
HETATM   13  F1  UNL     1      20.575  45.274   8.023  1.00  0.00    -0.171 F 
HETATM   14  F2  UNL     1      21.909  46.074   9.611  1.00  0.00    -0.171 F 
HETATM   15  F3  UNL     1      22.731  44.552   8.229  1.00  0.00    -0.171 F 
ENDBRANCH  11  12
ENDBRANCH   5   7
ENDBRANCH   4   5
BRANCH   4  16
HETATM   16  O1  UNL     1      20.658  41.835   5.893  1.00  0.00    -0.317 OA
BRANCH  16  17
HETATM   17  C8  UNL     1      21.384  42.285   4.827  1.00  0.00     0.132 C 
HETATM   18  C9  UNL     1      22.156  43.539   5.263  1.00  0.00     0.032 C 
HETATM   19  C10 UNL     1      23.180  43.918   4.217  1.00  0.00     0.002 C 
HETATM   20  C11 UNL     1      22.565  44.085   2.860  1.00  0.00     0.000 C 
HETATM   21  C12 UNL     1      21.847  42.801   2.509  1.00  0.00     0.002 C 
HETATM   22  C13 UNL     1      20.729  42.521   3.534  1.00  0.00     0.032 C 
ENDBRANCH  16  17
ENDBRANCH   4  16
TORSDOF 5
ENDMDL
MODEL 3
REMARK VINA RESULT: -6.851061194      2.607      3.586
REMARK  5 active torsions:
REMARK  status: ('A' for Active; 'I' for Inactive)
REMARK    1  A    between atoms: C1_4  and  N2_5 
REMARK    2  A    between atoms: C1_4  and  O1_16 
REMARK    3  A    between atoms: N2_5  and  C2_7 
REMARK    4  A    between atoms: C6_11  and  C7_12 
REMARK    5  A    between atoms: O1_16  and  C8_17 
ROOT
HETATM    1  N1  UNL     1      21.957  41.225   5.244  1.00  0.00    -0.365 N 
ATOM      2  H11 UNL     1      22.532  41.269   4.402  1.00  0.00     0.159 HD
ATOM      3  H12 UNL     1      21.503  40.377   5.581  1.00  0.00     0.159 HD
HETATM    4  C1  UNL     1      21.776  42.272   5.939  1.00  0.00     0.213 C 
ENDROOT
BRANCH   4   5
HETATM    5  N2  UNL     1      20.981  42.211   7.106  1.00  0.00    -0.351 N 
ATOM      6  H2  UNL     1      19.973  42.059   7.056  1.00  0.00     0.163 HD
BRANCH   5   7
HETATM    7  C2  UNL     1      21.658  42.373   8.377  1.00  0.00     0.097 C 
HETATM    8  C3  UNL     1      21.630  41.129   9.207  1.00  0.00     0.026 C 
HETATM    9  C4  UNL     1      21.388  41.555  10.641  1.00  0.00     0.003 C 
HETATM   10  C5  UNL     1      21.577  43.064  10.623  1.00  0.00     0.015 C 
HETATM   11  C6  UNL     1      20.995  43.397   9.250  1.00  0.00     0.116 C 
BRANCH  11  12
HETATM   12  C7  UNL     1      21.353  44.812   8.847  1.00  0.00     0.393 C 
HETATM   13  F1  UNL     1      21.414  45.639   9.941  1.00  0.00    -0.171 F 
HETATM   14  F2  UNL     1      22.601  44.809   8.254  1.00  0.00    -0.171 F 
HETATM   15  F3  UNL     1      20.465  45.271   7.897  1.00  0.00    -0.171 F 
ENDBRANCH  11  12
ENDBRANCH   5   7
ENDBRANCH   4   5
BRANCH   4  16
HETATM   16  O1  UNL     1      22.388  43.415   5.484  1.00  0.00    -0.317 OA
BRANCH  16  17
HETATM   17  C8  UNL     1      22.903  43.566   4.227  1.00  0.00     0.132 C 
HETATM   18  C9  UNL     1      24.259  44.276   4.341  1.00  0.00     0.032 C 
HETATM   19  C10 UNL     1      24.994  44.225   3.020  1.00  0.00     0.002 C 
HETATM   20  C11 UNL     1      24.169  44.772   1.895  1.00  0.00     0.000 C 
HETATM   21  C12 UNL     1      22.868  44.003   1.848  1.00  0.00     0.002 C 
HETATM   22  C13 UNL     1      22.095  44.187   3.169  1.00  0.00     0.032 C 
ENDBRANCH  16  17
ENDBRANCH   4  16
TORSDOF 5
ENDMDL
MODEL 4
REMARK VINA RESULT: -6.824236985      1.227      1.763
REMARK  5 active torsions:
REMARK  status: ('A' for Active; 'I' for Inactive)
REMARK    1  A    between atoms: C1_4  and  N2_5 
REMARK    2  A    between atoms: C1_4  and  O1_16 
REMARK    3  A    between atoms: N2_5  and  C2_7 
REMARK    4  A    between atoms: C6_11  and  C7_12 
REMARK    5  A    between atoms: O1_16  and  C8_17 
ROOT
HETATM    1  N1  UNL     1      21.358  44.039   5.353  1.00  0.00    -0.365 N 
ATOM      2  H11 UNL     1      20.813  44.014   4.491  1.00  0.00     0.159 HD
ATOM      3  H12 UNL     1      21.842  44.867   5.698  1.00  0.00     0.159 HD
HETATM    4  C1  UNL     1      21.460  42.993   6.066  1.00  0.00     0.213 C 
ENDROOT
BRANCH   4   5
HETATM    5  N2  UNL     1      22.214  43.028   7.261  1.00  0.00    -0.351 N 
ATOM      6  H2  UNL     1      23.222  43.185   7.249  1.00  0.00     0.163 HD
BRANCH   5   7
HETATM    7  C2  UNL     1      21.494  42.833   8.504  1.00  0.00     0.097 C 
HETATM    8  C3  UNL     1      21.518  44.044   9.380  1.00  0.00     0.026 C 
HETATM    9  C4  UNL     1      21.707  43.561  10.804  1.00  0.00     0.003 C 
HETATM   10  C5  UNL     1      21.491  42.058  10.723  1.00  0.00     0.015 C 
HETATM   11  C6  UNL     1      22.111  41.764   9.357  1.00  0.00     0.116 C 
BRANCH  11  12
HETATM   12  C7  UNL     1      21.741  40.372   8.890  1.00  0.00     0.393 C 
HETATM   13  F1  UNL     1      21.663  39.499   9.947  1.00  0.00    -0.171 F 
HETATM   14  F2  UNL     1      20.497  40.415   8.291  1.00  0.00    -0.171 F 
HETATM   15  F3  UNL     1      22.630  39.946   7.928  1.00  0.00    -0.171 F 
ENDBRANCH  11  12
ENDBRANCH   5   7
ENDBRANCH   4   5
BRANCH   4  16
HETATM   16  O1  UNL     1      20.807  41.877   5.601  1.00  0.00    -0.317 OA
BRANCH  16  17
HETATM   17  C8  UNL     1      20.296  41.752   4.340  1.00  0.00     0.132 C 
HETATM   18  C9  UNL     1      18.931  41.058   4.436  1.00  0.00     0.032 C 
HETATM   19  C10 UNL     1      18.202  41.139   3.113  1.00  0.00     0.002 C 
HETATM   20  C11 UNL     1      19.025  40.599   1.983  1.00  0.00     0.000 C 
HETATM   21  C12 UNL     1      20.336  41.352   1.954  1.00  0.00     0.002 C 
HETATM   22  C13 UNL     1      21.101  41.138   3.276  1.00  0.00     0.032 C 
ENDBRANCH  16  17
ENDBRANCH   4  16
TORSDOF 5
ENDMDL
MODEL 5
REMARK VINA RESULT: -6.819889489      2.209      3.119
REMARK  5 active torsions:
REMARK  status: ('A' for Active; 'I' for Inactive)
REMARK    1  A    between atoms: C1_4  and  N2_5 
REMARK    2  A    between atoms: C1_4  and  O1_16 
REMARK    3  A    between atoms: N2_5  and  C2_7 
REMARK    4  A    between atoms: C6_11  and  C7_12 
REMARK    5  A    between atoms: O1_16  and  C8_17 
ROOT
HETATM    1  N1  UNL     1      21.937  43.520   6.008  1.00  0.00    -0.365 N 
ATOM      2  H11 UNL     1      22.477  43.766   5.179  1.00  0.00     0.159 HD
ATOM      3  H12 UNL     1      21.785  44.148   6.798  1.00  0.00     0.159 HD
HETATM    4  C1  UNL     1      21.405  42.371   6.098  1.00  0.00     0.213 C 
ENDROOT
BRANCH   4   5
HETATM    5  N2  UNL     1      20.656  42.030   7.247  1.00  0.00    -0.351 N 
ATOM      6  H2  UNL     1      19.637  41.991   7.226  1.00  0.00     0.163 HD
BRANCH   5   7
HETATM    7  C2  UNL     1      21.399  41.739   8.458  1.00  0.00     0.097 C 
HETATM    8  C3  UNL     1      21.190  40.338   8.937  1.00  0.00     0.026 C 
HETATM    9  C4  UNL     1      21.078  40.395  10.448  1.00  0.00     0.003 C 
HETATM   10  C5  UNL     1      21.520  41.806  10.804  1.00  0.00     0.015 C 
HETATM   11  C6  UNL     1      20.952  42.581   9.616  1.00  0.00     0.116 C 
BRANCH  11  12
HETATM   12  C7  UNL     1      21.530  43.980   9.565  1.00  0.00     0.393 C 
HETATM   13  F1  UNL     1      20.757  44.806   8.787  1.00  0.00    -0.171 F 
HETATM   14  F2  UNL     1      21.550  44.505  10.842  1.00  0.00    -0.171 F 
HETATM   15  F3  UNL     1      22.838  43.934   9.134  1.00  0.00    -0.171 F 
ENDBRANCH  11  12
ENDBRANCH   5   7
ENDBRANCH   4   5
BRANCH   4  16
HETATM   16  O1  UNL     1      21.609  41.524   5.034  1.00  0.00    -0.317 OA
BRANCH  16  17
HETATM   17  C8  UNL     1      20.619  41.076   4.205  1.00  0.00     0.132 C 
HETATM   18  C9  UNL     1      20.835  41.690   2.815  1.00  0.00     0.032 C 
HETATM   19  C10 UNL     1      19.940  41.021   1.797  1.00  0.00     0.002 C 
HETATM   20  C11 UNL     1      18.498  41.057   2.205  1.00  0.00     0.000 C 
HETATM   21  C12 UNL     1      18.380  40.416   3.570  1.00  0.00     0.002 C 
HETATM   22  C13 UNL     1      19.211  41.206   4.601  1.00  0.00     0.032 C 
ENDBRANCH  16  17
ENDBRANCH   4  16
TORSDOF 5
ENDMDL
