MODEL 1
REMARK VINA RESULT: -5.663672370      0.000      0.000
REMARK  3 active torsions:
REMARK  status: ('A' for Active; 'I' for Inactive)
REMARK    1  A    between atoms: C1_2  and  C2_3 
REMARK    2  A    between atoms: C1_2  and  C5_8 
REMARK    3  A    between atoms: C3_4  and  C4_6 
ROOT
HETATM    1  C5  UNL     1      21.413  42.303   5.083  1.00  0.00     0.124 A 
HETATM    2  N1  UNL     1      20.265  41.669   4.774  1.00  0.00    -0.327 N 
ATOM      3  H1  UNL     1      19.647  41.225   5.452  1.00  0.00     0.168 HD
HETATM    4  C6  UNL     1      20.050  41.703   3.458  1.00  0.00     0.177 A 
HETATM    5  S1  UNL     1      18.753  41.032   2.732  1.00  0.00    -0.040 SA
HETATM    6  N2  UNL     1      21.080  42.371   2.928  1.00  0.00    -0.322 N 
ATOM      7  H2  UNL     1      21.201  42.563   1.933  1.00  0.00     0.169 HD
HETATM    8  C7  UNL     1      21.934  42.752   3.896  1.00  0.00     0.136 A 
HETATM    9 CL3  UNL     1      23.430  43.650   3.717  1.00  0.00    -0.062 Cl
ENDROOT
BRANCH   1  10
HETATM   10  C1  UNL     1      21.950  42.453   6.430  1.00  0.00     0.203 C 
HETATM   11  O1  UNL     1      22.325  43.610   6.780  1.00  0.00    -0.286 OA
BRANCH  10  12
HETATM   12  C2  UNL     1      22.050  41.339   7.324  1.00  0.00     0.077 C 
HETATM   13  C3  UNL     1      21.238  41.169   8.342  1.00  0.00     0.029 C 
HETATM   14 CL1  UNL     1      19.949  42.332   8.670  1.00  0.00    -0.088 Cl
BRANCH  13  15
HETATM   15  C4  UNL     1      21.341  40.019   9.268  1.00  0.00     0.166 C 
HETATM   16 CL2  UNL     1      20.352  40.272  10.729  1.00  0.00    -0.125 Cl
ENDBRANCH  13  15
ENDBRANCH  10  12
ENDBRANCH   1  10
TORSDOF 3
ENDMDL
MODEL 2
REMARK VINA RESULT: -5.646785752      3.150      3.583
REMARK  3 active torsions:
REMARK  status: ('A' for Active; 'I' for Inactive)
REMARK    1  A    between atoms: C1_2  and  C2_3 
REMARK    2  A    between atoms: C1_2  and  C5_8 
REMARK    3  A    between atoms: C3_4  and  C4_6 
ROOT
HETATM    1  C5  UNL     1      21.778  43.043   5.083  1.00  0.00     0.124 A 
HETATM    2  N1  UNL     1      22.924  43.685   4.785  1.00  0.00    -0.327 N 
ATOM      3  H1  UNL     1      23.541  44.119   5.471  1.00  0.00     0.168 HD
HETATM    4  C6  UNL     1      23.141  43.674   3.468  1.00  0.00     0.177 A 
HETATM    5  S1  UNL     1      24.436  44.360   2.755  1.00  0.00    -0.040 SA
HETATM    6  N2  UNL     1      22.112  43.013   2.927  1.00  0.00    -0.322 N 
ATOM      7  H2  UNL     1      21.992  42.837   1.929  1.00  0.00     0.169 HD
HETATM    8  C7  UNL     1      21.259  42.613   3.888  1.00  0.00     0.136 A 
HETATM    9 CL3  UNL     1      19.765  41.714   3.693  1.00  0.00    -0.062 Cl
ENDROOT
BRANCH   1  10
HETATM   10  C1  UNL     1      21.241  42.869   6.427  1.00  0.00     0.203 C 
HETATM   11  O1  UNL     1      20.883  41.702   6.762  1.00  0.00    -0.286 OA
BRANCH  10  12
HETATM   12  C2  UNL     1      21.122  43.970   7.334  1.00  0.00     0.077 C 
HETATM   13  C3  UNL     1      21.938  44.148   8.348  1.00  0.00     0.029 C 
HETATM   14 CL1  UNL     1      23.256  43.010   8.653  1.00  0.00    -0.088 Cl
BRANCH  13  15
HETATM   15  C4  UNL     1      21.816  45.285   9.287  1.00  0.00     0.166 C 
HETATM   16 CL2  UNL     1      22.843  45.051  10.725  1.00  0.00    -0.125 Cl
ENDBRANCH  13  15
ENDBRANCH  10  12
ENDBRANCH   1  10
TORSDOF 3
ENDMDL
MODEL 3
REMARK VINA RESULT: -5.598041244      2.546      2.730
REMARK  3 active torsions:
REMARK  status: ('A' for Active; 'I' for Inactive)
REMARK    1  A    between atoms: C1_2  and  C2_3 
REMARK    2  A    between atoms: C1_2  and  C5_8 
REMARK    3  A    between atoms: C3_4  and  C4_6 
ROOT
HETATM    1  C5  UNL     1      21.839  43.091   5.172  1.00  0.00     0.124 A 
HETATM    2  N1  UNL     1      22.976  43.722   4.824  1.00  0.00    -0.327 N 
ATOM      3  H1  UNL     1      23.575  44.237   5.470  1.00  0.00     0.168 HD
HETATM    4  C6  UNL     1      23.212  43.582   3.519  1.00  0.00     0.177 A 
HETATM    5  S1  UNL     1      24.504  44.218   2.755  1.00  0.00    -0.040 SA
HETATM    6  N2  UNL     1      22.204  42.847   3.035  1.00  0.00    -0.322 N 
ATOM      7  H2  UNL     1      22.102  42.568   2.059  1.00  0.00     0.169 HD
HETATM    8  C7  UNL     1      21.345  42.530   4.021  1.00  0.00     0.136 A 
HETATM    9 CL3  UNL     1      19.872  41.585   3.900  1.00  0.00    -0.062 Cl
ENDROOT
BRANCH   1  10
HETATM   10  C1  UNL     1      21.286  43.043   6.520  1.00  0.00     0.203 C 
HETATM   11  O1  UNL     1      20.930  44.141   7.041  1.00  0.00    -0.286 OA
BRANCH  10  12
HETATM   12  C2  UNL     1      21.147  41.807   7.229  1.00  0.00     0.077 C 
HETATM   13  C3  UNL     1      21.942  41.459   8.215  1.00  0.00     0.029 C 
HETATM   14 CL1  UNL     1      23.256  42.523   8.730  1.00  0.00    -0.088 Cl
BRANCH  13  15
HETATM   15  C4  UNL     1      21.801  40.181   8.947  1.00  0.00     0.166 C 
HETATM   16 CL2  UNL     1      20.598  40.314  10.256  1.00  0.00    -0.125 Cl
ENDBRANCH  13  15
ENDBRANCH  10  12
ENDBRANCH   1  10
TORSDOF 3
ENDMDL
MODEL 4
REMARK VINA RESULT: -5.583042167      1.767      2.286
REMARK  3 active torsions:
REMARK  status: ('A' for Active; 'I' for Inactive)
REMARK    1  A    between atoms: C1_2  and  C2_3 
REMARK    2  A    between atoms: C1_2  and  C5_8 
REMARK    3  A    between atoms: C3_4  and  C4_6 
ROOT
HETATM    1  C5  UNL     1      21.358  42.234   5.106  1.00  0.00     0.124 A 
HETATM    2  N1  UNL     1      20.218  41.614   4.745  1.00  0.00    -0.327 N 
ATOM      3  H1  UNL     1      19.599  41.119   5.387  1.00  0.00     0.168 HD
HETATM    4  C6  UNL     1      20.012  41.737   3.433  1.00  0.00     0.177 A 
HETATM    5  S1  UNL     1      18.726  41.108   2.653  1.00  0.00    -0.040 SA
HETATM    6  N2  UNL     1      21.040  42.448   2.959  1.00  0.00    -0.322 N 
ATOM      7  H2  UNL     1      21.166  42.710   1.981  1.00  0.00     0.169 HD
HETATM    8  C7  UNL     1      21.884  42.768   3.957  1.00  0.00     0.136 A 
HETATM    9 CL3  UNL     1      23.374  43.688   3.852  1.00  0.00    -0.062 Cl
ENDROOT
BRANCH   1  10
HETATM   10  C1  UNL     1      21.885  42.294   6.465  1.00  0.00     0.203 C 
HETATM   11  O1  UNL     1      22.231  41.201   7.002  1.00  0.00    -0.286 OA
BRANCH  10  12
HETATM   12  C2  UNL     1      22.007  43.537   7.165  1.00  0.00     0.077 C 
HETATM   13  C3  UNL     1      21.214  43.876   8.155  1.00  0.00     0.029 C 
HETATM   14 CL1  UNL     1      19.924  42.793   8.688  1.00  0.00    -0.088 Cl
BRANCH  13  15
HETATM   15  C4  UNL     1      21.339  45.161   8.879  1.00  0.00     0.166 C 
HETATM   16 CL2  UNL     1      22.570  45.063  10.165  1.00  0.00    -0.125 Cl
ENDBRANCH  13  15
ENDBRANCH  10  12
ENDBRANCH   1  10
TORSDOF 3
ENDMDL
MODEL 5
REMARK VINA RESULT: -5.536853442      3.525      5.743
REMARK  3 active torsions:
REMARK  status: ('A' for Active; 'I' for Inactive)
REMARK    1  A    between atoms: C1_2  and  C2_3 
REMARK    2  A    between atoms: C1_2  and  C5_8 
REMARK    3  A    between atoms: C3_4  and  C4_6 
ROOT
HETATM    1  C5  UNL     1      21.587  42.417   7.794  1.00  0.00     0.124 A 
HETATM    2  N1  UNL     1      21.789  43.703   8.139  1.00  0.00    -0.327 N 
ATOM      3  H1  UNL     1      21.693  44.495   7.504  1.00  0.00     0.168 HD
HETATM    4  C6  UNL     1      22.133  43.796   9.424  1.00  0.00     0.177 A 
HETATM    5  S1  UNL     1      22.454  45.206  10.178  1.00  0.00    -0.040 SA
HETATM    6  N2  UNL     1      22.147  42.546   9.899  1.00  0.00    -0.322 N 
ATOM      7  H2  UNL     1      22.374  42.289  10.860  1.00  0.00     0.169 HD
HETATM    8  C7  UNL     1      21.817  41.676   8.926  1.00  0.00     0.136 A 
HETATM    9 CL3  UNL     1      21.694  39.930   9.043  1.00  0.00    -0.062 Cl
ENDROOT
BRANCH   1  10
HETATM   10  C1  UNL     1      21.200  41.956   6.466  1.00  0.00     0.203 C 
HETATM   11  O1  UNL     1      20.048  41.446   6.341  1.00  0.00    -0.286 OA
BRANCH  10  12
HETATM   12  C2  UNL     1      22.084  42.075   5.346  1.00  0.00     0.077 C 
HETATM   13  C3  UNL     1      22.044  43.089   4.513  1.00  0.00     0.029 C 
HETATM   14 CL1  UNL     1      20.869  44.390   4.734  1.00  0.00    -0.088 Cl
BRANCH  13  15
HETATM   15  C4  UNL     1      22.956  43.212   3.354  1.00  0.00     0.166 C 
HETATM   16 CL2  UNL     1      24.293  44.340   3.699  1.00  0.00    -0.125 Cl
ENDBRANCH  13  15
ENDBRANCH  10  12
ENDBRANCH   1  10
TORSDOF 3
ENDMDL
