MODEL 1
REMARK VINA RESULT: -5.817608028      0.000      0.000
REMARK  4 active torsions:
REMARK  status: ('A' for Active; 'I' for Inactive)
REMARK    1  A    between atoms: C2_2  and  C4_4 
REMARK    2  A    between atoms: C6_9  and  C7_10 
REMARK    3  A    between atoms: C7_10  and  C8_11 
REMARK    4  A    between atoms: N2_13  and  O1_15 
ROOT
HETATM    1  C4  UNL     1      21.316  41.982   9.114  1.00  0.00     0.036 A 
HETATM    2  N1  UNL     1      20.716  43.182   8.999  1.00  0.00    -0.348 N 
ATOM      3  H1  UNL     1      20.217  43.664   9.747  1.00  0.00     0.167 HD
HETATM    4  C5  UNL     1      20.876  43.651   7.735  1.00  0.00     0.117 A 
HETATM    5 CL1  UNL     1      20.291  45.210   7.186  1.00  0.00    -0.063 Cl
HETATM    6  C6  UNL     1      21.594  42.723   7.025  1.00  0.00     0.052 A 
HETATM    7  C9  UNL     1      21.865  41.701   7.882  1.00  0.00     0.072 A 
HETATM    8 CL3  UNL     1      22.766  40.227   7.497  1.00  0.00    -0.081 Cl
ENDROOT
BRANCH   6   9
HETATM    9  C7  UNL     1      22.001  42.726   5.601  1.00  0.00     0.060 C 
HETATM   10  N2  UNL     1      22.757  43.709   5.200  1.00  0.00    -0.271 N 
ATOM     11  H2  UNL     1      23.017  44.408   5.895  1.00  0.00     0.194 HD
BRANCH   9  12
HETATM   12  C8  UNL     1      21.601  41.800   4.531  1.00  0.00     0.174 C 
HETATM   13 CL2  UNL     1      20.147  42.472   3.683  1.00  0.00    -0.124 Cl
ENDBRANCH   9  12
BRANCH  10  14
HETATM   14  O1  UNL     1      23.230  43.885   3.948  1.00  0.00    -0.290 OA
ATOM     15  H1  UNL     1      23.856  44.546   3.676  1.00  0.00     0.244 HD
ENDBRANCH  10  14
ENDBRANCH   6   9
BRANCH   1  16
HETATM   16  C2  UNL     1      21.556  41.237  10.367  1.00  0.00     0.029 C 
HETATM   17  C1  UNL     1      20.347  40.394  10.839  1.00  0.00     0.016 C 
HETATM   18  C3  UNL     1      21.526  42.387  11.490  1.00  0.00     0.016 C 
ENDBRANCH   1  16
TORSDOF 4
ENDMDL
MODEL 2
REMARK VINA RESULT: -5.813907404      1.949      3.174
REMARK  4 active torsions:
REMARK  status: ('A' for Active; 'I' for Inactive)
REMARK    1  A    between atoms: C2_2  and  C4_4 
REMARK    2  A    between atoms: C6_9  and  C7_10 
REMARK    3  A    between atoms: C7_10  and  C8_11 
REMARK    4  A    between atoms: N2_13  and  O1_15 
ROOT
HETATM    1  C4  UNL     1      21.845  43.312   9.112  1.00  0.00     0.036 A 
HETATM    2  N1  UNL     1      22.442  42.110   8.991  1.00  0.00    -0.348 N 
ATOM      3  H1  UNL     1      22.932  41.619   9.739  1.00  0.00     0.167 HD
HETATM    4  C5  UNL     1      22.290  41.654   7.722  1.00  0.00     0.117 A 
HETATM    5 CL1  UNL     1      22.875  40.097   7.164  1.00  0.00    -0.063 Cl
HETATM    6  C6  UNL     1      21.582  42.591   7.014  1.00  0.00     0.052 A 
HETATM    7  C9  UNL     1      21.308  43.606   7.877  1.00  0.00     0.072 A 
HETATM    8 CL3  UNL     1      20.416  45.087   7.498  1.00  0.00    -0.081 Cl
ENDROOT
BRANCH   6   9
HETATM    9  C7  UNL     1      21.188  42.602   5.586  1.00  0.00     0.060 C 
HETATM   10  N2  UNL     1      20.442  41.619   5.167  1.00  0.00    -0.271 N 
ATOM     11  H2  UNL     1      20.182  40.909   5.851  1.00  0.00     0.194 HD
BRANCH   9  12
HETATM   12  C8  UNL     1      21.590  43.544   4.531  1.00  0.00     0.174 C 
HETATM   13 CL2  UNL     1      23.013  42.859   3.641  1.00  0.00    -0.124 Cl
ENDBRANCH   9  12
BRANCH  10  14
HETATM   14  O1  UNL     1      19.982  41.455   3.908  1.00  0.00    -0.290 OA
ATOM     15  H1  UNL     1      20.114  42.056   3.184  1.00  0.00     0.244 HD
ENDBRANCH  10  14
ENDBRANCH   6   9
BRANCH   1  16
HETATM   16  C2  UNL     1      21.596  44.046  10.370  1.00  0.00     0.029 C 
HETATM   17  C1  UNL     1      22.775  44.945  10.816  1.00  0.00     0.016 C 
HETATM   18  C3  UNL     1      21.704  42.900  11.492  1.00  0.00     0.016 C 
ENDBRANCH   1  16
TORSDOF 4
ENDMDL
MODEL 3
REMARK VINA RESULT: -5.690972602      2.750      5.087
REMARK  4 active torsions:
REMARK  status: ('A' for Active; 'I' for Inactive)
REMARK    1  A    between atoms: C2_2  and  C4_4 
REMARK    2  A    between atoms: C6_9  and  C7_10 
REMARK    3  A    between atoms: C7_10  and  C8_11 
REMARK    4  A    between atoms: N2_13  and  O1_15 
ROOT
HETATM    1  C4  UNL     1      21.968  42.347   5.830  1.00  0.00     0.036 A 
HETATM    2  N1  UNL     1      21.355  43.525   6.059  1.00  0.00    -0.348 N 
ATOM      3  H1  UNL     1      21.184  44.245   5.358  1.00  0.00     0.167 HD
HETATM    4  C5  UNL     1      20.999  43.605   7.367  1.00  0.00     0.117 A 
HETATM    5 CL1  UNL     1      20.126  44.957   8.064  1.00  0.00    -0.063 Cl
HETATM    6  C6  UNL     1      21.400  42.450   7.989  1.00  0.00     0.052 A 
HETATM    7  C9  UNL     1      21.992  41.680   7.036  1.00  0.00     0.072 A 
HETATM    8 CL3  UNL     1      22.699  40.076   7.280  1.00  0.00    -0.081 Cl
ENDROOT
BRANCH   6   9
HETATM    9  C7  UNL     1      21.293  42.054   9.412  1.00  0.00     0.060 C 
HETATM   10  N2  UNL     1      20.626  40.966   9.678  1.00  0.00    -0.271 N 
ATOM     11  H2  UNL     1      20.222  40.464   8.888  1.00  0.00     0.194 HD
BRANCH   9  12
HETATM   12  C8  UNL     1      21.779  42.768  10.602  1.00  0.00     0.174 C 
HETATM   13 CL2  UNL     1      22.905  44.088  10.077  1.00  0.00    -0.124 Cl
ENDBRANCH   9  12
BRANCH  10  14
HETATM   14  O1  UNL     1      20.421  40.444  10.906  1.00  0.00    -0.290 OA
ATOM     15  H1  UNL     1      20.127  39.560  11.093  1.00  0.00     0.244 HD
ENDBRANCH  10  14
ENDBRANCH   6   9
BRANCH   1  16
HETATM   16  C2  UNL     1      22.317  41.781   4.511  1.00  0.00     0.029 C 
HETATM   17  C1  UNL     1      22.694  42.844   3.451  1.00  0.00     0.016 C 
HETATM   18  C3  UNL     1      20.894  41.319   3.922  1.00  0.00     0.016 C 
ENDBRANCH   1  16
TORSDOF 4
ENDMDL
MODEL 4
REMARK VINA RESULT: -5.683891785      2.542      5.304
REMARK  4 active torsions:
REMARK  status: ('A' for Active; 'I' for Inactive)
REMARK    1  A    between atoms: C2_2  and  C4_4 
REMARK    2  A    between atoms: C6_9  and  C7_10 
REMARK    3  A    between atoms: C7_10  and  C8_11 
REMARK    4  A    between atoms: N2_13  and  O1_15 
ROOT
HETATM    1  C4  UNL     1      21.228  42.971   5.816  1.00  0.00     0.036 A 
HETATM    2  N1  UNL     1      21.837  41.791   6.046  1.00  0.00    -0.348 N 
ATOM      3  H1  UNL     1      22.008  41.071   5.344  1.00  0.00     0.167 HD
HETATM    4  C5  UNL     1      22.188  41.708   7.355  1.00  0.00     0.117 A 
HETATM    5 CL1  UNL     1      23.053  40.353   8.054  1.00  0.00    -0.063 Cl
HETATM    6  C6  UNL     1      21.788  42.864   7.977  1.00  0.00     0.052 A 
HETATM    7  C9  UNL     1      21.202  43.637   7.023  1.00  0.00     0.072 A 
HETATM    8 CL3  UNL     1      20.499  45.243   7.267  1.00  0.00    -0.081 Cl
ENDROOT
BRANCH   6   9
HETATM    9  C7  UNL     1      21.891  43.258   9.401  1.00  0.00     0.060 C 
HETATM   10  N2  UNL     1      22.538  44.357   9.669  1.00  0.00    -0.271 N 
ATOM     11  H2  UNL     1      22.930  44.869   8.879  1.00  0.00     0.194 HD
BRANCH   9  12
HETATM   12  C8  UNL     1      21.421  42.531  10.590  1.00  0.00     0.174 C 
HETATM   13 CL2  UNL     1      20.260  41.240  10.070  1.00  0.00    -0.124 Cl
ENDBRANCH   9  12
BRANCH  10  14
HETATM   14  O1  UNL     1      22.737  44.880  10.898  1.00  0.00    -0.290 OA
ATOM     15  H1  UNL     1      23.521  45.327  11.193  1.00  0.00     0.244 HD
ENDBRANCH  10  14
ENDBRANCH   6   9
BRANCH   1  16
HETATM   16  C2  UNL     1      20.887  43.540   4.497  1.00  0.00     0.029 C 
HETATM   17  C1  UNL     1      20.513  42.480   3.433  1.00  0.00     0.016 C 
HETATM   18  C3  UNL     1      22.313  44.001   3.915  1.00  0.00     0.016 C 
ENDBRANCH   1  16
TORSDOF 4
ENDMDL
MODEL 5
REMARK VINA RESULT: -5.597096021      2.603      4.953
REMARK  4 active torsions:
REMARK  status: ('A' for Active; 'I' for Inactive)
REMARK    1  A    between atoms: C2_2  and  C4_4 
REMARK    2  A    between atoms: C6_9  and  C7_10 
REMARK    3  A    between atoms: C7_10  and  C8_11 
REMARK    4  A    between atoms: N2_13  and  O1_15 
ROOT
HETATM    1  C4  UNL     1      22.012  42.451   5.749  1.00  0.00     0.036 A 
HETATM    2  N1  UNL     1      21.445  43.655   5.958  1.00  0.00    -0.348 N 
ATOM      3  H1  UNL     1      21.324  44.379   5.250  1.00  0.00     0.167 HD
HETATM    4  C5  UNL     1      21.060  43.757   7.256  1.00  0.00     0.117 A 
HETATM    5 CL1  UNL     1      20.230  45.149   7.926  1.00  0.00    -0.063 Cl
HETATM    6  C6  UNL     1      21.394  42.588   7.892  1.00  0.00     0.052 A 
HETATM    7  C9  UNL     1      21.975  41.789   6.957  1.00  0.00     0.072 A 
HETATM    8 CL3  UNL     1      22.605  40.156   7.225  1.00  0.00    -0.081 Cl
ENDROOT
BRANCH   6   9
HETATM    9  C7  UNL     1      21.234  42.203   9.313  1.00  0.00     0.060 C 
HETATM   10  N2  UNL     1      22.081  42.707  10.165  1.00  0.00    -0.271 N 
ATOM     11  H2  UNL     1      22.797  43.331   9.794  1.00  0.00     0.194 HD
BRANCH   9  12
HETATM   12  C8  UNL     1      20.281  41.251   9.903  1.00  0.00     0.174 C 
HETATM   13 CL2  UNL     1      21.036  39.604   9.933  1.00  0.00    -0.124 Cl
ENDBRANCH   9  12
BRANCH  10  14
HETATM   14  O1  UNL     1      22.097  42.478  11.496  1.00  0.00    -0.290 OA
ATOM     15  H1  UNL     1      22.757  42.786  12.106  1.00  0.00     0.244 HD
ENDBRANCH  10  14
ENDBRANCH   6   9
BRANCH   1  16
HETATM   16  C2  UNL     1      22.368  41.864   4.441  1.00  0.00     0.029 C 
HETATM   17  C1  UNL     1      22.682  42.913   3.346  1.00  0.00     0.016 C 
HETATM   18  C3  UNL     1      20.961  41.320   3.886  1.00  0.00     0.016 C 
ENDBRANCH   1  16
TORSDOF 4
ENDMDL
