MODEL 1
REMARK VINA RESULT: -7.597305753      0.000      0.000
REMARK  4 active torsions:
REMARK  status: ('A' for Active; 'I' for Inactive)
REMARK    1  A    between atoms: C2_2  and  C12_19 
REMARK    2  A    between atoms: C3_3  and  C4_4 
REMARK    3  A    between atoms: C5_5  and  C6_6 
REMARK    4  A    between atoms: C11_13  and  N2_14 
ROOT
HETATM    1  C6  UNL     1      22.062  43.319   7.469  1.00  0.00     0.106 A 
HETATM    2  N1  UNL     1      21.880  42.060   8.014  1.00  0.00    -0.346 N 
ATOM      3  H1  UNL     1      21.867  41.250   7.395  1.00  0.00     0.167 HD
HETATM    4  C7  UNL     1      21.724  41.878   9.317  1.00  0.00     0.016 A 
HETATM    5  C8  UNL     1      21.534  40.514   9.855  1.00  0.00     0.069 C 
HETATM    6  C9  UNL     1      21.733  42.939  10.200  1.00  0.00     0.004 A 
HETATM    7  C10 UNL     1      21.555  42.670  11.632  1.00  0.00     0.054 C 
HETATM    8  C11 UNL     1      21.909  44.187   9.687  1.00  0.00     0.108 A 
HETATM    9  N3  UNL     1      22.069  44.331   8.324  1.00  0.00    -0.329 N 
ATOM     10  H3  UNL     1      22.200  45.271   7.952  1.00  0.00     0.169 HD
ENDROOT
BRANCH   1  11
HETATM   11  C5  UNL     1      22.226  43.464   6.055  1.00  0.00     0.048 C 
HETATM   12  C4  UNL     1      21.747  42.920   5.003  1.00  0.00     0.004 C 
BRANCH  12  13
HETATM   13  C3  UNL     1      20.800  41.886   4.742  1.00  0.00     0.008 C 
HETATM   14  C2  UNL     1      20.525  41.555   3.468  1.00  0.00    -0.014 C 
HETATM   15  C1  UNL     1      21.211  42.274   2.394  1.00  0.00     0.049 C 
BRANCH  14  16
HETATM   16  C12 UNL     1      19.550  40.487   3.123  1.00  0.00     0.279 C 
HETATM   17  F1  UNL     1      20.282  39.308   3.032  1.00  0.00    -0.202 F 
HETATM   18 CL1  UNL     1      18.949  40.836   1.486  1.00  0.00    -0.061 Cl
HETATM   19 CL2  UNL     1      18.254  40.373   4.299  1.00  0.00    -0.061 Cl
ENDBRANCH  14  16
ENDBRANCH  12  13
ENDBRANCH   1  11
BRANCH   8  20
HETATM   20  N2  UNL     1      21.926  45.207  10.469  1.00  0.00    -0.385 N 
ATOM     21  H22 UNL     1      21.171  45.374  11.134  1.00  0.00     0.157 HD
ATOM     22  H21 UNL     1      22.702  45.867  10.430  1.00  0.00     0.157 HD
ENDBRANCH   8  20
TORSDOF 4
ENDMDL
MODEL 2
REMARK VINA RESULT: -7.587339404      3.255      3.996
REMARK  4 active torsions:
REMARK  status: ('A' for Active; 'I' for Inactive)
REMARK    1  A    between atoms: C2_2  and  C12_19 
REMARK    2  A    between atoms: C3_3  and  C4_4 
REMARK    3  A    between atoms: C5_5  and  C6_6 
REMARK    4  A    between atoms: C11_13  and  N2_14 
ROOT
HETATM    1  C6  UNL     1      21.103  41.982   7.493  1.00  0.00     0.106 A 
HETATM    2  N1  UNL     1      21.281  43.239   8.042  1.00  0.00    -0.346 N 
ATOM      3  H1  UNL     1      21.290  44.052   7.426  1.00  0.00     0.167 HD
HETATM    4  C7  UNL     1      21.438  43.417   9.346  1.00  0.00     0.016 A 
HETATM    5  C8  UNL     1      21.625  44.779   9.889  1.00  0.00     0.069 C 
HETATM    6  C9  UNL     1      21.433  42.353  10.225  1.00  0.00     0.004 A 
HETATM    7  C10 UNL     1      21.613  42.617  11.658  1.00  0.00     0.054 C 
HETATM    8  C11 UNL     1      21.260  41.106   9.708  1.00  0.00     0.108 A 
HETATM    9  N3  UNL     1      21.099  40.967   8.344  1.00  0.00    -0.329 N 
ATOM     10  H3  UNL     1      20.970  40.027   7.970  1.00  0.00     0.169 HD
ENDROOT
BRANCH   1  11
HETATM   11  C5  UNL     1      20.937  41.842   6.079  1.00  0.00     0.048 C 
HETATM   12  C4  UNL     1      21.422  42.382   5.029  1.00  0.00     0.004 C 
BRANCH  12  13
HETATM   13  C3  UNL     1      22.380  43.407   4.769  1.00  0.00     0.008 C 
HETATM   14  C2  UNL     1      22.656  43.739   3.496  1.00  0.00    -0.014 C 
HETATM   15  C1  UNL     1      21.960  43.032   2.421  1.00  0.00     0.049 C 
BRANCH  14  16
HETATM   16  C12 UNL     1      23.643  44.797   3.153  1.00  0.00     0.279 C 
HETATM   17  F1  UNL     1      22.916  45.974   3.011  1.00  0.00    -0.202 F 
HETATM   18 CL1  UNL     1      24.290  44.407   1.543  1.00  0.00    -0.061 Cl
HETATM   19 CL2  UNL     1      24.904  44.940   4.364  1.00  0.00    -0.061 Cl
ENDBRANCH  14  16
ENDBRANCH  12  13
ENDBRANCH   1  11
BRANCH   8  20
HETATM   20  N2  UNL     1      21.248  40.084  10.486  1.00  0.00    -0.385 N 
ATOM     21  H22 UNL     1      20.596  40.024  11.268  1.00  0.00     0.157 HD
ATOM     22  H21 UNL     1      21.898  39.313  10.328  1.00  0.00     0.157 HD
ENDBRANCH   8  20
TORSDOF 4
ENDMDL
MODEL 3
REMARK VINA RESULT: -7.345235686      0.674      1.926
REMARK  4 active torsions:
REMARK  status: ('A' for Active; 'I' for Inactive)
REMARK    1  A    between atoms: C2_2  and  C12_19 
REMARK    2  A    between atoms: C3_3  and  C4_4 
REMARK    3  A    between atoms: C5_5  and  C6_6 
REMARK    4  A    between atoms: C11_13  and  N2_14 
ROOT
HETATM    1  C6  UNL     1      22.092  43.119   7.448  1.00  0.00     0.106 A 
HETATM    2  N1  UNL     1      22.303  44.159   8.335  1.00  0.00    -0.346 N 
ATOM      3  H1  UNL     1      22.556  45.078   7.970  1.00  0.00     0.167 HD
HETATM    4  C7  UNL     1      22.187  43.996   9.645  1.00  0.00     0.016 A 
HETATM    5  C8  UNL     1      22.422  45.136  10.556  1.00  0.00     0.069 C 
HETATM    6  C9  UNL     1      21.848  42.775  10.193  1.00  0.00     0.004 A 
HETATM    7  C10 UNL     1      21.736  42.660  11.651  1.00  0.00     0.054 C 
HETATM    8  C11 UNL     1      21.636  41.736   9.340  1.00  0.00     0.108 A 
HETATM    9  N3  UNL     1      21.767  41.952   7.982  1.00  0.00    -0.329 N 
ATOM     10  H3  UNL     1      21.605  41.165   7.354  1.00  0.00     0.169 HD
ENDROOT
BRANCH   1  11
HETATM   11  C5  UNL     1      22.229  43.346   6.042  1.00  0.00     0.048 C 
HETATM   12  C4  UNL     1      21.746  42.849   4.969  1.00  0.00     0.004 C 
BRANCH  12  13
HETATM   13  C3  UNL     1      20.820  41.808   4.665  1.00  0.00     0.008 C 
HETATM   14  C2  UNL     1      20.553  41.523   3.378  1.00  0.00    -0.014 C 
HETATM   15  C1  UNL     1      21.226  42.296   2.335  1.00  0.00     0.049 C 
BRANCH  14  16
HETATM   16  C12 UNL     1      19.599  40.451   2.990  1.00  0.00     0.279 C 
HETATM   17  F1  UNL     1      20.327  39.266   2.985  1.00  0.00    -0.202 F 
HETATM   18 CL1  UNL     1      19.125  40.758   1.303  1.00  0.00    -0.061 Cl
HETATM   19 CL2  UNL     1      18.217  40.375   4.068  1.00  0.00    -0.061 Cl
ENDBRANCH  14  16
ENDBRANCH  12  13
ENDBRANCH   1  11
BRANCH   8  20
HETATM   20  N2  UNL     1      21.318  40.580   9.801  1.00  0.00    -0.385 N 
ATOM     21  H22 UNL     1      22.026  39.866   9.967  1.00  0.00     0.157 HD
ATOM     22  H21 UNL     1      20.343  40.363  10.007  1.00  0.00     0.157 HD
ENDBRANCH   8  20
TORSDOF 4
ENDMDL
MODEL 4
REMARK VINA RESULT: -7.283834962      3.093      3.455
REMARK  4 active torsions:
REMARK  status: ('A' for Active; 'I' for Inactive)
REMARK    1  A    between atoms: C2_2  and  C12_19 
REMARK    2  A    between atoms: C3_3  and  C4_4 
REMARK    3  A    between atoms: C5_5  and  C6_6 
REMARK    4  A    between atoms: C11_13  and  N2_14 
ROOT
HETATM    1  C6  UNL     1      21.162  42.204   7.257  1.00  0.00     0.106 A 
HETATM    2  N1  UNL     1      21.086  41.198   8.204  1.00  0.00    -0.346 N 
ATOM      3  H1  UNL     1      20.952  40.236   7.894  1.00  0.00     0.167 HD
HETATM    4  C7  UNL     1      21.181  41.450   9.501  1.00  0.00     0.016 A 
HETATM    5  C8  UNL     1      21.094  40.343  10.477  1.00  0.00     0.069 C 
HETATM    6  C9  UNL     1      21.362  42.734   9.976  1.00  0.00     0.004 A 
HETATM    7  C10 UNL     1      21.459  42.946  11.425  1.00  0.00     0.054 C 
HETATM    8  C11 UNL     1      21.439  43.741   9.063  1.00  0.00     0.108 A 
HETATM    9  N3  UNL     1      21.335  43.432   7.722  1.00  0.00    -0.329 N 
ATOM     10  H3  UNL     1      21.395  44.196   7.048  1.00  0.00     0.169 HD
ENDROOT
BRANCH   1  11
HETATM   11  C5  UNL     1      21.053  41.882   5.868  1.00  0.00     0.048 C 
HETATM   12  C4  UNL     1      21.520  42.336   4.769  1.00  0.00     0.004 C 
BRANCH  12  13
HETATM   13  C3  UNL     1      22.390  43.406   4.406  1.00  0.00     0.008 C 
HETATM   14  C2  UNL     1      22.545  43.713   3.106  1.00  0.00    -0.014 C 
HETATM   15  C1  UNL     1      21.813  42.932   2.110  1.00  0.00     0.049 C 
BRANCH  14  16
HETATM   16  C12 UNL     1      23.436  44.816   2.657  1.00  0.00     0.279 C 
HETATM   17  F1  UNL     1      22.824  45.997   3.061  1.00  0.00    -0.202 F 
HETATM   18 CL1  UNL     1      23.411  44.817   0.879  1.00  0.00    -0.061 Cl
HETATM   19 CL2  UNL     1      25.059  44.657   3.302  1.00  0.00    -0.061 Cl
ENDBRANCH  14  16
ENDBRANCH  12  13
ENDBRANCH   1  11
BRANCH   8  20
HETATM   20  N2  UNL     1      21.607  44.952   9.455  1.00  0.00    -0.385 N 
ATOM     21  H22 UNL     1      22.424  45.221  10.003  1.00  0.00     0.157 HD
ATOM     22  H21 UNL     1      20.916  45.665   9.221  1.00  0.00     0.157 HD
ENDBRANCH   8  20
TORSDOF 4
ENDMDL
MODEL 5
REMARK VINA RESULT: -7.227818135      3.085      3.911
REMARK  4 active torsions:
REMARK  status: ('A' for Active; 'I' for Inactive)
REMARK    1  A    between atoms: C2_2  and  C12_19 
REMARK    2  A    between atoms: C3_3  and  C4_4 
REMARK    3  A    between atoms: C5_5  and  C6_6 
REMARK    4  A    between atoms: C11_13  and  N2_14 
ROOT
HETATM    1  C6  UNL     1      20.983  41.994   7.486  1.00  0.00     0.106 A 
HETATM    2  N1  UNL     1      21.170  43.260   8.012  1.00  0.00    -0.346 N 
ATOM      3  H1  UNL     1      21.142  44.065   7.387  1.00  0.00     0.167 HD
HETATM    4  C7  UNL     1      21.384  43.455   9.306  1.00  0.00     0.016 A 
HETATM    5  C8  UNL     1      21.577  44.826   9.824  1.00  0.00     0.069 C 
HETATM    6  C9  UNL     1      21.432  42.402  10.196  1.00  0.00     0.004 A 
HETATM    7  C10 UNL     1      21.673  42.685  11.616  1.00  0.00     0.054 C 
HETATM    8  C11 UNL     1      21.252  41.146   9.702  1.00  0.00     0.108 A 
HETATM    9  N3  UNL     1      21.032  40.989   8.348  1.00  0.00    -0.329 N 
ATOM     10  H3  UNL     1      20.898  40.044   7.990  1.00  0.00     0.169 HD
ENDROOT
BRANCH   1  11
HETATM   11  C5  UNL     1      20.756  41.835   6.083  1.00  0.00     0.048 C 
HETATM   12  C4  UNL     1      21.343  42.178   5.001  1.00  0.00     0.004 C 
BRANCH  12  13
HETATM   13  C3  UNL     1      22.530  42.901   4.682  1.00  0.00     0.008 C 
HETATM   14  C2  UNL     1      22.762  43.248   3.403  1.00  0.00    -0.014 C 
HETATM   15  C1  UNL     1      21.783  42.866   2.385  1.00  0.00     0.049 C 
BRANCH  14  16
HETATM   16  C12 UNL     1      23.978  44.002   2.998  1.00  0.00     0.279 C 
HETATM   17  F1  UNL     1      24.949  43.048   2.713  1.00  0.00    -0.202 F 
HETATM   18 CL1  UNL     1      24.546  44.888   4.432  1.00  0.00    -0.061 Cl
HETATM   19 CL2  UNL     1      23.672  45.063   1.635  1.00  0.00    -0.061 Cl
ENDBRANCH  14  16
ENDBRANCH  12  13
ENDBRANCH   1  11
BRANCH   8  20
HETATM   20  N2  UNL     1      21.288  40.133  10.490  1.00  0.00    -0.385 N 
ATOM     21  H22 UNL     1      22.150  39.864  10.965  1.00  0.00     0.157 HD
ATOM     22  H21 UNL     1      20.446  39.581  10.651  1.00  0.00     0.157 HD
ENDBRANCH   8  20
TORSDOF 4
ENDMDL
