MODEL 1
REMARK VINA RESULT: -7.109941297      0.000      0.000
REMARK  7 active torsions:
REMARK  status: ('A' for Active; 'I' for Inactive)
REMARK    1  A    between atoms: C6_6  and  C7_7 
REMARK    2  A    between atoms: C7_7  and  C8_8 
REMARK    3  A    between atoms: C8_8  and  C9_9 
REMARK    4  A    between atoms: C11_13  and  O3_14 
REMARK    5  A    between atoms: N1_19  and  C15_20 
REMARK    6  A    between atoms: C15_20  and  C16_21 
REMARK    7  A    between atoms: C16_21  and  O5_23 
ROOT
HETATM    1  C1  UNL     1      -6.929   7.575  12.050  1.00  0.00     0.016 C 
HETATM    2  C2  UNL     1      -6.176   6.643  12.613  1.00  0.00    -0.071 C 
HETATM    3  C3  UNL     1      -6.841   6.023  13.791  1.00  0.00     0.035 C 
HETATM    4  C4  UNL     1      -6.059   6.080  15.050  1.00  0.00     0.010 C 
HETATM    5  C5  UNL     1      -4.673   5.585  15.056  1.00  0.00    -0.001 C 
HETATM    6  C6  UNL     1      -4.363   4.383  14.236  1.00  0.00     0.022 C 
HETATM    7  C10 UNL     1      -3.551   5.205  13.308  1.00  0.00     0.066 C 
HETATM    8  C11 UNL     1      -2.076   5.033  13.230  1.00  0.00     0.147 C 
HETATM    9  C12 UNL     1      -1.432   5.609  14.478  1.00  0.00     0.035 C 
HETATM   10  C13 UNL     1      -2.425   6.561  15.016  1.00  0.00     0.010 C 
HETATM   11  C14 UNL     1      -3.711   6.372  14.236  1.00  0.00     0.021 C 
HETATM   12  N1  UNL     1      -4.194   5.320  12.055  1.00  0.00    -0.368 N 
HETATM   13  C18 UNL     1      -4.920   6.550  11.851  1.00  0.00     0.157 C 
ENDROOT
BRANCH   6  14
HETATM   14  C7  UNL     1      -3.777   3.183  14.886  1.00  0.00     0.018 C 
BRANCH  14  15
HETATM   15  C8  UNL     1      -4.949   2.256  15.251  1.00  0.00     0.113 C 
BRANCH  15  16
HETATM   16  C9  UNL     1      -4.471   0.923  15.636  1.00  0.00     0.172 C 
HETATM   17  O1  UNL     1      -3.651   0.820  16.578  1.00  0.00    -0.648 OA
HETATM   18  O2  UNL     1      -4.917  -0.196  14.971  1.00  0.00    -0.648 OA
ENDBRANCH  15  16
ENDBRANCH  14  15
ENDBRANCH   6  14
BRANCH   8  19
HETATM   19  O3  UNL     1      -1.636   5.900  12.196  1.00  0.00    -0.393 OA
ATOM     20  H3  UNL     1      -1.299   5.338  11.509  1.00  0.00     0.210 HD
ENDBRANCH   8  19
BRANCH  12  21
HETATM   21  C15 UNL     1      -4.785   4.222  11.426  1.00  0.00     0.169 C 
BRANCH  21  22
HETATM   22  C16 UNL     1      -4.009   3.238  10.690  1.00  0.00     0.297 C 
HETATM   23  O4  UNL     1      -2.922   3.490  10.155  1.00  0.00    -0.259 OA
BRANCH  22  24
HETATM   24  O5  UNL     1      -4.452   1.912  10.535  1.00  0.00    -0.322 OA
HETATM   25  C17 UNL     1      -4.852   1.157  11.661  1.00  0.00     0.213 C 
ENDBRANCH  22  24
ENDBRANCH  21  22
ENDBRANCH  12  21
TORSDOF 7
ENDMDL
MODEL 2
REMARK VINA RESULT: -6.837514117      0.860      1.215
REMARK  7 active torsions:
REMARK  status: ('A' for Active; 'I' for Inactive)
REMARK    1  A    between atoms: C6_6  and  C7_7 
REMARK    2  A    between atoms: C7_7  and  C8_8 
REMARK    3  A    between atoms: C8_8  and  C9_9 
REMARK    4  A    between atoms: C11_13  and  O3_14 
REMARK    5  A    between atoms: N1_19  and  C15_20 
REMARK    6  A    between atoms: C15_20  and  C16_21 
REMARK    7  A    between atoms: C16_21  and  O5_23 
ROOT
HETATM    1  C1  UNL     1      -7.174   7.679  12.213  1.00  0.00     0.016 C 
HETATM    2  C2  UNL     1      -6.377   6.734  12.686  1.00  0.00    -0.071 C 
HETATM    3  C3  UNL     1      -7.002   5.987  13.812  1.00  0.00     0.035 C 
HETATM    4  C4  UNL     1      -6.208   5.969  15.064  1.00  0.00     0.010 C 
HETATM    5  C5  UNL     1      -4.803   5.535  15.016  1.00  0.00    -0.001 C 
HETATM    6  C6  UNL     1      -4.453   4.422  14.092  1.00  0.00     0.022 C 
HETATM    7  C10 UNL     1      -3.687   5.355  13.233  1.00  0.00     0.066 C 
HETATM    8  C11 UNL     1      -2.207   5.253  13.129  1.00  0.00     0.147 C 
HETATM    9  C12 UNL     1      -1.573   5.746  14.418  1.00  0.00     0.035 C 
HETATM   10  C13 UNL     1      -2.599   6.604  15.044  1.00  0.00     0.010 C 
HETATM   11  C14 UNL     1      -3.884   6.429  14.260  1.00  0.00     0.021 C 
HETATM   12  N1  UNL     1      -4.348   5.550  12.000  1.00  0.00    -0.368 N 
HETATM   13  C18 UNL     1      -5.128   6.762  11.909  1.00  0.00     0.157 C 
ENDROOT
BRANCH   6  14
HETATM   14  C7  UNL     1      -3.810   3.196  14.631  1.00  0.00     0.018 C 
BRANCH  14  15
HETATM   15  C8  UNL     1      -4.927   2.345  15.257  1.00  0.00     0.113 C 
BRANCH  15  16
HETATM   16  C9  UNL     1      -4.447   0.997  15.583  1.00  0.00     0.172 C 
HETATM   17  O1  UNL     1      -3.607   0.857  16.502  1.00  0.00    -0.648 OA
HETATM   18  O2  UNL     1      -4.914  -0.097  14.889  1.00  0.00    -0.648 OA
ENDBRANCH  15  16
ENDBRANCH  14  15
ENDBRANCH   6  14
BRANCH   8  19
HETATM   19  O3  UNL     1      -1.815   6.225  12.171  1.00  0.00    -0.393 OA
ATOM     20  H3  UNL     1      -0.958   5.956  11.862  1.00  0.00     0.210 HD
ENDBRANCH   8  19
BRANCH  12  21
HETATM   21  C15 UNL     1      -4.900   4.487  11.283  1.00  0.00     0.169 C 
BRANCH  21  22
HETATM   22  C16 UNL     1      -4.253   3.921  10.110  1.00  0.00     0.297 C 
HETATM   23  O4  UNL     1      -3.161   3.342  10.149  1.00  0.00    -0.259 OA
BRANCH  22  24
HETATM   24  O5  UNL     1      -4.838   3.998   8.833  1.00  0.00    -0.322 OA
HETATM   25  C17 UNL     1      -5.687   5.079   8.501  1.00  0.00     0.213 C 
ENDBRANCH  22  24
ENDBRANCH  21  22
ENDBRANCH  12  21
TORSDOF 7
ENDMDL
MODEL 3
REMARK VINA RESULT: -6.693471333      1.844      4.901
REMARK  7 active torsions:
REMARK  status: ('A' for Active; 'I' for Inactive)
REMARK    1  A    between atoms: C6_6  and  C7_7 
REMARK    2  A    between atoms: C7_7  and  C8_8 
REMARK    3  A    between atoms: C8_8  and  C9_9 
REMARK    4  A    between atoms: C11_13  and  O3_14 
REMARK    5  A    between atoms: N1_19  and  C15_20 
REMARK    6  A    between atoms: C15_20  and  C16_21 
REMARK    7  A    between atoms: C16_21  and  O5_23 
ROOT
HETATM    1  C1  UNL     1      -6.384   5.834  15.570  1.00  0.00     0.016 C 
HETATM    2  C2  UNL     1      -5.402   5.236  14.913  1.00  0.00    -0.071 C 
HETATM    3  C3  UNL     1      -4.134   6.014  14.974  1.00  0.00     0.035 C 
HETATM    4  C4  UNL     1      -3.547   6.350  13.654  1.00  0.00     0.010 C 
HETATM    5  C5  UNL     1      -3.320   5.274  12.676  1.00  0.00    -0.001 C 
HETATM    6  C6  UNL     1      -2.870   3.953  13.190  1.00  0.00     0.022 C 
HETATM    7  C10 UNL     1      -4.173   3.348  12.824  1.00  0.00     0.066 C 
HETATM    8  C11 UNL     1      -4.266   2.342  11.733  1.00  0.00     0.147 C 
HETATM    9  C12 UNL     1      -4.082   3.029  10.392  1.00  0.00     0.035 C 
HETATM   10  C13 UNL     1      -4.409   4.448  10.642  1.00  0.00     0.010 C 
HETATM   11  C14 UNL     1      -4.550   4.629  12.140  1.00  0.00     0.021 C 
HETATM   12  N1  UNL     1      -4.914   3.026  13.983  1.00  0.00    -0.368 N 
HETATM   13  C18 UNL     1      -5.930   3.985  14.346  1.00  0.00     0.157 C 
ENDROOT
BRANCH   6  14
HETATM   14  C7  UNL     1      -1.601   3.364  12.691  1.00  0.00     0.018 C 
BRANCH  14  15
HETATM   15  C8  UNL     1      -0.779   4.517  12.093  1.00  0.00     0.113 C 
BRANCH  15  16
HETATM   16  C9  UNL     1       0.252   4.014  11.177  1.00  0.00     0.172 C 
HETATM   17  O1  UNL     1      -0.099   3.517  10.083  1.00  0.00    -0.648 OA
HETATM   18  O2  UNL     1       1.584   4.090  11.518  1.00  0.00    -0.648 OA
ENDBRANCH  15  16
ENDBRANCH  14  15
ENDBRANCH   6  14
BRANCH   8  19
HETATM   19  O3  UNL     1      -5.620   1.916  11.709  1.00  0.00    -0.393 OA
ATOM     20  H3  UNL     1      -5.987   2.262  10.904  1.00  0.00     0.210 HD
ENDBRANCH   8  19
BRANCH  12  21
HETATM   21  C15 UNL     1      -4.323   2.406  15.086  1.00  0.00     0.169 C 
BRANCH  21  22
HETATM   22  C16 UNL     1      -4.640   1.041  15.472  1.00  0.00     0.297 C 
HETATM   23  O4  UNL     1      -4.822   0.128  14.657  1.00  0.00    -0.259 OA
BRANCH  22  24
HETATM   24  O5  UNL     1      -4.762   0.663  16.822  1.00  0.00    -0.322 OA
HETATM   25  C17 UNL     1      -6.018   0.716  17.467  1.00  0.00     0.213 C 
ENDBRANCH  22  24
ENDBRANCH  21  22
ENDBRANCH  12  21
TORSDOF 7
ENDMDL
MODEL 4
REMARK VINA RESULT: -6.667567547      2.514      4.785
REMARK  7 active torsions:
REMARK  status: ('A' for Active; 'I' for Inactive)
REMARK    1  A    between atoms: C6_6  and  C7_7 
REMARK    2  A    between atoms: C7_7  and  C8_8 
REMARK    3  A    between atoms: C8_8  and  C9_9 
REMARK    4  A    between atoms: C11_13  and  O3_14 
REMARK    5  A    between atoms: N1_19  and  C15_20 
REMARK    6  A    between atoms: C15_20  and  C16_21 
REMARK    7  A    between atoms: C16_21  and  O5_23 
ROOT
HETATM    1  C1  UNL     1      -5.866   3.240  15.380  1.00  0.00     0.016 C 
HETATM    2  C2  UNL     1      -4.888   3.205  14.489  1.00  0.00    -0.071 C 
HETATM    3  C3  UNL     1      -3.557   3.447  15.111  1.00  0.00     0.035 C 
HETATM    4  C4  UNL     1      -2.787   4.567  14.517  1.00  0.00     0.010 C 
HETATM    5  C5  UNL     1      -2.570   4.595  13.062  1.00  0.00    -0.001 C 
HETATM    6  C6  UNL     1      -2.332   3.299  12.371  1.00  0.00     0.022 C 
HETATM    7  C10 UNL     1      -3.643   3.404  11.687  1.00  0.00     0.066 C 
HETATM    8  C11 UNL     1      -3.721   3.613  10.217  1.00  0.00     0.147 C 
HETATM    9  C12 UNL     1      -3.308   5.035   9.884  1.00  0.00     0.035 C 
HETATM   10  C13 UNL     1      -3.502   5.792  11.138  1.00  0.00     0.010 C 
HETATM   11  C14 UNL     1      -3.794   4.791  12.238  1.00  0.00     0.021 C 
HETATM   12  N1  UNL     1      -4.544   2.439  12.191  1.00  0.00    -0.368 N 
HETATM   13  C18 UNL     1      -5.482   2.931  13.171  1.00  0.00     0.157 C 
ENDROOT
BRANCH   6  14
HETATM   14  C7  UNL     1      -1.088   3.104  11.584  1.00  0.00     0.018 C 
BRANCH  14  15
HETATM   15  C8  UNL     1      -0.170   4.296  11.898  1.00  0.00     0.113 C 
BRANCH  15  16
HETATM   16  C9  UNL     1       1.109   4.183  11.187  1.00  0.00     0.172 C 
HETATM   17  O1  UNL     1       1.108   3.812   9.991  1.00  0.00    -0.648 OA
HETATM   18  O2  UNL     1       2.291   4.480  11.827  1.00  0.00    -0.648 OA
ENDBRANCH  15  16
ENDBRANCH  14  15
ENDBRANCH   6  14
BRANCH   8  19
HETATM   19  O3  UNL     1      -5.102   3.580   9.890  1.00  0.00    -0.393 OA
ATOM     20  H3  UNL     1      -5.205   2.871   9.266  1.00  0.00     0.210 HD
ENDBRANCH   8  19
BRANCH  12  21
HETATM   21  C15 UNL     1      -4.158   1.116  12.414  1.00  0.00     0.169 C 
BRANCH  21  22
HETATM   22  C16 UNL     1      -4.373   0.068  11.431  1.00  0.00     0.297 C 
HETATM   23  O4  UNL     1      -4.617   0.292  10.239  1.00  0.00    -0.259 OA
BRANCH  22  24
HETATM   24  O5  UNL     1      -4.317  -1.295  11.778  1.00  0.00    -0.322 OA
HETATM   25  C17 UNL     1      -3.179  -2.067  11.451  1.00  0.00     0.213 C 
ENDBRANCH  22  24
ENDBRANCH  21  22
ENDBRANCH  12  21
TORSDOF 7
ENDMDL
MODEL 5
REMARK VINA RESULT: -6.533049839      2.331      5.159
REMARK  7 active torsions:
REMARK  status: ('A' for Active; 'I' for Inactive)
REMARK    1  A    between atoms: C6_6  and  C7_7 
REMARK    2  A    between atoms: C7_7  and  C8_8 
REMARK    3  A    between atoms: C8_8  and  C9_9 
REMARK    4  A    between atoms: C11_13  and  O3_14 
REMARK    5  A    between atoms: N1_19  and  C15_20 
REMARK    6  A    between atoms: C15_20  and  C16_21 
REMARK    7  A    between atoms: C16_21  and  O5_23 
ROOT
HETATM    1  C1  UNL     1      -3.419   0.551  11.012  1.00  0.00     0.016 C 
HETATM    2  C2  UNL     1      -3.756   1.676  11.623  1.00  0.00    -0.071 C 
HETATM    3  C3  UNL     1      -4.782   2.440  10.862  1.00  0.00     0.035 C 
HETATM    4  C4  UNL     1      -4.403   3.836  10.534  1.00  0.00     0.010 C 
HETATM    5  C5  UNL     1      -3.948   4.727  11.613  1.00  0.00    -0.001 C 
HETATM    6  C6  UNL     1      -4.609   4.602  12.941  1.00  0.00     0.022 C 
HETATM    7  C10 UNL     1      -3.363   4.054  13.528  1.00  0.00     0.066 C 
HETATM    8  C11 UNL     1      -2.590   4.830  14.533  1.00  0.00     0.147 C 
HETATM    9  C12 UNL     1      -1.888   5.990  13.849  1.00  0.00     0.035 C 
HETATM   10  C13 UNL     1      -1.808   5.602  12.426  1.00  0.00     0.010 C 
HETATM   11  C14 UNL     1      -2.651   4.355  12.243  1.00  0.00     0.021 C 
HETATM   12  N1  UNL     1      -3.522   2.685  13.840  1.00  0.00    -0.368 N 
HETATM   13  C18 UNL     1      -2.976   1.769  12.868  1.00  0.00     0.157 C 
ENDROOT
BRANCH   6  14
HETATM   14  C7  UNL     1      -5.268   5.788  13.546  1.00  0.00     0.018 C 
BRANCH  14  15
HETATM   15  C8  UNL     1      -5.421   6.832  12.429  1.00  0.00     0.113 C 
BRANCH  15  16
HETATM   16  C9  UNL     1      -6.782   7.384  12.401  1.00  0.00     0.172 C 
HETATM   17  O1  UNL     1      -7.015   8.389  11.692  1.00  0.00    -0.648 OA
HETATM   18  O2  UNL     1      -7.784   6.802  13.145  1.00  0.00    -0.648 OA
ENDBRANCH  15  16
ENDBRANCH  14  15
ENDBRANCH   6  14
BRANCH   8  19
HETATM   19  O3  UNL     1      -1.523   3.987  14.941  1.00  0.00    -0.393 OA
ATOM     20  H3  UNL     1      -1.073   4.453  15.636  1.00  0.00     0.210 HD
ENDBRANCH   8  19
BRANCH  12  21
HETATM   21  C15 UNL     1      -4.672   2.201  14.467  1.00  0.00     0.169 C 
BRANCH  21  22
HETATM   22  C16 UNL     1      -4.615   1.349  15.643  1.00  0.00     0.297 C 
HETATM   23  O4  UNL     1      -3.610   1.240  16.357  1.00  0.00    -0.259 OA
BRANCH  22  24
HETATM   24  O5  UNL     1      -5.719   0.579  16.053  1.00  0.00    -0.322 OA
HETATM   25  C17 UNL     1      -6.130   0.585  17.405  1.00  0.00     0.213 C 
ENDBRANCH  22  24
ENDBRANCH  21  22
ENDBRANCH  12  21
TORSDOF 7
ENDMDL
