MODEL 1
REMARK VINA RESULT: -6.773533903      0.000      0.000
REMARK  8 active torsions:
REMARK  status: ('A' for Active; 'I' for Inactive)
REMARK    1  A    between atoms: C3_3  and  N1_4 
REMARK       I    between atoms: N1_4  and  C4_6 
REMARK    2  A    between atoms: C4_6  and  O2_8 
REMARK    3  A    between atoms: O2_8  and  C5_9 
REMARK    4  A    between atoms: N2_12  and  C8_13 
REMARK    5  A    between atoms: C8_13  and  C9_14 
REMARK    6  A    between atoms: C9_14  and  C10_15 
REMARK    7  A    between atoms: C10_15  and  O3_16 
REMARK    8  A    between atoms: C14_21  and  N3_22 
ROOT
HETATM    1  N1  UNL     1      -4.650   3.262  10.423  1.00  0.00    -0.332 N 
ATOM      2  H1  UNL     1      -5.629   2.978  10.466  1.00  0.00     0.165 HD
HETATM    3  C4  UNL     1      -4.135   3.996   9.310  1.00  0.00     0.361 C 
HETATM    4  O1  UNL     1      -2.931   4.354   9.249  1.00  0.00    -0.238 OA
ENDROOT
BRANCH   1   5
HETATM    5  C3  UNL     1      -3.718   2.940  11.488  1.00  0.00     0.094 C 
HETATM    6  C2  UNL     1      -4.075   1.710  12.295  1.00  0.00     0.027 C 
HETATM    7  C1  UNL     1      -4.818   0.652  11.507  1.00  0.00     0.014 C 
HETATM    8  C14 UNL     1      -4.891   2.582  13.181  1.00  0.00     0.086 C 
HETATM    9  C13 UNL     1      -4.065   3.758  12.715  1.00  0.00     0.051 C 
BRANCH   8  10
HETATM   10  N3  UNL     1      -4.800   2.386  14.589  1.00  0.00    -0.404 N 
HETATM   11  C15 UNL     1      -5.598   3.234  15.388  1.00  0.00     0.147 C 
HETATM   12  C16 UNL     1      -6.573   2.550  16.298  1.00  0.00     0.291 C 
HETATM   13  N4  UNL     1      -6.099   1.321  16.839  1.00  0.00     0.087 N 
HETATM   14  C17 UNL     1      -6.336   1.142  18.254  1.00  0.00     0.310 C 
HETATM   15  C18 UNL     1      -4.710   1.073  16.573  1.00  0.00     0.291 C 
HETATM   16  C19 UNL     1      -4.580   1.067  15.040  1.00  0.00     0.147 C 
ENDBRANCH   8  10
ENDBRANCH   1   5
BRANCH   3  17
HETATM   17  O2  UNL     1      -4.941   4.365   8.216  1.00  0.00    -0.299 OA
BRANCH  17  18
HETATM   18  C5  UNL     1      -5.268   5.706   8.015  1.00  0.00     0.137 C 
HETATM   19  C6  UNL     1      -5.372   6.488   9.305  1.00  0.00     0.063 C 
HETATM   20  C7  UNL     1      -5.932   7.871   9.053  1.00  0.00     0.275 C 
HETATM   21  N2  UNL     1      -7.251   7.785   8.410  1.00  0.00     0.088 N 
HETATM   22  C11 UNL     1      -7.608   6.416   8.195  1.00  0.00     0.275 C 
HETATM   23  C12 UNL     1      -6.566   5.796   7.266  1.00  0.00     0.063 C 
BRANCH  21  24
HETATM   24  C8  UNL     1      -8.213   8.552   9.166  1.00  0.00     0.274 C 
BRANCH  24  25
HETATM   25  C9  UNL     1      -9.579   8.381   8.580  1.00  0.00     0.056 C 
BRANCH  25  26
HETATM   26  C10 UNL     1      -9.972   9.678   7.904  1.00  0.00     0.165 C 
BRANCH  26  27
HETATM   27  O3  UNL     1     -11.379   9.777   7.865  1.00  0.00    -0.401 OA
ATOM     28  H3  UNL     1     -11.626  10.575   7.411  1.00  0.00     0.209 HD
ENDBRANCH  26  27
ENDBRANCH  25  26
ENDBRANCH  24  25
ENDBRANCH  21  24
ENDBRANCH  17  18
ENDBRANCH   3  17
TORSDOF 8
ENDMDL
MODEL 2
REMARK VINA RESULT: -6.612780254      3.424      9.488
REMARK  8 active torsions:
REMARK  status: ('A' for Active; 'I' for Inactive)
REMARK    1  A    between atoms: C3_3  and  N1_4 
REMARK       I    between atoms: N1_4  and  C4_6 
REMARK    2  A    between atoms: C4_6  and  O2_8 
REMARK    3  A    between atoms: O2_8  and  C5_9 
REMARK    4  A    between atoms: N2_12  and  C8_13 
REMARK    5  A    between atoms: C8_13  and  C9_14 
REMARK    6  A    between atoms: C9_14  and  C10_15 
REMARK    7  A    between atoms: C10_15  and  O3_16 
REMARK    8  A    between atoms: C14_21  and  N3_22 
ROOT
HETATM    1  N1  UNL     1      -5.500   6.193  11.686  1.00  0.00    -0.332 N 
ATOM      2  H1  UNL     1      -5.946   5.654  10.945  1.00  0.00     0.165 HD
HETATM    3  C4  UNL     1      -5.060   5.577  12.898  1.00  0.00     0.361 C 
HETATM    4  O1  UNL     1      -4.506   6.234  13.816  1.00  0.00    -0.238 OA
ENDROOT
BRANCH   1   5
HETATM    5  C3  UNL     1      -5.284   7.624  11.559  1.00  0.00     0.094 C 
HETATM    6  C2  UNL     1      -6.547   8.449  11.437  1.00  0.00     0.027 C 
HETATM    7  C1  UNL     1      -7.739   7.861  12.162  1.00  0.00     0.014 C 
HETATM    8  C14 UNL     1      -6.488   8.241   9.965  1.00  0.00     0.086 C 
HETATM    9  C13 UNL     1      -5.011   7.957  10.106  1.00  0.00     0.051 C 
BRANCH   8  10
HETATM   10  N3  UNL     1      -6.742   9.356   9.117  1.00  0.00    -0.404 N 
HETATM   11  C15 UNL     1      -7.576   9.113   8.003  1.00  0.00     0.147 C 
HETATM   12  C16 UNL     1      -8.814   9.953   7.915  1.00  0.00     0.291 C 
HETATM   13  N4  UNL     1      -8.645  11.287   8.384  1.00  0.00     0.087 N 
HETATM   14  C17 UNL     1      -9.215  12.311   7.539  1.00  0.00     0.310 C 
HETATM   15  C18 UNL     1      -7.279  11.631   8.661  1.00  0.00     0.291 C 
HETATM   16  C19 UNL     1      -6.811  10.626   9.728  1.00  0.00     0.147 C 
ENDBRANCH   8  10
ENDBRANCH   1   5
BRANCH   3  17
HETATM   17  O2  UNL     1      -5.217   4.199  13.138  1.00  0.00    -0.299 OA
BRANCH  17  18
HETATM   18  C5  UNL     1      -4.153   3.327  12.903  1.00  0.00     0.137 C 
HETATM   19  C6  UNL     1      -3.893   3.096  11.431  1.00  0.00     0.063 C 
HETATM   20  C7  UNL     1      -2.880   1.991  11.230  1.00  0.00     0.275 C 
HETATM   21  N2  UNL     1      -3.343   0.746  11.859  1.00  0.00     0.088 N 
HETATM   22  C11 UNL     1      -4.609   0.953  12.494  1.00  0.00     0.275 C 
HETATM   23  C12 UNL     1      -4.426   2.014  13.577  1.00  0.00     0.063 C 
BRANCH  21  24
HETATM   24  C8  UNL     1      -3.315  -0.328  10.893  1.00  0.00     0.274 C 
BRANCH  24  25
HETATM   25  C9  UNL     1      -3.851  -1.583  11.507  1.00  0.00     0.056 C 
BRANCH  25  26
HETATM   26  C10 UNL     1      -2.750  -2.622  11.501  1.00  0.00     0.165 C 
BRANCH  26  27
HETATM   27  O3  UNL     1      -3.324  -3.912  11.503  1.00  0.00    -0.401 OA
ATOM     28  H3  UNL     1      -3.222  -4.300  12.364  1.00  0.00     0.209 HD
ENDBRANCH  26  27
ENDBRANCH  25  26
ENDBRANCH  24  25
ENDBRANCH  21  24
ENDBRANCH  17  18
ENDBRANCH   3  17
TORSDOF 8
ENDMDL
MODEL 3
REMARK VINA RESULT: -6.563375646      3.252      9.308
REMARK  8 active torsions:
REMARK  status: ('A' for Active; 'I' for Inactive)
REMARK    1  A    between atoms: C3_3  and  N1_4 
REMARK       I    between atoms: N1_4  and  C4_6 
REMARK    2  A    between atoms: C4_6  and  O2_8 
REMARK    3  A    between atoms: O2_8  and  C5_9 
REMARK    4  A    between atoms: N2_12  and  C8_13 
REMARK    5  A    between atoms: C8_13  and  C9_14 
REMARK    6  A    between atoms: C9_14  and  C10_15 
REMARK    7  A    between atoms: C10_15  and  O3_16 
REMARK    8  A    between atoms: C14_21  and  N3_22 
ROOT
HETATM    1  N1  UNL     1      -5.041   7.230  12.189  1.00  0.00    -0.332 N 
ATOM      2  H1  UNL     1      -5.640   6.405  12.136  1.00  0.00     0.165 HD
HETATM    3  C4  UNL     1      -3.852   7.241  12.980  1.00  0.00     0.361 C 
HETATM    4  O1  UNL     1      -3.107   8.252  13.048  1.00  0.00    -0.238 OA
ENDROOT
BRANCH   1   5
HETATM    5  C3  UNL     1      -5.360   8.446  11.462  1.00  0.00     0.094 C 
HETATM    6  C2  UNL     1      -6.831   8.638  11.160  1.00  0.00     0.027 C 
HETATM    7  C1  UNL     1      -7.756   8.035  12.195  1.00  0.00     0.014 C 
HETATM    8  C14 UNL     1      -6.630   7.862   9.907  1.00  0.00     0.086 C 
HETATM    9  C13 UNL     1      -5.160   8.205   9.979  1.00  0.00     0.051 C 
BRANCH   8  10
HETATM   10  N3  UNL     1      -7.236   8.345   8.712  1.00  0.00    -0.404 N 
HETATM   11  C15 UNL     1      -8.534   7.863   8.434  1.00  0.00     0.147 C 
HETATM   12  C16 UNL     1      -9.602   8.906   8.286  1.00  0.00     0.291 C 
HETATM   13  N4  UNL     1      -9.156  10.110   7.671  1.00  0.00     0.087 N 
HETATM   14  C17 UNL     1     -10.034  10.640   6.653  1.00  0.00     0.310 C 
HETATM   15  C18 UNL     1      -7.829  10.022   7.130  1.00  0.00     0.291 C 
HETATM   16  C19 UNL     1      -6.923   9.663   8.320  1.00  0.00     0.147 C 
ENDBRANCH   8  10
ENDBRANCH   1   5
BRANCH   3  17
HETATM   17  O2  UNL     1      -3.440   6.123  13.730  1.00  0.00    -0.299 OA
BRANCH  17  18
HETATM   18  C5  UNL     1      -4.211   4.959  13.723  1.00  0.00     0.137 C 
HETATM   19  C6  UNL     1      -5.270   4.945  14.803  1.00  0.00     0.063 C 
HETATM   20  C7  UNL     1      -5.931   3.588  14.890  1.00  0.00     0.275 C 
HETATM   21  N2  UNL     1      -4.932   2.542  15.152  1.00  0.00     0.088 N 
HETATM   22  C11 UNL     1      -3.623   3.116  15.229  1.00  0.00     0.275 C 
HETATM   23  C12 UNL     1      -3.314   3.766  13.882  1.00  0.00     0.063 C 
BRANCH  21  24
HETATM   24  C8  UNL     1      -5.326   1.771  16.308  1.00  0.00     0.274 C 
BRANCH  24  25
HETATM   25  C9  UNL     1      -6.714   2.144  16.724  1.00  0.00     0.056 C 
BRANCH  25  26
HETATM   26  C10 UNL     1      -7.316   0.973  17.473  1.00  0.00     0.165 C 
BRANCH  26  27
HETATM   27  O3  UNL     1      -6.418  -0.114  17.441  1.00  0.00    -0.401 OA
ATOM     28  H3  UNL     1      -6.876  -0.909  17.691  1.00  0.00     0.209 HD
ENDBRANCH  26  27
ENDBRANCH  25  26
ENDBRANCH  24  25
ENDBRANCH  21  24
ENDBRANCH  17  18
ENDBRANCH   3  17
TORSDOF 8
ENDMDL
MODEL 4
REMARK VINA RESULT: -6.523200821      2.933      3.989
REMARK  8 active torsions:
REMARK  status: ('A' for Active; 'I' for Inactive)
REMARK    1  A    between atoms: C3_3  and  N1_4 
REMARK       I    between atoms: N1_4  and  C4_6 
REMARK    2  A    between atoms: C4_6  and  O2_8 
REMARK    3  A    between atoms: O2_8  and  C5_9 
REMARK    4  A    between atoms: N2_12  and  C8_13 
REMARK    5  A    between atoms: C8_13  and  C9_14 
REMARK    6  A    between atoms: C9_14  and  C10_15 
REMARK    7  A    between atoms: C10_15  and  O3_16 
REMARK    8  A    between atoms: C14_21  and  N3_22 
ROOT
HETATM    1  N1  UNL     1      -4.739   5.476  12.123  1.00  0.00    -0.332 N 
ATOM      2  H1  UNL     1      -4.762   5.476  11.104  1.00  0.00     0.165 HD
HETATM    3  C4  UNL     1      -5.679   6.229  12.892  1.00  0.00     0.361 C 
HETATM    4  O1  UNL     1      -5.659   6.232  14.150  1.00  0.00    -0.238 OA
ENDROOT
BRANCH   1   5
HETATM    5  C3  UNL     1      -3.748   4.712  12.860  1.00  0.00     0.094 C 
HETATM    6  C2  UNL     1      -2.767   3.946  11.997  1.00  0.00     0.027 C 
HETATM    7  C1  UNL     1      -2.472   4.605  10.666  1.00  0.00     0.014 C 
HETATM    8  C14 UNL     1      -3.730   2.813  11.985  1.00  0.00     0.086 C 
HETATM    9  C13 UNL     1      -4.342   3.373  13.248  1.00  0.00     0.051 C 
BRANCH   8  10
HETATM   10  N3  UNL     1      -3.223   1.495  12.174  1.00  0.00    -0.404 N 
HETATM   11  C15 UNL     1      -4.055   0.604  12.887  1.00  0.00     0.147 C 
HETATM   12  C16 UNL     1      -4.438  -0.653  12.166  1.00  0.00     0.291 C 
HETATM   13  N4  UNL     1      -3.416  -1.174  11.323  1.00  0.00     0.087 N 
HETATM   14  C17 UNL     1      -3.206  -2.600  11.423  1.00  0.00     0.310 C 
HETATM   15  C18 UNL     1      -2.150  -0.513  11.478  1.00  0.00     0.291 C 
HETATM   16  C19 UNL     1      -2.415   0.965  11.145  1.00  0.00     0.147 C 
ENDBRANCH   8  10
ENDBRANCH   1   5
BRANCH   3  17
HETATM   17  O2  UNL     1      -6.685   7.010  12.291  1.00  0.00    -0.299 OA
BRANCH  17  18
HETATM   18  C5  UNL     1      -6.375   7.820  11.198  1.00  0.00     0.137 C 
HETATM   19  C6  UNL     1      -6.842   9.248  11.372  1.00  0.00     0.063 C 
HETATM   20  C7  UNL     1      -6.676  10.028  10.087  1.00  0.00     0.275 C 
HETATM   21  N2  UNL     1      -7.417   9.386   8.992  1.00  0.00     0.088 N 
HETATM   22  C11 UNL     1      -8.064   8.199   9.463  1.00  0.00     0.275 C 
HETATM   23  C12 UNL     1      -6.985   7.238   9.957  1.00  0.00     0.063 C 
BRANCH  21  24
HETATM   24  C8  UNL     1      -8.294  10.349   8.367  1.00  0.00     0.274 C 
BRANCH  24  25
HETATM   25  C9  UNL     1      -9.418   9.644   7.674  1.00  0.00     0.056 C 
BRANCH  25  26
HETATM   26  C10 UNL     1     -10.641  10.536   7.724  1.00  0.00     0.165 C 
BRANCH  26  27
HETATM   27  O3  UNL     1     -11.800   9.737   7.818  1.00  0.00    -0.401 OA
ATOM     28  H3  UNL     1     -12.566  10.272   7.648  1.00  0.00     0.209 HD
ENDBRANCH  26  27
ENDBRANCH  25  26
ENDBRANCH  24  25
ENDBRANCH  21  24
ENDBRANCH  17  18
ENDBRANCH   3  17
TORSDOF 8
ENDMDL
MODEL 5
REMARK VINA RESULT: -6.416297721      2.496      8.840
REMARK  8 active torsions:
REMARK  status: ('A' for Active; 'I' for Inactive)
REMARK    1  A    between atoms: C3_3  and  N1_4 
REMARK       I    between atoms: N1_4  and  C4_6 
REMARK    2  A    between atoms: C4_6  and  O2_8 
REMARK    3  A    between atoms: O2_8  and  C5_9 
REMARK    4  A    between atoms: N2_12  and  C8_13 
REMARK    5  A    between atoms: C8_13  and  C9_14 
REMARK    6  A    between atoms: C9_14  and  C10_15 
REMARK    7  A    between atoms: C10_15  and  O3_16 
REMARK    8  A    between atoms: C14_21  and  N3_22 
ROOT
HETATM    1  N1  UNL     1      -4.102   4.933  10.429  1.00  0.00    -0.332 N 
ATOM      2  H1  UNL     1      -4.735   5.150  11.199  1.00  0.00     0.165 HD
HETATM    3  C4  UNL     1      -3.154   3.867  10.518  1.00  0.00     0.361 C 
HETATM    4  O1  UNL     1      -2.372   3.591   9.573  1.00  0.00    -0.238 OA
ENDROOT
BRANCH   1   5
HETATM    5  C3  UNL     1      -4.123   5.694   9.193  1.00  0.00     0.094 C 
HETATM    6  C2  UNL     1      -4.481   7.156   9.352  1.00  0.00     0.027 C 
HETATM    7  C1  UNL     1      -4.053   7.754  10.676  1.00  0.00     0.014 C 
HETATM    8  C14 UNL     1      -5.912   6.775   9.221  1.00  0.00     0.086 C 
HETATM    9  C13 UNL     1      -5.468   5.512   8.521  1.00  0.00     0.051 C 
BRANCH   8  10
HETATM   10  N3  UNL     1      -6.750   7.579   8.397  1.00  0.00    -0.404 N 
HETATM   11  C15 UNL     1      -8.122   7.240   8.385  1.00  0.00     0.147 C 
HETATM   12  C16 UNL     1      -9.069   8.326   8.799  1.00  0.00     0.291 C 
HETATM   13  N4  UNL     1      -8.668   9.631   8.396  1.00  0.00     0.087 N 
HETATM   14  C17 UNL     1      -9.716  10.446   7.824  1.00  0.00     0.310 C 
HETATM   15  C18 UNL     1      -7.545   9.637   7.501  1.00  0.00     0.291 C 
HETATM   16  C19 UNL     1      -6.406   8.941   8.266  1.00  0.00     0.147 C 
ENDBRANCH   8  10
ENDBRANCH   1   5
BRANCH   3  17
HETATM   17  O2  UNL     1      -3.039   3.061  11.667  1.00  0.00    -0.299 OA
BRANCH  17  18
HETATM   18  C5  UNL     1      -4.052   3.070  12.626  1.00  0.00     0.137 C 
HETATM   19  C6  UNL     1      -3.579   3.551  13.980  1.00  0.00     0.063 C 
HETATM   20  C7  UNL     1      -4.648   3.343  15.029  1.00  0.00     0.275 C 
HETATM   21  N2  UNL     1      -5.028   1.924  15.105  1.00  0.00     0.088 N 
HETATM   22  C11 UNL     1      -4.285   1.162  14.148  1.00  0.00     0.275 C 
HETATM   23  C12 UNL     1      -4.627   1.689  12.757  1.00  0.00     0.063 C 
BRANCH  21  24
HETATM   24  C8  UNL     1      -4.916   1.462  16.469  1.00  0.00     0.274 C 
BRANCH  24  25
HETATM   25  C9  UNL     1      -6.124   1.876  17.250  1.00  0.00     0.056 C 
BRANCH  25  26
HETATM   26  C10 UNL     1      -6.970   0.646  17.503  1.00  0.00     0.165 C 
BRANCH  26  27
HETATM   27  O3  UNL     1      -6.142  -0.497  17.518  1.00  0.00    -0.401 OA
ATOM     28  H3  UNL     1      -6.548  -1.186  17.005  1.00  0.00     0.209 HD
ENDBRANCH  26  27
ENDBRANCH  25  26
ENDBRANCH  24  25
ENDBRANCH  21  24
ENDBRANCH  17  18
ENDBRANCH   3  17
TORSDOF 8
ENDMDL
