MODEL 1
REMARK VINA RESULT: -8.464237190      0.000      0.000
REMARK  4 active torsions:
REMARK  status: ('A' for Active; 'I' for Inactive)
REMARK    1  A    between atoms: N1_7  and  C6_8 
REMARK    2  A    between atoms: C7_11  and  N3_12 
REMARK    3  A    between atoms: C15_22  and  N5_23 
REMARK    4  A    between atoms: N5_23  and  C16_25 
ROOT
HETATM    1  C6  UNL     1      -3.903   3.160  12.992  1.00  0.00     0.709 A 
HETATM    2  N2  UNL     1      -4.574   2.444  13.905  1.00  0.00    -0.021 N 
ATOM      3  H2  UNL     1      -4.676   1.442  13.745  1.00  0.00     0.203 HD
HETATM    4  C7  UNL     1      -5.121   2.963  15.018  1.00  0.00     0.709 A 
HETATM    5  N4  UNL     1      -4.969   4.289  15.200  1.00  0.00    -0.021 N 
ATOM      6  H4  UNL     1      -5.371   4.719  16.033  1.00  0.00     0.203 HD
HETATM    7  C15 UNL     1      -4.308   5.071  14.327  1.00  0.00     0.707 A 
HETATM    8  N7  UNL     1      -3.788   4.483  13.235  1.00  0.00    -0.021 N 
ATOM      9  H7  UNL     1      -3.284   5.061  12.562  1.00  0.00     0.203 HD
ENDROOT
BRANCH   7  10
HETATM   10  N5  UNL     1      -4.206   6.312  14.566  1.00  0.00    -0.220 N 
ATOM     11  H5  UNL     1      -5.082   6.822  14.677  1.00  0.00     0.178 HD
BRANCH  10  12
HETATM   12  C16 UNL     1      -3.015   7.076  14.699  1.00  0.00     0.102 C 
HETATM   13  C17 UNL     1      -3.125   8.099  15.804  1.00  0.00     0.053 C 
HETATM   14  C18 UNL     1      -1.998   9.075  15.813  1.00  0.00     0.234 C 
HETATM   15  N6  UNL     1      -1.372   9.276  14.537  1.00  0.00    -0.075 N 
HETATM   16  C19 UNL     1      -2.388   9.191  13.514  1.00  0.00     0.234 C 
ATOM     17  H62 UNL     1      -0.842  10.146  14.493  1.00  0.00     0.277 HD
ATOM     18  H61 UNL     1      -0.597   8.633  14.375  1.00  0.00     0.277 HD
HETATM   19  C20 UNL     1      -2.748   7.734  13.354  1.00  0.00     0.053 C 
ENDBRANCH  10  12
ENDBRANCH   7  10
BRANCH   4  20
HETATM   20  N3  UNL     1      -5.819   2.140  15.944  1.00  0.00    -0.212 N 
HETATM   21  C8  UNL     1      -5.347   0.862  16.441  1.00  0.00     0.146 C 
HETATM   22  C9  UNL     1      -6.275   0.491  17.562  1.00  0.00     0.006 C 
HETATM   23  C10 UNL     1      -5.847   1.252  18.796  1.00  0.00     0.006 C 
HETATM   24  C14 UNL     1      -7.595   1.078  17.090  1.00  0.00     0.032 C 
HETATM   25  C11 UNL     1      -6.656   2.502  19.007  1.00  0.00     0.002 C 
HETATM   26  C12 UNL     1      -6.858   3.302  17.750  1.00  0.00     0.026 C 
HETATM   27  C13 UNL     1      -7.106   2.427  16.544  1.00  0.00     0.102 C 
ENDBRANCH   4  20
BRANCH   1  28
HETATM   28  N1  UNL     1      -3.354   2.541  11.844  1.00  0.00    -0.208 N 
HETATM   29  C2  UNL     1      -3.315   1.103  11.767  1.00  0.00     0.122 C 
HETATM   30  C1  UNL     1      -4.542   0.676  10.974  1.00  0.00     0.035 C 
HETATM   31  C3  UNL     1      -2.047   0.579  11.127  1.00  0.00     0.193 C 
HETATM   32  O1  UNL     1      -1.837   1.246   9.947  1.00  0.00    -0.388 OA
HETATM   33  C4  UNL     1      -1.588   2.597  10.219  1.00  0.00     0.188 C 
HETATM   34  C5  UNL     1      -2.828   3.293  10.731  1.00  0.00     0.168 C 
ENDBRANCH   1  28
TORSDOF 4
ENDMDL
MODEL 2
REMARK VINA RESULT: -7.952844471      1.278      6.398
REMARK  4 active torsions:
REMARK  status: ('A' for Active; 'I' for Inactive)
REMARK    1  A    between atoms: N1_7  and  C6_8 
REMARK    2  A    between atoms: C7_11  and  N3_12 
REMARK    3  A    between atoms: C15_22  and  N5_23 
REMARK    4  A    between atoms: N5_23  and  C16_25 
ROOT
HETATM    1  C6  UNL     1      -2.916   3.833  12.731  1.00  0.00     0.709 A 
HETATM    2  N2  UNL     1      -2.720   5.149  12.884  1.00  0.00    -0.021 N 
ATOM      3  H2  UNL     1      -2.347   5.672  12.091  1.00  0.00     0.203 HD
HETATM    4  C7  UNL     1      -2.983   5.826  14.015  1.00  0.00     0.709 A 
HETATM    5  N4  UNL     1      -3.474   5.106  15.044  1.00  0.00    -0.021 N 
ATOM      6  H4  UNL     1      -3.686   5.585  15.919  1.00  0.00     0.203 HD
HETATM    7  C15 UNL     1      -3.697   3.782  14.963  1.00  0.00     0.707 A 
HETATM    8  N7  UNL     1      -3.409   3.172  13.800  1.00  0.00    -0.021 N 
ATOM      9  H7  UNL     1      -3.571   2.168  13.722  1.00  0.00     0.203 HD
ENDROOT
BRANCH   7  10
HETATM   10  N5  UNL     1      -4.161   3.173  15.974  1.00  0.00    -0.220 N 
ATOM     11  H5  UNL     1      -3.662   3.315  16.852  1.00  0.00     0.178 HD
BRANCH  10  12
HETATM   12  C16 UNL     1      -5.294   2.318  16.028  1.00  0.00     0.102 C 
HETATM   13  C17 UNL     1      -6.492   3.010  16.634  1.00  0.00     0.053 C 
HETATM   14  C18 UNL     1      -7.618   2.080  16.930  1.00  0.00     0.234 C 
HETATM   15  N6  UNL     1      -7.224   0.719  17.162  1.00  0.00    -0.075 N 
HETATM   16  C19 UNL     1      -5.952   0.725  17.845  1.00  0.00     0.234 C 
ATOM     17  H62 UNL     1      -7.935   0.184  17.660  1.00  0.00     0.277 HD
ATOM     18  H61 UNL     1      -7.207   0.164  16.306  1.00  0.00     0.277 HD
HETATM   19  C20 UNL     1      -4.895   1.089  16.830  1.00  0.00     0.053 C 
ENDBRANCH  10  12
ENDBRANCH   7  10
BRANCH   4  20
HETATM   20  N3  UNL     1      -2.749   7.226  14.104  1.00  0.00    -0.212 N 
HETATM   21  C8  UNL     1      -3.043   8.045  15.263  1.00  0.00     0.146 C 
HETATM   22  C9  UNL     1      -2.407   9.378  14.993  1.00  0.00     0.006 C 
HETATM   23  C10 UNL     1      -0.933   9.267  15.309  1.00  0.00     0.006 C 
HETATM   24  C14 UNL     1      -2.550   9.499  13.485  1.00  0.00     0.032 C 
HETATM   25  C11 UNL     1      -0.101   9.015  14.082  1.00  0.00     0.002 C 
HETATM   26  C12 UNL     1      -0.683   7.970  13.172  1.00  0.00     0.026 C 
HETATM   27  C13 UNL     1      -2.187   8.067  13.068  1.00  0.00     0.102 C 
ENDBRANCH   4  20
BRANCH   1  28
HETATM   28  N1  UNL     1      -2.614   3.191  11.506  1.00  0.00    -0.208 N 
HETATM   29  C2  UNL     1      -2.675   1.753  11.429  1.00  0.00     0.122 C 
HETATM   30  C1  UNL     1      -4.045   1.405  10.864  1.00  0.00     0.035 C 
HETATM   31  C3  UNL     1      -1.573   1.159  10.579  1.00  0.00     0.193 C 
HETATM   32  O1  UNL     1      -1.533   1.820   9.377  1.00  0.00    -0.388 OA
HETATM   33  C4  UNL     1      -1.160   3.153   9.596  1.00  0.00     0.188 C 
HETATM   34  C5  UNL     1      -2.247   3.917  10.315  1.00  0.00     0.168 C 
ENDBRANCH   1  28
TORSDOF 4
ENDMDL
MODEL 3
REMARK VINA RESULT: -7.859524610      1.154      1.552
REMARK  4 active torsions:
REMARK  status: ('A' for Active; 'I' for Inactive)
REMARK    1  A    between atoms: N1_7  and  C6_8 
REMARK    2  A    between atoms: C7_11  and  N3_12 
REMARK    3  A    between atoms: C15_22  and  N5_23 
REMARK    4  A    between atoms: N5_23  and  C16_25 
ROOT
HETATM    1  C6  UNL     1      -3.769   2.902  13.036  1.00  0.00     0.709 A 
HETATM    2  N2  UNL     1      -4.495   2.240  13.947  1.00  0.00    -0.021 N 
ATOM      3  H2  UNL     1      -4.691   1.253  13.776  1.00  0.00     0.203 HD
HETATM    4  C7  UNL     1      -4.981   2.792  15.072  1.00  0.00     0.709 A 
HETATM    5  N4  UNL     1      -4.704   4.096  15.268  1.00  0.00    -0.021 N 
ATOM      6  H4  UNL     1      -5.057   4.550  16.111  1.00  0.00     0.203 HD
HETATM    7  C15 UNL     1      -3.982   4.824  14.397  1.00  0.00     0.707 A 
HETATM    8  N7  UNL     1      -3.529   4.205  13.293  1.00  0.00    -0.021 N 
ATOM      9  H7  UNL     1      -2.981   4.743  12.622  1.00  0.00     0.203 HD
ENDROOT
BRANCH   7  10
HETATM   10  N5  UNL     1      -3.763   6.048  14.651  1.00  0.00    -0.220 N 
ATOM     11  H5  UNL     1      -3.353   6.251  15.562  1.00  0.00     0.178 HD
BRANCH  10  12
HETATM   12  C16 UNL     1      -4.023   7.168  13.816  1.00  0.00     0.102 C 
HETATM   13  C17 UNL     1      -5.023   6.840  12.733  1.00  0.00     0.053 C 
HETATM   14  C18 UNL     1      -5.136   7.906  11.697  1.00  0.00     0.234 C 
HETATM   15  N6  UNL     1      -3.961   8.715  11.543  1.00  0.00    -0.075 N 
HETATM   16  C19 UNL     1      -2.803   7.878  11.748  1.00  0.00     0.234 C 
ATOM     17  H62 UNL     1      -3.938   9.207  10.649  1.00  0.00     0.277 HD
ATOM     18  H61 UNL     1      -3.966   9.535  12.151  1.00  0.00     0.277 HD
HETATM   19  C20 UNL     1      -2.692   7.613  13.230  1.00  0.00     0.053 C 
ENDBRANCH  10  12
ENDBRANCH   7  10
BRANCH   4  20
HETATM   20  N3  UNL     1      -5.744   2.025  15.995  1.00  0.00    -0.212 N 
HETATM   21  C8  UNL     1      -5.344   0.743  16.540  1.00  0.00     0.146 C 
HETATM   22  C9  UNL     1      -6.323   0.443  17.640  1.00  0.00     0.006 C 
HETATM   23  C10 UNL     1      -5.902   1.219  18.866  1.00  0.00     0.006 C 
HETATM   24  C14 UNL     1      -7.600   1.072  17.108  1.00  0.00     0.032 C 
HETATM   25  C11 UNL     1      -6.663   2.507  19.018  1.00  0.00     0.002 C 
HETATM   26  C12 UNL     1      -6.789   3.279  17.734  1.00  0.00     0.026 C 
HETATM   27  C13 UNL     1      -7.036   2.383  16.544  1.00  0.00     0.102 C 
ENDBRANCH   4  20
BRANCH   1  28
HETATM   28  N1  UNL     1      -3.291   2.250  11.874  1.00  0.00    -0.208 N 
HETATM   29  C2  UNL     1      -3.393   0.817  11.776  1.00  0.00     0.122 C 
HETATM   30  C1  UNL     1      -4.660   0.522  10.987  1.00  0.00     0.035 C 
HETATM   31  C3  UNL     1      -2.186   0.181  11.119  1.00  0.00     0.193 C 
HETATM   32  O1  UNL     1      -1.920   0.842   9.946  1.00  0.00    -0.388 OA
HETATM   33  C4  UNL     1      -1.539   2.159  10.235  1.00  0.00     0.188 C 
HETATM   34  C5  UNL     1      -2.702   2.964  10.767  1.00  0.00     0.168 C 
ENDBRANCH   1  28
TORSDOF 4
ENDMDL
MODEL 4
REMARK VINA RESULT: -7.621605202      2.222      7.203
REMARK  4 active torsions:
REMARK  status: ('A' for Active; 'I' for Inactive)
REMARK    1  A    between atoms: N1_7  and  C6_8 
REMARK    2  A    between atoms: C7_11  and  N3_12 
REMARK    3  A    between atoms: C15_22  and  N5_23 
REMARK    4  A    between atoms: N5_23  and  C16_25 
ROOT
HETATM    1  C6  UNL     1      -3.226   6.204  14.282  1.00  0.00     0.709 A 
HETATM    2  N2  UNL     1      -2.699   5.449  13.309  1.00  0.00    -0.021 N 
ATOM      3  H2  UNL     1      -1.932   5.841  12.762  1.00  0.00     0.203 HD
HETATM    4  C7  UNL     1      -3.115   4.207  13.006  1.00  0.00     0.709 A 
HETATM    5  N4  UNL     1      -4.130   3.718  13.747  1.00  0.00    -0.021 N 
ATOM      6  H4  UNL     1      -4.473   2.778  13.547  1.00  0.00     0.203 HD
HETATM    7  C15 UNL     1      -4.708   4.418  14.740  1.00  0.00     0.707 A 
HETATM    8  N7  UNL     1      -4.239   5.654  14.985  1.00  0.00    -0.021 N 
ATOM      9  H7  UNL     1      -4.667   6.199  15.733  1.00  0.00     0.203 HD
ENDROOT
BRANCH   7  10
HETATM   10  N5  UNL     1      -5.658   3.889  15.393  1.00  0.00    -0.220 N 
ATOM     11  H5  UNL     1      -6.591   4.252  15.201  1.00  0.00     0.178 HD
BRANCH  10  12
HETATM   12  C16 UNL     1      -5.575   2.852  16.360  1.00  0.00     0.102 C 
HETATM   13  C17 UNL     1      -5.138   1.544  15.745  1.00  0.00     0.053 C 
HETATM   14  C18 UNL     1      -5.274   0.385  16.672  1.00  0.00     0.234 C 
HETATM   15  N6  UNL     1      -6.278   0.546  17.686  1.00  0.00    -0.075 N 
HETATM   16  C19 UNL     1      -7.379   1.289  17.120  1.00  0.00     0.234 C 
ATOM     17  H62 UNL     1      -6.571  -0.343  18.092  1.00  0.00     0.277 HD
ATOM     18  H61 UNL     1      -5.911   0.973  18.537  1.00  0.00     0.277 HD
HETATM   19  C20 UNL     1      -6.943   2.731  17.013  1.00  0.00     0.053 C 
ENDBRANCH  10  12
ENDBRANCH   7  10
BRANCH   4  20
HETATM   20  N3  UNL     1      -2.506   3.464  11.958  1.00  0.00    -0.212 N 
HETATM   21  C8  UNL     1      -1.150   2.954  11.981  1.00  0.00     0.146 C 
HETATM   22  C9  UNL     1      -1.037   2.037  10.797  1.00  0.00     0.006 C 
HETATM   23  C10 UNL     1      -1.658   0.711  11.170  1.00  0.00     0.006 C 
HETATM   24  C14 UNL     1      -1.952   2.710   9.787  1.00  0.00     0.032 C 
HETATM   25  C11 UNL     1      -3.077   0.587  10.689  1.00  0.00     0.002 C 
HETATM   26  C12 UNL     1      -3.901   1.819  10.939  1.00  0.00     0.026 C 
HETATM   27  C13 UNL     1      -3.123   3.092  10.702  1.00  0.00     0.102 C 
ENDBRANCH   4  20
BRANCH   1  28
HETATM   28  N1  UNL     1      -2.733   7.504  14.540  1.00  0.00    -0.208 N 
HETATM   29  C2  UNL     1      -1.850   8.128  13.587  1.00  0.00     0.122 C 
HETATM   30  C1  UNL     1      -2.717   9.018  12.708  1.00  0.00     0.035 C 
HETATM   31  C3  UNL     1      -0.742   8.926  14.240  1.00  0.00     0.193 C 
HETATM   32  O1  UNL     1      -1.291   9.762  15.180  1.00  0.00    -0.388 OA
HETATM   33  C4  UNL     1      -1.854   8.993  16.207  1.00  0.00     0.188 C 
HETATM   34  C5  UNL     1      -3.078   8.247  15.728  1.00  0.00     0.168 C 
ENDBRANCH   1  28
TORSDOF 4
ENDMDL
MODEL 5
REMARK VINA RESULT: -7.590742092      2.233      6.870
REMARK  4 active torsions:
REMARK  status: ('A' for Active; 'I' for Inactive)
REMARK    1  A    between atoms: N1_7  and  C6_8 
REMARK    2  A    between atoms: C7_11  and  N3_12 
REMARK    3  A    between atoms: C15_22  and  N5_23 
REMARK    4  A    between atoms: N5_23  and  C16_25 
ROOT
HETATM    1  C6  UNL     1      -1.102   4.678  12.360  1.00  0.00     0.709 A 
HETATM    2  N2  UNL     1      -1.197   5.983  12.651  1.00  0.00    -0.021 N 
ATOM      3  H2  UNL     1      -0.795   6.649  11.992  1.00  0.00     0.203 HD
HETATM    4  C7  UNL     1      -1.789   6.469  13.755  1.00  0.00     0.709 A 
HETATM    5  N4  UNL     1      -2.310   5.562  14.606  1.00  0.00    -0.021 N 
ATOM      6  H4  UNL     1      -2.767   5.894  15.455  1.00  0.00     0.203 HD
HETATM    7  C15 UNL     1      -2.252   4.237  14.380  1.00  0.00     0.707 A 
HETATM    8  N7  UNL     1      -1.644   3.824  13.254  1.00  0.00    -0.021 N 
ATOM      9  H7  UNL     1      -1.590   2.823  13.068  1.00  0.00     0.203 HD
ENDROOT
BRANCH   7  10
HETATM   10  N5  UNL     1      -2.765   3.446  15.227  1.00  0.00    -0.220 N 
ATOM     11  H5  UNL     1      -2.171   3.180  16.012  1.00  0.00     0.178 HD
BRANCH  10  12
HETATM   12  C16 UNL     1      -4.071   2.885  15.212  1.00  0.00     0.102 C 
HETATM   13  C17 UNL     1      -5.125   3.907  15.563  1.00  0.00     0.053 C 
HETATM   14  C18 UNL     1      -6.469   3.308  15.796  1.00  0.00     0.234 C 
HETATM   15  N6  UNL     1      -6.446   1.939  16.227  1.00  0.00    -0.075 N 
HETATM   16  C19 UNL     1      -5.295   1.751  17.079  1.00  0.00     0.234 C 
ATOM     17  H62 UNL     1      -7.317   1.653  16.674  1.00  0.00     0.277 HD
ATOM     18  H61 UNL     1      -6.468   1.281  15.447  1.00  0.00     0.277 HD
HETATM   19  C20 UNL     1      -4.075   1.721  16.191  1.00  0.00     0.053 C 
ENDBRANCH  10  12
ENDBRANCH   7  10
BRANCH   4  20
HETATM   20  N3  UNL     1      -1.853   7.869  13.997  1.00  0.00    -0.212 N 
HETATM   21  C8  UNL     1      -2.584   8.492  15.082  1.00  0.00     0.146 C 
HETATM   22  C9  UNL     1      -2.161   9.933  15.086  1.00  0.00     0.006 C 
HETATM   23  C10 UNL     1      -0.826  10.028  15.787  1.00  0.00     0.006 C 
HETATM   24  C14 UNL     1      -1.930  10.200  13.608  1.00  0.00     0.032 C 
HETATM   25  C11 UNL     1       0.327  10.056  14.821  1.00  0.00     0.002 C 
HETATM   26  C12 UNL     1       0.206   9.040  13.719  1.00  0.00     0.026 C 
HETATM   27  C13 UNL     1      -1.210   8.903  13.213  1.00  0.00     0.102 C 
ENDBRANCH   4  20
BRANCH   1  28
HETATM   28  N1  UNL     1      -0.463   4.242  11.175  1.00  0.00    -0.208 N 
HETATM   29  C2  UNL     1       0.626   5.016  10.634  1.00  0.00     0.122 C 
HETATM   30  C1  UNL     1       1.910   4.373  11.139  1.00  0.00     0.035 C 
HETATM   31  C3  UNL     1       0.612   5.081   9.122  1.00  0.00     0.193 C 
HETATM   32  O1  UNL     1       0.478   3.809   8.623  1.00  0.00    -0.388 OA
HETATM   33  C4  UNL     1      -0.776   3.301   8.988  1.00  0.00     0.188 C 
HETATM   34  C5  UNL     1      -0.853   3.042  10.475  1.00  0.00     0.168 C 
ENDBRANCH   1  28
TORSDOF 4
ENDMDL
