MODEL 1
REMARK VINA RESULT: -7.005983918      0.000      0.000
REMARK  7 active torsions:
REMARK  status: ('A' for Active; 'I' for Inactive)
REMARK    1  A    between atoms: C2_3  and  C3_4 
REMARK    2  A    between atoms: C11_13  and  N2_14 
REMARK    3  A    between atoms: N3_17  and  C14_18 
REMARK    4  A    between atoms: C14_18  and  C15_19 
REMARK    5  A    between atoms: C15_19  and  O1_20 
REMARK    6  A    between atoms: C15_19  and  C16_22 
REMARK    7  A    between atoms: C16_22  and  O2_23 
ROOT
HETATM    1  C1  UNL     1      -4.301   9.305  10.890  1.00  0.00     0.147 C 
HETATM    2  N1  UNL     1      -5.678   9.186  10.442  1.00  0.00    -0.378 N 
HETATM    3  C2  UNL     1      -5.903   9.475   9.112  1.00  0.00     0.098 C 
HETATM    4  C7  UNL     1      -6.416   8.362   8.285  1.00  0.00     0.104 C 
HETATM    5  S1  UNL     1      -6.676   7.019   9.511  1.00  0.00    -0.114 SA
HETATM    6  C8  UNL     1      -6.291   8.037  10.955  1.00  0.00     0.154 C 
HETATM    7  C9  UNL     1      -7.431   8.213  11.882  1.00  0.00     0.073 C 
HETATM    8  C10 UNL     1      -7.381   6.918  12.699  1.00  0.00     0.081 C 
HETATM    9  C11 UNL     1      -5.901   6.678  12.717  1.00  0.00     0.077 C 
HETATM   10  N4  UNL     1      -5.324   7.295  11.761  1.00  0.00    -0.345 N 
ATOM     11  H4  UNL     1      -4.320   7.272  11.583  1.00  0.00     0.164 HD
ENDROOT
BRANCH   9  12
HETATM   12  N2  UNL     1      -5.280   5.869  13.690  1.00  0.00    -0.367 N 
HETATM   13  C12 UNL     1      -3.911   5.442  13.503  1.00  0.00     0.154 C 
HETATM   14  C13 UNL     1      -3.768   4.044  14.063  1.00  0.00     0.292 C 
HETATM   15  N3  UNL     1      -5.027   3.316  14.016  1.00  0.00     0.094 N 
HETATM   16  C17 UNL     1      -6.021   3.909  14.880  1.00  0.00     0.292 C 
HETATM   17  C18 UNL     1      -5.934   5.419  14.903  1.00  0.00     0.154 C 
BRANCH  15  18
HETATM   18  C14 UNL     1      -4.734   1.995  14.522  1.00  0.00     0.306 C 
BRANCH  18  19
HETATM   19  C15 UNL     1      -4.507   1.901  15.986  1.00  0.00     0.170 C 
BRANCH  19  20
HETATM   20  O1  UNL     1      -3.243   1.588  16.401  1.00  0.00    -0.392 OA
ATOM     21  H1  UNL     1      -3.140   1.311  17.304  1.00  0.00     0.210 HD
ENDBRANCH  19  20
BRANCH  19  22
HETATM   22  C16 UNL     1      -5.434   0.791  16.503  1.00  0.00     0.197 C 
BRANCH  22  23
HETATM   23  O2  UNL     1      -5.076  -0.453  16.013  1.00  0.00    -0.398 OA
ATOM     24  H2  UNL     1      -5.721  -0.795  15.406  1.00  0.00     0.209 HD
ENDBRANCH  22  23
ENDBRANCH  19  22
ENDBRANCH  18  19
ENDBRANCH  15  18
ENDBRANCH   9  12
BRANCH   3  25
HETATM   25  C3  UNL     1      -6.768  10.706   8.838  1.00  0.00    -0.030 C 
HETATM   26  C4  UNL     1      -8.158  10.392   8.422  1.00  0.00     0.016 C 
HETATM   27  C5  UNL     1      -6.789  11.651  10.001  1.00  0.00     0.016 C 
HETATM   28  C6  UNL     1      -6.104  11.454   7.673  1.00  0.00     0.016 C 
ENDBRANCH   3  25
TORSDOF 7
ENDMDL
MODEL 2
REMARK VINA RESULT: -6.774606851      1.543      2.100
REMARK  7 active torsions:
REMARK  status: ('A' for Active; 'I' for Inactive)
REMARK    1  A    between atoms: C2_3  and  C3_4 
REMARK    2  A    between atoms: C11_13  and  N2_14 
REMARK    3  A    between atoms: N3_17  and  C14_18 
REMARK    4  A    between atoms: C14_18  and  C15_19 
REMARK    5  A    between atoms: C15_19  and  O1_20 
REMARK    6  A    between atoms: C15_19  and  C16_22 
REMARK    7  A    between atoms: C16_22  and  O2_23 
ROOT
HETATM    1  C1  UNL     1      -7.474   7.936  11.654  1.00  0.00     0.147 C 
HETATM    2  N1  UNL     1      -6.969   8.022  10.295  1.00  0.00    -0.378 N 
HETATM    3  C2  UNL     1      -7.115   9.247   9.677  1.00  0.00     0.098 C 
HETATM    4  C7  UNL     1      -5.863   9.934   9.297  1.00  0.00     0.104 C 
HETATM    5  S1  UNL     1      -4.568   8.703   9.723  1.00  0.00    -0.114 SA
HETATM    6  C8  UNL     1      -5.729   7.389  10.163  1.00  0.00     0.154 C 
HETATM    7  C9  UNL     1      -5.646   6.200   9.285  1.00  0.00     0.073 C 
HETATM    8  C10 UNL     1      -4.457   5.443   9.885  1.00  0.00     0.081 C 
HETATM    9  C11 UNL     1      -4.621   5.803  11.331  1.00  0.00     0.077 C 
HETATM   10  N4  UNL     1      -5.315   6.864  11.463  1.00  0.00    -0.345 N 
ATOM     11  H4  UNL     1      -5.551   7.291  12.359  1.00  0.00     0.164 HD
ENDROOT
BRANCH   9  12
HETATM   12  N2  UNL     1      -4.061   5.032  12.369  1.00  0.00    -0.367 N 
HETATM   13  C12 UNL     1      -3.167   3.940  12.052  1.00  0.00     0.154 C 
HETATM   14  C13 UNL     1      -3.400   2.830  13.053  1.00  0.00     0.292 C 
HETATM   15  N3  UNL     1      -4.759   2.853  13.573  1.00  0.00     0.094 N 
HETATM   16  C17 UNL     1      -5.015   4.043  14.349  1.00  0.00     0.292 C 
HETATM   17  C18 UNL     1      -4.322   5.261  13.777  1.00  0.00     0.154 C 
BRANCH  15  18
HETATM   18  C14 UNL     1      -4.856   1.718  14.463  1.00  0.00     0.306 C 
BRANCH  18  19
HETATM   19  C15 UNL     1      -4.535   1.985  15.887  1.00  0.00     0.170 C 
BRANCH  19  20
HETATM   20  O1  UNL     1      -3.355   1.489  16.363  1.00  0.00    -0.392 OA
ATOM     21  H1  UNL     1      -3.344   0.577  16.630  1.00  0.00     0.210 HD
ENDBRANCH  19  20
BRANCH  19  22
HETATM   22  C16 UNL     1      -5.656   1.342  16.717  1.00  0.00     0.197 C 
BRANCH  22  23
HETATM   23  O2  UNL     1      -5.732  -0.025  16.515  1.00  0.00    -0.398 OA
ATOM     24  H2  UNL     1      -6.093  -0.476  17.268  1.00  0.00     0.209 HD
ENDBRANCH  22  23
ENDBRANCH  19  22
ENDBRANCH  18  19
ENDBRANCH  15  18
ENDBRANCH   9  12
BRANCH   3  25
HETATM   25  C3  UNL     1      -8.055   9.275   8.471  1.00  0.00    -0.030 C 
HETATM   26  C4  UNL     1      -9.157   8.283   8.537  1.00  0.00     0.016 C 
HETATM   27  C5  UNL     1      -8.619  10.642   8.227  1.00  0.00     0.016 C 
HETATM   28  C6  UNL     1      -7.201   8.924   7.245  1.00  0.00     0.016 C 
ENDBRANCH   3  25
TORSDOF 7
ENDMDL
MODEL 3
REMARK VINA RESULT: -6.625405537      1.487      2.139
REMARK  7 active torsions:
REMARK  status: ('A' for Active; 'I' for Inactive)
REMARK    1  A    between atoms: C2_3  and  C3_4 
REMARK    2  A    between atoms: C11_13  and  N2_14 
REMARK    3  A    between atoms: N3_17  and  C14_18 
REMARK    4  A    between atoms: C14_18  and  C15_19 
REMARK    5  A    between atoms: C15_19  and  O1_20 
REMARK    6  A    between atoms: C15_19  and  C16_22 
REMARK    7  A    between atoms: C16_22  and  O2_23 
ROOT
HETATM    1  C1  UNL     1      -5.367   6.275   8.726  1.00  0.00     0.147 C 
HETATM    2  N1  UNL     1      -5.665   7.551   9.354  1.00  0.00    -0.378 N 
HETATM    3  C2  UNL     1      -6.814   8.180   8.919  1.00  0.00     0.098 C 
HETATM    4  C7  UNL     1      -7.867   8.380   9.936  1.00  0.00     0.104 C 
HETATM    5  S1  UNL     1      -7.073   7.781  11.480  1.00  0.00    -0.114 SA
HETATM    6  C8  UNL     1      -5.448   7.511  10.735  1.00  0.00     0.154 C 
HETATM    7  C9  UNL     1      -4.383   8.372  11.297  1.00  0.00     0.073 C 
HETATM    8  C10 UNL     1      -3.999   7.614  12.572  1.00  0.00     0.081 C 
HETATM    9  C11 UNL     1      -4.226   6.204  12.116  1.00  0.00     0.077 C 
HETATM   10  N4  UNL     1      -5.017   6.167  11.116  1.00  0.00    -0.345 N 
ATOM     11  H4  UNL     1      -5.311   5.311  10.644  1.00  0.00     0.164 HD
ENDROOT
BRANCH   9  12
HETATM   12  N2  UNL     1      -3.618   5.100  12.745  1.00  0.00    -0.367 N 
HETATM   13  C12 UNL     1      -3.272   3.929  11.970  1.00  0.00     0.154 C 
HETATM   14  C13 UNL     1      -3.485   2.706  12.834  1.00  0.00     0.292 C 
HETATM   15  N3  UNL     1      -4.509   2.934  13.843  1.00  0.00     0.094 N 
HETATM   16  C17 UNL     1      -4.103   3.936  14.800  1.00  0.00     0.292 C 
HETATM   17  C18 UNL     1      -3.302   5.050  14.160  1.00  0.00     0.154 C 
BRANCH  15  18
HETATM   18  C14 UNL     1      -4.647   1.681  14.549  1.00  0.00     0.306 C 
BRANCH  18  19
HETATM   19  C15 UNL     1      -4.487   1.750  16.023  1.00  0.00     0.170 C 
BRANCH  19  20
HETATM   20  O1  UNL     1      -3.521   0.961  16.582  1.00  0.00    -0.392 OA
ATOM     21  H1  UNL     1      -3.433   0.987  17.527  1.00  0.00     0.210 HD
ENDBRANCH  19  20
BRANCH  19  22
HETATM   22  C16 UNL     1      -5.827   1.314  16.631  1.00  0.00     0.197 C 
BRANCH  22  23
HETATM   23  O2  UNL     1      -5.927  -0.063  16.733  1.00  0.00    -0.398 OA
ATOM     24  H2  UNL     1      -5.562  -0.386  17.548  1.00  0.00     0.209 HD
ENDBRANCH  22  23
ENDBRANCH  19  22
ENDBRANCH  18  19
ENDBRANCH  15  18
ENDBRANCH   9  12
BRANCH   3  25
HETATM   25  C3  UNL     1      -6.607   9.505   8.183  1.00  0.00    -0.030 C 
HETATM   26  C4  UNL     1      -5.202   9.763   7.780  1.00  0.00     0.016 C 
HETATM   27  C5  UNL     1      -7.507   9.635   6.992  1.00  0.00     0.016 C 
HETATM   28  C6  UNL     1      -7.009  10.615   9.164  1.00  0.00     0.016 C 
ENDBRANCH   3  25
TORSDOF 7
ENDMDL
MODEL 4
REMARK VINA RESULT: -6.571846916      3.390      4.873
REMARK  7 active torsions:
REMARK  status: ('A' for Active; 'I' for Inactive)
REMARK    1  A    between atoms: C2_3  and  C3_4 
REMARK    2  A    between atoms: C11_13  and  N2_14 
REMARK    3  A    between atoms: N3_17  and  C14_18 
REMARK    4  A    between atoms: C14_18  and  C15_19 
REMARK    5  A    between atoms: C15_19  and  O1_20 
REMARK    6  A    between atoms: C15_19  and  C16_22 
REMARK    7  A    between atoms: C16_22  and  O2_23 
ROOT
HETATM    1  C1  UNL     1      -2.838   8.229  15.679  1.00  0.00     0.147 C 
HETATM    2  N1  UNL     1      -2.272   8.753  14.449  1.00  0.00    -0.378 N 
HETATM    3  C2  UNL     1      -1.002   9.283  14.549  1.00  0.00     0.098 C 
HETATM    4  C7  UNL     1       0.047   8.603  13.760  1.00  0.00     0.104 C 
HETATM    5  S1  UNL     1      -0.895   7.340  12.816  1.00  0.00    -0.114 SA
HETATM    6  C8  UNL     1      -2.522   7.906  13.363  1.00  0.00     0.154 C 
HETATM    7  C9  UNL     1      -3.377   8.415  12.267  1.00  0.00     0.073 C 
HETATM    8  C10 UNL     1      -3.949   7.120  11.681  1.00  0.00     0.081 C 
HETATM    9  C11 UNL     1      -4.038   6.288  12.925  1.00  0.00     0.077 C 
HETATM   10  N4  UNL     1      -3.254   6.730  13.829  1.00  0.00    -0.345 N 
ATOM     11  H4  UNL     1      -3.152   6.316  14.756  1.00  0.00     0.164 HD
ENDROOT
BRANCH   9  12
HETATM   12  N2  UNL     1      -4.894   5.173  13.028  1.00  0.00    -0.367 N 
HETATM   13  C12 UNL     1      -6.148   5.292  13.738  1.00  0.00     0.154 C 
HETATM   14  C13 UNL     1      -6.419   3.983  14.445  1.00  0.00     0.292 C 
HETATM   15  N3  UNL     1      -5.186   3.280  14.764  1.00  0.00     0.094 N 
HETATM   16  C17 UNL     1      -4.485   2.861  13.573  1.00  0.00     0.292 C 
HETATM   17  C18 UNL     1      -4.600   3.874  12.454  1.00  0.00     0.154 C 
BRANCH  15  18
HETATM   18  C14 UNL     1      -5.588   2.090  15.479  1.00  0.00     0.306 C 
BRANCH  18  19
HETATM   19  C15 UNL     1      -4.775   1.748  16.673  1.00  0.00     0.170 C 
BRANCH  19  20
HETATM   20  O1  UNL     1      -3.719   0.902  16.485  1.00  0.00    -0.392 OA
ATOM     21  H1  UNL     1      -3.115   0.796  17.211  1.00  0.00     0.210 HD
ENDBRANCH  19  20
BRANCH  19  22
HETATM   22  C16 UNL     1      -5.723   1.065  17.669  1.00  0.00     0.197 C 
BRANCH  22  23
HETATM   23  O2  UNL     1      -5.975  -0.252  17.323  1.00  0.00    -0.398 OA
ATOM     24  H2  UNL     1      -6.867  -0.507  17.526  1.00  0.00     0.209 HD
ENDBRANCH  22  23
ENDBRANCH  19  22
ENDBRANCH  18  19
ENDBRANCH  15  18
ENDBRANCH   9  12
BRANCH   3  25
HETATM   25  C3  UNL     1      -0.888  10.786  14.294  1.00  0.00    -0.030 C 
HETATM   26  C4  UNL     1      -2.193  11.480  14.157  1.00  0.00     0.016 C 
HETATM   27  C5  UNL     1      -0.057  11.473  15.334  1.00  0.00     0.016 C 
HETATM   28  C6  UNL     1      -0.146  10.946  12.959  1.00  0.00     0.016 C 
ENDBRANCH   3  25
TORSDOF 7
ENDMDL
MODEL 5
REMARK VINA RESULT: -6.443538143      1.867      2.809
REMARK  7 active torsions:
REMARK  status: ('A' for Active; 'I' for Inactive)
REMARK    1  A    between atoms: C2_3  and  C3_4 
REMARK    2  A    between atoms: C11_13  and  N2_14 
REMARK    3  A    between atoms: N3_17  and  C14_18 
REMARK    4  A    between atoms: C14_18  and  C15_19 
REMARK    5  A    between atoms: C15_19  and  O1_20 
REMARK    6  A    between atoms: C15_19  and  C16_22 
REMARK    7  A    between atoms: C16_22  and  O2_23 
ROOT
HETATM    1  C1  UNL     1      -6.796   7.054  12.261  1.00  0.00     0.147 C 
HETATM    2  N1  UNL     1      -6.115   7.331  11.008  1.00  0.00    -0.378 N 
HETATM    3  C2  UNL     1      -6.079   8.656  10.625  1.00  0.00     0.098 C 
HETATM    4  C7  UNL     1      -4.736   9.266  10.525  1.00  0.00     0.104 C 
HETATM    5  S1  UNL     1      -3.612   7.849  10.848  1.00  0.00    -0.114 SA
HETATM    6  C8  UNL     1      -4.924   6.606  10.895  1.00  0.00     0.154 C 
HETATM    7  C9  UNL     1      -4.826   5.593   9.820  1.00  0.00     0.073 C 
HETATM    8  C10 UNL     1      -3.790   4.620  10.391  1.00  0.00     0.081 C 
HETATM    9  C11 UNL     1      -4.109   4.728  11.853  1.00  0.00     0.077 C 
HETATM   10  N4  UNL     1      -4.725   5.815  12.108  1.00  0.00    -0.345 N 
ATOM     11  H4  UNL     1      -5.038   6.095  13.038  1.00  0.00     0.164 HD
ENDROOT
BRANCH   9  12
HETATM   12  N2  UNL     1      -3.751   3.728  12.779  1.00  0.00    -0.367 N 
HETATM   13  C12 UNL     1      -4.238   2.378  12.603  1.00  0.00     0.154 C 
HETATM   14  C13 UNL     1      -4.501   1.786  13.970  1.00  0.00     0.292 C 
HETATM   15  N3  UNL     1      -4.823   2.815  14.947  1.00  0.00     0.094 N 
HETATM   16  C17 UNL     1      -3.704   3.694  15.188  1.00  0.00     0.292 C 
HETATM   17  C18 UNL     1      -2.903   3.961  13.932  1.00  0.00     0.154 C 
BRANCH  15  18
HETATM   18  C14 UNL     1      -5.103   2.111  16.178  1.00  0.00     0.306 C 
BRANCH  18  19
HETATM   19  C15 UNL     1      -6.529   2.072  16.590  1.00  0.00     0.170 C 
BRANCH  19  20
HETATM   20  O1  UNL     1      -7.033   3.188  17.194  1.00  0.00    -0.392 OA
ATOM     21  H1  UNL     1      -6.701   3.400  18.059  1.00  0.00     0.210 HD
ENDBRANCH  19  20
BRANCH  19  22
HETATM   22  C16 UNL     1      -6.664   0.919  17.595  1.00  0.00     0.197 C 
BRANCH  22  23
HETATM   23  O2  UNL     1      -6.022  -0.227  17.158  1.00  0.00    -0.398 OA
ATOM     24  H2  UNL     1      -5.920  -0.238  16.214  1.00  0.00     0.209 HD
ENDBRANCH  22  23
ENDBRANCH  19  22
ENDBRANCH  18  19
ENDBRANCH  15  18
ENDBRANCH   9  12
BRANCH   3  25
HETATM   25  C3  UNL     1      -6.851   8.999   9.350  1.00  0.00    -0.030 C 
HETATM   26  C4  UNL     1      -6.121   8.690   8.095  1.00  0.00     0.016 C 
HETATM   27  C5  UNL     1      -8.205   8.355   9.319  1.00  0.00     0.016 C 
HETATM   28  C6  UNL     1      -7.085  10.517   9.377  1.00  0.00     0.016 C 
ENDBRANCH   3  25
TORSDOF 7
ENDMDL
