MODEL 1
REMARK VINA RESULT: -6.907168614      0.000      0.000
REMARK  8 active torsions:
REMARK  status: ('A' for Active; 'I' for Inactive)
REMARK    1  A    between atoms: C5_5  and  O1_6 
REMARK    2  A    between atoms: C6_8  and  O2_9 
REMARK    3  A    between atoms: C7_11  and  N1_12 
REMARK    4  A    between atoms: N1_12  and  C8_14 
REMARK    5  A    between atoms: C8_14  and  C9_15 
REMARK    6  A    between atoms: C9_15  and  O3_16 
REMARK    7  A    between atoms: O3_16  and  N2_17 
REMARK    8  A    between atoms: N2_17  and  C10_19 
ROOT
HETATM    1  N1  UNL     1       5.445  -7.349  38.652  1.00  0.00    -0.371 N 
ATOM      2  H1  UNL     1       6.161  -7.917  38.200  1.00  0.00     0.160 HD
ENDROOT
BRANCH   1   3
HETATM    3  C7  UNL     1       5.210  -6.120  38.078  1.00  0.00     0.316 C 
HETATM    4  C6  UNL     1       4.083  -5.905  37.117  1.00  0.00     0.197 C 
HETATM    5  C5  UNL     1       4.333  -6.643  35.821  1.00  0.00     0.153 C 
HETATM    6  C4  UNL     1       5.725  -7.202  35.734  1.00  0.00     0.072 C 
HETATM    7  C2  UNL     1       6.717  -6.154  36.180  1.00  0.00     0.123 C 
HETATM    8  C1  UNL     1       8.104  -6.777  36.296  1.00  0.00     0.046 C 
HETATM    9  C3  UNL     1       6.807  -5.123  35.048  1.00  0.00     0.046 C 
HETATM   10  N3  UNL     1       6.398  -5.543  37.427  1.00  0.00    -0.043 N 
ATOM     11  H32 UNL     1       7.201  -5.566  38.056  1.00  0.00     0.280 HD
ATOM     12  H31 UNL     1       6.296  -4.534  37.319  1.00  0.00     0.280 HD
BRANCH   4  13
HETATM   13  O2  UNL     1       4.096  -4.494  36.858  1.00  0.00    -0.389 OA
ATOM     14  H2  UNL     1       4.459  -4.045  37.613  1.00  0.00     0.210 HD
ENDBRANCH   4  13
BRANCH   5  15
HETATM   15  O1  UNL     1       3.343  -7.588  35.584  1.00  0.00    -0.393 OA
ATOM     16  H1  UNL     1       3.545  -8.175  34.865  1.00  0.00     0.210 HD
ENDBRANCH   5  15
ENDBRANCH   1   3
BRANCH   1  17
HETATM   17  C8  UNL     1       4.845  -7.914  39.751  1.00  0.00     0.086 C 
BRANCH  17  18
HETATM   18  C9  UNL     1       3.487  -8.533  39.594  1.00  0.00     0.244 C 
BRANCH  18  19
HETATM   19  O3  UNL     1       3.335  -9.101  38.320  1.00  0.00    -0.280 OA
BRANCH  19  20
HETATM   20  N2  UNL     1       2.563 -10.171  38.298  1.00  0.00    -0.297 N 
ATOM     21  H2  UNL     1       2.348 -10.686  39.153  1.00  0.00     0.188 HD
BRANCH  20  22
HETATM   22  C10 UNL     1       2.041 -10.582  37.040  1.00  0.00     0.114 C 
HETATM   23  C11 UNL     1       0.558 -10.928  37.119  1.00  0.00     0.066 C 
HETATM   24  C12 UNL     1       0.584 -12.406  37.226  1.00  0.00    -0.050 A 
HETATM   25  C13 UNL     1      -0.425 -13.278  37.638  1.00  0.00     0.007 A 
HETATM   26  C17 UNL     1       1.786 -12.933  36.860  1.00  0.00    -0.050 A 
HETATM   27  C14 UNL     1      -0.220 -14.644  37.679  1.00  0.00     0.001 A 
HETATM   28  C15 UNL     1       0.996 -15.189  37.311  1.00  0.00     0.001 A 
HETATM   29  C16 UNL     1       1.976 -14.322  36.907  1.00  0.00     0.007 A 
HETATM   30  C18 UNL     1       2.680 -11.813  36.466  1.00  0.00     0.066 C 
ENDBRANCH  20  22
ENDBRANCH  19  20
ENDBRANCH  18  19
ENDBRANCH  17  18
ENDBRANCH   1  17
TORSDOF 8
ENDMDL
MODEL 2
REMARK VINA RESULT: -6.774508951      1.813      2.394
REMARK  8 active torsions:
REMARK  status: ('A' for Active; 'I' for Inactive)
REMARK    1  A    between atoms: C5_5  and  O1_6 
REMARK    2  A    between atoms: C6_8  and  O2_9 
REMARK    3  A    between atoms: C7_11  and  N1_12 
REMARK    4  A    between atoms: N1_12  and  C8_14 
REMARK    5  A    between atoms: C8_14  and  C9_15 
REMARK    6  A    between atoms: C9_15  and  O3_16 
REMARK    7  A    between atoms: O3_16  and  N2_17 
REMARK    8  A    between atoms: N2_17  and  C10_19 
ROOT
HETATM    1  N1  UNL     1       5.565  -6.161  38.223  1.00  0.00    -0.371 N 
ATOM      2  H1  UNL     1       6.464  -6.632  38.324  1.00  0.00     0.160 HD
ENDROOT
BRANCH   1   3
HETATM    3  C7  UNL     1       5.492  -5.228  37.214  1.00  0.00     0.316 C 
HETATM    4  C6  UNL     1       4.375  -5.236  36.217  1.00  0.00     0.197 C 
HETATM    5  C5  UNL     1       4.468  -6.445  35.313  1.00  0.00     0.153 C 
HETATM    6  C4  UNL     1       5.760  -7.193  35.482  1.00  0.00     0.072 C 
HETATM    7  C2  UNL     1       6.909  -6.213  35.512  1.00  0.00     0.123 C 
HETATM    8  C1  UNL     1       8.194  -6.942  35.893  1.00  0.00     0.046 C 
HETATM    9  C3  UNL     1       7.109  -5.724  34.072  1.00  0.00     0.046 C 
HETATM   10  N3  UNL     1       6.727  -5.129  36.419  1.00  0.00    -0.043 N 
ATOM     11  H32 UNL     1       7.540  -5.027  37.027  1.00  0.00     0.280 HD
ATOM     12  H31 UNL     1       6.770  -4.237  35.927  1.00  0.00     0.280 HD
BRANCH   4  13
HETATM   13  O2  UNL     1       4.584  -4.052  35.434  1.00  0.00    -0.389 OA
ATOM     14  H2  UNL     1       5.427  -3.676  35.662  1.00  0.00     0.210 HD
ENDBRANCH   4  13
BRANCH   5  15
HETATM   15  O1  UNL     1       3.343  -7.250  35.436  1.00  0.00    -0.393 OA
ATOM     16  H1  UNL     1       3.518  -8.170  35.275  1.00  0.00     0.210 HD
ENDBRANCH   5  15
ENDBRANCH   1   3
BRANCH   1  17
HETATM   17  C8  UNL     1       4.591  -6.544  39.113  1.00  0.00     0.086 C 
BRANCH  17  18
HETATM   18  C9  UNL     1       4.325  -8.007  39.308  1.00  0.00     0.244 C 
BRANCH  18  19
HETATM   19  O3  UNL     1       4.345  -8.693  38.084  1.00  0.00    -0.280 OA
BRANCH  19  20
HETATM   20  N2  UNL     1       3.158  -9.100  37.677  1.00  0.00    -0.297 N 
ATOM     21  H2  UNL     1       2.395  -8.439  37.530  1.00  0.00     0.188 HD
BRANCH  20  22
HETATM   22  C10 UNL     1       2.981 -10.493  37.449  1.00  0.00     0.114 C 
HETATM   23  C11 UNL     1       3.259 -10.878  36.000  1.00  0.00     0.066 C 
HETATM   24  C12 UNL     1       1.896 -10.940  35.422  1.00  0.00    -0.050 A 
HETATM   25  C13 UNL     1       1.504 -10.934  34.083  1.00  0.00     0.007 A 
HETATM   26  C17 UNL     1       0.928 -11.009  36.380  1.00  0.00    -0.050 A 
HETATM   27  C14 UNL     1       0.171 -10.995  33.725  1.00  0.00     0.001 A 
HETATM   28  C15 UNL     1      -0.818 -11.065  34.688  1.00  0.00     0.001 A 
HETATM   29  C16 UNL     1      -0.420 -11.071  35.998  1.00  0.00     0.007 A 
HETATM   30  C18 UNL     1       1.593 -11.001  37.709  1.00  0.00     0.066 C 
ENDBRANCH  20  22
ENDBRANCH  19  20
ENDBRANCH  18  19
ENDBRANCH  17  18
ENDBRANCH   1  17
TORSDOF 8
ENDMDL
MODEL 3
REMARK VINA RESULT: -6.766567482      1.139      1.519
REMARK  8 active torsions:
REMARK  status: ('A' for Active; 'I' for Inactive)
REMARK    1  A    between atoms: C5_5  and  O1_6 
REMARK    2  A    between atoms: C6_8  and  O2_9 
REMARK    3  A    between atoms: C7_11  and  N1_12 
REMARK    4  A    between atoms: N1_12  and  C8_14 
REMARK    5  A    between atoms: C8_14  and  C9_15 
REMARK    6  A    between atoms: C9_15  and  O3_16 
REMARK    7  A    between atoms: O3_16  and  N2_17 
REMARK    8  A    between atoms: N2_17  and  C10_19 
ROOT
HETATM    1  N1  UNL     1       4.406  -6.513  38.048  1.00  0.00    -0.371 N 
ATOM      2  H1  UNL     1       3.795  -6.506  37.232  1.00  0.00     0.160 HD
ENDROOT
BRANCH   1   3
HETATM    3  C7  UNL     1       5.666  -5.995  37.853  1.00  0.00     0.316 C 
HETATM    4  C6  UNL     1       5.879  -4.703  37.126  1.00  0.00     0.197 C 
HETATM    5  C5  UNL     1       5.535  -4.846  35.661  1.00  0.00     0.153 C 
HETATM    6  C4  UNL     1       5.297  -6.275  35.261  1.00  0.00     0.072 C 
HETATM    7  C2  UNL     1       6.381  -7.149  35.845  1.00  0.00     0.123 C 
HETATM    8  C1  UNL     1       6.032  -8.617  35.624  1.00  0.00     0.046 C 
HETATM    9  C3  UNL     1       7.650  -6.884  35.024  1.00  0.00     0.046 C 
HETATM   10  N3  UNL     1       6.602  -6.951  37.239  1.00  0.00    -0.043 N 
ATOM     11  H32 UNL     1       6.588  -7.840  37.737  1.00  0.00     0.280 HD
ATOM     12  H31 UNL     1       7.568  -6.673  37.415  1.00  0.00     0.280 HD
BRANCH   4  13
HETATM   13  O2  UNL     1       7.286  -4.449  37.251  1.00  0.00    -0.389 OA
ATOM     14  H2  UNL     1       7.468  -4.149  38.135  1.00  0.00     0.210 HD
ENDBRANCH   4  13
BRANCH   5  15
HETATM   15  O1  UNL     1       4.500  -3.993  35.304  1.00  0.00    -0.393 OA
ATOM     16  H1  UNL     1       4.797  -3.140  35.009  1.00  0.00     0.210 HD
ENDBRANCH   5  15
ENDBRANCH   1   3
BRANCH   1  17
HETATM   17  C8  UNL     1       3.861  -7.039  39.193  1.00  0.00     0.086 C 
BRANCH  17  18
HETATM   18  C9  UNL     1       3.769  -8.530  39.332  1.00  0.00     0.244 C 
BRANCH  18  19
HETATM   19  O3  UNL     1       3.527  -9.139  38.092  1.00  0.00    -0.280 OA
BRANCH  19  20
HETATM   20  N2  UNL     1       2.667 -10.139  38.143  1.00  0.00    -0.297 N 
ATOM     21  H2  UNL     1       2.408 -10.568  39.032  1.00  0.00     0.188 HD
BRANCH  20  22
HETATM   22  C10 UNL     1       2.115 -10.598  36.914  1.00  0.00     0.114 C 
HETATM   23  C11 UNL     1       0.634 -10.934  37.041  1.00  0.00     0.066 C 
HETATM   24  C12 UNL     1       0.657 -12.407  37.206  1.00  0.00    -0.050 A 
HETATM   25  C13 UNL     1      -0.344 -13.257  37.675  1.00  0.00     0.007 A 
HETATM   26  C17 UNL     1       1.849 -12.953  36.834  1.00  0.00    -0.050 A 
HETATM   27  C14 UNL     1      -0.143 -14.622  37.766  1.00  0.00     0.001 A 
HETATM   28  C15 UNL     1       1.062 -15.185  37.393  1.00  0.00     0.001 A 
HETATM   29  C16 UNL     1       2.036 -14.340  36.933  1.00  0.00     0.007 A 
HETATM   30  C18 UNL     1       2.738 -11.853  36.376  1.00  0.00     0.066 C 
ENDBRANCH  20  22
ENDBRANCH  19  20
ENDBRANCH  18  19
ENDBRANCH  17  18
ENDBRANCH   1  17
TORSDOF 8
ENDMDL
MODEL 4
REMARK VINA RESULT: -6.757186424      3.023      4.884
REMARK  8 active torsions:
REMARK  status: ('A' for Active; 'I' for Inactive)
REMARK    1  A    between atoms: C5_5  and  O1_6 
REMARK    2  A    between atoms: C6_8  and  O2_9 
REMARK    3  A    between atoms: C7_11  and  N1_12 
REMARK    4  A    between atoms: N1_12  and  C8_14 
REMARK    5  A    between atoms: C8_14  and  C9_15 
REMARK    6  A    between atoms: C9_15  and  O3_16 
REMARK    7  A    between atoms: O3_16  and  N2_17 
REMARK    8  A    between atoms: N2_17  and  C10_19 
ROOT
HETATM    1  N1  UNL     1       5.173  -7.320  38.676  1.00  0.00    -0.371 N 
ATOM      2  H1  UNL     1       6.135  -7.632  38.543  1.00  0.00     0.160 HD
ENDROOT
BRANCH   1   3
HETATM    3  C7  UNL     1       4.926  -6.004  38.356  1.00  0.00     0.316 C 
HETATM    4  C6  UNL     1       3.874  -5.623  37.360  1.00  0.00     0.197 C 
HETATM    5  C5  UNL     1       4.270  -6.057  35.967  1.00  0.00     0.153 C 
HETATM    6  C4  UNL     1       5.692  -6.539  35.894  1.00  0.00     0.072 C 
HETATM    7  C2  UNL     1       6.587  -5.580  36.643  1.00  0.00     0.123 C 
HETATM    8  C1  UNL     1       7.989  -6.169  36.755  1.00  0.00     0.046 C 
HETATM    9  C3  UNL     1       6.720  -4.327  35.768  1.00  0.00     0.046 C 
HETATM   10  N3  UNL     1       6.133  -5.263  37.956  1.00  0.00    -0.043 N 
ATOM     11  H32 UNL     1       6.879  -5.395  38.638  1.00  0.00     0.280 HD
ATOM     12  H31 UNL     1       5.989  -4.258  38.055  1.00  0.00     0.280 HD
BRANCH   4  13
HETATM   13  O2  UNL     1       3.836  -4.189  37.408  1.00  0.00    -0.389 OA
ATOM     14  H2  UNL     1       3.154  -3.879  36.824  1.00  0.00     0.210 HD
ENDBRANCH   4  13
BRANCH   5  15
HETATM   15  O1  UNL     1       3.354  -6.959  35.443  1.00  0.00    -0.393 OA
ATOM     16  H1  UNL     1       2.453  -6.661  35.503  1.00  0.00     0.210 HD
ENDBRANCH   5  15
ENDBRANCH   1   3
BRANCH   1  17
HETATM   17  C8  UNL     1       4.301  -8.268  39.151  1.00  0.00     0.086 C 
BRANCH  17  18
HETATM   18  C9  UNL     1       3.543  -9.111  38.167  1.00  0.00     0.244 C 
BRANCH  18  19
HETATM   19  O3  UNL     1       4.351  -9.460  37.074  1.00  0.00    -0.280 OA
BRANCH  19  20
HETATM   20  N2  UNL     1       3.676  -9.744  35.977  1.00  0.00    -0.297 N 
ATOM     21  H2  UNL     1       2.712  -9.433  35.854  1.00  0.00     0.188 HD
BRANCH  20  22
HETATM   22  C10 UNL     1       4.340 -10.501  34.971  1.00  0.00     0.114 C 
HETATM   23  C11 UNL     1       5.774 -10.838  35.360  1.00  0.00     0.066 C 
HETATM   24  C12 UNL     1       6.550  -9.803  34.637  1.00  0.00    -0.050 A 
HETATM   25  C13 UNL     1       7.868  -9.391  34.833  1.00  0.00     0.007 A 
HETATM   26  C17 UNL     1       5.823  -9.200  33.654  1.00  0.00    -0.050 A 
HETATM   27  C14 UNL     1       8.433  -8.396  34.057  1.00  0.00     0.001 A 
HETATM   28  C15 UNL     1       7.704  -7.778  33.059  1.00  0.00     0.001 A 
HETATM   29  C16 UNL     1       6.412  -8.193  32.876  1.00  0.00     0.007 A 
HETATM   30  C18 UNL     1       4.466  -9.808  33.645  1.00  0.00     0.066 C 
ENDBRANCH  20  22
ENDBRANCH  19  20
ENDBRANCH  18  19
ENDBRANCH  17  18
ENDBRANCH   1  17
TORSDOF 8
ENDMDL
MODEL 5
REMARK VINA RESULT: -6.735154641      4.475      6.388
REMARK  8 active torsions:
REMARK  status: ('A' for Active; 'I' for Inactive)
REMARK    1  A    between atoms: C5_5  and  O1_6 
REMARK    2  A    between atoms: C6_8  and  O2_9 
REMARK    3  A    between atoms: C7_11  and  N1_12 
REMARK    4  A    between atoms: N1_12  and  C8_14 
REMARK    5  A    between atoms: C8_14  and  C9_15 
REMARK    6  A    between atoms: C9_15  and  O3_16 
REMARK    7  A    between atoms: O3_16  and  N2_17 
REMARK    8  A    between atoms: N2_17  and  C10_19 
ROOT
HETATM    1  N1  UNL     1       8.226  -6.923  35.749  1.00  0.00    -0.371 N 
ATOM      2  H1  UNL     1       8.515  -6.662  34.807  1.00  0.00     0.160 HD
ENDROOT
BRANCH   1   3
HETATM    3  C7  UNL     1       8.620  -8.174  36.167  1.00  0.00     0.316 C 
HETATM    4  C6  UNL     1       9.844  -8.836  35.614  1.00  0.00     0.197 C 
HETATM    5  C5  UNL     1       9.645  -9.207  34.161  1.00  0.00     0.153 C 
HETATM    6  C4  UNL     1       8.222  -9.037  33.711  1.00  0.00     0.072 C 
HETATM    7  C2  UNL     1       7.293  -9.622  34.748  1.00  0.00     0.123 C 
HETATM    8  C1  UNL     1       5.850  -9.267  34.403  1.00  0.00     0.046 C 
HETATM    9  C3  UNL     1       7.397 -11.147  34.621  1.00  0.00     0.046 C 
HETATM   10  N3  UNL     1       7.552  -9.183  36.079  1.00  0.00    -0.043 N 
ATOM     11  H32 UNL     1       6.698  -8.844  36.520  1.00  0.00     0.280 HD
ATOM     12  H31 UNL     1       7.754  -9.976  36.687  1.00  0.00     0.280 HD
BRANCH   4  13
HETATM   13  O2  UNL     1       9.982 -10.039  36.386  1.00  0.00    -0.389 OA
ATOM     14  H2  UNL     1       9.355 -10.680  36.072  1.00  0.00     0.210 HD
ENDBRANCH   4  13
BRANCH   5  15
HETATM   15  O1  UNL     1      10.563  -8.556  33.348  1.00  0.00    -0.393 OA
ATOM     16  H1  UNL     1      11.292  -9.106  33.085  1.00  0.00     0.210 HD
ENDBRANCH   5  15
ENDBRANCH   1   3
BRANCH   1  17
HETATM   17  C8  UNL     1       7.496  -5.980  36.429  1.00  0.00     0.086 C 
BRANCH  17  18
HETATM   18  C9  UNL     1       6.947  -4.806  35.672  1.00  0.00     0.244 C 
BRANCH  18  19
HETATM   19  O3  UNL     1       5.925  -5.203  34.796  1.00  0.00    -0.280 OA
BRANCH  19  20
HETATM   20  N2  UNL     1       4.833  -4.468  34.877  1.00  0.00    -0.297 N 
ATOM     21  H2  UNL     1       4.834  -3.487  34.594  1.00  0.00     0.188 HD
BRANCH  20  22
HETATM   22  C10 UNL     1       3.653  -5.091  35.372  1.00  0.00     0.114 C 
HETATM   23  C11 UNL     1       3.302  -4.620  36.778  1.00  0.00     0.066 C 
HETATM   24  C12 UNL     1       3.843  -5.711  37.622  1.00  0.00    -0.050 A 
HETATM   25  C13 UNL     1       4.110  -5.717  38.991  1.00  0.00     0.007 A 
HETATM   26  C17 UNL     1       4.099  -6.842  36.907  1.00  0.00    -0.050 A 
HETATM   27  C14 UNL     1       4.624  -6.837  39.617  1.00  0.00     0.001 A 
HETATM   28  C15 UNL     1       4.888  -7.989  38.902  1.00  0.00     0.001 A 
HETATM   29  C16 UNL     1       4.620  -7.970  37.559  1.00  0.00     0.007 A 
HETATM   30  C18 UNL     1       3.735  -6.585  35.489  1.00  0.00     0.066 C 
ENDBRANCH  20  22
ENDBRANCH  19  20
ENDBRANCH  18  19
ENDBRANCH  17  18
ENDBRANCH   1  17
TORSDOF 8
ENDMDL
