MODEL 1
REMARK VINA RESULT: -3.818045670      0.000      0.000
REMARK  3 active torsions:
REMARK  status: ('A' for Active; 'I' for Inactive)
REMARK    1  A    between atoms: N1_2  and  C2_3 
REMARK    2  A    between atoms: C3_4  and  C4_5 
REMARK    3  A    between atoms: C4_5  and  O1_6 
ROOT
HETATM    1  C2  UNL     1      28.193  13.533  18.144  1.00  0.00     0.118 C 
HETATM    2  C3  UNL     1      27.723  12.621  18.782  1.00  0.00    -0.051 C 
ENDROOT
BRANCH   1   3
HETATM    3  N1  UNL     1      28.723  14.613  17.409  1.00  0.00    -0.003 N 
HETATM    4  C1  UNL     1      29.583  14.292  16.308  1.00  0.00     0.290 C 
HETATM    5  C5  UNL     1      29.103  15.812  18.155  1.00  0.00     0.283 A 
HETATM    6  C6  UNL     1      27.927  15.834  17.317  1.00  0.00     0.283 A 
ENDBRANCH   1   3
BRANCH   2   7
HETATM    7  C4  UNL     1      27.130  11.520  19.571  1.00  0.00     0.259 C 
BRANCH   7   8
HETATM    8  O1  UNL     1      26.544  12.096  20.668  1.00  0.00    -0.389 OA
ATOM      9  H1  UNL     1      26.169  12.918  20.376  1.00  0.00     0.210 HD
ENDBRANCH   7   8
ENDBRANCH   2   7
TORSDOF 3
ENDMDL
MODEL 2
REMARK VINA RESULT: -3.592659776      3.089      4.304
REMARK  3 active torsions:
REMARK  status: ('A' for Active; 'I' for Inactive)
REMARK    1  A    between atoms: N1_2  and  C2_3 
REMARK    2  A    between atoms: C3_4  and  C4_5 
REMARK    3  A    between atoms: C4_5  and  O1_6 
ROOT
HETATM    1  C2  UNL     1      28.801  14.132  17.124  1.00  0.00     0.118 C 
HETATM    2  C3  UNL     1      29.204  14.676  16.123  1.00  0.00    -0.051 C 
ENDROOT
BRANCH   1   3
HETATM    3  N1  UNL     1      28.310  13.511  18.291  1.00  0.00    -0.003 N 
HETATM    4  C1  UNL     1      27.707  12.219  18.138  1.00  0.00     0.290 C 
HETATM    5  C5  UNL     1      27.677  14.368  19.293  1.00  0.00     0.283 A 
HETATM    6  C6  UNL     1      28.980  13.804  19.555  1.00  0.00     0.283 A 
ENDBRANCH   1   3
BRANCH   2   7
HETATM    7  C4  UNL     1      29.676  15.356  14.898  1.00  0.00     0.259 C 
BRANCH   7   8
HETATM    8  O1  UNL     1      29.523  16.701  15.114  1.00  0.00    -0.389 OA
ATOM      9  H1  UNL     1      30.213  17.135  14.625  1.00  0.00     0.210 HD
ENDBRANCH   7   8
ENDBRANCH   2   7
TORSDOF 3
ENDMDL
MODEL 3
REMARK VINA RESULT: -3.485676707      0.508      1.627
REMARK  3 active torsions:
REMARK  status: ('A' for Active; 'I' for Inactive)
REMARK    1  A    between atoms: N1_2  and  C2_3 
REMARK    2  A    between atoms: C3_4  and  C4_5 
REMARK    3  A    between atoms: C4_5  and  O1_6 
ROOT
HETATM    1  C2  UNL     1      28.334  13.492  18.128  1.00  0.00     0.118 C 
HETATM    2  C3  UNL     1      27.723  12.621  18.703  1.00  0.00    -0.051 C 
ENDROOT
BRANCH   1   3
HETATM    3  N1  UNL     1      29.065  14.506  17.476  1.00  0.00    -0.003 N 
HETATM    4  C1  UNL     1      28.952  15.833  18.007  1.00  0.00     0.290 C 
HETATM    5  C5  UNL     1      29.161  14.435  16.019  1.00  0.00     0.283 A 
HETATM    6  C6  UNL     1      30.319  14.137  16.828  1.00  0.00     0.283 A 
ENDBRANCH   1   3
BRANCH   2   7
HETATM    7  C4  UNL     1      26.993  11.558  19.424  1.00  0.00     0.259 C 
BRANCH   7   8
HETATM    8  O1  UNL     1      26.531  12.119  20.587  1.00  0.00    -0.389 OA
ATOM      9  H1  UNL     1      26.002  12.867  20.335  1.00  0.00     0.210 HD
ENDBRANCH   7   8
ENDBRANCH   2   7
TORSDOF 3
ENDMDL
MODEL 4
REMARK VINA RESULT: -3.306070058      2.529      4.225
REMARK  3 active torsions:
REMARK  status: ('A' for Active; 'I' for Inactive)
REMARK    1  A    between atoms: N1_2  and  C2_3 
REMARK    2  A    between atoms: C3_4  and  C4_5 
REMARK    3  A    between atoms: C4_5  and  O1_6 
ROOT
HETATM    1  C2  UNL     1      27.943  13.187  18.562  1.00  0.00     0.118 C 
HETATM    2  C3  UNL     1      28.339  14.296  18.287  1.00  0.00    -0.051 C 
ENDROOT
BRANCH   1   3
HETATM    3  N1  UNL     1      27.497  11.885  18.866  1.00  0.00    -0.003 N 
HETATM    4  C1  UNL     1      27.355  10.973  17.769  1.00  0.00     0.290 C 
HETATM    5  C5  UNL     1      26.487  11.747  19.913  1.00  0.00     0.283 A 
HETATM    6  C6  UNL     1      27.845  11.330  20.171  1.00  0.00     0.283 A 
ENDBRANCH   1   3
BRANCH   2   7
HETATM    7  C4  UNL     1      28.839  15.642  17.934  1.00  0.00     0.259 C 
BRANCH   7   8
HETATM    8  O1  UNL     1      28.036  16.106  16.925  1.00  0.00    -0.389 OA
ATOM      9  H1  UNL     1      27.782  15.349  16.410  1.00  0.00     0.210 HD
ENDBRANCH   7   8
ENDBRANCH   2   7
TORSDOF 3
ENDMDL
MODEL 5
REMARK VINA RESULT: -3.300571998      1.736      1.736
REMARK  3 active torsions:
REMARK  status: ('A' for Active; 'I' for Inactive)
REMARK    1  A    between atoms: N1_2  and  C2_3 
REMARK    2  A    between atoms: C3_4  and  C4_5 
REMARK    3  A    between atoms: C4_5  and  O1_6 
ROOT
HETATM    1  C2  UNL     1      28.349  13.258  17.580  1.00  0.00     0.118 C 
HETATM    2  C3  UNL     1      27.903  12.147  17.749  1.00  0.00    -0.051 C 
ENDROOT
BRANCH   1   3
HETATM    3  N1  UNL     1      28.866  14.551  17.358  1.00  0.00    -0.003 N 
HETATM    4  C1  UNL     1      29.924  14.673  16.398  1.00  0.00     0.290 C 
HETATM    5  C5  UNL     1      28.982  15.436  18.515  1.00  0.00     0.283 A 
HETATM    6  C6  UNL     1      27.963  15.686  17.523  1.00  0.00     0.283 A 
ENDBRANCH   1   3
BRANCH   2   7
HETATM    7  C4  UNL     1      27.357  10.785  17.930  1.00  0.00     0.259 C 
BRANCH   7   8
HETATM    8  O1  UNL     1      26.820  10.415  16.725  1.00  0.00    -0.389 OA
ATOM      9  H1  UNL     1      25.950  10.081  16.906  1.00  0.00     0.210 HD
ENDBRANCH   7   8
ENDBRANCH   2   7
TORSDOF 3
ENDMDL
