MODEL 1
REMARK VINA RESULT: -8.431252722      0.000      0.000
REMARK  10 active torsions:
REMARK  status: ('A' for Active; 'I' for Inactive)
REMARK    1  A    between atoms: C2_2  and  C3_3 
REMARK    2  A    between atoms: C3_3  and  N1_4 
REMARK    3  A    between atoms: N1_4  and  C4_6 
REMARK    4  A    between atoms: C4_6  and  N2_8 
REMARK    5  A    between atoms: N2_8  and  N3_10 
REMARK       I    between atoms: N3_10  and  C5_12 
REMARK       I    between atoms: C5_12  and  N4_14 
REMARK    6  A    between atoms: N4_14  and  N5_16 
REMARK       I    between atoms: N5_16  and  C6_18 
REMARK       I    between atoms: C6_18  and  N6_20 
REMARK    7  A    between atoms: N6_20  and  N7_22 
REMARK       I    between atoms: N7_22  and  C7_24 
REMARK    8  A    between atoms: C7_24  and  C8_26 
REMARK    9  A    between atoms: C9_30  and  O4_31 
REMARK   10  A    between atoms: C9_30  and  O5_33 
ROOT
HETATM    1  N5  UNL     1       7.196  88.491  39.865  1.00  0.00    -0.246 N 
ATOM      2  H5  UNL     1       7.682  89.306  40.242  1.00  0.00     0.192 HD
HETATM    3  C6  UNL     1       7.796  87.209  39.955  1.00  0.00     0.353 C 
HETATM    4  O2  UNL     1       7.240  86.175  39.494  1.00  0.00    -0.244 OA
HETATM    5  N6  UNL     1       9.059  87.085  40.585  1.00  0.00    -0.248 N 
ATOM      6  H6  UNL     1       9.534  87.904  40.965  1.00  0.00     0.192 HD
ENDROOT
BRANCH   1   7
HETATM    7  N4  UNL     1       5.928  88.648  39.257  1.00  0.00    -0.246 N 
HETATM    8  C5  UNL     1       4.719  88.293  39.863  1.00  0.00     0.353 C 
HETATM    9  N3  UNL     1       3.478  88.442  39.246  1.00  0.00    -0.248 N 
HETATM   10  O1  UNL     1       4.766  87.805  41.050  1.00  0.00    -0.244 OA
ATOM     11  H3  UNL     1       3.446  88.828  38.302  1.00  0.00     0.192 HD
ATOM     12  H4  UNL     1       5.894  89.043  38.317  1.00  0.00     0.192 HD
BRANCH   9  13
HETATM   13  N2  UNL     1       2.277  88.086  39.864  1.00  0.00    -0.272 N 
ATOM     14  H2  UNL     1       1.800  88.801  40.414  1.00  0.00     0.189 HD
BRANCH  13  15
HETATM   15  C4  UNL     1       1.671  86.812  39.787  1.00  0.00     0.186 C 
HETATM   16  S1  UNL     1       0.212  86.667  39.099  1.00  0.00    -0.040 SA
BRANCH  15  17
HETATM   17  N1  UNL     1       2.349  85.680  40.281  1.00  0.00    -0.366 N 
ATOM     18  H1  UNL     1       3.369  85.690  40.272  1.00  0.00     0.161 HD
BRANCH  17  19
HETATM   19  C3  UNL     1       1.692  84.517  40.796  1.00  0.00     0.121 C 
BRANCH  19  20
HETATM   20  C2  UNL     1       1.967  84.314  42.262  1.00  0.00     0.015 C 
HETATM   21  C1  UNL     1       3.468  84.387  42.512  1.00  0.00     0.006 C 
ENDBRANCH  19  20
ENDBRANCH  17  19
ENDBRANCH  15  17
ENDBRANCH  13  15
ENDBRANCH   9  13
ENDBRANCH   1   7
BRANCH   5  22
HETATM   22  N7  UNL     1       9.641  85.814  40.676  1.00  0.00    -0.262 N 
HETATM   23  C7  UNL     1      10.245  85.444  41.893  1.00  0.00     0.293 C 
HETATM   24  O3  UNL     1      10.254  86.231  42.858  1.00  0.00    -0.267 OA
ATOM     25  H7  UNL     1       9.627  85.174  39.882  1.00  0.00     0.190 HD
BRANCH  23  26
HETATM   26  C8  UNL     1      10.870  84.092  41.990  1.00  0.00     0.431 C 
HETATM   27  N8  UNL     1      11.997  84.024  42.874  1.00  0.00     0.045 N 
HETATM   28  C9  UNL     1      12.713  83.502  41.752  1.00  0.00     0.464 C 
ATOM     29  H82 UNL     1      12.327  84.840  43.390  1.00  0.00     0.290 HD
ATOM     30  H81 UNL     1      11.954  83.528  43.764  1.00  0.00     0.290 HD
HETATM   31  O6  UNL     1      11.698  83.880  40.913  1.00  0.00    -0.267 OA
BRANCH  28  32
HETATM   32  O4  UNL     1      13.944  84.122  41.514  1.00  0.00    -0.320 OA
ATOM     33  H4  UNL     1      14.584  83.570  41.079  1.00  0.00     0.217 HD
ENDBRANCH  28  32
BRANCH  28  34
HETATM   34  O5  UNL     1      12.801  82.092  41.738  1.00  0.00    -0.320 OA
ATOM     35  H5  UNL     1      11.993  81.659  41.486  1.00  0.00     0.217 HD
ENDBRANCH  28  34
ENDBRANCH  23  26
ENDBRANCH   5  22
TORSDOF 10
ENDMDL
MODEL 2
REMARK VINA RESULT: -8.367133836      1.578      2.345
REMARK  10 active torsions:
REMARK  status: ('A' for Active; 'I' for Inactive)
REMARK    1  A    between atoms: C2_2  and  C3_3 
REMARK    2  A    between atoms: C3_3  and  N1_4 
REMARK    3  A    between atoms: N1_4  and  C4_6 
REMARK    4  A    between atoms: C4_6  and  N2_8 
REMARK    5  A    between atoms: N2_8  and  N3_10 
REMARK       I    between atoms: N3_10  and  C5_12 
REMARK       I    between atoms: C5_12  and  N4_14 
REMARK    6  A    between atoms: N4_14  and  N5_16 
REMARK       I    between atoms: N5_16  and  C6_18 
REMARK       I    between atoms: C6_18  and  N6_20 
REMARK    7  A    between atoms: N6_20  and  N7_22 
REMARK       I    between atoms: N7_22  and  C7_24 
REMARK    8  A    between atoms: C7_24  and  C8_26 
REMARK    9  A    between atoms: C9_30  and  O4_31 
REMARK   10  A    between atoms: C9_30  and  O5_33 
ROOT
HETATM    1  N5  UNL     1       7.178  88.428  39.807  1.00  0.00    -0.246 N 
ATOM      2  H5  UNL     1       7.627  89.281  40.143  1.00  0.00     0.192 HD
HETATM    3  C6  UNL     1       7.850  87.183  39.927  1.00  0.00     0.353 C 
HETATM    4  O2  UNL     1       7.340  86.105  39.516  1.00  0.00    -0.244 OA
HETATM    5  N6  UNL     1       9.131  87.151  40.530  1.00  0.00    -0.248 N 
ATOM      6  H6  UNL     1       9.569  88.008  40.868  1.00  0.00     0.192 HD
ENDROOT
BRANCH   1   7
HETATM    7  N4  UNL     1       5.890  88.493  39.225  1.00  0.00    -0.246 N 
HETATM    8  C5  UNL     1       4.700  88.290  39.931  1.00  0.00     0.353 C 
HETATM    9  N3  UNL     1       3.439  88.346  39.340  1.00  0.00    -0.248 N 
HETATM   10  O1  UNL     1       4.786  88.038  41.187  1.00  0.00    -0.244 OA
ATOM     11  H3  UNL     1       3.375  88.543  38.342  1.00  0.00     0.192 HD
ATOM     12  H4  UNL     1       5.826  88.701  38.229  1.00  0.00     0.192 HD
BRANCH   9  13
HETATM   13  N2  UNL     1       2.257  88.144  40.058  1.00  0.00    -0.272 N 
ATOM     14  H2  UNL     1       1.973  88.872  40.713  1.00  0.00     0.189 HD
BRANCH  13  15
HETATM   15  C4  UNL     1       1.425  87.007  39.947  1.00  0.00     0.186 C 
HETATM   16  S1  UNL     1       1.991  85.561  40.406  1.00  0.00    -0.040 SA
BRANCH  15  17
HETATM   17  N1  UNL     1       0.109  87.143  39.464  1.00  0.00    -0.366 N 
ATOM     18  H1  UNL     1      -0.484  87.861  39.883  1.00  0.00     0.161 HD
BRANCH  17  19
HETATM   19  C3  UNL     1      -0.448  86.337  38.420  1.00  0.00     0.121 C 
BRANCH  19  20
HETATM   20  C2  UNL     1      -1.787  86.849  37.962  1.00  0.00     0.015 C 
HETATM   21  C1  UNL     1      -2.616  85.690  37.422  1.00  0.00     0.006 C 
ENDBRANCH  19  20
ENDBRANCH  17  19
ENDBRANCH  15  17
ENDBRANCH  13  15
ENDBRANCH   9  13
ENDBRANCH   1   7
BRANCH   5  22
HETATM   22  N7  UNL     1       9.784  85.917  40.651  1.00  0.00    -0.262 N 
HETATM   23  C7  UNL     1      10.149  85.481  41.939  1.00  0.00     0.293 C 
HETATM   24  O3  UNL     1       9.891  86.178  42.937  1.00  0.00    -0.267 OA
ATOM     25  H7  UNL     1       9.989  85.351  39.828  1.00  0.00     0.190 HD
BRANCH  23  26
HETATM   26  C8  UNL     1      10.849  84.169  42.069  1.00  0.00     0.431 C 
HETATM   27  N8  UNL     1      11.940  84.172  43.000  1.00  0.00     0.045 N 
HETATM   28  C9  UNL     1      12.732  83.690  41.911  1.00  0.00     0.464 C 
ATOM     29  H82 UNL     1      12.198  85.007  43.525  1.00  0.00     0.290 HD
ATOM     30  H81 UNL     1      11.889  83.676  43.890  1.00  0.00     0.290 HD
HETATM   31  O6  UNL     1      11.732  84.003  41.028  1.00  0.00    -0.267 OA
BRANCH  28  32
HETATM   32  O4  UNL     1      13.933  84.382  41.721  1.00  0.00    -0.320 OA
ATOM     33  H4  UNL     1      13.828  85.262  41.379  1.00  0.00     0.217 HD
ENDBRANCH  28  32
BRANCH  28  34
HETATM   34  O5  UNL     1      12.905  82.288  41.909  1.00  0.00    -0.320 OA
ATOM     35  H5  UNL     1      13.695  81.998  42.350  1.00  0.00     0.217 HD
ENDBRANCH  28  34
ENDBRANCH  23  26
ENDBRANCH   5  22
TORSDOF 10
ENDMDL
MODEL 3
REMARK VINA RESULT: -8.286887474      3.607      8.250
REMARK  10 active torsions:
REMARK  status: ('A' for Active; 'I' for Inactive)
REMARK    1  A    between atoms: C2_2  and  C3_3 
REMARK    2  A    between atoms: C3_3  and  N1_4 
REMARK    3  A    between atoms: N1_4  and  C4_6 
REMARK    4  A    between atoms: C4_6  and  N2_8 
REMARK    5  A    between atoms: N2_8  and  N3_10 
REMARK       I    between atoms: N3_10  and  C5_12 
REMARK       I    between atoms: C5_12  and  N4_14 
REMARK    6  A    between atoms: N4_14  and  N5_16 
REMARK       I    between atoms: N5_16  and  C6_18 
REMARK       I    between atoms: C6_18  and  N6_20 
REMARK    7  A    between atoms: N6_20  and  N7_22 
REMARK       I    between atoms: N7_22  and  C7_24 
REMARK    8  A    between atoms: C7_24  and  C8_26 
REMARK    9  A    between atoms: C9_30  and  O4_31 
REMARK   10  A    between atoms: C9_30  and  O5_33 
ROOT
HETATM    1  N5  UNL     1       8.102  88.405  40.078  1.00  0.00    -0.246 N 
ATOM      2  H5  UNL     1       7.954  89.412  40.156  1.00  0.00     0.192 HD
HETATM    3  C6  UNL     1       7.023  87.559  39.713  1.00  0.00     0.353 C 
HETATM    4  O2  UNL     1       7.155  86.308  39.616  1.00  0.00    -0.244 OA
HETATM    5  N6  UNL     1       5.758  88.138  39.448  1.00  0.00    -0.248 N 
ATOM      6  H6  UNL     1       5.620  89.146  39.522  1.00  0.00     0.192 HD
ENDROOT
BRANCH   1   7
HETATM    7  N4  UNL     1       9.383  87.861  40.334  1.00  0.00    -0.246 N 
HETATM    8  C5  UNL     1       9.716  87.152  41.493  1.00  0.00     0.353 C 
HETATM    9  N3  UNL     1      10.986  86.633  41.736  1.00  0.00    -0.248 N 
HETATM   10  O1  UNL     1       8.797  86.979  42.372  1.00  0.00    -0.244 OA
ATOM     11  H3  UNL     1      11.714  86.775  41.036  1.00  0.00     0.192 HD
ATOM     12  H4  UNL     1      10.109  87.994  39.630  1.00  0.00     0.192 HD
BRANCH   9  13
HETATM   13  N2  UNL     1      11.305  85.924  42.898  1.00  0.00    -0.272 N 
ATOM     14  H2  UNL     1      11.598  86.463  43.713  1.00  0.00     0.189 HD
BRANCH  13  15
HETATM   15  C4  UNL     1      11.253  84.518  43.030  1.00  0.00     0.186 C 
HETATM   16  S1  UNL     1      12.226  83.599  42.118  1.00  0.00    -0.040 SA
BRANCH  15  17
HETATM   17  N1  UNL     1      10.380  83.931  43.967  1.00  0.00    -0.366 N 
ATOM     18  H1  UNL     1      10.782  83.550  44.824  1.00  0.00     0.161 HD
BRANCH  17  19
HETATM   19  C3  UNL     1       8.963  83.839  43.789  1.00  0.00     0.121 C 
BRANCH  19  20
HETATM   20  C2  UNL     1       8.347  82.797  44.684  1.00  0.00     0.015 C 
HETATM   21  C1  UNL     1       6.929  83.217  45.053  1.00  0.00     0.006 C 
ENDBRANCH  19  20
ENDBRANCH  17  19
ENDBRANCH  15  17
ENDBRANCH  13  15
ENDBRANCH   9  13
ENDBRANCH   1   7
BRANCH   5  22
HETATM   22  N7  UNL     1       4.699  87.296  39.082  1.00  0.00    -0.262 N 
HETATM   23  C7  UNL     1       3.447  87.495  39.694  1.00  0.00     0.293 C 
HETATM   24  O3  UNL     1       3.293  88.400  40.535  1.00  0.00    -0.267 OA
ATOM     25  H7  UNL     1       4.832  86.559  38.390  1.00  0.00     0.190 HD
BRANCH  23  26
HETATM   26  C8  UNL     1       2.320  86.596  39.309  1.00  0.00     0.431 C 
HETATM   27  N8  UNL     1       1.147  86.737  40.121  1.00  0.00     0.045 N 
HETATM   28  C9  UNL     1       1.264  85.331  40.350  1.00  0.00     0.464 C 
ATOM     29  H82 UNL     1       1.102  87.405  40.891  1.00  0.00     0.290 HD
ATOM     30  H81 UNL     1       0.290  87.155  39.761  1.00  0.00     0.290 HD
HETATM   31  O6  UNL     1       2.528  85.337  39.821  1.00  0.00    -0.267 OA
BRANCH  28  32
HETATM   32  O4  UNL     1       1.185  84.956  41.696  1.00  0.00    -0.320 OA
ATOM     33  H4  UNL     1       0.328  85.083  42.088  1.00  0.00     0.217 HD
ENDBRANCH  28  32
BRANCH  28  34
HETATM   34  O5  UNL     1       0.436  84.546  39.516  1.00  0.00    -0.320 OA
ATOM     35  H5  UNL     1       0.882  83.806  39.120  1.00  0.00     0.217 HD
ENDBRANCH  28  34
ENDBRANCH  23  26
ENDBRANCH   5  22
TORSDOF 10
ENDMDL
MODEL 4
REMARK VINA RESULT: -8.085838844      4.143      7.562
REMARK  10 active torsions:
REMARK  status: ('A' for Active; 'I' for Inactive)
REMARK    1  A    between atoms: C2_2  and  C3_3 
REMARK    2  A    between atoms: C3_3  and  N1_4 
REMARK    3  A    between atoms: N1_4  and  C4_6 
REMARK    4  A    between atoms: C4_6  and  N2_8 
REMARK    5  A    between atoms: N2_8  and  N3_10 
REMARK       I    between atoms: N3_10  and  C5_12 
REMARK       I    between atoms: C5_12  and  N4_14 
REMARK    6  A    between atoms: N4_14  and  N5_16 
REMARK       I    between atoms: N5_16  and  C6_18 
REMARK       I    between atoms: C6_18  and  N6_20 
REMARK    7  A    between atoms: N6_20  and  N7_22 
REMARK       I    between atoms: N7_22  and  C7_24 
REMARK    8  A    between atoms: C7_24  and  C8_26 
REMARK    9  A    between atoms: C9_30  and  O4_31 
REMARK   10  A    between atoms: C9_30  and  O5_33 
ROOT
HETATM    1  N5  UNL     1       9.696  85.058  42.000  1.00  0.00    -0.246 N 
ATOM      2  H5  UNL     1      10.213  84.733  41.182  1.00  0.00     0.192 HD
HETATM    3  C6  UNL     1       8.805  86.157  41.880  1.00  0.00     0.353 C 
HETATM    4  O2  UNL     1       8.154  86.602  42.865  1.00  0.00    -0.244 OA
HETATM    5  N6  UNL     1       8.641  86.771  40.614  1.00  0.00    -0.248 N 
ATOM      6  H6  UNL     1       9.157  86.434  39.801  1.00  0.00     0.192 HD
ENDROOT
BRANCH   1   7
HETATM    7  N4  UNL     1       9.872  84.412  43.246  1.00  0.00    -0.246 N 
HETATM    8  C5  UNL     1       8.883  83.653  43.882  1.00  0.00     0.353 C 
HETATM    9  N3  UNL     1       9.068  83.032  45.116  1.00  0.00    -0.248 N 
HETATM   10  O1  UNL     1       7.751  83.531  43.289  1.00  0.00    -0.244 OA
ATOM     11  H3  UNL     1       9.968  83.134  45.584  1.00  0.00     0.192 HD
ATOM     12  H4  UNL     1      10.775  84.505  43.710  1.00  0.00     0.192 HD
BRANCH   9  13
HETATM   13  N2  UNL     1       8.072  82.275  45.739  1.00  0.00    -0.272 N 
ATOM     14  H2  UNL     1       8.132  81.260  45.657  1.00  0.00     0.189 HD
BRANCH  13  15
HETATM   15  C4  UNL     1       6.988  82.807  46.473  1.00  0.00     0.186 C 
HETATM   16  S1  UNL     1       6.368  81.954  47.702  1.00  0.00    -0.040 SA
BRANCH  15  17
HETATM   17  N1  UNL     1       6.477  84.079  46.149  1.00  0.00    -0.366 N 
ATOM     18  H1  UNL     1       7.129  84.786  45.809  1.00  0.00     0.161 HD
BRANCH  17  19
HETATM   19  C3  UNL     1       5.096  84.438  46.268  1.00  0.00     0.121 C 
BRANCH  19  20
HETATM   20  C2  UNL     1       4.659  85.372  45.171  1.00  0.00     0.015 C 
HETATM   21  C1  UNL     1       5.370  86.711  45.330  1.00  0.00     0.006 C 
ENDBRANCH  19  20
ENDBRANCH  17  19
ENDBRANCH  15  17
ENDBRANCH  13  15
ENDBRANCH   9  13
ENDBRANCH   1   7
BRANCH   5  22
HETATM   22  N7  UNL     1       7.754  87.850  40.503  1.00  0.00    -0.262 N 
HETATM   23  C7  UNL     1       6.523  87.636  39.854  1.00  0.00     0.293 C 
HETATM   24  O3  UNL     1       6.238  86.514  39.397  1.00  0.00    -0.267 OA
ATOM     25  H7  UNL     1       7.994  88.766  40.882  1.00  0.00     0.190 HD
BRANCH  23  26
HETATM   26  C8  UNL     1       5.580  88.785  39.730  1.00  0.00     0.431 C 
HETATM   27  N8  UNL     1       6.057  90.007  40.311  1.00  0.00     0.045 N 
HETATM   28  C9  UNL     1       4.842  89.999  41.065  1.00  0.00     0.464 C 
ATOM     29  H82 UNL     1       6.969  90.068  40.761  1.00  0.00     0.290 HD
ATOM     30  H81 UNL     1       6.330  90.805  39.737  1.00  0.00     0.290 HD
HETATM   31  O6  UNL     1       4.607  88.700  40.698  1.00  0.00    -0.267 OA
BRANCH  28  32
HETATM   32  O4  UNL     1       5.014  90.208  42.438  1.00  0.00    -0.320 OA
ATOM     33  H4  UNL     1       4.956  91.118  42.707  1.00  0.00     0.217 HD
ENDBRANCH  28  32
BRANCH  28  34
HETATM   34  O5  UNL     1       3.823  90.809  40.514  1.00  0.00    -0.320 OA
ATOM     35  H5  UNL     1       3.122  90.316  40.104  1.00  0.00     0.217 HD
ENDBRANCH  28  34
ENDBRANCH  23  26
ENDBRANCH   5  22
TORSDOF 10
ENDMDL
MODEL 5
REMARK VINA RESULT: -7.884734515      3.327      8.661
REMARK  10 active torsions:
REMARK  status: ('A' for Active; 'I' for Inactive)
REMARK    1  A    between atoms: C2_2  and  C3_3 
REMARK    2  A    between atoms: C3_3  and  N1_4 
REMARK    3  A    between atoms: N1_4  and  C4_6 
REMARK    4  A    between atoms: C4_6  and  N2_8 
REMARK    5  A    between atoms: N2_8  and  N3_10 
REMARK       I    between atoms: N3_10  and  C5_12 
REMARK       I    between atoms: C5_12  and  N4_14 
REMARK    6  A    between atoms: N4_14  and  N5_16 
REMARK       I    between atoms: N5_16  and  C6_18 
REMARK       I    between atoms: C6_18  and  N6_20 
REMARK    7  A    between atoms: N6_20  and  N7_22 
REMARK       I    between atoms: N7_22  and  C7_24 
REMARK    8  A    between atoms: C7_24  and  C8_26 
REMARK    9  A    between atoms: C9_30  and  O4_31 
REMARK   10  A    between atoms: C9_30  and  O5_33 
ROOT
HETATM    1  N5  UNL     1       8.042  88.331  40.025  1.00  0.00    -0.246 N 
ATOM      2  H5  UNL     1       7.891  89.340  40.064  1.00  0.00     0.192 HD
HETATM    3  C6  UNL     1       6.965  87.469  39.689  1.00  0.00     0.353 C 
HETATM    4  O2  UNL     1       7.101  86.216  39.640  1.00  0.00    -0.244 OA
HETATM    5  N6  UNL     1       5.700  88.035  39.398  1.00  0.00    -0.248 N 
ATOM      6  H6  UNL     1       5.560  89.045  39.434  1.00  0.00     0.192 HD
ENDROOT
BRANCH   1   7
HETATM    7  N4  UNL     1       9.323  87.800  40.306  1.00  0.00    -0.246 N 
HETATM    8  C5  UNL     1       9.662  87.164  41.505  1.00  0.00     0.353 C 
HETATM    9  N3  UNL     1      10.932  86.657  41.771  1.00  0.00    -0.248 N 
HETATM   10  O1  UNL     1       8.748  87.050  42.399  1.00  0.00    -0.244 OA
ATOM     11  H3  UNL     1      11.656  86.753  41.059  1.00  0.00     0.192 HD
ATOM     12  H4  UNL     1      10.044  87.886  39.589  1.00  0.00     0.192 HD
BRANCH   9  13
HETATM   13  N2  UNL     1      11.258  86.021  42.973  1.00  0.00    -0.272 N 
ATOM     14  H2  UNL     1      11.520  86.613  43.761  1.00  0.00     0.189 HD
BRANCH  13  15
HETATM   15  C4  UNL     1      11.250  84.624  43.179  1.00  0.00     0.186 C 
HETATM   16  S1  UNL     1       9.878  83.896  43.638  1.00  0.00    -0.040 SA
BRANCH  15  17
HETATM   17  N1  UNL     1      12.423  83.874  42.959  1.00  0.00    -0.366 N 
ATOM     18  H1  UNL     1      12.960  83.574  43.774  1.00  0.00     0.161 HD
BRANCH  17  19
HETATM   19  C3  UNL     1      12.906  83.509  41.663  1.00  0.00     0.121 C 
BRANCH  19  20
HETATM   20  C2  UNL     1      12.048  82.455  41.015  1.00  0.00     0.015 C 
HETATM   21  C1  UNL     1      11.745  82.860  39.577  1.00  0.00     0.006 C 
ENDBRANCH  19  20
ENDBRANCH  17  19
ENDBRANCH  15  17
ENDBRANCH  13  15
ENDBRANCH   9  13
ENDBRANCH   1   7
BRANCH   5  22
HETATM   22  N7  UNL     1       4.644  87.177  39.060  1.00  0.00    -0.262 N 
HETATM   23  C7  UNL     1       3.405  87.360  39.704  1.00  0.00     0.293 C 
HETATM   24  O3  UNL     1       3.260  88.266  40.547  1.00  0.00    -0.267 OA
ATOM     25  H7  UNL     1       4.770  86.440  38.367  1.00  0.00     0.190 HD
BRANCH  23  26
HETATM   26  C8  UNL     1       2.282  86.445  39.349  1.00  0.00     0.431 C 
HETATM   27  N8  UNL     1       1.122  86.583  40.181  1.00  0.00     0.045 N 
HETATM   28  C9  UNL     1       1.258  85.181  40.424  1.00  0.00     0.464 C 
ATOM     29  H82 UNL     1       1.083  87.260  40.943  1.00  0.00     0.290 HD
ATOM     30  H81 UNL     1       0.254  86.987  39.831  1.00  0.00     0.290 HD
HETATM   31  O6  UNL     1       2.513  85.194  39.872  1.00  0.00    -0.267 OA
BRANCH  28  32
HETATM   32  O4  UNL     1       1.207  84.821  41.775  1.00  0.00    -0.320 OA
ATOM     33  H4  UNL     1       2.050  84.818  42.213  1.00  0.00     0.217 HD
ENDBRANCH  28  32
BRANCH  28  34
HETATM   34  O5  UNL     1       0.425  84.378  39.614  1.00  0.00    -0.320 OA
ATOM     35  H5  UNL     1       0.125  83.583  40.041  1.00  0.00     0.217 HD
ENDBRANCH  28  34
ENDBRANCH  23  26
ENDBRANCH   5  22
TORSDOF 10
ENDMDL
