MODEL 1
REMARK VINA RESULT: -4.373045295      0.000      0.000
REMARK  1 active torsions:
REMARK  status: ('A' for Active; 'I' for Inactive)
REMARK    1  A    between atoms: C5_7  and  N2_8 
ROOT
HETATM    1  C1  UNL     1      46.969  22.793  52.460  1.00  0.00     0.048 C 
HETATM    2  C2  UNL     1      45.733  21.900  52.341  1.00  0.00     0.134 C 
HETATM    3  C3  UNL     1      46.190  20.509  52.764  1.00  0.00     0.048 C 
HETATM    4  C4  UNL     1      45.188  21.913  50.949  1.00  0.00     0.153 C 
HETATM    5  N1  UNL     1      43.778  22.107  50.859  1.00  0.00    -0.391 N 
ATOM      6  H1  UNL     1      43.178  21.503  50.298  1.00  0.00     0.155 HD
HETATM    7  C5  UNL     1      43.266  23.208  51.609  1.00  0.00     0.309 C 
HETATM    8  C9  UNL     1      44.087  23.565  52.816  1.00  0.00     0.287 C 
HETATM    9  N3  UNL     1      44.744  22.358  53.271  1.00  0.00    -0.062 N 
ATOM     10  H31 UNL     1      45.142  22.482  54.203  1.00  0.00     0.278 HD
ATOM     11  H32 UNL     1      44.067  21.625  53.481  1.00  0.00     0.278 HD
ENDROOT
BRANCH   7  12
HETATM   12  N2  UNL     1      43.015  24.322  50.733  1.00  0.00    -0.057 N 
HETATM   13  C6  UNL     1      41.561  24.371  50.528  1.00  0.00     0.274 C 
HETATM   14  C7  UNL     1      43.612  24.183  49.438  1.00  0.00     0.274 C 
HETATM   15  C8  UNL     1      43.397  25.592  51.281  1.00  0.00     0.274 C 
ENDBRANCH   7  12
TORSDOF 1
ENDMDL
MODEL 2
REMARK VINA RESULT: -4.367776904      0.079      1.177
REMARK  1 active torsions:
REMARK  status: ('A' for Active; 'I' for Inactive)
REMARK    1  A    between atoms: C5_7  and  N2_8 
ROOT
HETATM    1  C1  UNL     1      46.958  22.812  52.456  1.00  0.00     0.048 C 
HETATM    2  C2  UNL     1      45.729  21.909  52.350  1.00  0.00     0.134 C 
HETATM    3  C3  UNL     1      46.196  20.527  52.792  1.00  0.00     0.048 C 
HETATM    4  C4  UNL     1      45.182  21.898  50.960  1.00  0.00     0.153 C 
HETATM    5  N1  UNL     1      43.771  22.081  50.868  1.00  0.00    -0.391 N 
ATOM      6  H1  UNL     1      43.175  21.464  50.316  1.00  0.00     0.155 HD
HETATM    7  C5  UNL     1      43.252  23.188  51.604  1.00  0.00     0.309 C 
HETATM    8  C9  UNL     1      44.070  23.567  52.805  1.00  0.00     0.287 C 
HETATM    9  N3  UNL     1      44.737  22.371  53.276  1.00  0.00    -0.062 N 
ATOM     10  H31 UNL     1      45.135  22.511  54.205  1.00  0.00     0.278 HD
ATOM     11  H32 UNL     1      44.066  21.636  53.497  1.00  0.00     0.278 HD
ENDROOT
BRANCH   7  12
HETATM   12  N2  UNL     1      42.992  24.288  50.713  1.00  0.00    -0.057 N 
HETATM   13  C6  UNL     1      43.541  25.488  51.361  1.00  0.00     0.274 C 
HETATM   14  C7  UNL     1      41.598  24.537  50.495  1.00  0.00     0.274 C 
HETATM   15  C8  UNL     1      43.642  24.173  49.440  1.00  0.00     0.274 C 
ENDBRANCH   7  12
TORSDOF 1
ENDMDL
MODEL 3
REMARK VINA RESULT: -4.274190801      1.026      4.297
REMARK  1 active torsions:
REMARK  status: ('A' for Active; 'I' for Inactive)
REMARK    1  A    between atoms: C5_7  and  N2_8 
ROOT
HETATM    1  C1  UNL     1      43.959  24.472  49.650  1.00  0.00     0.048 C 
HETATM    2  C2  UNL     1      43.183  23.822  50.796  1.00  0.00     0.134 C 
HETATM    3  C3  UNL     1      41.730  24.240  50.597  1.00  0.00     0.048 C 
HETATM    4  C4  UNL     1      43.714  24.253  52.124  1.00  0.00     0.153 C 
HETATM    5  N1  UNL     1      43.938  23.196  53.054  1.00  0.00    -0.391 N 
ATOM      6  H1  UNL     1      43.589  23.227  54.012  1.00  0.00     0.155 HD
HETATM    7  C5  UNL     1      44.686  22.090  52.550  1.00  0.00     0.309 C 
HETATM    8  C9  UNL     1      44.563  21.890  51.065  1.00  0.00     0.287 C 
HETATM    9  N3  UNL     1      43.269  22.398  50.660  1.00  0.00    -0.062 N 
ATOM     10  H31 UNL     1      43.036  22.102  49.712  1.00  0.00     0.278 HD
ATOM     11  H32 UNL     1      42.515  21.931  51.165  1.00  0.00     0.278 HD
ENDROOT
BRANCH   7  12
HETATM   12  N2  UNL     1      46.046  22.168  53.010  1.00  0.00    -0.057 N 
HETATM   13  C6  UNL     1      46.524  20.784  53.136  1.00  0.00     0.274 C 
HETATM   14  C7  UNL     1      46.184  22.773  54.302  1.00  0.00     0.274 C 
HETATM   15  C8  UNL     1      46.933  22.829  52.097  1.00  0.00     0.274 C 
ENDBRANCH   7  12
TORSDOF 1
ENDMDL
MODEL 4
REMARK VINA RESULT: -4.216868602      1.099      4.198
REMARK  1 active torsions:
REMARK  status: ('A' for Active; 'I' for Inactive)
REMARK    1  A    between atoms: C5_7  and  N2_8 
ROOT
HETATM    1  C1  UNL     1      43.827  24.664  49.424  1.00  0.00     0.048 C 
HETATM    2  C2  UNL     1      43.032  23.930  50.504  1.00  0.00     0.134 C 
HETATM    3  C3  UNL     1      41.574  24.305  50.268  1.00  0.00     0.048 C 
HETATM    4  C4  UNL     1      43.495  24.313  51.872  1.00  0.00     0.153 C 
HETATM    5  N1  UNL     1      43.723  23.218  52.757  1.00  0.00    -0.391 N 
ATOM      6  H1  UNL     1      43.337  23.189  53.701  1.00  0.00     0.155 HD
HETATM    7  C5  UNL     1      44.531  22.167  52.230  1.00  0.00     0.309 C 
HETATM    8  C9  UNL     1      44.473  22.038  50.733  1.00  0.00     0.287 C 
HETATM    9  N3  UNL     1      43.178  22.518  50.302  1.00  0.00    -0.062 N 
ATOM     10  H31 UNL     1      42.992  22.262  49.332  1.00  0.00     0.278 HD
ATOM     11  H32 UNL     1      42.423  22.000  50.752  1.00  0.00     0.278 HD
ENDROOT
BRANCH   7  12
HETATM   12  N2  UNL     1      45.869  22.271  52.748  1.00  0.00    -0.057 N 
HETATM   13  C6  UNL     1      46.629  23.076  51.781  1.00  0.00     0.274 C 
HETATM   14  C7  UNL     1      46.544  21.012  52.860  1.00  0.00     0.274 C 
HETATM   15  C8  UNL     1      45.955  22.952  54.008  1.00  0.00     0.274 C 
ENDBRANCH   7  12
TORSDOF 1
ENDMDL
MODEL 5
REMARK VINA RESULT: -4.190177373      0.887      1.035
REMARK  1 active torsions:
REMARK  status: ('A' for Active; 'I' for Inactive)
REMARK    1  A    between atoms: C5_7  and  N2_8 
ROOT
HETATM    1  C1  UNL     1      46.661  23.082  52.113  1.00  0.00     0.048 C 
HETATM    2  C2  UNL     1      45.383  22.244  52.089  1.00  0.00     0.134 C 
HETATM    3  C3  UNL     1      45.840  20.794  52.201  1.00  0.00     0.048 C 
HETATM    4  C4  UNL     1      44.597  22.490  50.842  1.00  0.00     0.153 C 
HETATM    5  N1  UNL     1      43.205  22.723  51.046  1.00  0.00    -0.391 N 
ATOM      6  H1  UNL     1      42.485  22.227  50.520  1.00  0.00     0.155 HD
HETATM    7  C5  UNL     1      42.890  23.699  52.039  1.00  0.00     0.309 C 
HETATM    8  C9  UNL     1      43.931  23.841  53.113  1.00  0.00     0.287 C 
HETATM    9  N3  UNL     1      44.601  22.565  53.246  1.00  0.00    -0.062 N 
ATOM     10  H31 UNL     1      45.165  22.530  54.095  1.00  0.00     0.278 HD
ATOM     11  H32 UNL     1      43.938  21.821  53.463  1.00  0.00     0.278 HD
ENDROOT
BRANCH   7  12
HETATM   12  N2  UNL     1      42.539  24.943  51.407  1.00  0.00    -0.057 N 
HETATM   13  C6  UNL     1      41.553  25.591  52.283  1.00  0.00     0.274 C 
HETATM   14  C7  UNL     1      41.915  24.785  50.127  1.00  0.00     0.274 C 
HETATM   15  C8  UNL     1      43.636  25.858  51.273  1.00  0.00     0.274 C 
ENDBRANCH   7  12
TORSDOF 1
ENDMDL
