MODEL 1
REMARK VINA RESULT: -5.563825595      0.000      0.000
REMARK  6 active torsions:
REMARK  status: ('A' for Active; 'I' for Inactive)
REMARK    1  A    between atoms: C2_2  and  C3_3 
REMARK    2  A    between atoms: C4_4  and  C5_5 
REMARK    3  A    between atoms: C5_5  and  N1_6 
REMARK    4  A    between atoms: C6_12  and  C7_13 
REMARK    5  A    between atoms: C7_13  and  C8_14 
REMARK    6  A    between atoms: C8_14  and  C9_15 
ROOT
HETATM    1  C3  UNL     1      -2.408  29.461 -13.668  1.00  0.00     0.036 C 
HETATM    2  C4  UNL     1      -1.065  29.692 -12.984  1.00  0.00     0.110 C 
HETATM    3  N2  UNL     1      -1.112  29.722 -11.574  1.00  0.00    -0.410 N 
ATOM      4  H2  UNL     1      -0.408  29.232 -11.023  1.00  0.00     0.154 HD
HETATM    5  C6  UNL     1      -2.162  30.450 -10.926  1.00  0.00     0.081 C 
HETATM    6  C11 UNL     1      -3.232  30.732 -11.872  1.00  0.00     0.013 A 
HETATM    7  C12 UNL     1      -4.485  30.138 -12.158  1.00  0.00     0.012 A 
HETATM    8  C13 UNL     1      -3.402  29.347 -12.592  1.00  0.00     0.002 A 
ENDROOT
BRANCH   2   9
HETATM    9  C5  UNL     1      -0.302  30.837 -13.615  1.00  0.00     0.254 C 
BRANCH   9  10
HETATM   10  N1  UNL     1       0.199  30.428 -14.922  1.00  0.00    -0.077 N 
ATOM     11  H13 UNL     1       0.765  29.581 -14.870  1.00  0.00     0.274 HD
ATOM     12  H12 UNL     1      -0.543  30.072 -15.524  1.00  0.00     0.274 HD
ATOM     13  H11 UNL     1       0.705  31.203 -15.353  1.00  0.00     0.274 HD
ENDBRANCH   9  10
ENDBRANCH   2   9
BRANCH   1  14
HETATM   14  C2  UNL     1      -2.417  28.269 -14.541  1.00  0.00    -0.030 C 
HETATM   15  C1  UNL     1      -2.827  27.084 -14.133  1.00  0.00     0.007 C 
ENDBRANCH   1  14
BRANCH   5  16
HETATM   16  C7  UNL     1      -1.631  31.736 -10.307  1.00  0.00     0.025 C 
BRANCH  16  17
HETATM   17  C8  UNL     1      -2.264  32.019  -8.981  1.00  0.00     0.002 C 
BRANCH  17  18
HETATM   18  C9  UNL     1      -2.617  30.769  -8.214  1.00  0.00    -0.004 C 
HETATM   19  C10 UNL     1      -3.027  31.178  -6.814  1.00  0.00     0.005 C 
ENDBRANCH  17  18
ENDBRANCH  16  17
ENDBRANCH   5  16
TORSDOF 6
ENDMDL
MODEL 2
REMARK VINA RESULT: -5.479900610      5.295      9.478
REMARK  6 active torsions:
REMARK  status: ('A' for Active; 'I' for Inactive)
REMARK    1  A    between atoms: C2_2  and  C3_3 
REMARK    2  A    between atoms: C4_4  and  C5_5 
REMARK    3  A    between atoms: C5_5  and  N1_6 
REMARK    4  A    between atoms: C6_12  and  C7_13 
REMARK    5  A    between atoms: C7_13  and  C8_14 
REMARK    6  A    between atoms: C8_14  and  C9_15 
ROOT
HETATM    1  C3  UNL     1      -2.842  32.289  -2.438  1.00  0.00     0.036 C 
HETATM    2  C4  UNL     1      -4.060  31.949  -3.290  1.00  0.00     0.110 C 
HETATM    3  N2  UNL     1      -4.074  30.638  -3.812  1.00  0.00    -0.410 N 
ATOM      4  H2  UNL     1      -4.929  30.082  -3.788  1.00  0.00     0.154 HD
HETATM    5  C6  UNL     1      -2.874  30.097  -4.375  1.00  0.00     0.081 C 
HETATM    6  C11 UNL     1      -1.727  30.893  -3.963  1.00  0.00     0.013 A 
HETATM    7  C12 UNL     1      -0.735  30.759  -2.961  1.00  0.00     0.012 A 
HETATM    8  C13 UNL     1      -2.000  31.085  -2.429  1.00  0.00     0.002 A 
ENDROOT
BRANCH   2   9
HETATM    9  C5  UNL     1      -4.360  33.035  -4.302  1.00  0.00     0.254 C 
BRANCH   9  10
HETATM   10  N1  UNL     1      -5.398  32.576  -5.217  1.00  0.00    -0.077 N 
ATOM     11  H13 UNL     1      -6.191  32.166  -4.725  1.00  0.00     0.274 HD
ATOM     12  H12 UNL     1      -5.887  33.352  -5.664  1.00  0.00     0.274 HD
ATOM     13  H11 UNL     1      -4.993  31.934  -5.899  1.00  0.00     0.274 HD
ENDBRANCH   9  10
ENDBRANCH   2   9
BRANCH   1  14
HETATM   14  C2  UNL     1      -3.194  32.714  -1.067  1.00  0.00    -0.030 C 
HETATM   15  C1  UNL     1      -2.311  32.787  -0.090  1.00  0.00     0.007 C 
ENDBRANCH   1  14
BRANCH   5  16
HETATM   16  C7  UNL     1      -2.968  30.026  -5.893  1.00  0.00     0.025 C 
BRANCH  16  17
HETATM   17  C8  UNL     1      -1.754  29.396  -6.498  1.00  0.00     0.002 C 
BRANCH  17  18
HETATM   18  C9  UNL     1      -1.937  29.029  -7.950  1.00  0.00    -0.004 C 
HETATM   19  C10 UNL     1      -1.182  30.040  -8.789  1.00  0.00     0.005 C 
ENDBRANCH  17  18
ENDBRANCH  16  17
ENDBRANCH   5  16
TORSDOF 6
ENDMDL
MODEL 3
REMARK VINA RESULT: -5.393382848      1.662      2.868
REMARK  6 active torsions:
REMARK  status: ('A' for Active; 'I' for Inactive)
REMARK    1  A    between atoms: C2_2  and  C3_3 
REMARK    2  A    between atoms: C4_4  and  C5_5 
REMARK    3  A    between atoms: C5_5  and  N1_6 
REMARK    4  A    between atoms: C6_12  and  C7_13 
REMARK    5  A    between atoms: C7_13  and  C8_14 
REMARK    6  A    between atoms: C8_14  and  C9_15 
ROOT
HETATM    1  C3  UNL     1      -2.704  29.298 -12.602  1.00  0.00     0.036 C 
HETATM    2  C4  UNL     1      -3.670  30.290 -11.965  1.00  0.00     0.110 C 
HETATM    3  N2  UNL     1      -3.110  31.545 -11.645  1.00  0.00    -0.410 N 
ATOM      4  H2  UNL     1      -3.617  32.405 -11.854  1.00  0.00     0.154 HD
HETATM    5  C6  UNL     1      -1.821  31.596 -11.022  1.00  0.00     0.081 C 
HETATM    6  C11 UNL     1      -1.145  30.316 -11.170  1.00  0.00     0.013 A 
HETATM    7  C12 UNL     1      -0.157  29.812 -12.052  1.00  0.00     0.012 A 
HETATM    8  C13 UNL     1      -1.407  29.983 -12.682  1.00  0.00     0.002 A 
ENDROOT
BRANCH   2   9
HETATM    9  C5  UNL     1      -4.476  29.655 -10.851  1.00  0.00     0.254 C 
BRANCH   9  10
HETATM   10  N1  UNL     1      -3.751  28.508 -10.317  1.00  0.00    -0.077 N 
ATOM     11  H13 UNL     1      -2.981  28.224 -10.922  1.00  0.00     0.274 HD
ATOM     12  H12 UNL     1      -3.207  28.749  -9.489  1.00  0.00     0.274 HD
ATOM     13  H11 UNL     1      -4.403  27.744 -10.139  1.00  0.00     0.274 HD
ENDBRANCH   9  10
ENDBRANCH   2   9
BRANCH   1  14
HETATM   14  C2  UNL     1      -3.149  28.826 -13.930  1.00  0.00    -0.030 C 
HETATM   15  C1  UNL     1      -2.345  28.220 -14.782  1.00  0.00     0.007 C 
ENDBRANCH   1  14
BRANCH   5  16
HETATM   16  C7  UNL     1      -1.941  31.981  -9.554  1.00  0.00     0.025 C 
BRANCH  16  17
HETATM   17  C8  UNL     1      -1.688  30.815  -8.650  1.00  0.00     0.002 C 
BRANCH  17  18
HETATM   18  C9  UNL     1      -2.699  30.698  -7.537  1.00  0.00    -0.004 C 
HETATM   19  C10 UNL     1      -2.576  29.313  -6.935  1.00  0.00     0.005 C 
ENDBRANCH  17  18
ENDBRANCH  16  17
ENDBRANCH   5  16
TORSDOF 6
ENDMDL
MODEL 4
REMARK VINA RESULT: -5.266494099      1.756      5.294
REMARK  6 active torsions:
REMARK  status: ('A' for Active; 'I' for Inactive)
REMARK    1  A    between atoms: C2_2  and  C3_3 
REMARK    2  A    between atoms: C4_4  and  C5_5 
REMARK    3  A    between atoms: C5_5  and  N1_6 
REMARK    4  A    between atoms: C6_12  and  C7_13 
REMARK    5  A    between atoms: C7_13  and  C8_14 
REMARK    6  A    between atoms: C8_14  and  C9_15 
ROOT
HETATM    1  C3  UNL     1      -2.808  30.861  -8.707  1.00  0.00     0.036 C 
HETATM    2  C4  UNL     1      -1.306  30.656  -8.863  1.00  0.00     0.110 C 
HETATM    3  N2  UNL     1      -0.762  31.133 -10.075  1.00  0.00    -0.410 N 
ATOM      4  H2  UNL     1       0.114  31.656 -10.078  1.00  0.00     0.154 HD
HETATM    5  C6  UNL     1      -1.456  30.875 -11.301  1.00  0.00     0.081 C 
HETATM    6  C11 UNL     1      -2.826  30.469 -11.023  1.00  0.00     0.013 A 
HETATM    7  C12 UNL     1      -4.077  31.133 -11.024  1.00  0.00     0.012 A 
HETATM    8  C13 UNL     1      -3.262  31.519  -9.940  1.00  0.00     0.002 A 
ENDROOT
BRANCH   2   9
HETATM    9  C5  UNL     1      -0.889  29.248  -8.495  1.00  0.00     0.254 C 
BRANCH   9  10
HETATM   10  N1  UNL     1      -2.075  28.428  -8.278  1.00  0.00    -0.077 N 
ATOM     11  H13 UNL     1      -2.195  28.179  -7.296  1.00  0.00     0.274 HD
ATOM     12  H12 UNL     1      -2.937  28.959  -8.402  1.00  0.00     0.274 HD
ATOM     13  H11 UNL     1      -2.038  27.607  -8.882  1.00  0.00     0.274 HD
ENDBRANCH   9  10
ENDBRANCH   2   9
BRANCH   1  14
HETATM   14  C2  UNL     1      -3.165  31.652  -7.510  1.00  0.00    -0.030 C 
HETATM   15  C1  UNL     1      -3.136  31.158  -6.288  1.00  0.00     0.007 C 
ENDBRANCH   1  14
BRANCH   5  16
HETATM   16  C7  UNL     1      -0.732  29.818 -12.124  1.00  0.00     0.025 C 
BRANCH  16  17
HETATM   17  C8  UNL     1      -1.108  29.885 -13.571  1.00  0.00     0.002 C 
BRANCH  17  18
HETATM   18  C9  UNL     1      -1.609  28.570 -14.115  1.00  0.00    -0.004 C 
HETATM   19  C10 UNL     1      -3.113  28.533 -13.940  1.00  0.00     0.005 C 
ENDBRANCH  17  18
ENDBRANCH  16  17
ENDBRANCH   5  16
TORSDOF 6
ENDMDL
MODEL 5
REMARK VINA RESULT: -5.168336157      5.680      9.799
REMARK  6 active torsions:
REMARK  status: ('A' for Active; 'I' for Inactive)
REMARK    1  A    between atoms: C2_2  and  C3_3 
REMARK    2  A    between atoms: C4_4  and  C5_5 
REMARK    3  A    between atoms: C5_5  and  N1_6 
REMARK    4  A    between atoms: C6_12  and  C7_13 
REMARK    5  A    between atoms: C7_13  and  C8_14 
REMARK    6  A    between atoms: C8_14  and  C9_15 
ROOT
HETATM    1  C3  UNL     1      -2.854  32.809  -2.285  1.00  0.00     0.036 C 
HETATM    2  C4  UNL     1      -4.079  32.341  -3.062  1.00  0.00     0.110 C 
HETATM    3  N2  UNL     1      -4.255  30.942  -3.112  1.00  0.00    -0.410 N 
ATOM      4  H2  UNL     1      -5.177  30.532  -2.967  1.00  0.00     0.154 HD
HETATM    5  C6  UNL     1      -3.121  30.105  -3.368  1.00  0.00     0.081 C 
HETATM    6  C11 UNL     1      -1.890  30.855  -3.162  1.00  0.00     0.013 A 
HETATM    7  C12 UNL     1      -0.958  30.958  -2.101  1.00  0.00     0.012 A 
HETATM    8  C13 UNL     1      -2.183  31.592  -1.807  1.00  0.00     0.002 A 
ENDROOT
BRANCH   2   9
HETATM    9  C5  UNL     1      -4.198  33.041  -4.400  1.00  0.00     0.254 C 
BRANCH   9  10
HETATM   10  N1  UNL     1      -5.318  32.481  -5.146  1.00  0.00    -0.077 N 
ATOM     11  H13 UNL     1      -5.312  32.771  -6.124  1.00  0.00     0.274 HD
ATOM     12  H12 UNL     1      -5.221  31.477  -5.290  1.00  0.00     0.274 HD
ATOM     13  H11 UNL     1      -6.193  32.719  -4.679  1.00  0.00     0.274 HD
ENDBRANCH   9  10
ENDBRANCH   2   9
BRANCH   1  14
HETATM   14  C2  UNL     1      -3.187  33.717  -1.167  1.00  0.00    -0.030 C 
HETATM   15  C1  UNL     1      -3.826  34.858  -1.335  1.00  0.00     0.007 C 
ENDBRANCH   1  14
BRANCH   5  16
HETATM   16  C7  UNL     1      -3.177  29.529  -4.776  1.00  0.00     0.025 C 
BRANCH  16  17
HETATM   17  C8  UNL     1      -2.168  30.165  -5.679  1.00  0.00     0.002 C 
BRANCH  17  18
HETATM   18  C9  UNL     1      -2.683  30.389  -7.079  1.00  0.00    -0.004 C 
HETATM   19  C10 UNL     1      -2.353  29.161  -7.903  1.00  0.00     0.005 C 
ENDBRANCH  17  18
ENDBRANCH  16  17
ENDBRANCH   5  16
TORSDOF 6
ENDMDL
