MODEL 1
REMARK VINA RESULT: -5.721682074      0.000      0.000
REMARK  5 active torsions:
REMARK  status: ('A' for Active; 'I' for Inactive)
REMARK    1  A    between atoms: N1_1  and  C1_5 
REMARK    2  A    between atoms: C1_5  and  C2_6 
REMARK    3  A    between atoms: C2_6  and  C3_7 
REMARK    4  A    between atoms: C3_7  and  N2_8 
REMARK    5  A    between atoms: N2_8  and  C4_10 
ROOT
HETATM    1  C4  UNL     1       7.363  -0.481  84.822  1.00  0.00     0.709 A 
HETATM    2  N3  UNL     1       6.280   0.339  84.713  1.00  0.00    -0.115 N 
ATOM      3  H3  UNL     1       5.959   1.011  85.410  1.00  0.00     0.207 HD
HETATM    4  N4  UNL     1       5.725   0.104  83.536  1.00  0.00    -0.213 N 
ATOM      5  H4  UNL     1       4.892   0.578  83.185  1.00  0.00     0.210 HD
HETATM    6  N5  UNL     1       6.383  -0.816  82.883  1.00  0.00    -0.213 N 
ATOM      7  H5  UNL     1       6.168  -1.182  81.956  1.00  0.00     0.210 HD
HETATM    8  N6  UNL     1       7.385  -1.174  83.668  1.00  0.00    -0.115 N 
ATOM      9  H6  UNL     1       8.081  -1.881  83.430  1.00  0.00     0.207 HD
ENDROOT
BRANCH   1  10
HETATM   10  N2  UNL     1       8.176  -0.554  85.832  1.00  0.00    -0.223 N 
ATOM     11  H2  UNL     1       8.129   0.116  86.599  1.00  0.00     0.177 HD
BRANCH  10  12
HETATM   12  C3  UNL     1       9.141  -1.611  85.825  1.00  0.00     0.140 C 
BRANCH  12  13
HETATM   13  C2  UNL     1       9.060  -2.518  87.009  1.00  0.00     0.047 C 
BRANCH  13  14
HETATM   14  C1  UNL     1      10.379  -2.968  87.536  1.00  0.00     0.231 C 
BRANCH  14  15
HETATM   15  N1  UNL     1      10.370  -4.430  87.531  1.00  0.00    -0.079 N 
ATOM     16  H13 UNL     1       9.818  -4.828  88.291  1.00  0.00     0.274 HD
ATOM     17  H12 UNL     1       9.833  -4.823  86.759  1.00  0.00     0.274 HD
ATOM     18  H11 UNL     1      11.342  -4.737  87.540  1.00  0.00     0.274 HD
ENDBRANCH  14  15
ENDBRANCH  13  14
ENDBRANCH  12  13
ENDBRANCH  10  12
ENDBRANCH   1  10
TORSDOF 5
ENDMDL
MODEL 2
REMARK VINA RESULT: -5.645470073      0.486      1.224
REMARK  5 active torsions:
REMARK  status: ('A' for Active; 'I' for Inactive)
REMARK    1  A    between atoms: N1_1  and  C1_5 
REMARK    2  A    between atoms: C1_5  and  C2_6 
REMARK    3  A    between atoms: C2_6  and  C3_7 
REMARK    4  A    between atoms: C3_7  and  N2_8 
REMARK    5  A    between atoms: N2_8  and  C4_10 
ROOT
HETATM    1  C4  UNL     1       7.328  -0.432  84.739  1.00  0.00     0.709 A 
HETATM    2  N3  UNL     1       7.345  -1.172  83.595  1.00  0.00    -0.115 N 
ATOM      3  H3  UNL     1       8.043  -1.871  83.338  1.00  0.00     0.207 HD
HETATM    4  N4  UNL     1       6.290  -0.819  82.880  1.00  0.00    -0.213 N 
ATOM      5  H4  UNL     1       6.050  -1.213  81.971  1.00  0.00     0.210 HD
HETATM    6  N5  UNL     1       5.597   0.103  83.494  1.00  0.00    -0.213 N 
ATOM      7  H5  UNL     1       4.741   0.548  83.164  1.00  0.00     0.210 HD
HETATM    8  N6  UNL     1       6.230   0.340  84.630  1.00  0.00    -0.115 N 
ATOM      9  H6  UNL     1       5.928   1.017  85.330  1.00  0.00     0.207 HD
ENDROOT
BRANCH   1  10
HETATM   10  N2  UNL     1       8.196  -0.482  85.703  1.00  0.00    -0.223 N 
ATOM     11  H2  UNL     1       8.201   0.214  86.449  1.00  0.00     0.177 HD
BRANCH  10  12
HETATM   12  C3  UNL     1       9.146  -1.553  85.680  1.00  0.00     0.140 C 
BRANCH  12  13
HETATM   13  C2  UNL     1       9.624  -1.974  87.031  1.00  0.00     0.047 C 
BRANCH  13  14
HETATM   14  C1  UNL     1       9.180  -3.334  87.448  1.00  0.00     0.231 C 
BRANCH  14  15
HETATM   15  N1  UNL     1      10.371  -4.179  87.502  1.00  0.00    -0.079 N 
ATOM     16  H13 UNL     1      10.443  -4.713  88.368  1.00  0.00     0.274 HD
ATOM     17  H12 UNL     1      10.327  -4.972  86.863  1.00  0.00     0.274 HD
ATOM     18  H11 UNL     1      11.176  -3.576  87.336  1.00  0.00     0.274 HD
ENDBRANCH  14  15
ENDBRANCH  13  14
ENDBRANCH  12  13
ENDBRANCH  10  12
ENDBRANCH   1  10
TORSDOF 5
ENDMDL
MODEL 3
REMARK VINA RESULT: -5.259173895      1.256      1.685
REMARK  5 active torsions:
REMARK  status: ('A' for Active; 'I' for Inactive)
REMARK    1  A    between atoms: N1_1  and  C1_5 
REMARK    2  A    between atoms: C1_5  and  C2_6 
REMARK    3  A    between atoms: C2_6  and  C3_7 
REMARK    4  A    between atoms: C3_7  and  N2_8 
REMARK    5  A    between atoms: N2_8  and  C4_10 
ROOT
HETATM    1  C4  UNL     1       7.233  -0.353  84.633  1.00  0.00     0.709 A 
HETATM    2  N3  UNL     1       7.200  -1.149  83.528  1.00  0.00    -0.115 N 
ATOM      3  H3  UNL     1       7.876  -1.873  83.285  1.00  0.00     0.207 HD
HETATM    4  N4  UNL     1       6.129  -0.810  82.829  1.00  0.00    -0.213 N 
ATOM      5  H4  UNL     1       5.853  -1.243  81.948  1.00  0.00     0.210 HD
HETATM    6  N5  UNL     1       5.473   0.155  83.417  1.00  0.00    -0.213 N 
ATOM      7  H5  UNL     1       4.616   0.601  83.092  1.00  0.00     0.210 HD
HETATM    8  N6  UNL     1       6.146   0.434  84.520  1.00  0.00    -0.115 N 
ATOM      9  H6  UNL     1       5.879   1.151  85.195  1.00  0.00     0.207 HD
ENDROOT
BRANCH   1  10
HETATM   10  N2  UNL     1       8.130  -0.374  85.572  1.00  0.00    -0.223 N 
ATOM     11  H2  UNL     1       8.160   0.348  86.291  1.00  0.00     0.177 HD
BRANCH  10  12
HETATM   12  C3  UNL     1       9.073  -1.451  85.559  1.00  0.00     0.140 C 
BRANCH  12  13
HETATM   13  C2  UNL     1       9.087  -2.265  86.810  1.00  0.00     0.047 C 
BRANCH  13  14
HETATM   14  C1  UNL     1      10.304  -2.087  87.651  1.00  0.00     0.231 C 
BRANCH  14  15
HETATM   15  N1  UNL     1      10.378  -0.672  88.009  1.00  0.00    -0.079 N 
ATOM     16  H13 UNL     1       9.852  -0.071  87.374  1.00  0.00     0.274 HD
ATOM     17  H12 UNL     1       9.862  -0.447  88.859  1.00  0.00     0.274 HD
ATOM     18  H11 UNL     1      11.366  -0.426  88.064  1.00  0.00     0.274 HD
ENDBRANCH  14  15
ENDBRANCH  13  14
ENDBRANCH  12  13
ENDBRANCH  10  12
ENDBRANCH   1  10
TORSDOF 5
ENDMDL
MODEL 4
REMARK VINA RESULT: -4.927863370      7.386      8.412
REMARK  5 active torsions:
REMARK  status: ('A' for Active; 'I' for Inactive)
REMARK    1  A    between atoms: N1_1  and  C1_5 
REMARK    2  A    between atoms: C1_5  and  C2_6 
REMARK    3  A    between atoms: C2_6  and  C3_7 
REMARK    4  A    between atoms: C3_7  and  N2_8 
REMARK    5  A    between atoms: N2_8  and  C4_10 
ROOT
HETATM    1  C4  UNL     1       2.299  -6.368  86.795  1.00  0.00     0.709 A 
HETATM    2  N3  UNL     1       3.469  -7.058  86.691  1.00  0.00    -0.115 N 
ATOM      3  H3  UNL     1       3.596  -7.968  86.249  1.00  0.00     0.207 HD
HETATM    4  N4  UNL     1       4.409  -6.329  87.269  1.00  0.00    -0.213 N 
ATOM      5  H4  UNL     1       5.389  -6.601  87.340  1.00  0.00     0.210 HD
HETATM    6  N5  UNL     1       3.915  -5.214  87.738  1.00  0.00    -0.213 N 
ATOM      7  H5  UNL     1       4.422  -4.476  88.227  1.00  0.00     0.210 HD
HETATM    8  N6  UNL     1       2.625  -5.237  87.448  1.00  0.00    -0.115 N 
ATOM      9  H6  UNL     1       1.966  -4.496  87.687  1.00  0.00     0.207 HD
ENDROOT
BRANCH   1  10
HETATM   10  N2  UNL     1       1.139  -6.746  86.350  1.00  0.00    -0.223 N 
ATOM     11  H2  UNL     1       0.380  -6.987  86.988  1.00  0.00     0.177 HD
BRANCH  10  12
HETATM   12  C3  UNL     1       0.966  -6.813  84.931  1.00  0.00     0.140 C 
BRANCH  12  13
HETATM   13  C2  UNL     1       1.515  -5.636  84.194  1.00  0.00     0.047 C 
BRANCH  13  14
HETATM   14  C1  UNL     1       2.660  -5.949  83.293  1.00  0.00     0.231 C 
BRANCH  14  15
HETATM   15  N1  UNL     1       3.208  -4.674  82.834  1.00  0.00    -0.079 N 
ATOM     16  H13 UNL     1       2.741  -3.866  83.247  1.00  0.00     0.274 HD
ATOM     17  H12 UNL     1       4.142  -4.486  83.199  1.00  0.00     0.274 HD
ATOM     18  H11 UNL     1       3.171  -4.679  81.815  1.00  0.00     0.274 HD
ENDBRANCH  14  15
ENDBRANCH  13  14
ENDBRANCH  12  13
ENDBRANCH  10  12
ENDBRANCH   1  10
TORSDOF 5
ENDMDL
MODEL 5
REMARK VINA RESULT: -4.895323322      1.949      4.687
REMARK  5 active torsions:
REMARK  status: ('A' for Active; 'I' for Inactive)
REMARK    1  A    between atoms: N1_1  and  C1_5 
REMARK    2  A    between atoms: C1_5  and  C2_6 
REMARK    3  A    between atoms: C2_6  and  C3_7 
REMARK    4  A    between atoms: C3_7  and  N2_8 
REMARK    5  A    between atoms: N2_8  and  C4_10 
ROOT
HETATM    1  C4  UNL     1       8.235  -0.558  85.806  1.00  0.00     0.709 A 
HETATM    2  N3  UNL     1       8.465  -1.310  84.692  1.00  0.00    -0.115 N 
ATOM      3  H3  UNL     1       8.063  -1.158  83.768  1.00  0.00     0.207 HD
HETATM    4  N4  UNL     1       9.308  -2.271  85.033  1.00  0.00    -0.213 N 
ATOM      5  H4  UNL     1       9.657  -2.986  84.395  1.00  0.00     0.210 HD
HETATM    6  N5  UNL     1       9.633  -2.183  86.295  1.00  0.00    -0.213 N 
ATOM      7  H5  UNL     1      10.263  -2.797  86.810  1.00  0.00     0.210 HD
HETATM    8  N6  UNL     1       8.978  -1.136  86.769  1.00  0.00    -0.115 N 
ATOM      9  H6  UNL     1       9.029  -0.811  87.734  1.00  0.00     0.207 HD
ENDROOT
BRANCH   1  10
HETATM   10  N2  UNL     1       7.463   0.483  85.887  1.00  0.00    -0.223 N 
ATOM     11  H2  UNL     1       6.948   0.694  86.742  1.00  0.00     0.177 HD
BRANCH  10  12
HETATM   12  C3  UNL     1       7.362   1.321  84.732  1.00  0.00     0.140 C 
BRANCH  12  13
HETATM   13  C2  UNL     1       5.973   1.469  84.205  1.00  0.00     0.047 C 
BRANCH  13  14
HETATM   14  C1  UNL     1       5.217   0.190  84.086  1.00  0.00     0.231 C 
BRANCH  14  15
HETATM   15  N1  UNL     1       5.781  -0.540  82.953  1.00  0.00    -0.079 N 
ATOM     16  H13 UNL     1       5.816   0.014  82.097  1.00  0.00     0.274 HD
ATOM     17  H12 UNL     1       6.783  -0.705  83.043  1.00  0.00     0.274 HD
ATOM     18  H11 UNL     1       5.242  -1.400  82.850  1.00  0.00     0.274 HD
ENDBRANCH  14  15
ENDBRANCH  13  14
ENDBRANCH  12  13
ENDBRANCH  10  12
ENDBRANCH   1  10
TORSDOF 5
ENDMDL
