MODEL 1
REMARK VINA RESULT: -6.211370308      0.000      0.000
REMARK  8 active torsions:
REMARK  status: ('A' for Active; 'I' for Inactive)
REMARK       I    between atoms: C2_2  and  N1_4 
REMARK    1  A    between atoms: N1_4  and  C3_6 
REMARK    2  A    between atoms: C3_6  and  C4_7 
REMARK    3  A    between atoms: C4_7  and  C5_8 
REMARK    4  A    between atoms: C5_8  and  C6_9 
REMARK    5  A    between atoms: C6_9  and  C7_10 
REMARK    6  A    between atoms: C7_10  and  C8_11 
REMARK    7  A    between atoms: C8_11  and  N2_12 
REMARK       I    between atoms: N2_12  and  C9_14 
REMARK    8  A    between atoms: C9_14  and  C10_16 
ROOT
HETATM    1  N2  UNL     1      37.293  13.975  16.089  1.00  0.00    -0.361 N 
ATOM      2  H2  UNL     1      37.760  13.279  16.669  1.00  0.00     0.162 HD
HETATM    3  C9  UNL     1      36.740  13.584  14.869  1.00  0.00     0.224 C 
HETATM    4  O2  UNL     1      36.160  14.466  14.156  1.00  0.00    -0.273 OA
ENDROOT
BRANCH   1   5
HETATM    5  C8  UNL     1      37.219  15.332  16.545  1.00  0.00     0.122 C 
BRANCH   5   6
HETATM    6  C7  UNL     1      36.724  15.458  17.961  1.00  0.00     0.020 C 
BRANCH   6   7
HETATM    7  C6  UNL     1      35.410  14.757  18.201  1.00  0.00     0.002 C 
BRANCH   7   8
HETATM    8  C5  UNL     1      35.616  13.568  19.077  1.00  0.00     0.002 C 
BRANCH   8   9
HETATM    9  C4  UNL     1      35.231  12.273  18.375  1.00  0.00     0.020 C 
BRANCH   9  10
HETATM   10  C3  UNL     1      35.295  11.094  19.290  1.00  0.00     0.122 C 
BRANCH  10  11
HETATM   11  N1  UNL     1      34.713  11.358  20.588  1.00  0.00    -0.361 N 
HETATM   12  C2  UNL     1      33.666  10.563  21.120  1.00  0.00     0.213 C 
HETATM   13  C1  UNL     1      33.083  10.841  22.441  1.00  0.00     0.117 C 
HETATM   14  O1  UNL     1      33.212   9.593  20.459  1.00  0.00    -0.274 OA
ATOM     15  H1  UNL     1      35.067  12.140  21.138  1.00  0.00     0.162 HD
ENDBRANCH  10  11
ENDBRANCH   9  10
ENDBRANCH   8   9
ENDBRANCH   7   8
ENDBRANCH   6   7
ENDBRANCH   5   6
ENDBRANCH   1   5
BRANCH   3  16
HETATM   16  C10 UNL     1      36.785  12.181  14.336  1.00  0.00     0.112 C 
HETATM   17  C11 UNL     1      35.715  11.417  15.069  1.00  0.00     0.017 C 
HETATM   18  C12 UNL     1      34.324  11.823  14.733  1.00  0.00     0.001 C 
HETATM   19  C13 UNL     1      33.666  10.656  13.997  1.00  0.00     0.000 C 
HETATM   20  C14 UNL     1      34.062  10.760  12.515  1.00  0.00     0.000 C 
HETATM   21  C15 UNL     1      35.367  10.089  12.252  1.00  0.00     0.003 C 
HETATM   22  C16 UNL     1      36.562  10.941  12.153  1.00  0.00     0.038 C 
HETATM   23  C17 UNL     1      36.556  12.259  12.859  1.00  0.00     0.183 C 
HETATM   24  F1  UNL     1      37.634  12.949  12.324  1.00  0.00    -0.249 F 
ENDBRANCH   3  16
TORSDOF 8
ENDMDL
MODEL 2
REMARK VINA RESULT: -6.174667009      1.336      2.011
REMARK  8 active torsions:
REMARK  status: ('A' for Active; 'I' for Inactive)
REMARK       I    between atoms: C2_2  and  N1_4 
REMARK    1  A    between atoms: N1_4  and  C3_6 
REMARK    2  A    between atoms: C3_6  and  C4_7 
REMARK    3  A    between atoms: C4_7  and  C5_8 
REMARK    4  A    between atoms: C5_8  and  C6_9 
REMARK    5  A    between atoms: C6_9  and  C7_10 
REMARK    6  A    between atoms: C7_10  and  C8_11 
REMARK    7  A    between atoms: C8_11  and  N2_12 
REMARK       I    between atoms: N2_12  and  C9_14 
REMARK    8  A    between atoms: C9_14  and  C10_16 
ROOT
HETATM    1  N2  UNL     1      36.725  13.918  15.787  1.00  0.00    -0.361 N 
ATOM      2  H2  UNL     1      36.614  13.024  16.265  1.00  0.00     0.162 HD
HETATM    3  C9  UNL     1      36.256  14.054  14.480  1.00  0.00     0.224 C 
HETATM    4  O2  UNL     1      36.403  15.178  13.897  1.00  0.00    -0.273 OA
ENDROOT
BRANCH   1   5
HETATM    5  C8  UNL     1      37.361  15.005  16.473  1.00  0.00     0.122 C 
BRANCH   5   6
HETATM    6  C7  UNL     1      36.721  15.329  17.796  1.00  0.00     0.020 C 
BRANCH   6   7
HETATM    7  C6  UNL     1      35.428  14.589  18.033  1.00  0.00     0.002 C 
BRANCH   7   8
HETATM    8  C5  UNL     1      35.640  13.489  19.018  1.00  0.00     0.002 C 
BRANCH   8   9
HETATM    9  C4  UNL     1      35.319  12.126  18.422  1.00  0.00     0.020 C 
BRANCH   9  10
HETATM   10  C3  UNL     1      35.504  11.021  19.409  1.00  0.00     0.122 C 
BRANCH  10  11
HETATM   11  N1  UNL     1      34.837  11.273  20.668  1.00  0.00    -0.361 N 
HETATM   12  C2  UNL     1      33.750  10.480  21.117  1.00  0.00     0.213 C 
HETATM   13  C1  UNL     1      33.080  10.747  22.399  1.00  0.00     0.117 C 
HETATM   14  O1  UNL     1      33.335   9.522  20.415  1.00  0.00    -0.274 OA
ATOM     15  H1  UNL     1      35.158  12.046  21.251  1.00  0.00     0.162 HD
ENDBRANCH  10  11
ENDBRANCH   9  10
ENDBRANCH   8   9
ENDBRANCH   7   8
ENDBRANCH   6   7
ENDBRANCH   5   6
ENDBRANCH   1   5
BRANCH   3  16
HETATM   16  C10 UNL     1      35.583  12.956  13.709  1.00  0.00     0.112 C 
HETATM   17  C11 UNL     1      36.654  12.314  12.867  1.00  0.00     0.017 C 
HETATM   18  C12 UNL     1      37.678  11.559  13.638  1.00  0.00     0.001 C 
HETATM   19  C13 UNL     1      37.511  10.077  13.300  1.00  0.00     0.000 C 
HETATM   20  C14 UNL     1      36.404   9.516  14.207  1.00  0.00     0.000 C 
HETATM   21  C15 UNL     1      35.054   9.724  13.611  1.00  0.00     0.003 C 
HETATM   22  C16 UNL     1      34.255  10.852  14.113  1.00  0.00     0.038 C 
HETATM   23  C17 UNL     1      34.971  12.023  14.707  1.00  0.00     0.183 C 
HETATM   24  F1  UNL     1      33.985  12.739  15.370  1.00  0.00    -0.249 F 
ENDBRANCH   3  16
TORSDOF 8
ENDMDL
MODEL 3
REMARK VINA RESULT: -6.068817679      2.596      7.086
REMARK  8 active torsions:
REMARK  status: ('A' for Active; 'I' for Inactive)
REMARK       I    between atoms: C2_2  and  N1_4 
REMARK    1  A    between atoms: N1_4  and  C3_6 
REMARK    2  A    between atoms: C3_6  and  C4_7 
REMARK    3  A    between atoms: C4_7  and  C5_8 
REMARK    4  A    between atoms: C5_8  and  C6_9 
REMARK    5  A    between atoms: C6_9  and  C7_10 
REMARK    6  A    between atoms: C7_10  and  C8_11 
REMARK    7  A    between atoms: C8_11  and  N2_12 
REMARK       I    between atoms: N2_12  and  C9_14 
REMARK    8  A    between atoms: C9_14  and  C10_16 
ROOT
HETATM    1  N2  UNL     1      34.936  12.152  18.764  1.00  0.00    -0.361 N 
ATOM      2  H2  UNL     1      34.002  11.857  18.484  1.00  0.00     0.162 HD
HETATM    3  C9  UNL     1      35.713  11.299  19.548  1.00  0.00     0.224 C 
HETATM    4  O2  UNL     1      36.879  11.683  19.890  1.00  0.00    -0.273 OA
ENDROOT
BRANCH   1   5
HETATM    5  C8  UNL     1      35.421  13.435  18.345  1.00  0.00     0.122 C 
BRANCH   5   6
HETATM    6  C7  UNL     1      35.872  13.460  16.909  1.00  0.00     0.020 C 
BRANCH   6   7
HETATM    7  C6  UNL     1      34.849  12.902  15.951  1.00  0.00     0.002 C 
BRANCH   7   8
HETATM    8  C5  UNL     1      35.416  11.732  15.220  1.00  0.00     0.002 C 
BRANCH   8   9
HETATM    9  C4  UNL     1      36.799  12.032  14.658  1.00  0.00     0.020 C 
BRANCH   9  10
HETATM   10  C3  UNL     1      36.793  12.134  13.168  1.00  0.00     0.122 C 
BRANCH  10  11
HETATM   11  N1  UNL     1      36.867  13.500  12.698  1.00  0.00    -0.361 N 
HETATM   12  C2  UNL     1      35.713  14.230  12.313  1.00  0.00     0.213 C 
HETATM   13  C1  UNL     1      35.803  15.619  11.837  1.00  0.00     0.117 C 
HETATM   14  O1  UNL     1      34.578  13.691  12.374  1.00  0.00    -0.274 OA
ATOM     15  H1  UNL     1      37.779  13.954  12.642  1.00  0.00     0.162 HD
ENDBRANCH  10  11
ENDBRANCH   9  10
ENDBRANCH   8   9
ENDBRANCH   7   8
ENDBRANCH   6   7
ENDBRANCH   5   6
ENDBRANCH   1   5
BRANCH   3  16
HETATM   16  C10 UNL     1      35.263   9.946  20.019  1.00  0.00     0.112 C 
HETATM   17  C11 UNL     1      34.777  10.131  21.432  1.00  0.00     0.017 C 
HETATM   18  C12 UNL     1      33.526  10.926  21.557  1.00  0.00     0.001 C 
HETATM   19  C13 UNL     1      32.427   9.986  22.050  1.00  0.00     0.000 C 
HETATM   20  C14 UNL     1      31.851   9.261  20.823  1.00  0.00     0.000 C 
HETATM   21  C15 UNL     1      32.641   8.040  20.492  1.00  0.00     0.003 C 
HETATM   22  C16 UNL     1      33.619   8.139  19.398  1.00  0.00     0.038 C 
HETATM   23  C17 UNL     1      34.195   9.481  19.078  1.00  0.00     0.183 C 
HETATM   24  F1  UNL     1      34.799   9.318  17.839  1.00  0.00    -0.249 F 
ENDBRANCH   3  16
TORSDOF 8
ENDMDL
MODEL 4
REMARK VINA RESULT: -6.067361821      2.999      5.168
REMARK  8 active torsions:
REMARK  status: ('A' for Active; 'I' for Inactive)
REMARK       I    between atoms: C2_2  and  N1_4 
REMARK    1  A    between atoms: N1_4  and  C3_6 
REMARK    2  A    between atoms: C3_6  and  C4_7 
REMARK    3  A    between atoms: C4_7  and  C5_8 
REMARK    4  A    between atoms: C5_8  and  C6_9 
REMARK    5  A    between atoms: C6_9  and  C7_10 
REMARK    6  A    between atoms: C7_10  and  C8_11 
REMARK    7  A    between atoms: C8_11  and  N2_12 
REMARK       I    between atoms: N2_12  and  C9_14 
REMARK    8  A    between atoms: C9_14  and  C10_16 
ROOT
HETATM    1  N2  UNL     1      34.553  11.932  12.591  1.00  0.00    -0.361 N 
ATOM      2  H2  UNL     1      33.839  12.606  12.315  1.00  0.00     0.162 HD
HETATM    3  C9  UNL     1      35.894  12.214  12.329  1.00  0.00     0.224 C 
HETATM    4  O2  UNL     1      36.773  11.361  12.681  1.00  0.00    -0.273 OA
ENDROOT
BRANCH   1   5
HETATM    5  C8  UNL     1      34.155  10.716  13.240  1.00  0.00     0.122 C 
BRANCH   5   6
HETATM    6  C7  UNL     1      33.747  10.913  14.675  1.00  0.00     0.020 C 
BRANCH   6   7
HETATM    7  C6  UNL     1      34.835  10.562  15.660  1.00  0.00     0.002 C 
BRANCH   7   8
HETATM    8  C5  UNL     1      35.448  11.805  16.211  1.00  0.00     0.002 C 
BRANCH   8   9
HETATM    9  C4  UNL     1      35.257  11.910  17.718  1.00  0.00     0.020 C 
BRANCH   9  10
HETATM   10  C3  UNL     1      35.574  13.275  18.233  1.00  0.00     0.122 C 
BRANCH  10  11
HETATM   11  N1  UNL     1      36.277  14.091  17.267  1.00  0.00    -0.361 N 
HETATM   12  C2  UNL     1      36.707  15.410  17.564  1.00  0.00     0.213 C 
HETATM   13  C1  UNL     1      37.422  16.228  16.572  1.00  0.00     0.117 C 
HETATM   14  O1  UNL     1      36.479  15.907  18.697  1.00  0.00    -0.274 OA
ATOM     15  H1  UNL     1      36.471  13.705  16.343  1.00  0.00     0.162 HD
ENDBRANCH  10  11
ENDBRANCH   9  10
ENDBRANCH   8   9
ENDBRANCH   7   8
ENDBRANCH   6   7
ENDBRANCH   5   6
ENDBRANCH   1   5
BRANCH   3  16
HETATM   16  C10 UNL     1      36.373  13.466  11.654  1.00  0.00     0.112 C 
HETATM   17  C11 UNL     1      36.078  13.296  10.188  1.00  0.00     0.017 C 
HETATM   18  C12 UNL     1      34.631  13.303   9.843  1.00  0.00     0.001 C 
HETATM   19  C13 UNL     1      34.354  14.568   9.031  1.00  0.00     0.000 C 
HETATM   20  C14 UNL     1      34.130  15.718  10.027  1.00  0.00     0.000 C 
HETATM   21  C15 UNL     1      35.419  16.350  10.428  1.00  0.00     0.003 C 
HETATM   22  C16 UNL     1      35.996  15.957  11.723  1.00  0.00     0.038 C 
HETATM   23  C17 UNL     1      35.644  14.615  12.280  1.00  0.00     0.183 C 
HETATM   24  F1  UNL     1      36.048  14.668  13.606  1.00  0.00    -0.249 F 
ENDBRANCH   3  16
TORSDOF 8
ENDMDL
MODEL 5
REMARK VINA RESULT: -5.963461747      3.218      6.531
REMARK  8 active torsions:
REMARK  status: ('A' for Active; 'I' for Inactive)
REMARK       I    between atoms: C2_2  and  N1_4 
REMARK    1  A    between atoms: N1_4  and  C3_6 
REMARK    2  A    between atoms: C3_6  and  C4_7 
REMARK    3  A    between atoms: C4_7  and  C5_8 
REMARK    4  A    between atoms: C5_8  and  C6_9 
REMARK    5  A    between atoms: C6_9  and  C7_10 
REMARK    6  A    between atoms: C7_10  and  C8_11 
REMARK    7  A    between atoms: C8_11  and  N2_12 
REMARK       I    between atoms: N2_12  and  C9_14 
REMARK    8  A    between atoms: C9_14  and  C10_16 
ROOT
HETATM    1  N2  UNL     1      36.984  13.175  13.205  1.00  0.00    -0.361 N 
ATOM      2  H2  UNL     1      37.927  12.838  13.392  1.00  0.00     0.162 HD
HETATM    3  C9  UNL     1      36.064  13.241  14.252  1.00  0.00     0.224 C 
HETATM    4  O2  UNL     1      34.888  13.664  14.001  1.00  0.00    -0.273 OA
ENDROOT
BRANCH   1   5
HETATM    5  C8  UNL     1      36.631  13.568  11.871  1.00  0.00     0.122 C 
BRANCH   5   6
HETATM    6  C7  UNL     1      36.316  12.405  10.971  1.00  0.00     0.020 C 
BRANCH   6   7
HETATM    7  C6  UNL     1      34.841  12.101  10.881  1.00  0.00     0.002 C 
BRANCH   7   8
HETATM    8  C5  UNL     1      34.592  10.665  11.200  1.00  0.00     0.002 C 
BRANCH   8   9
HETATM    9  C4  UNL     1      34.187  10.470  12.655  1.00  0.00     0.020 C 
BRANCH   9  10
HETATM   10  C3  UNL     1      35.241   9.767  13.445  1.00  0.00     0.122 C 
BRANCH  10  11
HETATM   11  N1  UNL     1      36.282   9.200  12.615  1.00  0.00    -0.361 N 
HETATM   12  C2  UNL     1      37.651   9.521  12.798  1.00  0.00     0.213 C 
HETATM   13  C1  UNL     1      38.700   8.937  11.947  1.00  0.00     0.117 C 
HETATM   14  O1  UNL     1      37.996  10.323  13.705  1.00  0.00    -0.274 OA
ATOM     15  H1  UNL     1      36.022   8.549  11.874  1.00  0.00     0.162 HD
ENDBRANCH  10  11
ENDBRANCH   9  10
ENDBRANCH   8   9
ENDBRANCH   7   8
ENDBRANCH   6   7
ENDBRANCH   5   6
ENDBRANCH   1   5
BRANCH   3  16
HETATM   16  C10 UNL     1      36.371  12.844  15.667  1.00  0.00     0.112 C 
HETATM   17  C11 UNL     1      37.341  13.869  16.192  1.00  0.00     0.017 C 
HETATM   18  C12 UNL     1      36.765  15.228  16.378  1.00  0.00     0.001 C 
HETATM   19  C13 UNL     1      36.736  15.518  17.878  1.00  0.00     0.000 C 
HETATM   20  C14 UNL     1      35.454  14.889  18.448  1.00  0.00     0.000 C 
HETATM   21  C15 UNL     1      35.663  13.457  18.806  1.00  0.00     0.003 C 
HETATM   22  C16 UNL     1      35.186  12.441  17.855  1.00  0.00     0.038 C 
HETATM   23  C17 UNL     1      35.072  12.816  16.412  1.00  0.00     0.183 C 
HETATM   24  F1  UNL     1      34.310  11.805  15.845  1.00  0.00    -0.249 F 
ENDBRANCH   3  16
TORSDOF 8
ENDMDL
