MODEL 1
REMARK VINA RESULT: -4.215621769      0.000      0.000
REMARK  1 active torsions:
REMARK  status: ('A' for Active; 'I' for Inactive)
REMARK    1  A    between atoms: C3_6  and  C4_7 
ROOT
HETATM    1  O1  UNL     1      30.415  54.232  45.770  1.00  0.00    -0.273 OA
HETATM    2  C1  UNL     1      29.645  55.174  45.572  1.00  0.00     0.225 C 
HETATM    3  N1  UNL     1      29.193  56.247  46.366  1.00  0.00    -0.360 N 
ATOM      4  H1  UNL     1      29.024  56.406  47.359  1.00  0.00     0.162 HD
HETATM    5  C2  UNL     1      29.073  57.031  45.137  1.00  0.00     0.139 C 
HETATM    6  C3  UNL     1      28.817  55.687  44.473  1.00  0.00     0.126 C 
ENDROOT
BRANCH   6   7
HETATM    7  C4  UNL     1      29.357  55.537  43.092  1.00  0.00     0.202 A 
HETATM    8  C5  UNL     1      28.525  54.554  42.297  1.00  0.00     0.061 A 
HETATM    9  C6  UNL     1      28.039  55.702  41.447  1.00  0.00     0.235 A 
HETATM   10  N2  UNL     1      28.906  56.589  42.231  1.00  0.00    -0.070 N 
ATOM     11  H22 UNL     1      28.495  57.421  42.655  1.00  0.00     0.277 HD
ATOM     12  H21 UNL     1      29.603  57.147  41.738  1.00  0.00     0.277 HD
ENDBRANCH   6   7
TORSDOF 1
ENDMDL
MODEL 2
REMARK VINA RESULT: -4.002105063      2.424      2.811
REMARK  1 active torsions:
REMARK  status: ('A' for Active; 'I' for Inactive)
REMARK    1  A    between atoms: C3_6  and  C4_7 
ROOT
HETATM    1  O1  UNL     1      25.645  55.268  45.697  1.00  0.00    -0.273 OA
HETATM    2  C1  UNL     1      26.426  56.183  45.971  1.00  0.00     0.225 C 
HETATM    3  N1  UNL     1      26.439  57.192  46.955  1.00  0.00    -0.360 N 
ATOM      4  H1  UNL     1      25.739  57.727  47.467  1.00  0.00     0.162 HD
HETATM    5  C2  UNL     1      27.899  57.131  46.916  1.00  0.00     0.139 C 
HETATM    6  C3  UNL     1      27.701  56.708  45.469  1.00  0.00     0.126 C 
ENDROOT
BRANCH   6   7
HETATM    7  C4  UNL     1      28.683  55.715  44.947  1.00  0.00     0.202 A 
HETATM    8  C5  UNL     1      28.448  55.454  43.475  1.00  0.00     0.061 A 
HETATM    9  C6  UNL     1      29.751  56.155  43.176  1.00  0.00     0.235 A 
HETATM   10  N2  UNL     1      29.935  56.331  44.621  1.00  0.00    -0.070 N 
ATOM     11  H22 UNL     1      30.122  57.268  44.977  1.00  0.00     0.277 HD
ATOM     12  H21 UNL     1      30.784  55.964  45.051  1.00  0.00     0.277 HD
ENDBRANCH   6   7
TORSDOF 1
ENDMDL
MODEL 3
REMARK VINA RESULT: -3.973233631      1.890      3.577
REMARK  1 active torsions:
REMARK  status: ('A' for Active; 'I' for Inactive)
REMARK    1  A    between atoms: C3_6  and  C4_7 
ROOT
HETATM    1  O1  UNL     1      30.866  56.072  44.409  1.00  0.00    -0.273 OA
HETATM    2  C1  UNL     1      29.756  56.046  43.873  1.00  0.00     0.225 C 
HETATM    3  N1  UNL     1      29.313  55.779  42.562  1.00  0.00    -0.360 N 
ATOM      4  H1  UNL     1      29.690  55.893  41.622  1.00  0.00     0.162 HD
HETATM    5  C2  UNL     1      28.075  55.266  43.146  1.00  0.00     0.139 C 
HETATM    6  C3  UNL     1      28.357  56.261  44.262  1.00  0.00     0.126 C 
ENDROOT
BRANCH   6   7
HETATM    7  C4  UNL     1      27.961  55.823  45.631  1.00  0.00     0.202 A 
HETATM    8  C5  UNL     1      27.888  57.008  46.570  1.00  0.00     0.061 A 
HETATM    9  C6  UNL     1      26.390  56.833  46.621  1.00  0.00     0.235 A 
HETATM   10  N2  UNL     1      26.542  55.666  45.746  1.00  0.00    -0.070 N 
ATOM     11  H22 UNL     1      25.988  55.623  44.891  1.00  0.00     0.277 HD
ATOM     12  H21 UNL     1      26.176  54.769  46.064  1.00  0.00     0.277 HD
ENDBRANCH   6   7
TORSDOF 1
ENDMDL
MODEL 4
REMARK VINA RESULT: -3.766448211      2.125      3.977
REMARK  1 active torsions:
REMARK  status: ('A' for Active; 'I' for Inactive)
REMARK    1  A    between atoms: C3_6  and  C4_7 
ROOT
HETATM    1  O1  UNL     1      28.904  57.339  41.657  1.00  0.00    -0.273 OA
HETATM    2  C1  UNL     1      28.495  56.200  41.892  1.00  0.00     0.225 C 
HETATM    3  N1  UNL     1      27.984  55.162  41.088  1.00  0.00    -0.360 N 
ATOM      4  H1  UNL     1      27.455  55.099  40.218  1.00  0.00     0.162 HD
HETATM    5  C2  UNL     1      28.546  54.216  42.051  1.00  0.00     0.139 C 
HETATM    6  C3  UNL     1      28.319  55.330  43.061  1.00  0.00     0.126 C 
ENDROOT
BRANCH   6   7
HETATM    7  C4  UNL     1      29.339  55.437  44.143  1.00  0.00     0.202 A 
HETATM    8  C5  UNL     1      29.400  56.849  44.682  1.00  0.00     0.061 A 
HETATM    9  C6  UNL     1      28.806  56.347  45.975  1.00  0.00     0.235 A 
HETATM   10  N2  UNL     1      28.820  54.996  45.404  1.00  0.00    -0.070 N 
ATOM     11  H22 UNL     1      27.955  54.455  45.410  1.00  0.00     0.277 HD
ATOM     12  H21 UNL     1      29.320  54.262  45.905  1.00  0.00     0.277 HD
ENDBRANCH   6   7
TORSDOF 1
ENDMDL
MODEL 5
REMARK VINA RESULT: -3.696665513      1.853      2.104
REMARK  1 active torsions:
REMARK  status: ('A' for Active; 'I' for Inactive)
REMARK    1  A    between atoms: C3_6  and  C4_7 
ROOT
HETATM    1  O1  UNL     1      26.932  56.863  46.036  1.00  0.00    -0.273 OA
HETATM    2  C1  UNL     1      28.026  56.450  45.644  1.00  0.00     0.225 C 
HETATM    3  N1  UNL     1      29.238  56.137  46.291  1.00  0.00    -0.360 N 
ATOM      4  H1  UNL     1      29.734  56.462  47.120  1.00  0.00     0.162 HD
HETATM    5  C2  UNL     1      29.470  55.138  45.248  1.00  0.00     0.139 C 
HETATM    6  C3  UNL     1      28.651  56.072  44.371  1.00  0.00     0.126 C 
ENDROOT
BRANCH   6   7
HETATM    7  C4  UNL     1      27.779  55.408  43.360  1.00  0.00     0.202 A 
HETATM    8  C5  UNL     1      27.900  56.094  42.017  1.00  0.00     0.061 A 
HETATM    9  C6  UNL     1      28.600  54.866  41.489  1.00  0.00     0.235 A 
HETATM   10  N2  UNL     1      28.406  54.246  42.804  1.00  0.00    -0.070 N 
ATOM     11  H22 UNL     1      29.218  53.856  43.283  1.00  0.00     0.277 HD
ATOM     12  H21 UNL     1      27.911  53.356  42.853  1.00  0.00     0.277 HD
ENDBRANCH   6   7
TORSDOF 1
ENDMDL
