MODEL 1
REMARK VINA RESULT: -3.637119479      0.000      0.000
REMARK  2 active torsions:
REMARK  status: ('A' for Active; 'I' for Inactive)
REMARK    1  A    between atoms: N2_6  and  C4_8 
REMARK    2  A    between atoms: C4_8  and  C5_9 
ROOT
HETATM    1  C1  UNL     1      29.654  56.486  42.836  1.00  0.00     0.027 C 
HETATM    2  C2  UNL     1      30.208  55.946  44.144  1.00  0.00     0.121 C 
HETATM    3  N1  UNL     1      28.965  55.786  44.916  1.00  0.00    -0.380 N 
ATOM      4  H1  UNL     1      28.901  55.801  45.935  1.00  0.00     0.160 HD
HETATM    5  C3  UNL     1      27.872  55.608  44.035  1.00  0.00     0.072 C 
HETATM    6  N2  UNL     1      26.644  55.528  44.365  1.00  0.00    -0.378 N 
ATOM      7  H2  UNL     1      25.942  55.399  43.637  1.00  0.00     0.160 HD
HETATM    8  C7  UNL     1      28.466  55.534  42.651  1.00  0.00     0.077 C 
ENDROOT
BRANCH   6   9
HETATM    9  C4  UNL     1      26.229  55.615  45.719  1.00  0.00     0.155 C 
BRANCH   9  10
HETATM   10  C5  UNL     1      26.301  57.018  46.283  1.00  0.00     0.229 A 
HETATM   11  C6  UNL     1      25.983  57.225  47.739  1.00  0.00     0.267 A 
HETATM   12  N3  UNL     1      27.351  57.388  47.180  1.00  0.00    -0.066 N 
ATOM     13  H32 UNL     1      28.259  56.985  47.408  1.00  0.00     0.277 HD
ATOM     14  H31 UNL     1      28.034  58.146  47.194  1.00  0.00     0.277 HD
ENDBRANCH   9  10
ENDBRANCH   6   9
TORSDOF 2
ENDMDL
MODEL 2
REMARK VINA RESULT: -3.430594722      1.233      1.961
REMARK  2 active torsions:
REMARK  status: ('A' for Active; 'I' for Inactive)
REMARK    1  A    between atoms: N2_6  and  C4_8 
REMARK    2  A    between atoms: C4_8  and  C5_9 
ROOT
HETATM    1  C1  UNL     1      29.345  55.104  42.477  1.00  0.00     0.027 C 
HETATM    2  C2  UNL     1      27.856  55.061  42.777  1.00  0.00     0.121 C 
HETATM    3  N1  UNL     1      27.848  55.539  44.170  1.00  0.00    -0.380 N 
ATOM      4  H1  UNL     1      27.129  55.323  44.860  1.00  0.00     0.160 HD
HETATM    5  C3  UNL     1      28.989  56.343  44.407  1.00  0.00     0.072 C 
HETATM    6  N2  UNL     1      29.338  56.843  45.525  1.00  0.00    -0.378 N 
ATOM      7  H2  UNL     1      30.185  57.409  45.574  1.00  0.00     0.160 HD
HETATM    8  C7  UNL     1      29.685  56.475  43.076  1.00  0.00     0.077 C 
ENDROOT
BRANCH   6   9
HETATM    9  C4  UNL     1      28.578  56.633  46.705  1.00  0.00     0.155 C 
BRANCH   9  10
HETATM   10  C5  UNL     1      27.330  57.487  46.779  1.00  0.00     0.229 A 
HETATM   11  C6  UNL     1      25.990  56.803  46.773  1.00  0.00     0.267 A 
HETATM   12  N3  UNL     1      26.532  57.506  47.965  1.00  0.00    -0.066 N 
ATOM     13  H32 UNL     1      26.698  57.230  48.933  1.00  0.00     0.277 HD
ATOM     14  H31 UNL     1      26.179  58.251  48.568  1.00  0.00     0.277 HD
ENDBRANCH   9  10
ENDBRANCH   6   9
TORSDOF 2
ENDMDL
MODEL 3
REMARK VINA RESULT: -3.123934479      1.229      1.434
REMARK  2 active torsions:
REMARK  status: ('A' for Active; 'I' for Inactive)
REMARK    1  A    between atoms: N2_6  and  C4_8 
REMARK    2  A    between atoms: C4_8  and  C5_9 
ROOT
HETATM    1  C1  UNL     1      28.626  55.946  41.986  1.00  0.00     0.027 C 
HETATM    2  C2  UNL     1      29.954  56.452  42.524  1.00  0.00     0.121 C 
HETATM    3  N1  UNL     1      29.622  56.619  43.948  1.00  0.00    -0.380 N 
ATOM      4  H1  UNL     1      30.087  57.264  44.587  1.00  0.00     0.160 HD
HETATM    5  C3  UNL     1      28.560  55.750  44.298  1.00  0.00     0.072 C 
HETATM    6  N2  UNL     1      27.969  55.700  45.425  1.00  0.00    -0.378 N 
ATOM      7  H2  UNL     1      27.213  55.029  45.560  1.00  0.00     0.160 HD
HETATM    8  C7  UNL     1      28.289  54.915  43.072  1.00  0.00     0.077 C 
ENDROOT
BRANCH   6   9
HETATM    9  C4  UNL     1      28.334  56.555  46.497  1.00  0.00     0.155 C 
BRANCH   9  10
HETATM   10  C5  UNL     1      27.242  57.525  46.894  1.00  0.00     0.229 A 
HETATM   11  C6  UNL     1      25.849  56.994  47.100  1.00  0.00     0.267 A 
HETATM   12  N3  UNL     1      26.692  57.500  48.214  1.00  0.00    -0.066 N 
ATOM     13  H32 UNL     1      27.003  57.104  49.101  1.00  0.00     0.277 HD
ATOM     14  H31 UNL     1      26.558  58.208  48.937  1.00  0.00     0.277 HD
ENDBRANCH   9  10
ENDBRANCH   6   9
TORSDOF 2
ENDMDL
MODEL 4
REMARK VINA RESULT: -3.062462873      1.514      4.439
REMARK  2 active torsions:
REMARK  status: ('A' for Active; 'I' for Inactive)
REMARK    1  A    between atoms: N2_6  and  C4_8 
REMARK    2  A    between atoms: C4_8  and  C5_9 
ROOT
HETATM    1  C1  UNL     1      26.724  57.299  46.634  1.00  0.00     0.027 C 
HETATM    2  C2  UNL     1      26.357  55.937  46.069  1.00  0.00     0.121 C 
HETATM    3  N1  UNL     1      27.437  55.753  45.085  1.00  0.00    -0.380 N 
ATOM      4  H1  UNL     1      27.377  55.170  44.250  1.00  0.00     0.160 HD
HETATM    5  C3  UNL     1      28.571  56.507  45.472  1.00  0.00     0.072 C 
HETATM    6  N2  UNL     1      29.647  56.644  44.804  1.00  0.00    -0.378 N 
ATOM      7  H2  UNL     1      30.400  57.216  45.188  1.00  0.00     0.160 HD
HETATM    8  C7  UNL     1      28.234  57.098  46.818  1.00  0.00     0.077 C 
ENDROOT
BRANCH   6   9
HETATM    9  C4  UNL     1      29.824  56.024  43.541  1.00  0.00     0.155 C 
BRANCH   9  10
HETATM   10  C5  UNL     1      28.567  55.370  43.008  1.00  0.00     0.229 A 
HETATM   11  C6  UNL     1      28.140  55.675  41.598  1.00  0.00     0.267 A 
HETATM   12  N3  UNL     1      28.646  54.342  42.017  1.00  0.00    -0.066 N 
ATOM     13  H32 UNL     1      29.397  53.736  41.687  1.00  0.00     0.277 HD
ATOM     14  H31 UNL     1      28.276  53.393  41.952  1.00  0.00     0.277 HD
ENDBRANCH   9  10
ENDBRANCH   6   9
TORSDOF 2
ENDMDL
MODEL 5
REMARK VINA RESULT: -3.025319658      2.488      5.042
REMARK  2 active torsions:
REMARK  status: ('A' for Active; 'I' for Inactive)
REMARK    1  A    between atoms: N2_6  and  C4_8 
REMARK    2  A    between atoms: C4_8  and  C5_9 
ROOT
HETATM    1  C1  UNL     1      28.513  56.593  45.704  1.00  0.00     0.027 C 
HETATM    2  C2  UNL     1      27.147  55.982  45.439  1.00  0.00     0.121 C 
HETATM    3  N1  UNL     1      27.312  55.548  44.042  1.00  0.00    -0.380 N 
ATOM      4  H1  UNL     1      26.553  55.428  43.371  1.00  0.00     0.160 HD
HETATM    5  C3  UNL     1      28.683  55.321  43.770  1.00  0.00     0.072 C 
HETATM    6  N2  UNL     1      29.186  55.022  42.638  1.00  0.00    -0.378 N 
ATOM      7  H2  UNL     1      30.193  54.881  42.564  1.00  0.00     0.160 HD
HETATM    8  C7  UNL     1      29.401  55.506  45.083  1.00  0.00     0.077 C 
ENDROOT
BRANCH   6   9
HETATM    9  C4  UNL     1      28.380  54.879  41.479  1.00  0.00     0.155 C 
BRANCH   9  10
HETATM   10  C5  UNL     1      27.949  53.452  41.216  1.00  0.00     0.229 A 
HETATM   11  C6  UNL     1      28.402  52.786  39.945  1.00  0.00     0.267 A 
HETATM   12  N3  UNL     1      28.896  52.382  41.287  1.00  0.00    -0.066 N 
ATOM     13  H32 UNL     1      29.823  52.286  41.699  1.00  0.00     0.277 HD
ATOM     14  H31 UNL     1      28.923  51.496  41.792  1.00  0.00     0.277 HD
ENDBRANCH   9  10
ENDBRANCH   6   9
TORSDOF 2
ENDMDL
