MODEL 1
REMARK VINA RESULT: -7.742146096      0.000      0.000
REMARK  7 active torsions:
REMARK  status: ('A' for Active; 'I' for Inactive)
REMARK    1  A    between atoms: O1_2  and  N1_3 
REMARK       I    between atoms: N1_3  and  C2_5 
REMARK    2  A    between atoms: C2_5  and  C3_7 
REMARK    3  A    between atoms: C4_9  and  N2_10 
REMARK    4  A    between atoms: N2_10  and  N3_12 
REMARK    5  A    between atoms: N3_12  and  C5_13 
REMARK    6  A    between atoms: C5_13  and  C6_14 
REMARK    7  A    between atoms: C7_15  and  O3_16 
ROOT
HETATM    1  C6  UNL     1      56.383 -15.539  51.398  1.00  0.00     0.136 A 
HETATM    2  C7  UNL     1      57.715 -15.393  51.656  1.00  0.00     0.175 A 
HETATM    3  N4  UNL     1      58.183 -16.524  52.156  1.00  0.00    -0.286 N 
ATOM      4  H4  UNL     1      59.144 -16.707  52.443  1.00  0.00     0.172 HD
HETATM    5  C8  UNL     1      57.151 -17.390  52.216  1.00  0.00     0.342 A 
HETATM    6  O4  UNL     1      57.247 -18.569  52.645  1.00  0.00    -0.245 OA
HETATM    7  N5  UNL     1      56.043 -16.776  51.746  1.00  0.00    -0.193 N 
HETATM    8  C9  UNL     1      54.805 -17.396  51.674  1.00  0.00     0.194 C 
HETATM    9  N6  UNL     1      53.767 -17.906  51.633  1.00  0.00    -0.171 NA
ENDROOT
BRANCH   1  10
HETATM   10  C5  UNL     1      55.435 -14.543  50.834  1.00  0.00     0.244 C 
BRANCH  10  11
HETATM   11  N3  UNL     1      55.450 -13.371  51.053  1.00  0.00    -0.334 NA
BRANCH  11  12
HETATM   12  N2  UNL     1      55.350 -12.231  51.655  1.00  0.00    -0.213 N 
ATOM     13  H2  UNL     1      54.607 -11.613  51.327  1.00  0.00     0.204 HD
BRANCH  12  14
HETATM   14  C4  UNL     1      56.091 -11.772  52.642  1.00  0.00     0.175 A 
HETATM   15  S1  UNL     1      55.750 -10.620  53.831  1.00  0.00    -0.044 SA
HETATM   16  C3  UNL     1      57.276 -10.660  54.687  1.00  0.00     0.100 A 
HETATM   17  C10 UNL     1      57.943 -11.592  53.955  1.00  0.00     0.030 A 
HETATM   18  N7  UNL     1      57.334 -12.145  52.926  1.00  0.00    -0.337 N 
HETATM   19  C11 UNL     1      59.370 -11.983  54.334  1.00  0.00     0.070 C 
ATOM     20  H7  UNL     1      57.808 -12.847  52.358  1.00  0.00     0.168 HD
BRANCH  16  21
HETATM   21  C2  UNL     1      57.580  -9.847  55.847  1.00  0.00     0.284 C 
HETATM   22  N1  UNL     1      58.810  -9.399  56.249  1.00  0.00    -0.231 N 
ATOM     23  H1  UNL     1      59.630  -9.645  55.693  1.00  0.00     0.197 HD
HETATM   24  O2  UNL     1      56.568  -9.511  56.581  1.00  0.00    -0.265 OA
BRANCH  22  25
HETATM   25  O1  UNL     1      58.978  -8.623  57.386  1.00  0.00    -0.282 OA
HETATM   26  C1  UNL     1      59.591  -7.427  57.127  1.00  0.00     0.237 C 
ENDBRANCH  22  25
ENDBRANCH  16  21
ENDBRANCH  12  14
ENDBRANCH  11  12
ENDBRANCH  10  11
ENDBRANCH   1  10
BRANCH   2  27
HETATM   27  O3  UNL     1      58.427 -14.240  51.425  1.00  0.00    -0.344 OA
ATOM     28  H3  UNL     1      59.369 -14.165  51.515  1.00  0.00     0.219 HD
ENDBRANCH   2  27
TORSDOF 7
ENDMDL
MODEL 2
REMARK VINA RESULT: -7.706301726      1.122      1.535
REMARK  7 active torsions:
REMARK  status: ('A' for Active; 'I' for Inactive)
REMARK    1  A    between atoms: O1_2  and  N1_3 
REMARK       I    between atoms: N1_3  and  C2_5 
REMARK    2  A    between atoms: C2_5  and  C3_7 
REMARK    3  A    between atoms: C4_9  and  N2_10 
REMARK    4  A    between atoms: N2_10  and  N3_12 
REMARK    5  A    between atoms: N3_12  and  C5_13 
REMARK    6  A    between atoms: C5_13  and  C6_14 
REMARK    7  A    between atoms: C7_15  and  O3_16 
ROOT
HETATM    1  C6  UNL     1      56.404 -15.477  51.588  1.00  0.00     0.136 A 
HETATM    2  C7  UNL     1      57.732 -15.308  51.855  1.00  0.00     0.175 A 
HETATM    3  N4  UNL     1      58.238 -16.459  52.263  1.00  0.00    -0.286 N 
ATOM      4  H4  UNL     1      59.206 -16.633  52.532  1.00  0.00     0.172 HD
HETATM    5  C8  UNL     1      57.235 -17.361  52.255  1.00  0.00     0.342 A 
HETATM    6  O4  UNL     1      57.371 -18.566  52.590  1.00  0.00    -0.245 OA
HETATM    7  N5  UNL     1      56.105 -16.748  51.838  1.00  0.00    -0.193 N 
HETATM    8  C9  UNL     1      54.888 -17.400  51.719  1.00  0.00     0.194 C 
HETATM    9  N6  UNL     1      53.867 -17.939  51.640  1.00  0.00    -0.171 NA
ENDROOT
BRANCH   1  10
HETATM   10  C5  UNL     1      55.422 -14.471  51.107  1.00  0.00     0.244 C 
BRANCH  10  11
HETATM   11  N3  UNL     1      55.528 -13.289  51.222  1.00  0.00    -0.334 NA
BRANCH  11  12
HETATM   12  N2  UNL     1      55.367 -12.074  51.635  1.00  0.00    -0.213 N 
ATOM     13  H2  UNL     1      54.806 -11.467  51.036  1.00  0.00     0.204 HD
BRANCH  12  14
HETATM   14  C4  UNL     1      55.840 -11.526  52.734  1.00  0.00     0.175 A 
HETATM   15  S1  UNL     1      57.433 -11.270  53.239  1.00  0.00    -0.044 SA
HETATM   16  C3  UNL     1      57.106 -10.499  54.776  1.00  0.00     0.100 A 
HETATM   17  C10 UNL     1      55.746 -10.506  54.768  1.00  0.00     0.030 A 
HETATM   18  N7  UNL     1      55.119 -11.027  53.733  1.00  0.00    -0.337 N 
HETATM   19  C11 UNL     1      54.972  -9.913  55.945  1.00  0.00     0.070 C 
ATOM     20  H7  UNL     1      54.100 -11.047  53.698  1.00  0.00     0.168 HD
BRANCH  16  21
HETATM   21  C2  UNL     1      58.130 -10.040  55.691  1.00  0.00     0.284 C 
HETATM   22  N1  UNL     1      58.124  -8.891  56.436  1.00  0.00    -0.231 N 
ATOM     23  H1  UNL     1      57.325  -8.262  56.367  1.00  0.00     0.197 HD
HETATM   24  O2  UNL     1      59.164 -10.808  55.811  1.00  0.00    -0.265 OA
BRANCH  22  25
HETATM   25  O1  UNL     1      59.171  -8.555  57.283  1.00  0.00    -0.282 OA
HETATM   26  C1  UNL     1      59.444  -7.213  57.283  1.00  0.00     0.237 C 
ENDBRANCH  22  25
ENDBRANCH  16  21
ENDBRANCH  12  14
ENDBRANCH  11  12
ENDBRANCH  10  11
ENDBRANCH   1  10
BRANCH   2  27
HETATM   27  O3  UNL     1      58.405 -14.117  51.714  1.00  0.00    -0.344 OA
ATOM     28  H3  UNL     1      59.107 -13.970  51.093  1.00  0.00     0.219 HD
ENDBRANCH   2  27
TORSDOF 7
ENDMDL
MODEL 3
REMARK VINA RESULT: -7.704928605      1.542      1.885
REMARK  7 active torsions:
REMARK  status: ('A' for Active; 'I' for Inactive)
REMARK    1  A    between atoms: O1_2  and  N1_3 
REMARK       I    between atoms: N1_3  and  C2_5 
REMARK    2  A    between atoms: C2_5  and  C3_7 
REMARK    3  A    between atoms: C4_9  and  N2_10 
REMARK    4  A    between atoms: N2_10  and  N3_12 
REMARK    5  A    between atoms: N3_12  and  C5_13 
REMARK    6  A    between atoms: C5_13  and  C6_14 
REMARK    7  A    between atoms: C7_15  and  O3_16 
ROOT
HETATM    1  C6  UNL     1      56.691 -15.859  51.714  1.00  0.00     0.136 A 
HETATM    2  C7  UNL     1      57.989 -15.449  51.810  1.00  0.00     0.175 A 
HETATM    3  N4  UNL     1      58.729 -16.458  52.236  1.00  0.00    -0.286 N 
ATOM      4  H4  UNL     1      59.735 -16.445  52.400  1.00  0.00     0.172 HD
HETATM    5  C8  UNL     1      57.904 -17.511  52.411  1.00  0.00     0.342 A 
HETATM    6  O4  UNL     1      58.282 -18.641  52.813  1.00  0.00    -0.245 OA
HETATM    7  N5  UNL     1      56.647 -17.133  52.088  1.00  0.00    -0.193 N 
HETATM    8  C9  UNL     1      55.557 -17.986  52.161  1.00  0.00     0.194 C 
HETATM    9  N6  UNL     1      54.643 -18.692  52.242  1.00  0.00    -0.171 NA
ENDROOT
BRANCH   1  10
HETATM   10  C5  UNL     1      55.503 -15.077  51.282  1.00  0.00     0.244 C 
BRANCH  10  11
HETATM   11  N3  UNL     1      54.812 -14.417  51.994  1.00  0.00    -0.334 NA
BRANCH  11  12
HETATM   12  N2  UNL     1      54.395 -13.712  52.995  1.00  0.00    -0.213 N 
ATOM     13  H2  UNL     1      53.462 -13.934  53.343  1.00  0.00     0.204 HD
BRANCH  12  14
HETATM   14  C4  UNL     1      55.030 -12.743  53.620  1.00  0.00     0.175 A 
HETATM   15  S1  UNL     1      56.668 -12.327  53.628  1.00  0.00    -0.044 SA
HETATM   16  C3  UNL     1      56.588 -10.943  54.697  1.00  0.00     0.100 A 
HETATM   17  C10 UNL     1      55.255 -10.920  54.967  1.00  0.00     0.030 A 
HETATM   18  N7  UNL     1      54.480 -11.833  54.417  1.00  0.00    -0.337 N 
HETATM   19  C11 UNL     1      54.681  -9.846  55.889  1.00  0.00     0.070 C 
ATOM     20  H7  UNL     1      53.477 -11.842  54.600  1.00  0.00     0.168 HD
BRANCH  16  21
HETATM   21  C2  UNL     1      57.733 -10.149  55.088  1.00  0.00     0.284 C 
HETATM   22  N1  UNL     1      58.146  -9.854  56.360  1.00  0.00    -0.231 N 
ATOM     23  H1  UNL     1      57.611 -10.219  57.149  1.00  0.00     0.197 HD
HETATM   24  O2  UNL     1      58.442  -9.666  54.119  1.00  0.00    -0.265 OA
BRANCH  22  25
HETATM   25  O1  UNL     1      59.267  -9.076  56.612  1.00  0.00    -0.282 OA
HETATM   26  C1  UNL     1      58.966  -7.902  57.250  1.00  0.00     0.237 C 
ENDBRANCH  22  25
ENDBRANCH  16  21
ENDBRANCH  12  14
ENDBRANCH  11  12
ENDBRANCH  10  11
ENDBRANCH   1  10
BRANCH   2  27
HETATM   27  O3  UNL     1      58.426 -14.181  51.505  1.00  0.00    -0.344 OA
ATOM     28  H3  UNL     1      58.445 -13.459  52.121  1.00  0.00     0.219 HD
ENDBRANCH   2  27
TORSDOF 7
ENDMDL
MODEL 4
REMARK VINA RESULT: -7.699938972      1.801      2.510
REMARK  7 active torsions:
REMARK  status: ('A' for Active; 'I' for Inactive)
REMARK    1  A    between atoms: O1_2  and  N1_3 
REMARK       I    between atoms: N1_3  and  C2_5 
REMARK    2  A    between atoms: C2_5  and  C3_7 
REMARK    3  A    between atoms: C4_9  and  N2_10 
REMARK    4  A    between atoms: N2_10  and  N3_12 
REMARK    5  A    between atoms: N3_12  and  C5_13 
REMARK    6  A    between atoms: C5_13  and  C6_14 
REMARK    7  A    between atoms: C7_15  and  O3_16 
ROOT
HETATM    1  C6  UNL     1      56.101 -16.032  51.373  1.00  0.00     0.136 A 
HETATM    2  C7  UNL     1      55.147 -15.129  51.001  1.00  0.00     0.175 A 
HETATM    3  N4  UNL     1      53.959 -15.706  51.070  1.00  0.00    -0.286 N 
ATOM      4  H4  UNL     1      53.063 -15.272  50.850  1.00  0.00     0.172 HD
HETATM    5  C8  UNL     1      54.155 -16.974  51.484  1.00  0.00     0.342 A 
HETATM    6  O4  UNL     1      53.229 -17.808  51.657  1.00  0.00    -0.245 OA
HETATM    7  N5  UNL     1      55.480 -17.169  51.669  1.00  0.00    -0.193 N 
HETATM    8  C9  UNL     1      56.017 -18.374  52.094  1.00  0.00     0.194 C 
HETATM    9  N6  UNL     1      56.467 -19.386  52.429  1.00  0.00    -0.171 NA
ENDROOT
BRANCH   1  10
HETATM   10  C5  UNL     1      57.573 -15.843  51.452  1.00  0.00     0.244 C 
BRANCH  10  11
HETATM   11  N3  UNL     1      58.130 -14.804  51.626  1.00  0.00    -0.334 NA
BRANCH  11  12
HETATM   12  N2  UNL     1      58.410 -13.541  51.613  1.00  0.00    -0.213 N 
ATOM     13  H2  UNL     1      59.013 -13.222  50.854  1.00  0.00     0.204 HD
BRANCH  12  14
HETATM   14  C4  UNL     1      58.010 -12.618  52.462  1.00  0.00     0.175 A 
HETATM   15  S1  UNL     1      58.581 -12.218  54.002  1.00  0.00    -0.044 SA
HETATM   16  C3  UNL     1      57.483 -10.902  54.361  1.00  0.00     0.100 A 
HETATM   17  C10 UNL     1      56.743 -10.883  53.220  1.00  0.00     0.030 A 
HETATM   18  N7  UNL     1      57.019 -11.754  52.270  1.00  0.00    -0.337 N 
HETATM   19  C11 UNL     1      55.618  -9.863  53.056  1.00  0.00     0.070 C 
ATOM     20  H7  UNL     1      56.481 -11.765  51.403  1.00  0.00     0.168 HD
BRANCH  16  21
HETATM   21  C2  UNL     1      57.497 -10.143  55.594  1.00  0.00     0.284 C 
HETATM   22  N1  UNL     1      58.574  -9.543  56.189  1.00  0.00    -0.231 N 
ATOM     23  H1  UNL     1      59.488  -9.616  55.743  1.00  0.00     0.197 HD
HETATM   24  O2  UNL     1      56.357 -10.024  56.195  1.00  0.00    -0.265 OA
BRANCH  22  25
HETATM   25  O1  UNL     1      58.463  -8.839  57.380  1.00  0.00    -0.282 OA
HETATM   26  C1  UNL     1      58.959  -7.566  57.292  1.00  0.00     0.237 C 
ENDBRANCH  22  25
ENDBRANCH  16  21
ENDBRANCH  12  14
ENDBRANCH  11  12
ENDBRANCH  10  11
ENDBRANCH   1  10
BRANCH   2  27
HETATM   27  O3  UNL     1      55.412 -13.835  50.621  1.00  0.00    -0.344 OA
ATOM     28  H3  UNL     1      55.507 -13.108  51.225  1.00  0.00     0.219 HD
ENDBRANCH   2  27
TORSDOF 7
ENDMDL
MODEL 5
REMARK VINA RESULT: -7.683342024      1.828      2.802
REMARK  7 active torsions:
REMARK  status: ('A' for Active; 'I' for Inactive)
REMARK    1  A    between atoms: O1_2  and  N1_3 
REMARK       I    between atoms: N1_3  and  C2_5 
REMARK    2  A    between atoms: C2_5  and  C3_7 
REMARK    3  A    between atoms: C4_9  and  N2_10 
REMARK    4  A    between atoms: N2_10  and  N3_12 
REMARK    5  A    between atoms: N3_12  and  C5_13 
REMARK    6  A    between atoms: C5_13  and  C6_14 
REMARK    7  A    between atoms: C7_15  and  O3_16 
ROOT
HETATM    1  C6  UNL     1      56.173 -17.437  51.913  1.00  0.00     0.136 A 
HETATM    2  C7  UNL     1      56.145 -18.703  52.421  1.00  0.00     0.175 A 
HETATM    3  N4  UNL     1      57.363 -19.037  52.813  1.00  0.00    -0.286 N 
ATOM      4  H4  UNL     1      57.643 -19.924  53.231  1.00  0.00     0.172 HD
HETATM    5  C8  UNL     1      58.166 -17.984  52.556  1.00  0.00     0.342 A 
HETATM    6  O4  UNL     1      59.399 -17.963  52.807  1.00  0.00    -0.245 OA
HETATM    7  N5  UNL     1      57.426 -17.000  52.000  1.00  0.00    -0.193 N 
HETATM    8  C9  UNL     1      57.954 -15.778  51.616  1.00  0.00     0.194 C 
HETATM    9  N6  UNL     1      58.400 -14.765  51.275  1.00  0.00    -0.171 NA
ENDROOT
BRANCH   1  10
HETATM   10  C5  UNL     1      55.051 -16.639  51.353  1.00  0.00     0.244 C 
BRANCH  10  11
HETATM   11  N3  UNL     1      54.701 -15.568  51.741  1.00  0.00    -0.334 NA
BRANCH  11  12
HETATM   12  N2  UNL     1      54.387 -14.314  51.773  1.00  0.00    -0.213 N 
ATOM     13  H2  UNL     1      53.503 -14.061  51.331  1.00  0.00     0.204 HD
BRANCH  12  14
HETATM   14  C4  UNL     1      55.070 -13.324  52.309  1.00  0.00     0.175 A 
HETATM   15  S1  UNL     1      54.775 -12.407  53.698  1.00  0.00    -0.044 SA
HETATM   16  C3  UNL     1      56.175 -11.359  53.629  1.00  0.00     0.100 A 
HETATM   17  C10 UNL     1      56.772 -11.823  52.498  1.00  0.00     0.030 A 
HETATM   18  N7  UNL     1      56.205 -12.814  51.842  1.00  0.00    -0.337 N 
HETATM   19  C11 UNL     1      58.079 -11.197  52.013  1.00  0.00     0.070 C 
ATOM     20  H7  UNL     1      56.628 -13.183  50.990  1.00  0.00     0.168 HD
BRANCH  16  21
HETATM   21  C2  UNL     1      56.466 -10.324  54.599  1.00  0.00     0.284 C 
HETATM   22  N1  UNL     1      56.953 -10.488  55.868  1.00  0.00    -0.231 N 
ATOM     23  H1  UNL     1      57.146 -11.431  56.205  1.00  0.00     0.197 HD
HETATM   24  O2  UNL     1      56.237  -9.110  54.214  1.00  0.00    -0.265 OA
BRANCH  22  25
HETATM   25  O1  UNL     1      57.193  -9.412  56.712  1.00  0.00    -0.282 OA
HETATM   26  C1  UNL     1      58.509  -9.035  56.731  1.00  0.00     0.237 C 
ENDBRANCH  22  25
ENDBRANCH  16  21
ENDBRANCH  12  14
ENDBRANCH  11  12
ENDBRANCH  10  11
ENDBRANCH   1  10
BRANCH   2  27
HETATM   27  O3  UNL     1      55.015 -19.482  52.497  1.00  0.00    -0.344 OA
ATOM     28  H3  UNL     1      54.909 -20.317  52.057  1.00  0.00     0.219 HD
ENDBRANCH   2  27
TORSDOF 7
ENDMDL
