MODEL 1
REMARK VINA RESULT: -4.144634556      0.000      0.000
REMARK  9 active torsions:
REMARK  status: ('A' for Active; 'I' for Inactive)
REMARK    1  A    between atoms: C2_2  and  O1_3 
REMARK    2  A    between atoms: C2_2  and  C3_5 
REMARK    3  A    between atoms: C3_5  and  C4_6 
REMARK    4  A    between atoms: C7_9  and  C8_10 
REMARK    5  A    between atoms: C11_13  and  C12_14 
REMARK    6  A    between atoms: C13_15  and  C14_16 
REMARK    7  A    between atoms: C14_16  and  O2_17 
REMARK    8  A    between atoms: C14_16  and  C15_19 
REMARK    9  A    between atoms: C15_19  and  O3_20 
ROOT
HETATM    1  C4  UNL     1      48.173  27.875  14.009  1.00  0.00    -0.004 C 
HETATM    2  C5  UNL     1      47.147  28.525  14.877  1.00  0.00     0.006 C 
HETATM    3  C6  UNL     1      46.758  27.433  15.817  1.00  0.00     0.006 C 
HETATM    4  C7  UNL     1      47.957  26.481  15.902  1.00  0.00    -0.003 C 
HETATM    5  C11 UNL     1      48.872  26.799  14.823  1.00  0.00     0.016 C 
ENDROOT
BRANCH   5   6
HETATM    6  C12 UNL     1      50.243  27.163  15.126  1.00  0.00    -0.023 C 
HETATM    7  C13 UNL     1      51.253  26.311  15.104  1.00  0.00     0.003 C 
BRANCH   7   8
HETATM    8  C14 UNL     1      51.103  24.880  14.764  1.00  0.00     0.164 C 
BRANCH   8   9
HETATM    9  O2  UNL     1      50.504  24.208  15.806  1.00  0.00    -0.390 OA
ATOM     10  H2  UNL     1      50.964  23.394  15.976  1.00  0.00     0.210 HD
ENDBRANCH   8   9
BRANCH   8  11
HETATM   11  C15 UNL     1      52.453  24.224  14.541  1.00  0.00     0.199 C 
BRANCH  11  12
HETATM   12  O3  UNL     1      53.492  25.123  14.661  1.00  0.00    -0.398 OA
ATOM     13  H3  UNL     1      54.039  24.937  15.415  1.00  0.00     0.209 HD
ENDBRANCH  11  12
ENDBRANCH   8  11
ENDBRANCH   7   8
ENDBRANCH   5   6
BRANCH   1  14
HETATM   14  C3  UNL     1      49.146  28.901  13.482  1.00  0.00     0.036 C 
BRANCH  14  15
HETATM   15  C2  UNL     1      49.054  28.868  11.970  1.00  0.00     0.114 C 
HETATM   16  C1  UNL     1      47.679  28.414  11.532  1.00  0.00     0.039 C 
BRANCH  15  17
HETATM   17  O1  UNL     1      49.318  30.115  11.403  1.00  0.00    -0.396 OA
ATOM     18  H1  UNL     1      48.968  30.791  11.972  1.00  0.00     0.210 HD
ENDBRANCH  15  17
ENDBRANCH  14  15
ENDBRANCH   1  14
BRANCH   4  19
HETATM   19  C8  UNL     1      48.408  26.495  17.320  1.00  0.00    -0.018 C 
HETATM   20  C9  UNL     1      47.845  25.467  18.226  1.00  0.00     0.010 C 
HETATM   21  C10 UNL     1      48.352  27.851  17.987  1.00  0.00     0.010 C 
ENDBRANCH   4  19
TORSDOF 9
ENDMDL
MODEL 2
REMARK VINA RESULT: -3.655307400      1.713      4.428
REMARK  9 active torsions:
REMARK  status: ('A' for Active; 'I' for Inactive)
REMARK    1  A    between atoms: C2_2  and  O1_3 
REMARK    2  A    between atoms: C2_2  and  C3_5 
REMARK    3  A    between atoms: C3_5  and  C4_6 
REMARK    4  A    between atoms: C7_9  and  C8_10 
REMARK    5  A    between atoms: C11_13  and  C12_14 
REMARK    6  A    between atoms: C13_15  and  C14_16 
REMARK    7  A    between atoms: C14_16  and  O2_17 
REMARK    8  A    between atoms: C14_16  and  C15_19 
REMARK    9  A    between atoms: C15_19  and  O3_20 
ROOT
HETATM    1  C4  UNL     1      48.219  27.166  16.125  1.00  0.00    -0.004 C 
HETATM    2  C5  UNL     1      46.901  27.739  15.720  1.00  0.00     0.006 C 
HETATM    3  C6  UNL     1      47.279  28.798  14.739  1.00  0.00     0.006 C 
HETATM    4  C7  UNL     1      48.628  28.379  14.141  1.00  0.00    -0.003 C 
HETATM    5  C11 UNL     1      49.181  27.317  14.959  1.00  0.00     0.016 C 
ENDROOT
BRANCH   5   6
HETATM    6  C12 UNL     1      49.496  26.035  14.356  1.00  0.00    -0.023 C 
HETATM    7  C13 UNL     1      50.592  25.346  14.622  1.00  0.00     0.003 C 
BRANCH   7   8
HETATM    8  C14 UNL     1      51.630  25.803  15.571  1.00  0.00     0.164 C 
BRANCH   8   9
HETATM    9  O2  UNL     1      52.032  27.080  15.251  1.00  0.00    -0.390 OA
ATOM     10  H2  UNL     1      51.312  27.559  14.858  1.00  0.00     0.210 HD
ENDBRANCH   8   9
BRANCH   8  11
HETATM   11  C15 UNL     1      52.865  24.925  15.498  1.00  0.00     0.199 C 
BRANCH  11  12
HETATM   12  O3  UNL     1      53.645  25.219  14.399  1.00  0.00    -0.398 OA
ATOM     13  H3  UNL     1      54.111  26.040  14.502  1.00  0.00     0.209 HD
ENDBRANCH  11  12
ENDBRANCH   8  11
ENDBRANCH   7   8
ENDBRANCH   5   6
BRANCH   1  14
HETATM   14  C3  UNL     1      48.062  25.724  16.540  1.00  0.00     0.036 C 
BRANCH  14  15
HETATM   15  C2  UNL     1      47.979  25.702  18.053  1.00  0.00     0.114 C 
HETATM   16  C1  UNL     1      48.256  27.078  18.620  1.00  0.00     0.039 C 
BRANCH  15  17
HETATM   17  O1  UNL     1      46.730  25.273  18.503  1.00  0.00    -0.396 OA
ATOM     18  H1  UNL     1      46.407  24.601  17.914  1.00  0.00     0.210 HD
ENDBRANCH  15  17
ENDBRANCH  14  15
ENDBRANCH   1  14
BRANCH   4  19
HETATM   19  C8  UNL     1      48.402  28.187  12.683  1.00  0.00    -0.018 C 
HETATM   20  C9  UNL     1      48.998  29.182  11.762  1.00  0.00     0.010 C 
HETATM   21  C10 UNL     1      46.963  27.930  12.296  1.00  0.00     0.010 C 
ENDBRANCH   4  19
TORSDOF 9
ENDMDL
MODEL 3
REMARK VINA RESULT: -3.265752557      1.320      2.015
REMARK  9 active torsions:
REMARK  status: ('A' for Active; 'I' for Inactive)
REMARK    1  A    between atoms: C2_2  and  O1_3 
REMARK    2  A    between atoms: C2_2  and  C3_5 
REMARK    3  A    between atoms: C3_5  and  C4_6 
REMARK    4  A    between atoms: C7_9  and  C8_10 
REMARK    5  A    between atoms: C11_13  and  C12_14 
REMARK    6  A    between atoms: C13_15  and  C14_16 
REMARK    7  A    between atoms: C14_16  and  O2_17 
REMARK    8  A    between atoms: C14_16  and  C15_19 
REMARK    9  A    between atoms: C15_19  and  O3_20 
ROOT
HETATM    1  C4  UNL     1      48.294  28.180  12.519  1.00  0.00    -0.004 C 
HETATM    2  C5  UNL     1      46.888  28.537  12.869  1.00  0.00     0.006 C 
HETATM    3  C6  UNL     1      46.548  27.560  13.944  1.00  0.00     0.006 C 
HETATM    4  C7  UNL     1      47.872  27.156  14.604  1.00  0.00    -0.003 C 
HETATM    5  C11 UNL     1      48.960  27.603  13.756  1.00  0.00     0.016 C 
ENDROOT
BRANCH   5   6
HETATM    6  C12 UNL     1      49.966  28.501  14.291  1.00  0.00    -0.023 C 
HETATM    7  C13 UNL     1      50.991  28.105  15.026  1.00  0.00     0.003 C 
BRANCH   7   8
HETATM    8  C14 UNL     1      51.233  26.692  15.390  1.00  0.00     0.164 C 
BRANCH   8   9
HETATM    9  O2  UNL     1      52.584  26.466  15.533  1.00  0.00    -0.390 OA
ATOM     10  H2  UNL     1      52.732  25.757  16.148  1.00  0.00     0.210 HD
ENDBRANCH   8   9
BRANCH   8  11
HETATM   11  C15 UNL     1      50.747  25.753  14.303  1.00  0.00     0.199 C 
BRANCH  11  12
HETATM   12  O3  UNL     1      50.379  24.523  14.806  1.00  0.00    -0.398 OA
ATOM     13  H3  UNL     1      49.997  23.965  14.139  1.00  0.00     0.209 HD
ENDBRANCH  11  12
ENDBRANCH   8  11
ENDBRANCH   7   8
ENDBRANCH   5   6
BRANCH   1  14
HETATM   14  C3  UNL     1      49.031  29.388  11.997  1.00  0.00     0.036 C 
BRANCH  14  15
HETATM   15  C2  UNL     1      48.820  29.425  10.497  1.00  0.00     0.114 C 
HETATM   16  C1  UNL     1      48.566  28.033   9.962  1.00  0.00     0.039 C 
BRANCH  15  17
HETATM   17  O1  UNL     1      47.750  30.247  10.140  1.00  0.00    -0.396 OA
ATOM     18  H1  UNL     1      48.045  30.867   9.483  1.00  0.00     0.210 HD
ENDBRANCH  15  17
ENDBRANCH  14  15
ENDBRANCH   1  14
BRANCH   4  19
HETATM   19  C8  UNL     1      47.782  27.583  16.027  1.00  0.00    -0.018 C 
HETATM   20  C9  UNL     1      48.243  26.626  17.058  1.00  0.00     0.010 C 
HETATM   21  C10 UNL     1      46.444  28.163  16.428  1.00  0.00     0.010 C 
ENDBRANCH   4  19
TORSDOF 9
ENDMDL
MODEL 4
REMARK VINA RESULT: -3.210126668      2.072      4.997
REMARK  9 active torsions:
REMARK  status: ('A' for Active; 'I' for Inactive)
REMARK    1  A    between atoms: C2_2  and  O1_3 
REMARK    2  A    between atoms: C2_2  and  C3_5 
REMARK    3  A    between atoms: C3_5  and  C4_6 
REMARK    4  A    between atoms: C7_9  and  C8_10 
REMARK    5  A    between atoms: C11_13  and  C12_14 
REMARK    6  A    between atoms: C13_15  and  C14_16 
REMARK    7  A    between atoms: C14_16  and  O2_17 
REMARK    8  A    between atoms: C14_16  and  C15_19 
REMARK    9  A    between atoms: C15_19  and  O3_20 
ROOT
HETATM    1  C4  UNL     1      48.805  25.547  15.919  1.00  0.00    -0.004 C 
HETATM    2  C5  UNL     1      49.302  24.312  16.594  1.00  0.00     0.006 C 
HETATM    3  C6  UNL     1      49.925  23.543  15.478  1.00  0.00     0.006 C 
HETATM    4  C7  UNL     1      50.344  24.570  14.419  1.00  0.00    -0.003 C 
HETATM    5  C11 UNL     1      49.706  25.834  14.731  1.00  0.00     0.016 C 
ENDROOT
BRANCH   5   6
HETATM    6  C12 UNL     1      50.520  27.015  14.949  1.00  0.00    -0.023 C 
HETATM    7  C13 UNL     1      50.198  28.222  14.516  1.00  0.00     0.003 C 
BRANCH   7   8
HETATM    8  C14 UNL     1      48.964  28.510  13.753  1.00  0.00     0.164 C 
BRANCH   8   9
HETATM    9  O2  UNL     1      48.710  27.491  12.864  1.00  0.00    -0.390 OA
ATOM     10  H2  UNL     1      48.696  26.657  13.320  1.00  0.00     0.210 HD
ENDBRANCH   8   9
BRANCH   8  11
HETATM   11  C15 UNL     1      49.109  29.778  12.934  1.00  0.00     0.199 C 
BRANCH  11  12
HETATM   12  O3  UNL     1      48.587  29.638  11.665  1.00  0.00    -0.398 OA
ATOM     13  H3  UNL     1      49.243  29.781  10.992  1.00  0.00     0.209 HD
ENDBRANCH  11  12
ENDBRANCH   8  11
ENDBRANCH   7   8
ENDBRANCH   5   6
BRANCH   1  14
HETATM   14  C3  UNL     1      48.770  26.701  16.890  1.00  0.00     0.036 C 
BRANCH  14  15
HETATM   15  C2  UNL     1      47.315  27.065  17.099  1.00  0.00     0.114 C 
HETATM   16  C1  UNL     1      46.760  27.759  15.874  1.00  0.00     0.039 C 
BRANCH  15  17
HETATM   17  O1  UNL     1      46.530  25.945  17.375  1.00  0.00    -0.396 OA
ATOM     18  H1  UNL     1      47.011  25.370  17.959  1.00  0.00     0.210 HD
ENDBRANCH  15  17
ENDBRANCH  14  15
ENDBRANCH   1  14
BRANCH   4  19
HETATM   19  C8  UNL     1      51.823  24.467  14.292  1.00  0.00    -0.018 C 
HETATM   20  C9  UNL     1      52.390  23.136  13.970  1.00  0.00     0.010 C 
HETATM   21  C10 UNL     1      52.599  25.092  15.429  1.00  0.00     0.010 C 
ENDBRANCH   4  19
TORSDOF 9
ENDMDL
MODEL 5
REMARK VINA RESULT: -3.157825904      2.310      4.095
REMARK  9 active torsions:
REMARK  status: ('A' for Active; 'I' for Inactive)
REMARK    1  A    between atoms: C2_2  and  O1_3 
REMARK    2  A    between atoms: C2_2  and  C3_5 
REMARK    3  A    between atoms: C3_5  and  C4_6 
REMARK    4  A    between atoms: C7_9  and  C8_10 
REMARK    5  A    between atoms: C11_13  and  C12_14 
REMARK    6  A    between atoms: C13_15  and  C14_16 
REMARK    7  A    between atoms: C14_16  and  O2_17 
REMARK    8  A    between atoms: C14_16  and  C15_19 
REMARK    9  A    between atoms: C15_19  and  O3_20 
ROOT
HETATM    1  C4  UNL     1      51.064  26.738  14.681  1.00  0.00    -0.004 C 
HETATM    2  C5  UNL     1      50.940  28.207  14.913  1.00  0.00     0.006 C 
HETATM    3  C6  UNL     1      49.687  28.561  14.185  1.00  0.00     0.006 C 
HETATM    4  C7  UNL     1      48.833  27.288  14.140  1.00  0.00    -0.003 C 
HETATM    5  C11 UNL     1      49.667  26.164  14.517  1.00  0.00     0.016 C 
ENDROOT
BRANCH   5   6
HETATM    6  C12 UNL     1      49.292  25.337  15.648  1.00  0.00    -0.023 C 
HETATM    7  C13 UNL     1      49.376  24.018  15.657  1.00  0.00     0.003 C 
BRANCH   7   8
HETATM    8  C14 UNL     1      49.865  23.227  14.507  1.00  0.00     0.164 C 
BRANCH   8   9
HETATM    9  O2  UNL     1      48.852  22.438  14.011  1.00  0.00    -0.390 OA
ATOM     10  H2  UNL     1      48.340  22.927  13.377  1.00  0.00     0.210 HD
ENDBRANCH   8   9
BRANCH   8  11
HETATM   11  C15 UNL     1      50.984  22.290  14.922  1.00  0.00     0.199 C 
BRANCH  11  12
HETATM   12  O3  UNL     1      51.853  22.028  13.883  1.00  0.00    -0.398 OA
ATOM     13  H3  UNL     1      51.824  21.117  13.615  1.00  0.00     0.209 HD
ENDBRANCH  11  12
ENDBRANCH   8  11
ENDBRANCH   7   8
ENDBRANCH   5   6
BRANCH   1  14
HETATM   14  C3  UNL     1      51.809  26.085  15.819  1.00  0.00     0.036 C 
BRANCH  14  15
HETATM   15  C2  UNL     1      53.018  25.394  15.222  1.00  0.00     0.114 C 
HETATM   16  C1  UNL     1      53.462  24.247  16.104  1.00  0.00     0.039 C 
BRANCH  15  17
HETATM   17  O1  UNL     1      52.760  24.903  13.941  1.00  0.00    -0.396 OA
ATOM     18  H1  UNL     1      53.305  25.370  13.319  1.00  0.00     0.210 HD
ENDBRANCH  15  17
ENDBRANCH  14  15
ENDBRANCH   1  14
BRANCH   4  19
HETATM   19  C8  UNL     1      47.578  27.596  14.880  1.00  0.00    -0.018 C 
HETATM   20  C9  UNL     1      46.810  28.789  14.456  1.00  0.00     0.010 C 
HETATM   21  C10 UNL     1      47.714  27.583  16.385  1.00  0.00     0.010 C 
ENDBRANCH   4  19
TORSDOF 9
ENDMDL
