MODEL 1
REMARK VINA RESULT: -7.879670229      0.000      0.000
REMARK  15 active torsions:
REMARK  status: ('A' for Active; 'I' for Inactive)
REMARK    1  A    between atoms: C2_2  and  C3_3 
REMARK    2  A    between atoms: C5_5  and  C6_6 
REMARK    3  A    between atoms: C6_6  and  C7_7 
REMARK    4  A    between atoms: C8_8  and  C10_10 
REMARK    5  A    between atoms: C10_10  and  C11_11 
REMARK    6  A    between atoms: C11_11  and  C12_12 
REMARK    7  A    between atoms: C16_16  and  N1_17 
REMARK    8  A    between atoms: N1_17  and  C17_19 
REMARK    9  A    between atoms: C17_19  and  C18_20 
REMARK   10  A    between atoms: C20_25  and  C21_26 
REMARK       I    between atoms: C21_26  and  N3_28 
REMARK   11  A    between atoms: C26_36  and  O4_37 
REMARK   12  A    between atoms: O4_37  and  C27_38 
REMARK   13  A    between atoms: C27_38  and  C28_40 
REMARK   14  A    between atoms: C28_40  and  C29_41 
REMARK   15  A    between atoms: C29_41  and  C30_42 
ROOT
HETATM    1  C3  UNL     1      15.379  22.482   6.414  1.00  0.00     0.013 C 
HETATM    2  C4  UNL     1      14.878  22.725   5.047  1.00  0.00     0.021 C 
HETATM    3  C5  UNL     1      13.416  22.235   5.021  1.00  0.00    -0.007 C 
HETATM    4  C16 UNL     1      12.602  23.482   5.147  1.00  0.00     0.115 C 
HETATM    5  C26 UNL     1      13.098  24.273   6.357  1.00  0.00     0.155 C 
HETATM    6  C31 UNL     1      13.348  23.440   7.583  1.00  0.00     0.041 C 
HETATM    7  C32 UNL     1      14.139  22.208   7.238  1.00  0.00     0.004 C 
HETATM    8  C33 UNL     1      13.348  21.368   6.225  1.00  0.00    -0.033 C 
HETATM    9  C34 UNL     1      14.077  20.078   6.114  1.00  0.00     0.016 C 
HETATM   10  C35 UNL     1      11.968  21.077   6.734  1.00  0.00     0.016 C 
ENDROOT
BRANCH   4  11
HETATM   11  N1  UNL     1      12.534  24.350   4.056  1.00  0.00    -0.411 N 
ATOM     12  H1  UNL     1      13.409  24.799   3.786  1.00  0.00     0.153 HD
BRANCH  11  13
HETATM   13  C17 UNL     1      11.434  24.674   3.301  1.00  0.00     0.149 C 
BRANCH  13  14
HETATM   14  C18 UNL     1      10.089  24.251   3.948  1.00  0.00     0.196 C 
HETATM   15  C19 UNL     1       9.548  23.154   3.134  1.00  0.00     0.243 C 
HETATM   16  O1  UNL     1       9.756  22.016   3.579  1.00  0.00    -0.271 OA
HETATM   17  N2  UNL     1       8.823  23.217   1.918  1.00  0.00    -0.346 N 
HETATM   18  C20 UNL     1       7.855  24.174   1.486  1.00  0.00     0.185 C 
ATOM     19  H2  UNL     1       9.023  22.469   1.254  1.00  0.00     0.163 HD
HETATM   20  C23 UNL     1       8.317  25.608   1.602  1.00  0.00     0.138 C 
HETATM   21  C24 UNL     1       8.368  25.934   3.051  1.00  0.00     0.222 C 
HETATM   22  O3  UNL     1       7.533  26.830   3.425  1.00  0.00    -0.273 OA
HETATM   23  N4  UNL     1       9.213  25.381   4.036  1.00  0.00    -0.341 N 
HETATM   24  C25 UNL     1       9.179  26.061   5.310  1.00  0.00     0.153 C 
BRANCH  18  25
HETATM   25  C21 UNL     1       6.584  24.061   2.224  1.00  0.00     0.240 C 
HETATM   26  O2  UNL     1       6.469  23.207   3.124  1.00  0.00    -0.271 OA
HETATM   27  N3  UNL     1       5.493  24.910   1.921  1.00  0.00    -0.364 N 
HETATM   28  C22 UNL     1       4.264  24.794   2.645  1.00  0.00     0.149 C 
ATOM     29  H3  UNL     1       5.584  25.610   1.184  1.00  0.00     0.161 HD
ENDBRANCH  18  25
ENDBRANCH  13  14
ENDBRANCH  11  13
ENDBRANCH   4  11
BRANCH   3  30
HETATM   30  C6  UNL     1      13.252  21.438   3.758  1.00  0.00     0.040 C 
BRANCH  30  31
HETATM   31  C7  UNL     1      14.462  21.207   2.981  1.00  0.00    -0.023 C 
HETATM   32  C8  UNL     1      14.874  20.001   2.629  1.00  0.00    -0.087 C 
HETATM   33  C9  UNL     1      16.162  20.003   1.814  1.00  0.00     0.043 C 
BRANCH  32  34
HETATM   34  C10 UNL     1      14.285  18.719   3.000  1.00  0.00     0.037 C 
BRANCH  34  35
HETATM   35  C11 UNL     1      15.149  17.528   3.136  1.00  0.00     0.031 C 
BRANCH  35  36
HETATM   36  C12 UNL     1      16.069  17.539   4.269  1.00  0.00    -0.024 C 
HETATM   37  C13 UNL     1      17.391  17.319   4.104  1.00  0.00    -0.091 C 
HETATM   38  C14 UNL     1      17.954  17.060   2.763  1.00  0.00     0.042 C 
HETATM   39  C15 UNL     1      18.304  17.335   5.277  1.00  0.00     0.042 C 
ENDBRANCH  35  36
ENDBRANCH  34  35
ENDBRANCH  32  34
ENDBRANCH  30  31
ENDBRANCH   3  30
BRANCH   5  40
HETATM   40  O4  UNL     1      12.233  25.340   6.587  1.00  0.00    -0.314 OA
BRANCH  40  41
HETATM   41  C27 UNL     1      11.314  25.351   7.648  1.00  0.00     0.259 C 
HETATM   42  O5  UNL     1      10.379  24.564   7.512  1.00  0.00    -0.265 OA
BRANCH  41  43
HETATM   43  C28 UNL     1      11.416  26.215   8.834  1.00  0.00     0.121 C 
BRANCH  43  44
HETATM   44  C29 UNL     1      10.072  26.437   9.442  1.00  0.00     0.123 C 
BRANCH  44  45
HETATM   45  C30 UNL     1       9.530  27.792   9.364  1.00  0.00     0.172 C 
HETATM   46  O6  UNL     1       9.149  28.431  10.340  1.00  0.00    -0.648 OA
HETATM   47  O7  UNL     1       9.412  28.462   8.120  1.00  0.00    -0.648 OA
ENDBRANCH  44  45
ENDBRANCH  43  44
ENDBRANCH  41  43
ENDBRANCH  40  41
ENDBRANCH   5  40
BRANCH   1  48
HETATM   48  C2  UNL     1      16.297  23.415   7.028  1.00  0.00    -0.032 C 
HETATM   49  C1  UNL     1      16.737  23.238   8.260  1.00  0.00     0.007 C 
ENDBRANCH   1  48
TORSDOF 15
ENDMDL
MODEL 2
REMARK VINA RESULT: -7.422078626      3.927     10.227
REMARK  15 active torsions:
REMARK  status: ('A' for Active; 'I' for Inactive)
REMARK    1  A    between atoms: C2_2  and  C3_3 
REMARK    2  A    between atoms: C5_5  and  C6_6 
REMARK    3  A    between atoms: C6_6  and  C7_7 
REMARK    4  A    between atoms: C8_8  and  C10_10 
REMARK    5  A    between atoms: C10_10  and  C11_11 
REMARK    6  A    between atoms: C11_11  and  C12_12 
REMARK    7  A    between atoms: C16_16  and  N1_17 
REMARK    8  A    between atoms: N1_17  and  C17_19 
REMARK    9  A    between atoms: C17_19  and  C18_20 
REMARK   10  A    between atoms: C20_25  and  C21_26 
REMARK       I    between atoms: C21_26  and  N3_28 
REMARK   11  A    between atoms: C26_36  and  O4_37 
REMARK   12  A    between atoms: O4_37  and  C27_38 
REMARK   13  A    between atoms: C27_38  and  C28_40 
REMARK   14  A    between atoms: C28_40  and  C29_41 
REMARK   15  A    between atoms: C29_41  and  C30_42 
ROOT
HETATM    1  C3  UNL     1      11.469  24.534   3.629  1.00  0.00     0.013 C 
HETATM    2  C4  UNL     1      12.586  24.988   4.480  1.00  0.00     0.021 C 
HETATM    3  C5  UNL     1      12.469  24.214   5.810  1.00  0.00    -0.007 C 
HETATM    4  C16 UNL     1      13.482  23.121   5.696  1.00  0.00     0.115 C 
HETATM    5  C26 UNL     1      13.257  22.376   4.380  1.00  0.00     0.155 C 
HETATM    6  C31 UNL     1      11.816  22.067   4.082  1.00  0.00     0.041 C 
HETATM    7  C32 UNL     1      10.954  23.279   4.303  1.00  0.00     0.004 C 
HETATM    8  C33 UNL     1      11.069  23.720   5.769  1.00  0.00    -0.033 C 
HETATM    9  C34 UNL     1      10.028  24.762   5.960  1.00  0.00     0.016 C 
HETATM   10  C35 UNL     1      10.759  22.581   6.695  1.00  0.00     0.016 C 
ENDROOT
BRANCH   4  11
HETATM   11  N1  UNL     1      14.835  23.452   5.783  1.00  0.00    -0.411 N 
ATOM     12  H1  UNL     1      15.172  24.141   5.111  1.00  0.00     0.153 HD
BRANCH  11  13
HETATM   13  C17 UNL     1      15.769  22.964   6.663  1.00  0.00     0.149 C 
BRANCH  13  14
HETATM   14  C18 UNL     1      15.551  21.475   7.039  1.00  0.00     0.196 C 
HETATM   15  C19 UNL     1      15.115  21.447   8.442  1.00  0.00     0.243 C 
HETATM   16  O1  UNL     1      13.891  21.341   8.612  1.00  0.00    -0.271 OA
HETATM   17  N2  UNL     1      15.896  21.522   9.622  1.00  0.00    -0.346 N 
HETATM   18  C20 UNL     1      17.191  20.984   9.890  1.00  0.00     0.185 C 
ATOM     19  H2  UNL     1      15.469  22.036  10.393  1.00  0.00     0.163 HD
HETATM   20  C23 UNL     1      18.230  21.344   8.854  1.00  0.00     0.138 C 
HETATM   21  C24 UNL     1      17.892  20.590   7.618  1.00  0.00     0.222 C 
HETATM   22  O3  UNL     1      18.760  19.714   7.275  1.00  0.00    -0.273 OA
HETATM   23  N4  UNL     1      16.751  20.729   6.800  1.00  0.00    -0.341 N 
HETATM   24  C25 UNL     1      16.814  20.013   5.549  1.00  0.00     0.153 C 
BRANCH  18  25
HETATM   25  C21 UNL     1      17.177  19.515  10.007  1.00  0.00     0.240 C 
HETATM   26  O2  UNL     1      16.088  18.910  10.037  1.00  0.00    -0.271 OA
HETATM   27  N3  UNL     1      18.386  18.784  10.087  1.00  0.00    -0.364 N 
HETATM   28  C22 UNL     1      18.362  17.357  10.198  1.00  0.00     0.149 C 
ATOM     29  H3  UNL     1      19.280  19.276  10.065  1.00  0.00     0.161 HD
ENDBRANCH  18  25
ENDBRANCH  13  14
ENDBRANCH  11  13
ENDBRANCH   4  11
BRANCH   3  30
HETATM   30  C6  UNL     1      12.667  25.217   6.910  1.00  0.00     0.040 C 
BRANCH  30  31
HETATM   31  C7  UNL     1      12.007  24.924   8.176  1.00  0.00    -0.023 C 
HETATM   32  C8  UNL     1      11.251  25.799   8.814  1.00  0.00    -0.087 C 
HETATM   33  C9  UNL     1      10.659  25.270  10.115  1.00  0.00     0.043 C 
BRANCH  32  34
HETATM   34  C10 UNL     1      11.006  27.191   8.452  1.00  0.00     0.037 C 
BRANCH  34  35
HETATM   35  C11 UNL     1       9.719  27.825   8.803  1.00  0.00     0.031 C 
BRANCH  35  36
HETATM   36  C12 UNL     1       8.784  28.015   7.698  1.00  0.00    -0.024 C 
HETATM   37  C13 UNL     1       7.718  27.203   7.531  1.00  0.00    -0.091 C 
HETATM   38  C14 UNL     1       7.459  26.091   8.466  1.00  0.00     0.042 C 
HETATM   39  C15 UNL     1       6.784  27.421   6.396  1.00  0.00     0.042 C 
ENDBRANCH  35  36
ENDBRANCH  34  35
ENDBRANCH  32  34
ENDBRANCH  30  31
ENDBRANCH   3  30
BRANCH   5  40
HETATM   40  O4  UNL     1      14.075  21.250   4.351  1.00  0.00    -0.314 OA
BRANCH  40  41
HETATM   41  C27 UNL     1      14.529  20.679   3.152  1.00  0.00     0.259 C 
HETATM   42  O5  UNL     1      14.662  21.482   2.230  1.00  0.00    -0.265 OA
BRANCH  41  43
HETATM   43  C28 UNL     1      14.824  19.249   2.966  1.00  0.00     0.121 C 
BRANCH  43  44
HETATM   44  C29 UNL     1      15.373  18.998   1.601  1.00  0.00     0.123 C 
BRANCH  44  45
HETATM   45  C30 UNL     1      16.665  18.320   1.526  1.00  0.00     0.172 C 
HETATM   46  O6  UNL     1      17.681  18.724   2.084  1.00  0.00    -0.648 OA
HETATM   47  O7  UNL     1      16.820  17.121   0.785  1.00  0.00    -0.648 OA
ENDBRANCH  44  45
ENDBRANCH  43  44
ENDBRANCH  41  43
ENDBRANCH  40  41
ENDBRANCH   5  40
BRANCH   1  48
HETATM   48  C2  UNL     1      11.651  24.400   2.201  1.00  0.00    -0.032 C 
HETATM   49  C1  UNL     1      10.624  24.231   1.389  1.00  0.00     0.007 C 
ENDBRANCH   1  48
TORSDOF 15
ENDMDL
MODEL 3
REMARK VINA RESULT: -7.108645890      6.938     11.736
REMARK  15 active torsions:
REMARK  status: ('A' for Active; 'I' for Inactive)
REMARK    1  A    between atoms: C2_2  and  C3_3 
REMARK    2  A    between atoms: C5_5  and  C6_6 
REMARK    3  A    between atoms: C6_6  and  C7_7 
REMARK    4  A    between atoms: C8_8  and  C10_10 
REMARK    5  A    between atoms: C10_10  and  C11_11 
REMARK    6  A    between atoms: C11_11  and  C12_12 
REMARK    7  A    between atoms: C16_16  and  N1_17 
REMARK    8  A    between atoms: N1_17  and  C17_19 
REMARK    9  A    between atoms: C17_19  and  C18_20 
REMARK   10  A    between atoms: C20_25  and  C21_26 
REMARK       I    between atoms: C21_26  and  N3_28 
REMARK   11  A    between atoms: C26_36  and  O4_37 
REMARK   12  A    between atoms: O4_37  and  C27_38 
REMARK   13  A    between atoms: C27_38  and  C28_40 
REMARK   14  A    between atoms: C28_40  and  C29_41 
REMARK   15  A    between atoms: C29_41  and  C30_42 
ROOT
HETATM    1  C3  UNL     1      15.867  20.955   9.130  1.00  0.00     0.013 C 
HETATM    2  C4  UNL     1      15.986  20.045   7.975  1.00  0.00     0.021 C 
HETATM    3  C5  UNL     1      17.363  20.320   7.337  1.00  0.00    -0.007 C 
HETATM    4  C16 UNL     1      18.233  19.210   7.834  1.00  0.00     0.115 C 
HETATM    5  C26 UNL     1      18.119  19.141   9.357  1.00  0.00     0.155 C 
HETATM    6  C31 UNL     1      18.179  20.476  10.044  1.00  0.00     0.041 C 
HETATM    7  C32 UNL     1      17.273  21.466   9.366  1.00  0.00     0.004 C 
HETATM    8  C33 UNL     1      17.720  21.643   7.908  1.00  0.00    -0.033 C 
HETATM    9  C34 UNL     1      16.935  22.789   7.381  1.00  0.00     0.016 C 
HETATM   10  C35 UNL     1      19.174  22.007   7.836  1.00  0.00     0.016 C 
ENDROOT
BRANCH   4  11
HETATM   11  N1  UNL     1      18.037  17.926   7.323  1.00  0.00    -0.411 N 
ATOM     12  H1  UNL     1      17.187  17.450   7.625  1.00  0.00     0.153 HD
BRANCH  11  13
HETATM   13  C17 UNL     1      18.846  17.226   6.464  1.00  0.00     0.149 C 
BRANCH  13  14
HETATM   14  C18 UNL     1      18.837  15.695   6.711  1.00  0.00     0.196 C 
HETATM   15  C19 UNL     1      18.974  15.492   8.159  1.00  0.00     0.243 C 
HETATM   16  O1  UNL     1      17.913  15.276   8.764  1.00  0.00    -0.271 OA
HETATM   17  N2  UNL     1      20.145  15.509   8.957  1.00  0.00    -0.346 N 
HETATM   18  C20 UNL     1      21.461  15.048   8.649  1.00  0.00     0.185 C 
ATOM     19  H2  UNL     1      20.031  15.908   9.889  1.00  0.00     0.163 HD
HETATM   20  C23 UNL     1      22.010  15.588   7.349  1.00  0.00     0.138 C 
HETATM   21  C24 UNL     1      21.249  14.938   6.251  1.00  0.00     0.222 C 
HETATM   22  O3  UNL     1      21.947  14.170   5.501  1.00  0.00    -0.273 OA
HETATM   23  N4  UNL     1      19.877  15.070   5.948  1.00  0.00    -0.341 N 
HETATM   24  C25 UNL     1      19.479  14.490   4.687  1.00  0.00     0.153 C 
BRANCH  18  25
HETATM   25  C21 UNL     1      21.541  13.577   8.582  1.00  0.00     0.240 C 
HETATM   26  O2  UNL     1      20.538  12.893   8.864  1.00  0.00    -0.271 OA
HETATM   27  N3  UNL     1      22.743  12.934   8.203  1.00  0.00    -0.364 N 
HETATM   28  C22 UNL     1      22.810  11.506   8.139  1.00  0.00     0.149 C 
ATOM     29  H3  UNL     1      23.566  13.492   7.973  1.00  0.00     0.161 HD
ENDBRANCH  18  25
ENDBRANCH  13  14
ENDBRANCH  11  13
ENDBRANCH   4  11
BRANCH   3  30
HETATM   30  C6  UNL     1      17.142  20.402   5.853  1.00  0.00     0.040 C 
BRANCH  30  31
HETATM   31  C7  UNL     1      16.278  19.382   5.274  1.00  0.00    -0.023 C 
HETATM   32  C8  UNL     1      15.478  19.613   4.248  1.00  0.00    -0.087 C 
HETATM   33  C9  UNL     1      14.672  18.396   3.809  1.00  0.00     0.043 C 
BRANCH  32  34
HETATM   34  C10 UNL     1      15.241  20.886   3.577  1.00  0.00     0.037 C 
BRANCH  34  35
HETATM   35  C11 UNL     1      13.999  21.638   3.850  1.00  0.00     0.031 C 
BRANCH  35  36
HETATM   36  C12 UNL     1      14.083  22.633   4.915  1.00  0.00    -0.024 C 
HETATM   37  C13 UNL     1      13.422  22.472   6.082  1.00  0.00    -0.091 C 
HETATM   38  C14 UNL     1      12.589  21.276   6.321  1.00  0.00     0.042 C 
HETATM   39  C15 UNL     1      13.525  23.502   7.148  1.00  0.00     0.042 C 
ENDBRANCH  35  36
ENDBRANCH  34  35
ENDBRANCH  32  34
ENDBRANCH  30  31
ENDBRANCH   3  30
BRANCH   5  40
HETATM   40  O4  UNL     1      19.059  18.234   9.841  1.00  0.00    -0.314 OA
BRANCH  40  41
HETATM   41  C27 UNL     1      19.347  18.104  11.208  1.00  0.00     0.259 C 
HETATM   42  O5  UNL     1      20.532  18.274  11.491  1.00  0.00    -0.265 OA
BRANCH  41  43
HETATM   43  C28 UNL     1      18.354  17.784  12.245  1.00  0.00     0.121 C 
BRANCH  43  44
HETATM   44  C29 UNL     1      17.904  16.366  12.125  1.00  0.00     0.123 C 
BRANCH  44  45
HETATM   45  C30 UNL     1      16.498  16.149  11.791  1.00  0.00     0.172 C 
HETATM   46  O6  UNL     1      15.803  15.275  12.302  1.00  0.00    -0.648 OA
HETATM   47  O7  UNL     1      15.840  16.959  10.832  1.00  0.00    -0.648 OA
ENDBRANCH  44  45
ENDBRANCH  43  44
ENDBRANCH  41  43
ENDBRANCH  40  41
ENDBRANCH   5  40
BRANCH   1  48
HETATM   48  C2  UNL     1      15.192  20.520  10.332  1.00  0.00    -0.032 C 
HETATM   49  C1  UNL     1      14.666  21.386  11.179  1.00  0.00     0.007 C 
ENDBRANCH   1  48
TORSDOF 15
ENDMDL
MODEL 4
REMARK VINA RESULT: -6.942032621      7.238     11.871
REMARK  15 active torsions:
REMARK  status: ('A' for Active; 'I' for Inactive)
REMARK    1  A    between atoms: C2_2  and  C3_3 
REMARK    2  A    between atoms: C5_5  and  C6_6 
REMARK    3  A    between atoms: C6_6  and  C7_7 
REMARK    4  A    between atoms: C8_8  and  C10_10 
REMARK    5  A    between atoms: C10_10  and  C11_11 
REMARK    6  A    between atoms: C11_11  and  C12_12 
REMARK    7  A    between atoms: C16_16  and  N1_17 
REMARK    8  A    between atoms: N1_17  and  C17_19 
REMARK    9  A    between atoms: C17_19  and  C18_20 
REMARK   10  A    between atoms: C20_25  and  C21_26 
REMARK       I    between atoms: C21_26  and  N3_28 
REMARK   11  A    between atoms: C26_36  and  O4_37 
REMARK   12  A    between atoms: O4_37  and  C27_38 
REMARK   13  A    between atoms: C27_38  and  C28_40 
REMARK   14  A    between atoms: C28_40  and  C29_41 
REMARK   15  A    between atoms: C29_41  and  C30_42 
ROOT
HETATM    1  C3  UNL     1      15.857  20.956   9.100  1.00  0.00     0.013 C 
HETATM    2  C4  UNL     1      16.015  19.994   7.992  1.00  0.00     0.021 C 
HETATM    3  C5  UNL     1      17.421  20.227   7.403  1.00  0.00    -0.007 C 
HETATM    4  C16 UNL     1      18.257  19.133   7.987  1.00  0.00     0.115 C 
HETATM    5  C26 UNL     1      18.078  19.134   9.505  1.00  0.00     0.155 C 
HETATM    6  C31 UNL     1      18.123  20.498  10.134  1.00  0.00     0.041 C 
HETATM    7  C32 UNL     1      17.257  21.464   9.373  1.00  0.00     0.004 C 
HETATM    8  C33 UNL     1      17.768  21.571   7.930  1.00  0.00    -0.033 C 
HETATM    9  C34 UNL     1      17.019  22.700   7.318  1.00  0.00     0.016 C 
HETATM   10  C35 UNL     1      19.227  21.918   7.904  1.00  0.00     0.016 C 
ENDROOT
BRANCH   4  11
HETATM   11  N1  UNL     1      18.069  17.829   7.525  1.00  0.00    -0.411 N 
ATOM     12  H1  UNL     1      17.239  17.348   7.871  1.00  0.00     0.153 HD
BRANCH  11  13
HETATM   13  C17 UNL     1      18.863  17.115   6.664  1.00  0.00     0.149 C 
BRANCH  13  14
HETATM   14  C18 UNL     1      18.822  15.583   6.906  1.00  0.00     0.196 C 
HETATM   15  C19 UNL     1      18.958  15.373   8.354  1.00  0.00     0.243 C 
HETATM   16  O1  UNL     1      17.896  15.178   8.961  1.00  0.00    -0.271 OA
HETATM   17  N2  UNL     1      20.132  15.362   9.148  1.00  0.00    -0.346 N 
HETATM   18  C20 UNL     1      21.437  14.873   8.834  1.00  0.00     0.185 C 
ATOM     19  H2  UNL     1      20.029  15.761  10.081  1.00  0.00     0.163 HD
HETATM   20  C23 UNL     1      21.994  15.405   7.535  1.00  0.00     0.138 C 
HETATM   21  C24 UNL     1      21.215  14.776   6.437  1.00  0.00     0.222 C 
HETATM   22  O3  UNL     1      21.894  13.995   5.682  1.00  0.00    -0.273 OA
HETATM   23  N4  UNL     1      19.846  14.939   6.138  1.00  0.00    -0.341 N 
HETATM   24  C25 UNL     1      19.432  14.372   4.877  1.00  0.00     0.153 C 
BRANCH  18  25
HETATM   25  C21 UNL     1      21.484  13.401   8.763  1.00  0.00     0.240 C 
HETATM   26  O2  UNL     1      20.477  12.737   9.071  1.00  0.00    -0.271 OA
HETATM   27  N3  UNL     1      22.663  12.735   8.349  1.00  0.00    -0.364 N 
HETATM   28  C22 UNL     1      22.698  11.306   8.281  1.00  0.00     0.149 C 
ATOM     29  H3  UNL     1      23.490  13.276   8.098  1.00  0.00     0.161 HD
ENDBRANCH  18  25
ENDBRANCH  13  14
ENDBRANCH  11  13
ENDBRANCH   4  11
BRANCH   3  30
HETATM   30  C6  UNL     1      17.265  20.244   5.909  1.00  0.00     0.040 C 
BRANCH  30  31
HETATM   31  C7  UNL     1      16.391  19.225   5.342  1.00  0.00    -0.023 C 
HETATM   32  C8  UNL     1      15.582  19.456   4.323  1.00  0.00    -0.087 C 
HETATM   33  C9  UNL     1      14.766  18.242   3.896  1.00  0.00     0.043 C 
BRANCH  32  34
HETATM   34  C10 UNL     1      15.344  20.728   3.649  1.00  0.00     0.037 C 
BRANCH  34  35
HETATM   35  C11 UNL     1      14.110  21.488   3.933  1.00  0.00     0.031 C 
BRANCH  35  36
HETATM   36  C12 UNL     1      14.208  22.480   5.000  1.00  0.00    -0.024 C 
HETATM   37  C13 UNL     1      13.467  22.379   6.125  1.00  0.00    -0.091 C 
HETATM   38  C14 UNL     1      12.528  21.255   6.314  1.00  0.00     0.042 C 
HETATM   39  C15 UNL     1      13.588  23.403   7.194  1.00  0.00     0.042 C 
ENDBRANCH  35  36
ENDBRANCH  34  35
ENDBRANCH  32  34
ENDBRANCH  30  31
ENDBRANCH   3  30
BRANCH   5  40
HETATM   40  O4  UNL     1      18.985  18.241  10.069  1.00  0.00    -0.314 OA
BRANCH  40  41
HETATM   41  C27 UNL     1      18.837  17.735  11.369  1.00  0.00     0.259 C 
HETATM   42  O5  UNL     1      17.744  17.215  11.585  1.00  0.00    -0.265 OA
BRANCH  41  43
HETATM   43  C28 UNL     1      19.868  17.806  12.417  1.00  0.00     0.121 C 
BRANCH  43  44
HETATM   44  C29 UNL     1      19.756  19.084  13.180  1.00  0.00     0.123 C 
BRANCH  44  45
HETATM   45  C30 UNL     1      21.003  19.787  13.471  1.00  0.00     0.172 C 
HETATM   46  O6  UNL     1      21.115  20.649  14.339  1.00  0.00    -0.648 OA
HETATM   47  O7  UNL     1      22.189  19.505  12.746  1.00  0.00    -0.648 OA
ENDBRANCH  44  45
ENDBRANCH  43  44
ENDBRANCH  41  43
ENDBRANCH  40  41
ENDBRANCH   5  40
BRANCH   1  48
HETATM   48  C2  UNL     1      15.126  20.581  10.290  1.00  0.00    -0.032 C 
HETATM   49  C1  UNL     1      14.678  21.489  11.137  1.00  0.00     0.007 C 
ENDBRANCH   1  48
TORSDOF 15
ENDMDL
MODEL 5
REMARK VINA RESULT: -6.864893559      4.018     10.362
REMARK  15 active torsions:
REMARK  status: ('A' for Active; 'I' for Inactive)
REMARK    1  A    between atoms: C2_2  and  C3_3 
REMARK    2  A    between atoms: C5_5  and  C6_6 
REMARK    3  A    between atoms: C6_6  and  C7_7 
REMARK    4  A    between atoms: C8_8  and  C10_10 
REMARK    5  A    between atoms: C10_10  and  C11_11 
REMARK    6  A    between atoms: C11_11  and  C12_12 
REMARK    7  A    between atoms: C16_16  and  N1_17 
REMARK    8  A    between atoms: N1_17  and  C17_19 
REMARK    9  A    between atoms: C17_19  and  C18_20 
REMARK   10  A    between atoms: C20_25  and  C21_26 
REMARK       I    between atoms: C21_26  and  N3_28 
REMARK   11  A    between atoms: C26_36  and  O4_37 
REMARK   12  A    between atoms: O4_37  and  C27_38 
REMARK   13  A    between atoms: C27_38  and  C28_40 
REMARK   14  A    between atoms: C28_40  and  C29_41 
REMARK   15  A    between atoms: C29_41  and  C30_42 
ROOT
HETATM    1  C3  UNL     1      11.662  24.784   3.789  1.00  0.00     0.013 C 
HETATM    2  C4  UNL     1      12.616  25.120   4.864  1.00  0.00     0.021 C 
HETATM    3  C5  UNL     1      11.990  24.617   6.181  1.00  0.00    -0.007 C 
HETATM    4  C16 UNL     1      12.694  23.328   6.460  1.00  0.00     0.115 C 
HETATM    5  C26 UNL     1      12.615  22.445   5.215  1.00  0.00     0.155 C 
HETATM    6  C31 UNL     1      11.260  22.408   4.566  1.00  0.00     0.041 C 
HETATM    7  C32 UNL     1      10.702  23.796   4.419  1.00  0.00     0.004 C 
HETATM    8  C33 UNL     1      10.564  24.435   5.808  1.00  0.00    -0.033 C 
HETATM    9  C34 UNL     1       9.803  25.694   5.600  1.00  0.00     0.016 C 
HETATM   10  C35 UNL     1       9.764  23.556   6.722  1.00  0.00     0.016 C 
ENDROOT
BRANCH   4  11
HETATM   11  N1  UNL     1      14.024  23.370   6.882  1.00  0.00    -0.411 N 
ATOM     12  H1  UNL     1      14.428  24.299   6.996  1.00  0.00     0.153 HD
BRANCH  11  13
HETATM   13  C17 UNL     1      14.855  22.314   7.164  1.00  0.00     0.149 C 
BRANCH  13  14
HETATM   14  C18 UNL     1      15.669  22.496   8.472  1.00  0.00     0.196 C 
HETATM   15  C19 UNL     1      17.083  22.590   8.088  1.00  0.00     0.243 C 
HETATM   16  O1  UNL     1      17.536  23.742   8.021  1.00  0.00    -0.271 OA
HETATM   17  N2  UNL     1      17.998  21.550   7.786  1.00  0.00    -0.346 N 
HETATM   18  C20 UNL     1      18.119  20.250   8.363  1.00  0.00     0.185 C 
ATOM     19  H2  UNL     1      18.669  21.763   7.047  1.00  0.00     0.163 HD
HETATM   20  C23 UNL     1      16.825  19.472   8.395  1.00  0.00     0.138 C 
HETATM   21  C24 UNL     1      15.951  20.120   9.407  1.00  0.00     0.222 C 
HETATM   22  O3  UNL     1      15.686  19.391  10.427  1.00  0.00    -0.273 OA
HETATM   23  N4  UNL     1      15.393  21.415   9.372  1.00  0.00    -0.341 N 
HETATM   24  C25 UNL     1      14.407  21.676  10.394  1.00  0.00     0.153 C 
BRANCH  18  25
HETATM   25  C21 UNL     1      18.640  20.293   9.742  1.00  0.00     0.240 C 
HETATM   26  O2  UNL     1      19.154  21.342  10.173  1.00  0.00    -0.271 OA
HETATM   27  N3  UNL     1      18.564  19.155  10.579  1.00  0.00    -0.364 N 
HETATM   28  C22 UNL     1      19.071  19.207  11.917  1.00  0.00     0.149 C 
ATOM     29  H3  UNL     1      18.145  18.293  10.229  1.00  0.00     0.161 HD
ENDBRANCH  18  25
ENDBRANCH  13  14
ENDBRANCH  11  13
ENDBRANCH   4  11
BRANCH   3  30
HETATM   30  C6  UNL     1      12.160  25.719   7.187  1.00  0.00     0.040 C 
BRANCH  30  31
HETATM   31  C7  UNL     1      11.685  25.439   8.536  1.00  0.00    -0.023 C 
HETATM   32  C8  UNL     1      10.799  26.195   9.160  1.00  0.00    -0.087 C 
HETATM   33  C9  UNL     1      10.447  25.706  10.559  1.00  0.00     0.043 C 
BRANCH  32  34
HETATM   34  C10 UNL     1      10.213  27.446   8.690  1.00  0.00     0.037 C 
BRANCH  34  35
HETATM   35  C11 UNL     1       8.843  27.815   9.104  1.00  0.00     0.031 C 
BRANCH  35  36
HETATM   36  C12 UNL     1       7.765  27.110   8.419  1.00  0.00    -0.024 C 
HETATM   37  C13 UNL     1       6.636  27.748   8.041  1.00  0.00    -0.091 C 
HETATM   38  C14 UNL     1       6.455  29.189   8.307  1.00  0.00     0.042 C 
HETATM   39  C15 UNL     1       5.554  27.004   7.346  1.00  0.00     0.042 C 
ENDBRANCH  35  36
ENDBRANCH  34  35
ENDBRANCH  32  34
ENDBRANCH  30  31
ENDBRANCH   3  30
BRANCH   5  40
HETATM   40  O4  UNL     1      13.108  21.180   5.525  1.00  0.00    -0.314 OA
BRANCH  40  41
HETATM   41  C27 UNL     1      14.054  20.522   4.724  1.00  0.00     0.259 C 
HETATM   42  O5  UNL     1      14.294  21.089   3.659  1.00  0.00    -0.265 OA
BRANCH  41  43
HETATM   43  C28 UNL     1      14.720  19.259   5.082  1.00  0.00     0.121 C 
BRANCH  43  44
HETATM   44  C29 UNL     1      15.545  18.757   3.944  1.00  0.00     0.123 C 
BRANCH  44  45
HETATM   45  C30 UNL     1      16.965  19.100   3.960  1.00  0.00     0.172 C 
HETATM   46  O6  UNL     1      17.759  18.761   3.086  1.00  0.00    -0.648 OA
HETATM   47  O7  UNL     1      17.521  19.868   5.014  1.00  0.00    -0.648 OA
ENDBRANCH  44  45
ENDBRANCH  43  44
ENDBRANCH  41  43
ENDBRANCH  40  41
ENDBRANCH   5  40
BRANCH   1  48
HETATM   48  C2  UNL     1      12.146  24.383   2.487  1.00  0.00    -0.032 C 
HETATM   49  C1  UNL     1      11.373  24.437   1.418  1.00  0.00     0.007 C 
ENDBRANCH   1  48
TORSDOF 15
ENDMDL
