MODEL 1
REMARK VINA RESULT: -8.814319238      0.000      0.000
REMARK  13 active torsions:
REMARK  status: ('A' for Active; 'I' for Inactive)
REMARK       I    between atoms: N1_2  and  C2_4 
REMARK       I    between atoms: C2_4  and  N2_6 
REMARK    1  A    between atoms: N2_6  and  C3_8 
REMARK    2  A    between atoms: C5_10  and  C6_11 
REMARK    3  A    between atoms: C6_11  and  O2_12 
REMARK    4  A    between atoms: C6_11  and  N3_14 
REMARK    5  A    between atoms: N3_14  and  C7_16 
REMARK    6  A    between atoms: C16_26  and  N4_27 
REMARK    7  A    between atoms: N4_27  and  C17_29 
REMARK    8  A    between atoms: C17_29  and  C18_30 
REMARK    9  A    between atoms: C18_30  and  O4_31 
REMARK   10  A    between atoms: C21_34  and  N5_35 
REMARK   11  A    between atoms: N6_40  and  C26_41 
REMARK   12  A    between atoms: C26_41  and  O5_42 
REMARK   13  A    between atoms: C26_41  and  N7_44 
ROOT
HETATM    1  C6  UNL     1       6.581  -0.229  14.617  1.00  0.00     0.121 C 
ENDROOT
BRANCH   1   2
HETATM    2  C5  UNL     1       7.044  -1.546  14.285  1.00  0.00     0.080 C 
HETATM    3  C4  UNL     1       5.781  -2.351  13.962  1.00  0.00     0.041 C 
HETATM    4  C3  UNL     1       5.876  -3.791  14.342  1.00  0.00     0.105 C 
HETATM    5  C33 UNL     1       7.238  -4.357  14.083  1.00  0.00     0.151 C 
HETATM    6  N6  UNL     1       8.157  -3.646  14.921  1.00  0.00    -0.345 N 
HETATM    7  C25 UNL     1       7.940  -2.206  15.221  1.00  0.00     0.139 C 
BRANCH   4   8
HETATM    8  N2  UNL     1       5.383  -4.117  15.657  1.00  0.00    -0.337 N 
HETATM    9  C2  UNL     1       4.486  -5.189  15.871  1.00  0.00     0.316 C 
HETATM   10  N1  UNL     1       4.002  -5.615  17.112  1.00  0.00    -0.347 N 
HETATM   11  O1  UNL     1       4.080  -5.824  14.840  1.00  0.00    -0.247 OA
HETATM   12  C1  UNL     1       2.989  -6.649  17.160  1.00  0.00     0.151 C 
ATOM     13  H1  UNL     1       4.359  -5.202  17.974  1.00  0.00     0.163 HD
ATOM     14  H2  UNL     1       5.691  -3.560  16.455  1.00  0.00     0.164 HD
ENDBRANCH   4   8
BRANCH   6  15
HETATM   15  C26 UNL     1       9.322  -4.222  15.436  1.00  0.00     0.218 C 
BRANCH  15  16
HETATM   16  O5  UNL     1      10.459  -3.676  15.023  1.00  0.00    -0.332 OA
ATOM     17  H5  UNL     1      10.391  -3.120  14.256  1.00  0.00     0.220 HD
ENDBRANCH  15  16
BRANCH  15  18
HETATM   18  N7  UNL     1       9.545  -5.289  16.318  1.00  0.00    -0.339 N 
HETATM   19  C27 UNL     1       9.137  -6.662  16.305  1.00  0.00     0.084 C 
HETATM   20  C28 UNL     1       7.664  -6.865  16.710  1.00  0.00     0.032 C 
HETATM   21  C29 UNL     1       9.898  -7.366  17.448  1.00  0.00     0.027 C 
HETATM   22  C30 UNL     1       9.987  -6.212  18.437  1.00  0.00     0.027 C 
HETATM   23  C31 UNL     1      10.400  -5.107  17.514  1.00  0.00     0.084 C 
HETATM   24  C32 UNL     1      11.830  -5.409  17.044  1.00  0.00     0.032 C 
ENDBRANCH  15  18
ENDBRANCH   6  15
ENDBRANCH   1   2
BRANCH   1  25
HETATM   25  O2  UNL     1       5.798  -0.294  15.730  1.00  0.00    -0.349 OA
ATOM     26  H2  UNL     1       4.918  -0.553  15.480  1.00  0.00     0.219 HD
ENDBRANCH   1  25
BRANCH   1  27
HETATM   27  N3  UNL     1       6.711   1.089  14.120  1.00  0.00    -0.343 N 
ATOM     28  H3  UNL     1       6.662   1.873  14.770  1.00  0.00     0.167 HD
BRANCH  27  29
HETATM   29  C7  UNL     1       6.904   1.338  12.774  1.00  0.00     0.028 C 
HETATM   30  C8  UNL     1       7.763   0.300  12.103  1.00  0.00     0.096 C 
HETATM   31  C9  UNL     1       8.643   0.957  11.043  1.00  0.00     0.066 C 
HETATM   32  C10 UNL     1      10.080   0.733  11.468  1.00  0.00     0.046 C 
HETATM   33  C11 UNL     1       8.367   0.349   9.686  1.00  0.00     0.046 C 
HETATM   34  O3  UNL     1       8.351   2.341  10.955  1.00  0.00    -0.339 OA
HETATM   35  C12 UNL     1       7.040   2.782  10.927  1.00  0.00     0.089 A 
HETATM   36  C13 UNL     1       6.614   3.789  10.086  1.00  0.00    -0.025 A 
HETATM   37  C24 UNL     1       6.168   2.104  11.833  1.00  0.00     0.034 A 
HETATM   38  C14 UNL     1       7.518   4.499   9.148  1.00  0.00     0.051 C 
HETATM   39  C15 UNL     1       5.297   4.131  10.147  1.00  0.00     0.039 A 
HETATM   40  C16 UNL     1       4.430   3.479  11.019  1.00  0.00     0.041 A 
HETATM   41  C20 UNL     1       4.871   2.437  11.875  1.00  0.00     0.021 A 
HETATM   42  C21 UNL     1       3.907   1.828  12.726  1.00  0.00     0.103 C 
BRANCH  40  43
HETATM   43  N4  UNL     1       3.080   3.931  11.059  1.00  0.00    -0.387 N 
ATOM     44  H4  UNL     1       2.719   4.402  11.889  1.00  0.00     0.159 HD
BRANCH  43  45
HETATM   45  C17 UNL     1       2.212   3.714   9.893  1.00  0.00     0.146 C 
BRANCH  45  46
HETATM   46  C18 UNL     1       0.822   3.347  10.325  1.00  0.00     0.186 C 
BRANCH  46  47
HETATM   47  O4  UNL     1       0.690   3.365  11.706  1.00  0.00    -0.394 OA
HETATM   48  C19 UNL     1       0.178   2.142  12.176  1.00  0.00     0.201 C 
ENDBRANCH  46  47
ENDBRANCH  45  46
ENDBRANCH  43  45
ENDBRANCH  40  43
BRANCH  42  49
HETATM   49  N5  UNL     1       3.529   0.479  12.579  1.00  0.00    -0.380 N 
HETATM   50  C22 UNL     1       3.220  -0.336  11.566  1.00  0.00     0.120 C 
HETATM   51  C23 UNL     1       2.832   0.029  13.832  1.00  0.00     0.153 C 
ENDBRANCH  42  49
ENDBRANCH  27  29
ENDBRANCH   1  27
TORSDOF 13
ENDMDL
MODEL 2
REMARK VINA RESULT: -8.741061508      0.202      1.106
REMARK  13 active torsions:
REMARK  status: ('A' for Active; 'I' for Inactive)
REMARK       I    between atoms: N1_2  and  C2_4 
REMARK       I    between atoms: C2_4  and  N2_6 
REMARK    1  A    between atoms: N2_6  and  C3_8 
REMARK    2  A    between atoms: C5_10  and  C6_11 
REMARK    3  A    between atoms: C6_11  and  O2_12 
REMARK    4  A    between atoms: C6_11  and  N3_14 
REMARK    5  A    between atoms: N3_14  and  C7_16 
REMARK    6  A    between atoms: C16_26  and  N4_27 
REMARK    7  A    between atoms: N4_27  and  C17_29 
REMARK    8  A    between atoms: C17_29  and  C18_30 
REMARK    9  A    between atoms: C18_30  and  O4_31 
REMARK   10  A    between atoms: C21_34  and  N5_35 
REMARK   11  A    between atoms: N6_40  and  C26_41 
REMARK   12  A    between atoms: C26_41  and  O5_42 
REMARK   13  A    between atoms: C26_41  and  N7_44 
ROOT
HETATM    1  C6  UNL     1       6.558  -0.259  14.670  1.00  0.00     0.121 C 
ENDROOT
BRANCH   1   2
HETATM    2  C5  UNL     1       7.042  -1.564  14.324  1.00  0.00     0.080 C 
HETATM    3  C4  UNL     1       5.795  -2.375  13.954  1.00  0.00     0.041 C 
HETATM    4  C3  UNL     1       5.895  -3.821  14.310  1.00  0.00     0.105 C 
HETATM    5  C33 UNL     1       7.269  -4.370  14.074  1.00  0.00     0.151 C 
HETATM    6  N6  UNL     1       8.161  -3.665  14.948  1.00  0.00    -0.345 N 
HETATM    7  C25 UNL     1       7.921  -2.233  15.270  1.00  0.00     0.139 C 
BRANCH   4   8
HETATM    8  N2  UNL     1       5.374  -4.177  15.606  1.00  0.00    -0.337 N 
HETATM    9  C2  UNL     1       4.418  -5.207  15.766  1.00  0.00     0.316 C 
HETATM   10  N1  UNL     1       3.900  -5.659  16.984  1.00  0.00    -0.347 N 
HETATM   11  O1  UNL     1       3.987  -5.772  14.706  1.00  0.00    -0.247 OA
HETATM   12  C1  UNL     1       2.831  -6.637  16.979  1.00  0.00     0.151 C 
ATOM     13  H1  UNL     1       4.271  -5.305  17.865  1.00  0.00     0.163 HD
ATOM     14  H2  UNL     1       5.704  -3.673  16.429  1.00  0.00     0.164 HD
ENDBRANCH   4   8
BRANCH   6  15
HETATM   15  C26 UNL     1       9.318  -4.240  15.481  1.00  0.00     0.218 C 
BRANCH  15  16
HETATM   16  O5  UNL     1      10.461  -3.791  14.978  1.00  0.00    -0.332 OA
ATOM     17  H5  UNL     1      10.489  -2.859  14.795  1.00  0.00     0.220 HD
ENDBRANCH  15  16
BRANCH  15  18
HETATM   18  N7  UNL     1       9.528  -5.222  16.459  1.00  0.00    -0.339 N 
HETATM   19  C27 UNL     1      10.394  -5.290  17.597  1.00  0.00     0.084 C 
HETATM   20  C28 UNL     1      11.861  -5.592  17.231  1.00  0.00     0.032 C 
HETATM   21  C29 UNL     1       9.985  -6.545  18.397  1.00  0.00     0.027 C 
HETATM   22  C30 UNL     1       9.538  -7.439  17.249  1.00  0.00     0.027 C 
HETATM   23  C31 UNL     1       8.719  -6.464  16.461  1.00  0.00     0.084 C 
HETATM   24  C32 UNL     1       7.469  -6.135  17.290  1.00  0.00     0.032 C 
ENDBRANCH  15  18
ENDBRANCH   6  15
ENDBRANCH   1   2
BRANCH   1  25
HETATM   25  O2  UNL     1       5.800  -0.343  15.799  1.00  0.00    -0.349 OA
ATOM     26  H2  UNL     1       4.929  -0.008  15.619  1.00  0.00     0.219 HD
ENDBRANCH   1  25
BRANCH   1  27
HETATM   27  N3  UNL     1       6.649   1.063  14.173  1.00  0.00    -0.343 N 
ATOM     28  H3  UNL     1       6.552   1.846  14.820  1.00  0.00     0.167 HD
BRANCH  27  29
HETATM   29  C7  UNL     1       6.865   1.318  12.831  1.00  0.00     0.028 C 
HETATM   30  C8  UNL     1       7.732   0.280  12.170  1.00  0.00     0.096 C 
HETATM   31  C9  UNL     1       8.632   0.939  11.129  1.00  0.00     0.066 C 
HETATM   32  C10 UNL     1      10.060   0.708  11.576  1.00  0.00     0.046 C 
HETATM   33  C11 UNL     1       8.377   0.339   9.764  1.00  0.00     0.046 C 
HETATM   34  O3  UNL     1       8.346   2.325  11.043  1.00  0.00    -0.339 OA
HETATM   35  C12 UNL     1       7.037   2.771  10.994  1.00  0.00     0.089 A 
HETATM   36  C13 UNL     1       6.629   3.782  10.151  1.00  0.00    -0.025 A 
HETATM   37  C24 UNL     1       6.148   2.091  11.882  1.00  0.00     0.034 A 
HETATM   38  C14 UNL     1       7.550   4.494   9.232  1.00  0.00     0.051 C 
HETATM   39  C15 UNL     1       5.312   4.129  10.192  1.00  0.00     0.039 A 
HETATM   40  C16 UNL     1       4.428   3.476  11.045  1.00  0.00     0.041 A 
HETATM   41  C20 UNL     1       4.851   2.428  11.903  1.00  0.00     0.021 A 
HETATM   42  C21 UNL     1       3.870   1.818  12.735  1.00  0.00     0.103 C 
BRANCH  40  43
HETATM   43  N4  UNL     1       3.079   3.932  11.065  1.00  0.00    -0.387 N 
ATOM     44  H4  UNL     1       2.713   4.419  11.882  1.00  0.00     0.159 HD
BRANCH  43  45
HETATM   45  C17 UNL     1       2.221   3.695   9.896  1.00  0.00     0.146 C 
BRANCH  45  46
HETATM   46  C18 UNL     1       0.838   3.294  10.322  1.00  0.00     0.186 C 
BRANCH  46  47
HETATM   47  O4  UNL     1       0.686   3.357  11.700  1.00  0.00    -0.394 OA
HETATM   48  C19 UNL     1       0.165   2.151  12.201  1.00  0.00     0.201 C 
ENDBRANCH  46  47
ENDBRANCH  45  46
ENDBRANCH  43  45
ENDBRANCH  40  43
BRANCH  42  49
HETATM   49  N5  UNL     1       3.491   0.471  12.576  1.00  0.00    -0.380 N 
HETATM   50  C22 UNL     1       3.137  -0.322  11.560  1.00  0.00     0.120 C 
HETATM   51  C23 UNL     1       2.857  -0.011  13.850  1.00  0.00     0.153 C 
ENDBRANCH  42  49
ENDBRANCH  27  29
ENDBRANCH   1  27
TORSDOF 13
ENDMDL
MODEL 3
REMARK VINA RESULT: -8.660789429      2.120      9.904
REMARK  13 active torsions:
REMARK  status: ('A' for Active; 'I' for Inactive)
REMARK       I    between atoms: N1_2  and  C2_4 
REMARK       I    between atoms: C2_4  and  N2_6 
REMARK    1  A    between atoms: N2_6  and  C3_8 
REMARK    2  A    between atoms: C5_10  and  C6_11 
REMARK    3  A    between atoms: C6_11  and  O2_12 
REMARK    4  A    between atoms: C6_11  and  N3_14 
REMARK    5  A    between atoms: N3_14  and  C7_16 
REMARK    6  A    between atoms: C16_26  and  N4_27 
REMARK    7  A    between atoms: N4_27  and  C17_29 
REMARK    8  A    between atoms: C17_29  and  C18_30 
REMARK    9  A    between atoms: C18_30  and  O4_31 
REMARK   10  A    between atoms: C21_34  and  N5_35 
REMARK   11  A    between atoms: N6_40  and  C26_41 
REMARK   12  A    between atoms: C26_41  and  O5_42 
REMARK   13  A    between atoms: C26_41  and  N7_44 
ROOT
HETATM    1  C6  UNL     1       7.460  -1.064  14.130  1.00  0.00     0.121 C 
ENDROOT
BRANCH   1   2
HETATM    2  C5  UNL     1       7.363   0.135  13.348  1.00  0.00     0.080 C 
HETATM    3  C4  UNL     1       6.064   0.812  13.801  1.00  0.00     0.041 C 
HETATM    4  C3  UNL     1       5.367   1.558  12.713  1.00  0.00     0.105 C 
HETATM    5  C33 UNL     1       6.327   2.263  11.804  1.00  0.00     0.151 C 
HETATM    6  N6  UNL     1       7.126   1.255  11.170  1.00  0.00    -0.345 N 
HETATM    7  C25 UNL     1       7.492   0.015  11.905  1.00  0.00     0.139 C 
BRANCH   4   8
HETATM    8  N2  UNL     1       4.370   0.809  11.989  1.00  0.00    -0.337 N 
HETATM    9  C2  UNL     1       3.111   1.365  11.666  1.00  0.00     0.316 C 
HETATM   10  N1  UNL     1       2.107   0.738  10.920  1.00  0.00    -0.347 N 
HETATM   11  O1  UNL     1       2.866   2.542  12.095  1.00  0.00    -0.247 OA
HETATM   12  C1  UNL     1       0.820   1.387  10.780  1.00  0.00     0.151 C 
ATOM     13  H1  UNL     1       2.281  -0.166  10.480  1.00  0.00     0.163 HD
ATOM     14  H2  UNL     1       4.579  -0.147  11.702  1.00  0.00     0.164 HD
ENDBRANCH   4   8
BRANCH   6  15
HETATM   15  C26 UNL     1       7.657   1.400   9.885  1.00  0.00     0.218 C 
BRANCH  15  16
HETATM   16  O5  UNL     1       8.353   0.363   9.436  1.00  0.00    -0.332 OA
ATOM     17  H5  UNL     1       7.893  -0.468   9.436  1.00  0.00     0.220 HD
ENDBRANCH  15  16
BRANCH  15  18
HETATM   18  N7  UNL     1       7.610   2.443   8.949  1.00  0.00    -0.339 N 
HETATM   19  C27 UNL     1       6.638   2.825   7.969  1.00  0.00     0.084 C 
HETATM   20  C28 UNL     1       6.655   1.934   6.712  1.00  0.00     0.032 C 
HETATM   21  C29 UNL     1       7.079   4.195   7.412  1.00  0.00     0.027 C 
HETATM   22  C30 UNL     1       8.589   4.034   7.519  1.00  0.00     0.027 C 
HETATM   23  C31 UNL     1       8.694   3.452   8.895  1.00  0.00     0.084 C 
HETATM   24  C32 UNL     1       8.285   4.545   9.892  1.00  0.00     0.032 C 
ENDBRANCH  15  18
ENDBRANCH   6  15
ENDBRANCH   1   2
BRANCH   1  25
HETATM   25  O2  UNL     1       8.250  -1.963  13.480  1.00  0.00    -0.349 OA
ATOM     26  H2  UNL     1       8.438  -1.643  12.606  1.00  0.00     0.219 HD
ENDBRANCH   1  25
BRANCH   1  27
HETATM   27  N3  UNL     1       6.971  -1.559  15.361  1.00  0.00    -0.343 N 
ATOM     28  H3  UNL     1       7.322  -1.161  16.232  1.00  0.00     0.167 HD
BRANCH  27  29
HETATM   29  C7  UNL     1       6.029  -2.570  15.411  1.00  0.00     0.028 C 
HETATM   30  C8  UNL     1       5.176  -2.638  14.173  1.00  0.00     0.096 C 
HETATM   31  C9  UNL     1       3.749  -3.031  14.545  1.00  0.00     0.066 C 
HETATM   32  C10 UNL     1       2.857  -1.875  14.142  1.00  0.00     0.046 C 
HETATM   33  C11 UNL     1       3.356  -4.306  13.831  1.00  0.00     0.046 C 
HETATM   34  O3  UNL     1       3.657  -3.279  15.938  1.00  0.00    -0.339 OA
HETATM   35  C12 UNL     1       4.618  -4.040  16.581  1.00  0.00     0.089 A 
HETATM   36  C13 UNL     1       4.302  -4.984  17.534  1.00  0.00    -0.025 A 
HETATM   37  C24 UNL     1       5.959  -3.769  16.168  1.00  0.00     0.034 A 
HETATM   38  C14 UNL     1       2.911  -5.263  17.968  1.00  0.00     0.051 C 
HETATM   39  C15 UNL     1       5.336  -5.671  18.092  1.00  0.00     0.039 A 
HETATM   40  C16 UNL     1       6.649  -5.428  17.701  1.00  0.00     0.041 A 
HETATM   41  C20 UNL     1       6.969  -4.462  16.712  1.00  0.00     0.021 A 
HETATM   42  C21 UNL     1       8.341  -4.289  16.375  1.00  0.00     0.103 C 
BRANCH  40  43
HETATM   43  N4  UNL     1       7.677  -6.152  18.369  1.00  0.00    -0.387 N 
ATOM     44  H4  UNL     1       8.115  -5.770  19.207  1.00  0.00     0.159 HD
BRANCH  43  45
HETATM   45  C17 UNL     1       8.101  -7.455  17.840  1.00  0.00     0.146 C 
BRANCH  45  46
HETATM   46  C18 UNL     1       9.595  -7.516  17.707  1.00  0.00     0.186 C 
BRANCH  46  47
HETATM   47  O4  UNL     1      10.212  -6.444  18.334  1.00  0.00    -0.394 OA
HETATM   48  C19 UNL     1      11.381  -6.068  17.649  1.00  0.00     0.201 C 
ENDBRANCH  46  47
ENDBRANCH  45  46
ENDBRANCH  43  45
ENDBRANCH  40  43
BRANCH  42  49
HETATM   49  N5  UNL     1       8.842  -4.609  15.099  1.00  0.00    -0.380 N 
HETATM   50  C22 UNL     1       8.672  -5.593  14.210  1.00  0.00     0.120 C 
HETATM   51  C23 UNL     1      10.212  -4.012  14.949  1.00  0.00     0.153 C 
ENDBRANCH  42  49
ENDBRANCH  27  29
ENDBRANCH   1  27
TORSDOF 13
ENDMDL
MODEL 4
REMARK VINA RESULT: -8.628229517      2.124      9.949
REMARK  13 active torsions:
REMARK  status: ('A' for Active; 'I' for Inactive)
REMARK       I    between atoms: N1_2  and  C2_4 
REMARK       I    between atoms: C2_4  and  N2_6 
REMARK    1  A    between atoms: N2_6  and  C3_8 
REMARK    2  A    between atoms: C5_10  and  C6_11 
REMARK    3  A    between atoms: C6_11  and  O2_12 
REMARK    4  A    between atoms: C6_11  and  N3_14 
REMARK    5  A    between atoms: N3_14  and  C7_16 
REMARK    6  A    between atoms: C16_26  and  N4_27 
REMARK    7  A    between atoms: N4_27  and  C17_29 
REMARK    8  A    between atoms: C17_29  and  C18_30 
REMARK    9  A    between atoms: C18_30  and  O4_31 
REMARK   10  A    between atoms: C21_34  and  N5_35 
REMARK   11  A    between atoms: N6_40  and  C26_41 
REMARK   12  A    between atoms: C26_41  and  O5_42 
REMARK   13  A    between atoms: C26_41  and  N7_44 
ROOT
HETATM    1  C6  UNL     1       7.444  -1.064  14.094  1.00  0.00     0.121 C 
ENDROOT
BRANCH   1   2
HETATM    2  C5  UNL     1       7.351   0.139  13.318  1.00  0.00     0.080 C 
HETATM    3  C4  UNL     1       6.052   0.815  13.772  1.00  0.00     0.041 C 
HETATM    4  C3  UNL     1       5.358   1.567  12.685  1.00  0.00     0.105 C 
HETATM    5  C33 UNL     1       6.321   2.275  11.782  1.00  0.00     0.151 C 
HETATM    6  N6  UNL     1       7.120   1.269  11.145  1.00  0.00    -0.345 N 
HETATM    7  C25 UNL     1       7.482   0.025  11.875  1.00  0.00     0.139 C 
BRANCH   4   8
HETATM    8  N2  UNL     1       4.362   0.823  11.956  1.00  0.00    -0.337 N 
HETATM    9  C2  UNL     1       3.099   1.377  11.647  1.00  0.00     0.316 C 
HETATM   10  N1  UNL     1       2.095   0.756  10.897  1.00  0.00    -0.347 N 
HETATM   11  O1  UNL     1       2.850   2.548  12.092  1.00  0.00    -0.247 OA
HETATM   12  C1  UNL     1       0.804   1.400  10.770  1.00  0.00     0.151 C 
ATOM     13  H1  UNL     1       2.270  -0.141  10.444  1.00  0.00     0.163 HD
ATOM     14  H2  UNL     1       4.574  -0.128  11.655  1.00  0.00     0.164 HD
ENDBRANCH   4   8
BRANCH   6  15
HETATM   15  C26 UNL     1       7.653   1.419   9.862  1.00  0.00     0.218 C 
BRANCH  15  16
HETATM   16  O5  UNL     1       8.320   0.370   9.395  1.00  0.00    -0.332 OA
ATOM     17  H5  UNL     1       7.785  -0.369   9.130  1.00  0.00     0.220 HD
ENDBRANCH  15  16
BRANCH  15  18
HETATM   18  N7  UNL     1       7.635   2.477   8.942  1.00  0.00    -0.339 N 
HETATM   19  C27 UNL     1       8.581   3.504   8.624  1.00  0.00     0.084 C 
HETATM   20  C28 UNL     1       8.621   4.641   9.664  1.00  0.00     0.032 C 
HETATM   21  C29 UNL     1       8.055   4.223   7.364  1.00  0.00     0.027 C 
HETATM   22  C30 UNL     1       6.558   4.086   7.605  1.00  0.00     0.027 C 
HETATM   23  C31 UNL     1       6.489   2.648   8.018  1.00  0.00     0.084 C 
HETATM   24  C32 UNL     1       6.828   1.797   6.786  1.00  0.00     0.032 C 
ENDBRANCH  15  18
ENDBRANCH   6  15
ENDBRANCH   1   2
BRANCH   1  25
HETATM   25  O2  UNL     1       8.224  -1.967  13.437  1.00  0.00    -0.349 OA
ATOM     26  H2  UNL     1       8.352  -2.731  13.986  1.00  0.00     0.219 HD
ENDBRANCH   1  25
BRANCH   1  27
HETATM   27  N3  UNL     1       6.960  -1.561  15.327  1.00  0.00    -0.343 N 
ATOM     28  H3  UNL     1       7.313  -1.164  16.198  1.00  0.00     0.167 HD
BRANCH  27  29
HETATM   29  C7  UNL     1       6.019  -2.574  15.379  1.00  0.00     0.028 C 
HETATM   30  C8  UNL     1       5.173  -2.652  14.137  1.00  0.00     0.096 C 
HETATM   31  C9  UNL     1       3.745  -3.045  14.503  1.00  0.00     0.066 C 
HETATM   32  C10 UNL     1       2.854  -1.893  14.086  1.00  0.00     0.046 C 
HETATM   33  C11 UNL     1       3.358  -4.325  13.797  1.00  0.00     0.046 C 
HETATM   34  O3  UNL     1       3.645  -3.282  15.897  1.00  0.00    -0.339 OA
HETATM   35  C12 UNL     1       4.604  -4.036  16.552  1.00  0.00     0.089 A 
HETATM   36  C13 UNL     1       4.283  -4.973  17.511  1.00  0.00    -0.025 A 
HETATM   37  C24 UNL     1       5.946  -3.766  16.145  1.00  0.00     0.034 A 
HETATM   38  C14 UNL     1       2.890  -5.251  17.939  1.00  0.00     0.051 C 
HETATM   39  C15 UNL     1       5.315  -5.655  18.080  1.00  0.00     0.039 A 
HETATM   40  C16 UNL     1       6.630  -5.412  17.695  1.00  0.00     0.041 A 
HETATM   41  C20 UNL     1       6.954  -4.453  16.700  1.00  0.00     0.021 A 
HETATM   42  C21 UNL     1       8.328  -4.281  16.371  1.00  0.00     0.103 C 
BRANCH  40  43
HETATM   43  N4  UNL     1       7.655  -6.129  18.375  1.00  0.00    -0.387 N 
ATOM     44  H4  UNL     1       8.092  -5.737  19.209  1.00  0.00     0.159 HD
BRANCH  43  45
HETATM   45  C17 UNL     1       8.077  -7.441  17.864  1.00  0.00     0.146 C 
BRANCH  45  46
HETATM   46  C18 UNL     1       9.568  -7.490  17.689  1.00  0.00     0.186 C 
BRANCH  46  47
HETATM   47  O4  UNL     1      10.197  -6.436  18.335  1.00  0.00    -0.394 OA
HETATM   48  C19 UNL     1      11.373  -6.065  17.658  1.00  0.00     0.201 C 
ENDBRANCH  46  47
ENDBRANCH  45  46
ENDBRANCH  43  45
ENDBRANCH  40  43
BRANCH  42  49
HETATM   49  N5  UNL     1       8.837  -4.610  15.100  1.00  0.00    -0.380 N 
HETATM   50  C22 UNL     1       8.665  -5.595  14.212  1.00  0.00     0.120 C 
HETATM   51  C23 UNL     1      10.215  -4.027  14.960  1.00  0.00     0.153 C 
ENDBRANCH  42  49
ENDBRANCH  27  29
ENDBRANCH   1  27
TORSDOF 13
ENDMDL
MODEL 5
REMARK VINA RESULT: -8.517087870      0.981      1.604
REMARK  13 active torsions:
REMARK  status: ('A' for Active; 'I' for Inactive)
REMARK       I    between atoms: N1_2  and  C2_4 
REMARK       I    between atoms: C2_4  and  N2_6 
REMARK    1  A    between atoms: N2_6  and  C3_8 
REMARK    2  A    between atoms: C5_10  and  C6_11 
REMARK    3  A    between atoms: C6_11  and  O2_12 
REMARK    4  A    between atoms: C6_11  and  N3_14 
REMARK    5  A    between atoms: N3_14  and  C7_16 
REMARK    6  A    between atoms: C16_26  and  N4_27 
REMARK    7  A    between atoms: N4_27  and  C17_29 
REMARK    8  A    between atoms: C17_29  and  C18_30 
REMARK    9  A    between atoms: C18_30  and  O4_31 
REMARK   10  A    between atoms: C21_34  and  N5_35 
REMARK   11  A    between atoms: N6_40  and  C26_41 
REMARK   12  A    between atoms: C26_41  and  O5_42 
REMARK   13  A    between atoms: C26_41  and  N7_44 
ROOT
HETATM    1  C6  UNL     1       6.397  -0.070  14.735  1.00  0.00     0.121 C 
ENDROOT
BRANCH   1   2
HETATM    2  C5  UNL     1       6.960  -1.373  14.527  1.00  0.00     0.080 C 
HETATM    3  C4  UNL     1       5.793  -2.250  14.058  1.00  0.00     0.041 C 
HETATM    4  C3  UNL     1       5.892  -3.669  14.507  1.00  0.00     0.105 C 
HETATM    5  C33 UNL     1       7.301  -4.178  14.470  1.00  0.00     0.151 C 
HETATM    6  N6  UNL     1       8.057  -3.394  15.403  1.00  0.00    -0.345 N 
HETATM    7  C25 UNL     1       7.736  -1.957  15.609  1.00  0.00     0.139 C 
BRANCH   4   8
HETATM    8  N2  UNL     1       5.228  -3.974  15.749  1.00  0.00    -0.337 N 
HETATM    9  C2  UNL     1       4.388  -5.103  15.886  1.00  0.00     0.316 C 
HETATM   10  N1  UNL     1       3.749  -5.509  17.063  1.00  0.00    -0.347 N 
HETATM   11  O1  UNL     1       4.192  -5.814  14.844  1.00  0.00    -0.247 OA
HETATM   12  C1  UNL     1       2.818  -6.618  17.016  1.00  0.00     0.151 C 
ATOM     13  H1  UNL     1       3.939  -5.031  17.943  1.00  0.00     0.163 HD
ATOM     14  H2  UNL     1       5.367  -3.358  16.551  1.00  0.00     0.164 HD
ENDBRANCH   4   8
BRANCH   6  15
HETATM   15  C26 UNL     1       9.157  -3.895  16.104  1.00  0.00     0.218 C 
BRANCH  15  16
HETATM   16  O5  UNL     1      10.257  -3.154  16.045  1.00  0.00    -0.332 OA
ATOM     17  H5  UNL     1      10.637  -2.921  16.884  1.00  0.00     0.220 HD
ENDBRANCH  15  16
BRANCH  15  18
HETATM   18  N7  UNL     1       9.348  -5.052  16.873  1.00  0.00    -0.339 N 
HETATM   19  C27 UNL     1      10.348  -5.432  17.825  1.00  0.00     0.084 C 
HETATM   20  C28 UNL     1      11.679  -5.856  17.177  1.00  0.00     0.032 C 
HETATM   21  C29 UNL     1       9.865  -6.741  18.484  1.00  0.00     0.027 C 
HETATM   22  C30 UNL     1       9.121  -7.354  17.306  1.00  0.00     0.027 C 
HETATM   23  C31 UNL     1       8.361  -6.157  16.824  1.00  0.00     0.084 C 
HETATM   24  C32 UNL     1       7.312  -5.815  17.891  1.00  0.00     0.032 C 
ENDBRANCH  15  18
ENDBRANCH   6  15
ENDBRANCH   1   2
BRANCH   1  25
HETATM   25  O2  UNL     1       5.527  -0.116  15.782  1.00  0.00    -0.349 OA
ATOM     26  H2  UNL     1       5.044  -0.934  15.755  1.00  0.00     0.219 HD
ENDBRANCH   1  25
BRANCH   1  27
HETATM   27  N3  UNL     1       6.494   1.221  14.166  1.00  0.00    -0.343 N 
ATOM     28  H3  UNL     1       6.409   2.039  14.769  1.00  0.00     0.167 HD
BRANCH  27  29
HETATM   29  C7  UNL     1       6.703   1.400  12.810  1.00  0.00     0.028 C 
HETATM   30  C8  UNL     1       7.663   0.398  12.228  1.00  0.00     0.096 C 
HETATM   31  C9  UNL     1       8.514   1.059  11.147  1.00  0.00     0.066 C 
HETATM   32  C10 UNL     1       9.952   0.986  11.617  1.00  0.00     0.046 C 
HETATM   33  C11 UNL     1       8.327   0.345   9.827  1.00  0.00     0.046 C 
HETATM   34  O3  UNL     1       8.110   2.405  10.963  1.00  0.00    -0.339 OA
HETATM   35  C12 UNL     1       6.768   2.730  10.876  1.00  0.00     0.089 A 
HETATM   36  C13 UNL     1       6.283   3.642   9.962  1.00  0.00    -0.025 A 
HETATM   37  C24 UNL     1       5.932   2.039  11.806  1.00  0.00     0.034 A 
HETATM   38  C14 UNL     1       7.150   4.365   9.000  1.00  0.00     0.051 C 
HETATM   39  C15 UNL     1       4.941   3.874   9.972  1.00  0.00     0.039 A 
HETATM   40  C16 UNL     1       4.107   3.207  10.865  1.00  0.00     0.041 A 
HETATM   41  C20 UNL     1       4.610   2.263  11.797  1.00  0.00     0.021 A 
HETATM   42  C21 UNL     1       3.677   1.629  12.665  1.00  0.00     0.103 C 
BRANCH  40  43
HETATM   43  N4  UNL     1       2.724   3.544  10.846  1.00  0.00    -0.387 N 
ATOM     44  H4  UNL     1       2.111   3.247  11.605  1.00  0.00     0.159 HD
BRANCH  43  45
HETATM   45  C17 UNL     1       2.188   4.325   9.722  1.00  0.00     0.146 C 
BRANCH  45  46
HETATM   46  C18 UNL     1       1.261   3.491   8.887  1.00  0.00     0.186 C 
BRANCH  46  47
HETATM   47  O4  UNL     1       1.639   3.481   7.552  1.00  0.00    -0.394 OA
HETATM   48  C19 UNL     1       0.878   4.402   6.810  1.00  0.00     0.201 C 
ENDBRANCH  46  47
ENDBRANCH  45  46
ENDBRANCH  43  45
ENDBRANCH  40  43
BRANCH  42  49
HETATM   49  N5  UNL     1       3.418   0.246  12.599  1.00  0.00    -0.380 N 
HETATM   50  C22 UNL     1       3.486  -0.709  11.666  1.00  0.00     0.120 C 
HETATM   51  C23 UNL     1       2.368  -0.102  13.615  1.00  0.00     0.153 C 
ENDBRANCH  42  49
ENDBRANCH  27  29
ENDBRANCH   1  27
TORSDOF 13
ENDMDL
