MODEL 1
REMARK VINA RESULT: -6.162738453      0.000      0.000
REMARK  9 active torsions:
REMARK  status: ('A' for Active; 'I' for Inactive)
REMARK    1  A    between atoms: N1_1  and  C1_4 
REMARK    2  A    between atoms: C2_7  and  C3_8 
REMARK    3  A    between atoms: C3_8  and  C4_9 
REMARK    4  A    between atoms: C6_11  and  O1_12 
REMARK    5  A    between atoms: C8_15  and  O2_16 
REMARK    6  A    between atoms: C10_19  and  S1_20 
REMARK    7  A    between atoms: S1_20  and  C11_23 
REMARK    8  A    between atoms: C11_23  and  N3_24 
REMARK    9  A    between atoms: C11_23  and  N4_28 
ROOT
HETATM    1  C4  UNL     1      34.166  24.961 -17.895  1.00  0.00     0.034 C 
HETATM    2  C5  UNL     1      32.818  25.336 -17.625  1.00  0.00     0.018 A 
HETATM    3  C6  UNL     1      32.057  26.255 -18.294  1.00  0.00     0.079 A 
HETATM    4  C7  UNL     1      30.728  26.541 -17.934  1.00  0.00     0.074 A 
HETATM    5  C8  UNL     1      30.163  25.883 -16.877  1.00  0.00     0.069 A 
HETATM    6  C9  UNL     1      30.911  24.957 -16.195  1.00  0.00     0.061 A 
HETATM    7  C10 UNL     1      32.206  24.665 -16.531  1.00  0.00     0.078 A 
ENDROOT
BRANCH   1   8
HETATM    8  C3  UNL     1      35.070  25.510 -18.913  1.00  0.00     0.151 C 
HETATM    9  N5  UNL     1      34.585  25.163 -20.224  1.00  0.00    -0.340 N 
HETATM   10  C12 UNL     1      34.902  25.552 -21.410  1.00  0.00     0.192 C 
ATOM     11  H5  UNL     1      33.839  24.468 -20.210  1.00  0.00     0.164 HD
HETATM   12  N6  UNL     1      34.182  24.961 -22.477  1.00  0.00    -0.063 NA
HETATM   13  N7  UNL     1      35.880  26.523 -21.743  1.00  0.00    -0.305 N 
HETATM   14  C13 UNL     1      36.358  27.459 -20.989  1.00  0.00     0.195 C 
ATOM     15  H7  UNL     1      36.251  26.479 -22.692  1.00  0.00     0.171 HD
HETATM   16  N8  UNL     1      37.353  28.319 -21.584  1.00  0.00    -0.063 NA
HETATM   17  N9  UNL     1      36.018  27.722 -19.643  1.00  0.00    -0.320 N 
HETATM   18  C14 UNL     1      35.482  26.921 -18.766  1.00  0.00     0.134 C 
ATOM     19  H9  UNL     1      36.219  28.666 -19.313  1.00  0.00     0.169 HD
HETATM   20  N10 UNL     1      35.327  27.518 -17.503  1.00  0.00    -0.084 NA
BRANCH   8  21
HETATM   21  C2  UNL     1      36.401  24.683 -18.762  1.00  0.00     0.057 A 
HETATM   22  N2  UNL     1      37.472  25.249 -18.240  1.00  0.00    -0.337 N 
HETATM   23  C1  UNL     1      38.570  24.501 -18.128  1.00  0.00     0.142 A 
ATOM     24  H2  UNL     1      37.461  26.223 -17.934  1.00  0.00     0.168 HD
HETATM   25  S2  UNL     1      38.109  22.989 -18.756  1.00  0.00    -0.064 SA
HETATM   26  C15 UNL     1      36.483  23.393 -19.147  1.00  0.00     0.081 A 
BRANCH  23  27
HETATM   27  N1  UNL     1      39.738  24.869 -17.639  1.00  0.00    -0.380 N 
ATOM     28  H12 UNL     1      40.244  25.742 -17.785  1.00  0.00     0.158 HD
ATOM     29  H11 UNL     1      40.344  24.330 -17.019  1.00  0.00     0.158 HD
ENDBRANCH  23  27
ENDBRANCH   8  21
ENDBRANCH   1   8
BRANCH   3  30
HETATM   30  O1  UNL     1      32.512  26.986 -19.381  1.00  0.00    -0.360 OA
ATOM     31  H1  UNL     1      32.250  27.881 -19.561  1.00  0.00     0.217 HD
ENDBRANCH   3  30
BRANCH   7  32
HETATM   32  S1  UNL     1      33.025  23.450 -15.585  1.00  0.00     0.231 S 
HETATM   33  O3  UNL     1      33.705  22.400 -16.451  1.00  0.00    -0.219 OA
HETATM   34  O4  UNL     1      34.029  23.987 -14.631  1.00  0.00    -0.219 OA
BRANCH  32  35
HETATM   35  C11 UNL     1      31.822  22.499 -14.628  1.00  0.00     0.502 C 
BRANCH  35  36
HETATM   36  N3  UNL     1      32.484  21.226 -14.317  1.00  0.00    -0.036 N 
ATOM     37  H33 UNL     1      33.207  20.966 -14.987  1.00  0.00     0.278 HD
ATOM     38  H32 UNL     1      33.088  21.269 -13.496  1.00  0.00     0.278 HD
ATOM     39  H31 UNL     1      31.733  20.540 -14.237  1.00  0.00     0.278 HD
ENDBRANCH  35  36
BRANCH  35  40
HETATM   40  N4  UNL     1      31.463  23.139 -13.410  1.00  0.00    -0.036 N 
ATOM     41  H43 UNL     1      31.909  24.053 -13.332  1.00  0.00     0.278 HD
ATOM     42  H42 UNL     1      30.486  23.432 -13.425  1.00  0.00     0.278 HD
ATOM     43  H41 UNL     1      31.661  22.564 -12.591  1.00  0.00     0.278 HD
ENDBRANCH  35  40
ENDBRANCH  32  35
ENDBRANCH   7  32
BRANCH   5  44
HETATM   44  O2  UNL     1      28.857  26.143 -16.499  1.00  0.00    -0.361 OA
ATOM     45  H2  UNL     1      28.636  26.943 -16.037  1.00  0.00     0.217 HD
ENDBRANCH   5  44
TORSDOF 9
ENDMDL
MODEL 2
REMARK VINA RESULT: -5.845895877      1.351      1.456
REMARK  9 active torsions:
REMARK  status: ('A' for Active; 'I' for Inactive)
REMARK    1  A    between atoms: N1_1  and  C1_4 
REMARK    2  A    between atoms: C2_7  and  C3_8 
REMARK    3  A    between atoms: C3_8  and  C4_9 
REMARK    4  A    between atoms: C6_11  and  O1_12 
REMARK    5  A    between atoms: C8_15  and  O2_16 
REMARK    6  A    between atoms: C10_19  and  S1_20 
REMARK    7  A    between atoms: S1_20  and  C11_23 
REMARK    8  A    between atoms: C11_23  and  N3_24 
REMARK    9  A    between atoms: C11_23  and  N4_28 
ROOT
HETATM    1  C4  UNL     1      34.479  24.662 -17.652  1.00  0.00     0.034 C 
HETATM    2  C5  UNL     1      33.160  25.199 -17.639  1.00  0.00     0.018 A 
HETATM    3  C6  UNL     1      32.623  26.117 -18.499  1.00  0.00     0.079 A 
HETATM    4  C7  UNL     1      31.298  26.574 -18.387  1.00  0.00     0.074 A 
HETATM    5  C8  UNL     1      30.504  26.090 -17.385  1.00  0.00     0.069 A 
HETATM    6  C9  UNL     1      31.025  25.167 -16.513  1.00  0.00     0.061 A 
HETATM    7  C10 UNL     1      32.313  24.711 -16.606  1.00  0.00     0.078 A 
ENDROOT
BRANCH   1   8
HETATM    8  C3  UNL     1      35.586  25.007 -18.552  1.00  0.00     0.151 C 
HETATM    9  N5  UNL     1      35.226  24.675 -19.906  1.00  0.00    -0.340 N 
HETATM   10  C12 UNL     1      35.755  24.948 -21.048  1.00  0.00     0.192 C 
ATOM     11  H5  UNL     1      34.380  24.110 -19.975  1.00  0.00     0.164 HD
HETATM   12  N6  UNL     1      35.093  24.426 -22.187  1.00  0.00    -0.063 NA
HETATM   13  N7  UNL     1      36.916  25.732 -21.272  1.00  0.00    -0.305 N 
HETATM   14  C13 UNL     1      37.438  26.616 -20.486  1.00  0.00     0.195 C 
ATOM     15  H7  UNL     1      37.395  25.581 -22.159  1.00  0.00     0.171 HD
HETATM   16  N8  UNL     1      38.631  27.276 -20.964  1.00  0.00    -0.063 NA
HETATM   17  N9  UNL     1      36.974  26.999 -19.208  1.00  0.00    -0.320 N 
HETATM   18  C14 UNL     1      36.203  26.339 -18.390  1.00  0.00     0.134 C 
ATOM     19  H9  UNL     1      37.283  27.914 -18.882  1.00  0.00     0.169 HD
HETATM   20  N10 UNL     1      35.985  27.017 -17.179  1.00  0.00    -0.084 NA
BRANCH   8  21
HETATM   21  C2  UNL     1      36.731  23.986 -18.196  1.00  0.00     0.057 A 
HETATM   22  N2  UNL     1      36.619  22.721 -18.550  1.00  0.00    -0.337 N 
HETATM   23  C1  UNL     1      37.622  21.902 -18.230  1.00  0.00     0.142 A 
ATOM     24  H2  UNL     1      35.796  22.382 -19.049  1.00  0.00     0.168 HD
HETATM   25  S2  UNL     1      38.737  22.903 -17.428  1.00  0.00    -0.064 SA
HETATM   26  C15 UNL     1      37.844  24.370 -17.538  1.00  0.00     0.081 A 
BRANCH  23  27
HETATM   27  N1  UNL     1      37.709  20.611 -18.488  1.00  0.00    -0.380 N 
ATOM     28  H12 UNL     1      37.859  20.150 -19.385  1.00  0.00     0.158 HD
ATOM     29  H11 UNL     1      37.641  19.843 -17.821  1.00  0.00     0.158 HD
ENDBRANCH  23  27
ENDBRANCH   8  21
ENDBRANCH   1   8
BRANCH   3  30
HETATM   30  O1  UNL     1      33.322  26.682 -19.556  1.00  0.00    -0.360 OA
ATOM     31  H1  UNL     1      33.102  26.540 -20.469  1.00  0.00     0.217 HD
ENDBRANCH   3  30
BRANCH   7  32
HETATM   32  S1  UNL     1      32.828  23.522 -15.439  1.00  0.00     0.231 S 
HETATM   33  O3  UNL     1      33.506  22.326 -16.089  1.00  0.00    -0.219 OA
HETATM   34  O4  UNL     1      33.728  24.050 -14.381  1.00  0.00    -0.219 OA
BRANCH  32  35
HETATM   35  C11 UNL     1      31.389  22.801 -14.616  1.00  0.00     0.502 C 
BRANCH  35  36
HETATM   36  N3  UNL     1      31.793  21.442 -14.234  1.00  0.00    -0.036 N 
ATOM     37  H33 UNL     1      32.657  21.132 -14.679  1.00  0.00     0.278 HD
ATOM     38  H32 UNL     1      32.119  21.368 -13.271  1.00  0.00     0.278 HD
ATOM     39  H31 UNL     1      30.989  20.849 -14.441  1.00  0.00     0.278 HD
ENDBRANCH  35  36
BRANCH  35  40
HETATM   40  N4  UNL     1      31.014  23.514 -13.445  1.00  0.00    -0.036 N 
ATOM     41  H43 UNL     1      31.829  23.722 -12.866  1.00  0.00     0.278 HD
ATOM     42  H42 UNL     1      30.726  24.466 -13.672  1.00  0.00     0.278 HD
ATOM     43  H41 UNL     1      30.295  23.032 -12.905  1.00  0.00     0.278 HD
ENDBRANCH  35  40
ENDBRANCH  32  35
ENDBRANCH   7  32
BRANCH   5  44
HETATM   44  O2  UNL     1      29.196  26.521 -17.249  1.00  0.00    -0.361 OA
ATOM     45  H2  UNL     1      28.554  25.989 -16.794  1.00  0.00     0.217 HD
ENDBRANCH   5  44
TORSDOF 9
ENDMDL
MODEL 3
REMARK VINA RESULT: -5.830996324      1.182      1.401
REMARK  9 active torsions:
REMARK  status: ('A' for Active; 'I' for Inactive)
REMARK    1  A    between atoms: N1_1  and  C1_4 
REMARK    2  A    between atoms: C2_7  and  C3_8 
REMARK    3  A    between atoms: C3_8  and  C4_9 
REMARK    4  A    between atoms: C6_11  and  O1_12 
REMARK    5  A    between atoms: C8_15  and  O2_16 
REMARK    6  A    between atoms: C10_19  and  S1_20 
REMARK    7  A    between atoms: S1_20  and  C11_23 
REMARK    8  A    between atoms: C11_23  and  N3_24 
REMARK    9  A    between atoms: C11_23  and  N4_28 
ROOT
HETATM    1  C4  UNL     1      34.478  24.865 -18.014  1.00  0.00     0.034 C 
HETATM    2  C5  UNL     1      33.147  25.313 -17.778  1.00  0.00     0.018 A 
HETATM    3  C6  UNL     1      32.493  26.350 -18.385  1.00  0.00     0.079 A 
HETATM    4  C7  UNL     1      31.169  26.698 -18.068  1.00  0.00     0.074 A 
HETATM    5  C8  UNL     1      30.496  25.982 -17.117  1.00  0.00     0.069 A 
HETATM    6  C9  UNL     1      31.134  24.937 -16.498  1.00  0.00     0.061 A 
HETATM    7  C10 UNL     1      32.424  24.583 -16.794  1.00  0.00     0.078 A 
ENDROOT
BRANCH   1   8
HETATM    8  C3  UNL     1      35.478  25.443 -18.919  1.00  0.00     0.151 C 
HETATM    9  N5  UNL     1      34.957  25.464 -20.261  1.00  0.00    -0.340 N 
HETATM   10  C12 UNL     1      35.354  26.026 -21.350  1.00  0.00     0.192 C 
ATOM     11  H5  UNL     1      34.100  24.923 -20.373  1.00  0.00     0.164 HD
HETATM   12  N6  UNL     1      34.554  25.803 -22.498  1.00  0.00    -0.063 NA
HETATM   13  N7  UNL     1      36.493  26.857 -21.501  1.00  0.00    -0.305 N 
HETATM   14  C13 UNL     1      37.118  27.519 -20.582  1.00  0.00     0.195 C 
ATOM     15  H7  UNL     1      36.863  26.944 -22.447  1.00  0.00     0.171 HD
HETATM   16  N8  UNL     1      38.257  28.295 -21.012  1.00  0.00    -0.063 NA
HETATM   17  N9  UNL     1      36.812  27.556 -19.204  1.00  0.00    -0.320 N 
HETATM   18  C14 UNL     1      36.132  26.699 -18.496  1.00  0.00     0.134 C 
ATOM     19  H9  UNL     1      37.173  28.362 -18.693  1.00  0.00     0.169 HD
HETATM   20  N10 UNL     1      36.068  27.042 -17.135  1.00  0.00    -0.084 NA
BRANCH   8  21
HETATM   21  C2  UNL     1      36.640  24.382 -18.971  1.00  0.00     0.057 A 
HETATM   22  N2  UNL     1      37.789  24.634 -18.375  1.00  0.00    -0.337 N 
HETATM   23  C1  UNL     1      38.736  23.697 -18.444  1.00  0.00     0.142 A 
ATOM     24  H2  UNL     1      37.948  25.512 -17.880  1.00  0.00     0.168 HD
HETATM   25  S2  UNL     1      38.021  22.449 -19.349  1.00  0.00    -0.064 SA
HETATM   26  C15 UNL     1      36.495  23.203 -19.609  1.00  0.00     0.081 A 
BRANCH  23  27
HETATM   27  N1  UNL     1      39.946  23.748 -17.922  1.00  0.00    -0.380 N 
ATOM     28  H12 UNL     1      40.476  24.565 -17.621  1.00  0.00     0.158 HD
ATOM     29  H11 UNL     1      40.567  22.962 -17.727  1.00  0.00     0.158 HD
ENDBRANCH  23  27
ENDBRANCH   8  21
ENDBRANCH   1   8
BRANCH   3  30
HETATM   30  O1  UNL     1      33.064  27.150 -19.363  1.00  0.00    -0.360 OA
ATOM     31  H1  UNL     1      32.595  27.465 -20.127  1.00  0.00     0.217 HD
ENDBRANCH   3  30
BRANCH   7  32
HETATM   32  S1  UNL     1      33.096  23.219 -15.940  1.00  0.00     0.231 S 
HETATM   33  O3  UNL     1      32.089  22.564 -15.006  1.00  0.00    -0.219 OA
HETATM   34  O4  UNL     1      33.671  22.167 -16.817  1.00  0.00    -0.219 OA
BRANCH  32  35
HETATM   35  C11 UNL     1      34.409  23.774 -14.828  1.00  0.00     0.502 C 
BRANCH  35  36
HETATM   36  N3  UNL     1      33.794  23.850 -13.497  1.00  0.00    -0.036 N 
ATOM     37  H33 UNL     1      33.203  24.670 -13.366  1.00  0.00     0.278 HD
ATOM     38  H32 UNL     1      33.068  23.151 -13.342  1.00  0.00     0.278 HD
ATOM     39  H31 UNL     1      34.567  23.791 -12.835  1.00  0.00     0.278 HD
ENDBRANCH  35  36
BRANCH  35  40
HETATM   40  N4  UNL     1      35.503  22.867 -14.777  1.00  0.00    -0.036 N 
ATOM     41  H43 UNL     1      35.204  21.919 -15.008  1.00  0.00     0.278 HD
ATOM     42  H42 UNL     1      36.150  23.029 -15.550  1.00  0.00     0.278 HD
ATOM     43  H41 UNL     1      35.990  22.889 -13.881  1.00  0.00     0.278 HD
ENDBRANCH  35  40
ENDBRANCH  32  35
ENDBRANCH   7  32
BRANCH   5  44
HETATM   44  O2  UNL     1      29.191  26.302 -16.784  1.00  0.00    -0.361 OA
ATOM     45  H2  UNL     1      29.004  26.858 -16.037  1.00  0.00     0.217 HD
ENDBRANCH   5  44
TORSDOF 9
ENDMDL
MODEL 4
REMARK VINA RESULT: -5.742793325      1.423      1.538
REMARK  9 active torsions:
REMARK  status: ('A' for Active; 'I' for Inactive)
REMARK    1  A    between atoms: N1_1  and  C1_4 
REMARK    2  A    between atoms: C2_7  and  C3_8 
REMARK    3  A    between atoms: C3_8  and  C4_9 
REMARK    4  A    between atoms: C6_11  and  O1_12 
REMARK    5  A    between atoms: C8_15  and  O2_16 
REMARK    6  A    between atoms: C10_19  and  S1_20 
REMARK    7  A    between atoms: S1_20  and  C11_23 
REMARK    8  A    between atoms: C11_23  and  N3_24 
REMARK    9  A    between atoms: C11_23  and  N4_28 
ROOT
HETATM    1  C4  UNL     1      33.571  24.373 -17.784  1.00  0.00     0.034 C 
HETATM    2  C5  UNL     1      32.301  24.853 -17.350  1.00  0.00     0.018 A 
HETATM    3  C6  UNL     1      31.525  25.813 -17.939  1.00  0.00     0.079 A 
HETATM    4  C7  UNL     1      30.281  26.204 -17.415  1.00  0.00     0.074 A 
HETATM    5  C8  UNL     1      29.816  25.612 -16.274  1.00  0.00     0.069 A 
HETATM    6  C9  UNL     1      30.581  24.646 -15.669  1.00  0.00     0.061 A 
HETATM    7  C10 UNL     1      31.795  24.251 -16.164  1.00  0.00     0.078 A 
ENDROOT
BRANCH   1   8
HETATM    8  C3  UNL     1      34.367  24.832 -18.928  1.00  0.00     0.151 C 
HETATM    9  N5  UNL     1      33.676  24.517 -20.152  1.00  0.00    -0.340 N 
HETATM   10  C12 UNL     1      33.857  24.867 -21.378  1.00  0.00     0.192 C 
ATOM     11  H5  UNL     1      32.883  23.890 -20.021  1.00  0.00     0.164 HD
HETATM   12  N6  UNL     1      32.947  24.331 -22.323  1.00  0.00    -0.063 NA
HETATM   13  N7  UNL     1      34.858  25.746 -21.863  1.00  0.00    -0.305 N 
HETATM   14  C13 UNL     1      35.514  26.643 -21.201  1.00  0.00     0.195 C 
ATOM     15  H7  UNL     1      35.088  25.662 -22.853  1.00  0.00     0.171 HD
HETATM   16  N8  UNL     1      36.485  27.409 -21.946  1.00  0.00    -0.063 NA
HETATM   17  N9  UNL     1      35.388  26.947 -19.827  1.00  0.00    -0.320 N 
HETATM   18  C14 UNL     1      34.914  26.203 -18.868  1.00  0.00     0.134 C 
ATOM     19  H9  UNL     1      35.713  27.873 -19.548  1.00  0.00     0.169 HD
HETATM   20  N10 UNL     1      34.988  26.822 -17.609  1.00  0.00    -0.084 NA
BRANCH   8  21
HETATM   21  C2  UNL     1      35.631  23.894 -18.945  1.00  0.00     0.057 A 
HETATM   22  N2  UNL     1      36.789  24.342 -18.500  1.00  0.00    -0.337 N 
HETATM   23  C1  UNL     1      37.826  23.503 -18.531  1.00  0.00     0.142 A 
ATOM     24  H2  UNL     1      36.889  25.294 -18.147  1.00  0.00     0.168 HD
HETATM   25  S2  UNL     1      37.183  22.071 -19.185  1.00  0.00    -0.064 SA
HETATM   26  C15 UNL     1      35.567  22.626 -19.399  1.00  0.00     0.081 A 
BRANCH  23  27
HETATM   27  N1  UNL     1      39.060  23.747 -18.137  1.00  0.00    -0.380 N 
ATOM     28  H12 UNL     1      39.420  24.558 -17.634  1.00  0.00     0.158 HD
ATOM     29  H11 UNL     1      39.879  23.154 -18.273  1.00  0.00     0.158 HD
ENDBRANCH  23  27
ENDBRANCH   8  21
ENDBRANCH   1   8
BRANCH   3  30
HETATM   30  O1  UNL     1      31.882  26.486 -19.097  1.00  0.00    -0.360 OA
ATOM     31  H1  UNL     1      31.256  26.797 -19.740  1.00  0.00     0.217 HD
ENDBRANCH   3  30
BRANCH   7  32
HETATM   32  S1  UNL     1      32.644  22.997 -15.300  1.00  0.00     0.231 S 
HETATM   33  O3  UNL     1      31.755  22.279 -14.296  1.00  0.00    -0.219 OA
HETATM   34  O4  UNL     1      33.284  21.977 -16.169  1.00  0.00    -0.219 OA
BRANCH  32  35
HETATM   35  C11 UNL     1      33.942  23.726 -14.274  1.00  0.00     0.502 C 
BRANCH  35  36
HETATM   36  N3  UNL     1      34.089  22.825 -13.124  1.00  0.00    -0.036 N 
ATOM     37  H33 UNL     1      33.651  23.175 -12.272  1.00  0.00     0.278 HD
ATOM     38  H32 UNL     1      33.538  21.970 -13.201  1.00  0.00     0.278 HD
ATOM     39  H31 UNL     1      35.091  22.660 -13.032  1.00  0.00     0.278 HD
ENDBRANCH  35  36
BRANCH  35  40
HETATM   40  N4  UNL     1      35.190  23.812 -14.950  1.00  0.00    -0.036 N 
ATOM     41  H43 UNL     1      35.265  23.097 -15.674  1.00  0.00     0.278 HD
ATOM     42  H42 UNL     1      35.231  24.646 -15.537  1.00  0.00     0.278 HD
ATOM     43  H41 UNL     1      35.985  23.773 -14.313  1.00  0.00     0.278 HD
ENDBRANCH  35  40
ENDBRANCH  32  35
ENDBRANCH   7  32
BRANCH   5  44
HETATM   44  O2  UNL     1      28.594  25.976 -15.735  1.00  0.00    -0.361 OA
ATOM     45  H2  UNL     1      28.541  26.642 -15.060  1.00  0.00     0.217 HD
ENDBRANCH   5  44
TORSDOF 9
ENDMDL
MODEL 5
REMARK VINA RESULT: -5.729203277      1.328      2.752
REMARK  9 active torsions:
REMARK  status: ('A' for Active; 'I' for Inactive)
REMARK    1  A    between atoms: N1_1  and  C1_4 
REMARK    2  A    between atoms: C2_7  and  C3_8 
REMARK    3  A    between atoms: C3_8  and  C4_9 
REMARK    4  A    between atoms: C6_11  and  O1_12 
REMARK    5  A    between atoms: C8_15  and  O2_16 
REMARK    6  A    between atoms: C10_19  and  S1_20 
REMARK    7  A    between atoms: S1_20  and  C11_23 
REMARK    8  A    between atoms: C11_23  and  N3_24 
REMARK    9  A    between atoms: C11_23  and  N4_28 
ROOT
HETATM    1  C4  UNL     1      34.305  25.035 -17.686  1.00  0.00     0.034 C 
HETATM    2  C5  UNL     1      32.939  25.423 -17.572  1.00  0.00     0.018 A 
HETATM    3  C6  UNL     1      32.259  26.327 -18.341  1.00  0.00     0.079 A 
HETATM    4  C7  UNL     1      30.902  26.627 -18.133  1.00  0.00     0.074 A 
HETATM    5  C8  UNL     1      30.222  25.999 -17.126  1.00  0.00     0.069 A 
HETATM    6  C9  UNL     1      30.887  25.088 -16.345  1.00  0.00     0.061 A 
HETATM    7  C10 UNL     1      32.209  24.783 -16.533  1.00  0.00     0.078 A 
ENDROOT
BRANCH   1   8
HETATM    8  C3  UNL     1      35.316  25.554 -18.615  1.00  0.00     0.151 C 
HETATM    9  N5  UNL     1      35.095  26.961 -18.831  1.00  0.00    -0.340 N 
HETATM   10  C12 UNL     1      35.795  27.885 -19.390  1.00  0.00     0.192 C 
ATOM     11  H5  UNL     1      34.202  27.292 -18.466  1.00  0.00     0.164 HD
HETATM   12  N6  UNL     1      35.222  29.181 -19.410  1.00  0.00    -0.063 NA
HETATM   13  N7  UNL     1      37.084  27.734 -19.963  1.00  0.00    -0.305 N 
HETATM   14  C13 UNL     1      37.955  26.810 -19.721  1.00  0.00     0.195 C 
ATOM     15  H7  UNL     1      37.356  28.440 -20.647  1.00  0.00     0.171 HD
HETATM   16  N8  UNL     1      39.200  26.894 -20.448  1.00  0.00    -0.063 NA
HETATM   17  N9  UNL     1      37.816  25.722 -18.830  1.00  0.00    -0.320 N 
HETATM   18  C14 UNL     1      36.724  25.187 -18.362  1.00  0.00     0.134 C 
ATOM     19  H9  UNL     1      38.687  25.299 -18.510  1.00  0.00     0.169 HD
HETATM   20  N10 UNL     1      36.971  24.083 -17.528  1.00  0.00    -0.084 NA
BRANCH   8  21
HETATM   21  C2  UNL     1      34.971  24.892 -20.002  1.00  0.00     0.057 A 
HETATM   22  N2  UNL     1      34.642  25.650 -21.029  1.00  0.00    -0.337 N 
HETATM   23  C1  UNL     1      34.367  25.038 -22.182  1.00  0.00     0.142 A 
ATOM     24  H2  UNL     1      34.599  26.666 -20.946  1.00  0.00     0.168 HD
HETATM   25  S2  UNL     1      34.569  23.386 -21.834  1.00  0.00    -0.064 SA
HETATM   26  C15 UNL     1      35.008  23.556 -20.179  1.00  0.00     0.081 A 
BRANCH  23  27
HETATM   27  N1  UNL     1      34.020  25.604 -23.321  1.00  0.00    -0.380 N 
ATOM     28  H12 UNL     1      34.349  25.394 -24.263  1.00  0.00     0.158 HD
ATOM     29  H11 UNL     1      33.351  26.362 -23.454  1.00  0.00     0.158 HD
ENDBRANCH  23  27
ENDBRANCH   8  21
ENDBRANCH   1   8
BRANCH   3  30
HETATM   30  O1  UNL     1      32.833  27.028 -19.392  1.00  0.00    -0.360 OA
ATOM     31  H1  UNL     1      32.670  27.948 -19.563  1.00  0.00     0.217 HD
ENDBRANCH   3  30
BRANCH   7  32
HETATM   32  S1  UNL     1      32.914  23.589 -15.474  1.00  0.00     0.231 S 
HETATM   33  O3  UNL     1      33.667  22.510 -16.236  1.00  0.00    -0.219 OA
HETATM   34  O4  UNL     1      33.820  24.147 -14.437  1.00  0.00    -0.219 OA
BRANCH  32  35
HETATM   35  C11 UNL     1      31.609  22.676 -14.619  1.00  0.00     0.502 C 
BRANCH  35  36
HETATM   36  N3  UNL     1      32.228  21.418 -14.185  1.00  0.00    -0.036 N 
ATOM     37  H33 UNL     1      32.628  20.874 -14.949  1.00  0.00     0.278 HD
ATOM     38  H32 UNL     1      33.094  21.547 -13.661  1.00  0.00     0.278 HD
ATOM     39  H31 UNL     1      31.504  20.922 -13.664  1.00  0.00     0.278 HD
ENDBRANCH  35  36
BRANCH  35  40
HETATM   40  N4  UNL     1      31.119  23.364 -13.475  1.00  0.00    -0.036 N 
ATOM     41  H43 UNL     1      31.710  24.164 -13.247  1.00  0.00     0.278 HD
ATOM     42  H42 UNL     1      30.251  23.856 -13.688  1.00  0.00     0.278 HD
ATOM     43  H41 UNL     1      31.004  22.752 -12.668  1.00  0.00     0.278 HD
ENDBRANCH  35  40
ENDBRANCH  32  35
ENDBRANCH   7  32
BRANCH   5  44
HETATM   44  O2  UNL     1      28.885  26.275 -16.898  1.00  0.00    -0.361 OA
ATOM     45  H2  UNL     1      28.478  26.049 -16.070  1.00  0.00     0.217 HD
ENDBRANCH   5  44
TORSDOF 9
ENDMDL
