MODEL 1
REMARK VINA RESULT: -7.908752118      0.000      0.000
REMARK  5 active torsions:
REMARK  status: ('A' for Active; 'I' for Inactive)
REMARK       I    between atoms: C2_4  and  N2_5 
REMARK       I    between atoms: C2_4  and  N4_9 
REMARK    1  A    between atoms: N4_9  and  C4_11 
REMARK    2  A    between atoms: C4_11  and  C5_12 
REMARK    3  A    between atoms: C5_12  and  N5_13 
REMARK    4  A    between atoms: N5_13  and  C6_16 
REMARK    5  A    between atoms: C6_16  and  C8_18 
ROOT
HETATM    1  C1  UNL     1      35.704  21.759  13.505  1.00  0.00     0.165 C 
HETATM    2  N1  UNL     1      34.563  21.053  14.049  1.00  0.00    -0.230 N 
ATOM      3  H1  UNL     1      34.255  21.285  14.994  1.00  0.00     0.177 HD
HETATM    4  C2  UNL     1      33.923  20.156  13.407  1.00  0.00     0.682 C 
HETATM    5  N2  UNL     1      34.303  19.798  12.103  1.00  0.00    -0.126 N 
ATOM      6  H2  UNL     1      35.085  19.157  11.970  1.00  0.00     0.197 HD
HETATM    7  C3  UNL     1      33.624  20.308  10.969  1.00  0.00     0.196 C 
HETATM    8  N3  UNL     1      33.069  20.722  10.055  1.00  0.00    -0.171 NA
HETATM    9  N4  UNL     1      32.823  19.522  14.021  1.00  0.00    -0.224 N 
ATOM     10  H4  UNL     1      32.091  20.070  14.473  1.00  0.00     0.177 HD
ENDROOT
BRANCH   9  11
HETATM   11  C4  UNL     1      32.758  18.099  13.996  1.00  0.00     0.165 C 
BRANCH  11  12
HETATM   12  C5  UNL     1      31.376  17.538  13.872  1.00  0.00     0.253 C 
BRANCH  12  13
HETATM   13  N5  UNL     1      31.233  16.512  12.890  1.00  0.00    -0.066 N 
ATOM     14  H52 UNL     1      31.165  16.872  11.938  1.00  0.00     0.278 HD
ATOM     15  H51 UNL     1      32.080  15.960  12.758  1.00  0.00     0.278 HD
BRANCH  13  16
HETATM   16  C6  UNL     1      30.070  15.706  13.288  1.00  0.00     0.214 C 
HETATM   17  C7  UNL     1      30.530  14.785  14.404  1.00  0.00     0.045 C 
BRANCH  16  18
HETATM   18  C8  UNL     1      29.493  14.978  12.155  1.00  0.00    -0.028 A 
HETATM   19  C9  UNL     1      29.857  13.690  11.844  1.00  0.00     0.009 A 
HETATM   20  C10 UNL     1      29.287  13.025  10.758  1.00  0.00     0.001 A 
HETATM   21  C11 UNL     1      28.342  13.635   9.962  1.00  0.00     0.000 A 
HETATM   22  C12 UNL     1      27.976  14.926  10.273  1.00  0.00     0.001 A 
HETATM   23  C13 UNL     1      28.547  15.572  11.348  1.00  0.00     0.009 A 
ENDBRANCH  16  18
ENDBRANCH  13  16
ENDBRANCH  12  13
ENDBRANCH  11  12
ENDBRANCH   9  11
TORSDOF 5
ENDMDL
MODEL 2
REMARK VINA RESULT: -7.896771232      0.038      1.110
REMARK  5 active torsions:
REMARK  status: ('A' for Active; 'I' for Inactive)
REMARK       I    between atoms: C2_4  and  N2_5 
REMARK       I    between atoms: C2_4  and  N4_9 
REMARK    1  A    between atoms: N4_9  and  C4_11 
REMARK    2  A    between atoms: C4_11  and  C5_12 
REMARK    3  A    between atoms: C5_12  and  N5_13 
REMARK    4  A    between atoms: N5_13  and  C6_16 
REMARK    5  A    between atoms: C6_16  and  C8_18 
ROOT
HETATM    1  C1  UNL     1      35.701  21.766  13.520  1.00  0.00     0.165 C 
HETATM    2  N1  UNL     1      34.556  21.057  14.054  1.00  0.00    -0.230 N 
ATOM      3  H1  UNL     1      34.243  21.285  14.998  1.00  0.00     0.177 HD
HETATM    4  C2  UNL     1      33.919  20.163  13.403  1.00  0.00     0.682 C 
HETATM    5  N2  UNL     1      34.307  19.812  12.100  1.00  0.00    -0.126 N 
ATOM      6  H2  UNL     1      35.089  19.172  11.968  1.00  0.00     0.197 HD
HETATM    7  C3  UNL     1      33.634  20.328  10.965  1.00  0.00     0.196 C 
HETATM    8  N3  UNL     1      33.085  20.747  10.050  1.00  0.00    -0.171 NA
HETATM    9  N4  UNL     1      32.815  19.527  14.008  1.00  0.00    -0.224 N 
ATOM     10  H4  UNL     1      32.081  20.073  14.459  1.00  0.00     0.177 HD
ENDROOT
BRANCH   9  11
HETATM   11  C4  UNL     1      32.751  18.104  13.976  1.00  0.00     0.165 C 
BRANCH  11  12
HETATM   12  C5  UNL     1      31.368  17.544  13.859  1.00  0.00     0.253 C 
BRANCH  12  13
HETATM   13  N5  UNL     1      31.215  16.529  12.867  1.00  0.00    -0.066 N 
ATOM     14  H52 UNL     1      31.150  16.899  11.919  1.00  0.00     0.278 HD
ATOM     15  H51 UNL     1      32.058  15.971  12.729  1.00  0.00     0.278 HD
BRANCH  13  16
HETATM   16  C6  UNL     1      30.046  15.728  13.258  1.00  0.00     0.214 C 
HETATM   17  C7  UNL     1      30.501  14.788  14.360  1.00  0.00     0.045 C 
BRANCH  16  18
HETATM   18  C8  UNL     1      29.458  15.022  12.118  1.00  0.00    -0.028 A 
HETATM   19  C9  UNL     1      28.515  15.597  11.301  1.00  0.00     0.009 A 
HETATM   20  C10 UNL     1      27.976  14.896  10.222  1.00  0.00     0.001 A 
HETATM   21  C11 UNL     1      28.369  13.606   9.939  1.00  0.00     0.000 A 
HETATM   22  C12 UNL     1      29.315  13.028  10.757  1.00  0.00     0.001 A 
HETATM   23  C13 UNL     1      29.840  13.731  11.820  1.00  0.00     0.009 A 
ENDBRANCH  16  18
ENDBRANCH  13  16
ENDBRANCH  12  13
ENDBRANCH  11  12
ENDBRANCH   9  11
TORSDOF 5
ENDMDL
MODEL 3
REMARK VINA RESULT: -7.716337490      0.859      1.982
REMARK  5 active torsions:
REMARK  status: ('A' for Active; 'I' for Inactive)
REMARK       I    between atoms: C2_4  and  N2_5 
REMARK       I    between atoms: C2_4  and  N4_9 
REMARK    1  A    between atoms: N4_9  and  C4_11 
REMARK    2  A    between atoms: C4_11  and  C5_12 
REMARK    3  A    between atoms: C5_12  and  N5_13 
REMARK    4  A    between atoms: N5_13  and  C6_16 
REMARK    5  A    between atoms: C6_16  and  C8_18 
ROOT
HETATM    1  C1  UNL     1      34.063  20.339  10.455  1.00  0.00     0.165 C 
HETATM    2  N1  UNL     1      33.854  19.192  11.314  1.00  0.00    -0.230 N 
ATOM      3  H1  UNL     1      33.765  18.272  10.881  1.00  0.00     0.177 HD
HETATM    4  C2  UNL     1      33.777  19.274  12.585  1.00  0.00     0.682 C 
HETATM    5  N2  UNL     1      33.894  20.514  13.233  1.00  0.00    -0.126 N 
ATOM      6  H2  UNL     1      33.086  21.135  13.269  1.00  0.00     0.197 HD
HETATM    7  C3  UNL     1      35.108  20.921  13.836  1.00  0.00     0.196 C 
HETATM    8  N3  UNL     1      36.095  21.244  14.325  1.00  0.00    -0.171 NA
HETATM    9  N4  UNL     1      33.571  18.099  13.338  1.00  0.00    -0.224 N 
ATOM     10  H4  UNL     1      34.144  17.271  13.180  1.00  0.00     0.177 HD
ENDROOT
BRANCH   9  11
HETATM   11  C4  UNL     1      32.544  18.098  14.325  1.00  0.00     0.165 C 
BRANCH  11  12
HETATM   12  C5  UNL     1      31.189  17.713  13.817  1.00  0.00     0.253 C 
BRANCH  12  13
HETATM   13  N5  UNL     1      31.179  16.598  12.926  1.00  0.00    -0.066 N 
ATOM     14  H52 UNL     1      31.155  16.868  11.943  1.00  0.00     0.278 HD
ATOM     15  H51 UNL     1      32.067  16.096  12.899  1.00  0.00     0.278 HD
BRANCH  13  16
HETATM   16  C6  UNL     1      30.045  15.751  13.323  1.00  0.00     0.214 C 
HETATM   17  C7  UNL     1      30.548  14.815  14.407  1.00  0.00     0.045 C 
BRANCH  16  18
HETATM   18  C8  UNL     1      29.468  15.037  12.181  1.00  0.00    -0.028 A 
HETATM   19  C9  UNL     1      29.854  13.766  11.834  1.00  0.00     0.009 A 
HETATM   20  C10 UNL     1      29.284  13.114  10.741  1.00  0.00     0.001 A 
HETATM   21  C11 UNL     1      28.314  13.721   9.972  1.00  0.00     0.000 A 
HETATM   22  C12 UNL     1      27.926  14.997  10.319  1.00  0.00     0.001 A 
HETATM   23  C13 UNL     1      28.497  15.630  11.401  1.00  0.00     0.009 A 
ENDBRANCH  16  18
ENDBRANCH  13  16
ENDBRANCH  12  13
ENDBRANCH  11  12
ENDBRANCH   9  11
TORSDOF 5
ENDMDL
MODEL 4
REMARK VINA RESULT: -7.705876792      1.334      1.669
REMARK  5 active torsions:
REMARK  status: ('A' for Active; 'I' for Inactive)
REMARK       I    between atoms: C2_4  and  N2_5 
REMARK       I    between atoms: C2_4  and  N4_9 
REMARK    1  A    between atoms: N4_9  and  C4_11 
REMARK    2  A    between atoms: C4_11  and  C5_12 
REMARK    3  A    between atoms: C5_12  and  N5_13 
REMARK    4  A    between atoms: N5_13  and  C6_16 
REMARK    5  A    between atoms: C6_16  and  C8_18 
ROOT
HETATM    1  C1  UNL     1      36.178  17.311  11.260  1.00  0.00     0.165 C 
HETATM    2  N1  UNL     1      35.454  17.789  12.420  1.00  0.00    -0.230 N 
ATOM      3  H1  UNL     1      35.848  17.610  13.345  1.00  0.00     0.177 HD
HETATM    4  C2  UNL     1      34.350  18.424  12.345  1.00  0.00     0.682 C 
HETATM    5  N2  UNL     1      33.764  18.698  11.099  1.00  0.00    -0.126 N 
ATOM      6  H2  UNL     1      33.232  17.968  10.627  1.00  0.00     0.197 HD
HETATM    7  C3  UNL     1      33.896  19.967  10.484  1.00  0.00     0.196 C 
HETATM    8  N3  UNL     1      34.004  20.998   9.992  1.00  0.00    -0.171 NA
HETATM    9  N4  UNL     1      33.719  18.850  13.532  1.00  0.00    -0.224 N 
ATOM     10  H4  UNL     1      34.241  19.351  14.250  1.00  0.00     0.177 HD
ENDROOT
BRANCH   9  11
HETATM   11  C4  UNL     1      32.334  18.562  13.705  1.00  0.00     0.165 C 
BRANCH  11  12
HETATM   12  C5  UNL     1      32.013  17.110  13.875  1.00  0.00     0.253 C 
BRANCH  12  13
HETATM   13  N5  UNL     1      31.440  16.485  12.727  1.00  0.00    -0.066 N 
ATOM     14  H52 UNL     1      31.303  17.127  11.946  1.00  0.00     0.278 HD
ATOM     15  H51 UNL     1      32.079  15.844  12.257  1.00  0.00     0.278 HD
BRANCH  13  16
HETATM   16  C6  UNL     1      30.196  15.842  13.174  1.00  0.00     0.214 C 
HETATM   17  C7  UNL     1      30.546  14.986  14.377  1.00  0.00     0.045 C 
BRANCH  16  18
HETATM   18  C8  UNL     1      29.559  15.076  12.100  1.00  0.00    -0.028 A 
HETATM   19  C9  UNL     1      29.863  13.760  11.853  1.00  0.00     0.009 A 
HETATM   20  C10 UNL     1      29.236  13.059  10.822  1.00  0.00     0.001 A 
HETATM   21  C11 UNL     1      28.293  13.661  10.018  1.00  0.00     0.000 A 
HETATM   22  C12 UNL     1      27.987  14.981  10.265  1.00  0.00     0.001 A 
HETATM   23  C13 UNL     1      28.613  15.663  11.286  1.00  0.00     0.009 A 
ENDBRANCH  16  18
ENDBRANCH  13  16
ENDBRANCH  12  13
ENDBRANCH  11  12
ENDBRANCH   9  11
TORSDOF 5
ENDMDL
MODEL 5
REMARK VINA RESULT: -7.691121905      0.853      2.271
REMARK  5 active torsions:
REMARK  status: ('A' for Active; 'I' for Inactive)
REMARK       I    between atoms: C2_4  and  N2_5 
REMARK       I    between atoms: C2_4  and  N4_9 
REMARK    1  A    between atoms: N4_9  and  C4_11 
REMARK    2  A    between atoms: C4_11  and  C5_12 
REMARK    3  A    between atoms: C5_12  and  N5_13 
REMARK    4  A    between atoms: N5_13  and  C6_16 
REMARK    5  A    between atoms: C6_16  and  C8_18 
ROOT
HETATM    1  C1  UNL     1      34.032  20.379  10.460  1.00  0.00     0.165 C 
HETATM    2  N1  UNL     1      33.842  19.215  11.302  1.00  0.00    -0.230 N 
ATOM      3  H1  UNL     1      33.765  18.301  10.855  1.00  0.00     0.177 HD
HETATM    4  C2  UNL     1      33.768  19.275  12.574  1.00  0.00     0.682 C 
HETATM    5  N2  UNL     1      33.869  20.507  13.241  1.00  0.00    -0.126 N 
ATOM      6  H2  UNL     1      33.053  21.116  13.290  1.00  0.00     0.197 HD
HETATM    7  C3  UNL     1      35.080  20.921  13.847  1.00  0.00     0.196 C 
HETATM    8  N3  UNL     1      36.063  21.251  14.338  1.00  0.00    -0.171 NA
HETATM    9  N4  UNL     1      33.582  18.086  13.309  1.00  0.00    -0.224 N 
ATOM     10  H4  UNL     1      34.166  17.269  13.136  1.00  0.00     0.177 HD
ENDROOT
BRANCH   9  11
HETATM   11  C4  UNL     1      32.558  18.054  14.300  1.00  0.00     0.165 C 
BRANCH  11  12
HETATM   12  C5  UNL     1      31.200  17.693  13.783  1.00  0.00     0.253 C 
BRANCH  12  13
HETATM   13  N5  UNL     1      31.176  16.579  12.891  1.00  0.00    -0.066 N 
ATOM     14  H52 UNL     1      31.156  16.851  11.908  1.00  0.00     0.278 HD
ATOM     15  H51 UNL     1      32.057  16.066  12.864  1.00  0.00     0.278 HD
BRANCH  13  16
HETATM   16  C6  UNL     1      30.031  15.747  13.285  1.00  0.00     0.214 C 
HETATM   17  C7  UNL     1      30.527  14.785  14.350  1.00  0.00     0.045 C 
BRANCH  16  18
HETATM   18  C8  UNL     1      29.431  15.061  12.138  1.00  0.00    -0.028 A 
HETATM   19  C9  UNL     1      28.472  15.646  11.347  1.00  0.00     0.009 A 
HETATM   20  C10 UNL     1      27.922  14.965  10.262  1.00  0.00     0.001 A 
HETATM   21  C11 UNL     1      28.319  13.684   9.945  1.00  0.00     0.000 A 
HETATM   22  C12 UNL     1      29.281  13.095  10.737  1.00  0.00     0.001 A 
HETATM   23  C13 UNL     1      29.817  13.779  11.807  1.00  0.00     0.009 A 
ENDBRANCH  16  18
ENDBRANCH  13  16
ENDBRANCH  12  13
ENDBRANCH  11  12
ENDBRANCH   9  11
TORSDOF 5
ENDMDL
