MODEL 1
REMARK VINA RESULT: -6.810088427      0.000      0.000
REMARK  5 active torsions:
REMARK  status: ('A' for Active; 'I' for Inactive)
REMARK    1  A    between atoms: C7_9  and  N3_10 
REMARK    2  A    between atoms: N3_10  and  N4_12 
REMARK    3  A    between atoms: N4_12  and  O1_14 
REMARK    4  A    between atoms: C8_18  and  N6_19 
REMARK    5  A    between atoms: N7_22  and  N8_23 
ROOT
HETATM    1  C1  UNL     1       2.834   8.518  17.958  1.00  0.00     0.045 C 
HETATM    2  C2  UNL     1       2.498   8.792  16.684  1.00  0.00     0.049 A 
HETATM    3  C3  UNL     1       3.529   8.701  15.659  1.00  0.00     0.096 A 
HETATM    4  C4  UNL     1       4.875   8.331  16.038  1.00  0.00     0.103 C 
HETATM    5  N1  UNL     1       5.962   8.036  16.355  1.00  0.00    -0.191 NA
HETATM    6  C5  UNL     1       3.314   8.946  14.395  1.00  0.00     0.087 A 
HETATM    7  N2  UNL     1       4.397   8.831  13.449  1.00  0.00    -0.100 NA
HETATM    8  C6  UNL     1       1.986   9.334  13.949  1.00  0.00     0.082 A 
HETATM    9  C7  UNL     1       1.772   9.590  12.615  1.00  0.00     0.153 A 
HETATM   10  N5  UNL     1       0.522   9.948  12.248  1.00  0.00    -0.173 N 
ATOM     11  H5  UNL     1       0.328  10.144  11.266  1.00  0.00     0.186 HD
HETATM   12  C8  UNL     1      -0.459  10.051  13.135  1.00  0.00     0.700 A 
HETATM   13  N7  UNL     1      -0.233   9.792  14.462  1.00  0.00    -0.075 N 
HETATM   14  C9  UNL     1       0.958   9.433  14.915  1.00  0.00     0.163 A 
HETATM   15  N9  UNL     1       1.180   9.166  16.311  1.00  0.00    -0.334 N 
HETATM   16  C10 UNL     1       0.126   9.266  17.292  1.00  0.00     0.158 C 
ENDROOT
BRANCH   9  17
HETATM   17  N3  UNL     1       2.761   9.483  11.620  1.00  0.00    -0.265 N 
ATOM     18  H3  UNL     1       3.537  10.144  11.567  1.00  0.00     0.190 HD
BRANCH  17  19
HETATM   19  N4  UNL     1       2.631   8.414  10.695  1.00  0.00    -0.208 N 
ATOM     20  H4  UNL     1       3.199   8.419   9.847  1.00  0.00     0.215 HD
BRANCH  19  21
HETATM   21  O1  UNL     1       1.839   7.467  10.892  1.00  0.00    -0.274 OA
ATOM     22  H1  UNL     1       0.924   7.521  10.642  1.00  0.00     0.246 HD
ENDBRANCH  19  21
ENDBRANCH  17  19
ENDBRANCH   9  17
BRANCH  13  23
HETATM   23  N8  UNL     1      -1.312   9.914  15.335  1.00  0.00    -0.322 N 
ATOM     24  H82 UNL     1      -2.256  10.044  14.973  1.00  0.00     0.178 HD
ATOM     25  H81 UNL     1      -1.115   9.873  16.335  1.00  0.00     0.178 HD
ENDBRANCH  13  23
BRANCH  12  26
HETATM   26  N6  UNL     1      -1.649  10.389  12.804  1.00  0.00    -0.233 N 
ATOM     27  H62 UNL     1      -1.810  11.376  12.599  1.00  0.00     0.174 HD
ATOM     28  H61 UNL     1      -2.412   9.714  12.747  1.00  0.00     0.174 HD
ENDBRANCH  12  26
TORSDOF 5
ENDMDL
MODEL 2
REMARK VINA RESULT: -6.602528372      5.060      8.906
REMARK  5 active torsions:
REMARK  status: ('A' for Active; 'I' for Inactive)
REMARK    1  A    between atoms: C7_9  and  N3_10 
REMARK    2  A    between atoms: N3_10  and  N4_12 
REMARK    3  A    between atoms: N4_12  and  O1_14 
REMARK    4  A    between atoms: C8_18  and  N6_19 
REMARK    5  A    between atoms: N7_22  and  N8_23 
ROOT
HETATM    1  C1  UNL     1       7.234   8.814  16.730  1.00  0.00     0.045 C 
HETATM    2  C2  UNL     1       6.751   8.294  17.874  1.00  0.00     0.049 A 
HETATM    3  C3  UNL     1       5.313   8.324  18.096  1.00  0.00     0.096 A 
HETATM    4  C4  UNL     1       4.452   8.915  17.094  1.00  0.00     0.103 C 
HETATM    5  N1  UNL     1       3.764   9.399  16.281  1.00  0.00    -0.191 NA
HETATM    6  C5  UNL     1       4.738   7.851  19.168  1.00  0.00     0.087 A 
HETATM    7  N2  UNL     1       3.303   7.924  19.304  1.00  0.00    -0.100 NA
HETATM    8  C6  UNL     1       5.545   7.254  20.219  1.00  0.00     0.082 A 
HETATM    9  C7  UNL     1       4.929   6.759  21.344  1.00  0.00     0.153 A 
HETATM   10  N5  UNL     1       5.722   6.215  22.293  1.00  0.00    -0.173 N 
ATOM     11  H5  UNL     1       5.297   5.837  23.140  1.00  0.00     0.186 HD
HETATM   12  C8  UNL     1       7.039   6.161  22.150  1.00  0.00     0.700 A 
HETATM   13  N7  UNL     1       7.642   6.656  21.022  1.00  0.00    -0.075 N 
HETATM   14  C9  UNL     1       6.948   7.206  20.039  1.00  0.00     0.163 A 
HETATM   15  N9  UNL     1       7.594   7.724  18.863  1.00  0.00    -0.334 N 
HETATM   16  C10 UNL     1       9.026   7.669  18.684  1.00  0.00     0.158 C 
ENDROOT
BRANCH   9  17
HETATM   17  N3  UNL     1       3.538   6.769  21.552  1.00  0.00    -0.265 N 
ATOM     18  H3  UNL     1       3.039   7.629  21.780  1.00  0.00     0.190 HD
BRANCH  17  19
HETATM   19  N4  UNL     1       2.860   5.527  21.431  1.00  0.00    -0.208 N 
ATOM     20  H4  UNL     1       1.946   5.414  21.871  1.00  0.00     0.215 HD
BRANCH  19  21
HETATM   21  O1  UNL     1       3.353   4.568  20.799  1.00  0.00    -0.274 OA
ATOM     22  H1  UNL     1       3.206   3.667  21.064  1.00  0.00     0.246 HD
ENDBRANCH  19  21
ENDBRANCH  17  19
ENDBRANCH   9  17
BRANCH  13  23
HETATM   23  N8  UNL     1       9.029   6.559  20.938  1.00  0.00    -0.322 N 
ATOM     24  H82 UNL     1       9.622   7.046  21.610  1.00  0.00     0.178 HD
ATOM     25  H81 UNL     1       9.416   5.991  20.185  1.00  0.00     0.178 HD
ENDBRANCH  13  23
BRANCH  12  26
HETATM   26  N6  UNL     1       7.805   5.648  23.040  1.00  0.00    -0.233 N 
ATOM     27  H62 UNL     1       8.799   5.590  22.817  1.00  0.00     0.174 HD
ATOM     28  H61 UNL     1       7.450   5.308  23.933  1.00  0.00     0.174 HD
ENDBRANCH  12  26
TORSDOF 5
ENDMDL
MODEL 3
REMARK VINA RESULT: -6.529410150      4.980      6.785
REMARK  5 active torsions:
REMARK  status: ('A' for Active; 'I' for Inactive)
REMARK    1  A    between atoms: C7_9  and  N3_10 
REMARK    2  A    between atoms: N3_10  and  N4_12 
REMARK    3  A    between atoms: N4_12  and  O1_14 
REMARK    4  A    between atoms: C8_18  and  N6_19 
REMARK    5  A    between atoms: N7_22  and  N8_23 
ROOT
HETATM    1  C1  UNL     1      -2.590   9.426  16.918  1.00  0.00     0.045 C 
HETATM    2  C2  UNL     1      -2.066  10.666  16.947  1.00  0.00     0.049 A 
HETATM    3  C3  UNL     1      -1.459  11.191  15.733  1.00  0.00     0.096 A 
HETATM    4  C4  UNL     1      -1.429  10.370  14.542  1.00  0.00     0.103 C 
HETATM    5  N1  UNL     1      -1.404   9.697  13.586  1.00  0.00    -0.191 NA
HETATM    6  C5  UNL     1      -0.920  12.377  15.650  1.00  0.00     0.087 A 
HETATM    7  N2  UNL     1      -0.340  12.816  14.403  1.00  0.00    -0.100 NA
HETATM    8  C6  UNL     1      -0.907  13.249  16.812  1.00  0.00     0.082 A 
HETATM    9  C7  UNL     1      -0.336  14.496  16.713  1.00  0.00     0.153 A 
HETATM   10  N5  UNL     1      -0.347  15.269  17.821  1.00  0.00    -0.173 N 
ATOM     11  H5  UNL     1       0.067  16.201  17.782  1.00  0.00     0.186 HD
HETATM   12  C8  UNL     1      -0.882  14.846  18.958  1.00  0.00     0.700 A 
HETATM   13  N7  UNL     1      -1.450  13.601  19.044  1.00  0.00    -0.075 N 
HETATM   14  C9  UNL     1      -1.488  12.774  18.012  1.00  0.00     0.163 A 
HETATM   15  N9  UNL     1      -2.084  11.469  18.118  1.00  0.00    -0.334 N 
HETATM   16  C10 UNL     1      -2.678  10.991  19.343  1.00  0.00     0.158 C 
ENDROOT
BRANCH   9  17
HETATM   17  N3  UNL     1       0.233  15.014  15.536  1.00  0.00    -0.265 N 
ATOM     18  H3  UNL     1       0.785  14.429  14.908  1.00  0.00     0.190 HD
BRANCH  17  19
HETATM   19  N4  UNL     1       0.005  16.388  15.260  1.00  0.00    -0.208 N 
ATOM     20  H4  UNL     1      -0.174  17.028  16.035  1.00  0.00     0.215 HD
BRANCH  19  21
HETATM   21  O1  UNL     1       0.017  16.836  14.093  1.00  0.00    -0.274 OA
ATOM     22  H1  UNL     1       0.252  17.737  13.906  1.00  0.00     0.246 HD
ENDBRANCH  19  21
ENDBRANCH  17  19
ENDBRANCH   9  17
BRANCH  13  23
HETATM   23  N8  UNL     1      -1.998  13.227  20.268  1.00  0.00    -0.322 N 
ATOM     24  H82 UNL     1      -1.409  13.152  21.097  1.00  0.00     0.178 HD
ATOM     25  H81 UNL     1      -2.999  13.030  20.296  1.00  0.00     0.178 HD
ENDBRANCH  13  23
BRANCH  12  26
HETATM   26  N6  UNL     1      -0.901  15.567  20.017  1.00  0.00    -0.233 N 
ATOM     27  H62 UNL     1      -0.499  15.158  20.862  1.00  0.00     0.174 HD
ATOM     28  H61 UNL     1      -1.297  16.506  20.031  1.00  0.00     0.174 HD
ENDBRANCH  12  26
TORSDOF 5
ENDMDL
MODEL 4
REMARK VINA RESULT: -6.521598813      2.252      2.273
REMARK  5 active torsions:
REMARK  status: ('A' for Active; 'I' for Inactive)
REMARK    1  A    between atoms: C7_9  and  N3_10 
REMARK    2  A    between atoms: N3_10  and  N4_12 
REMARK    3  A    between atoms: N4_12  and  O1_14 
REMARK    4  A    between atoms: C8_18  and  N6_19 
REMARK    5  A    between atoms: N7_22  and  N8_23 
ROOT
HETATM    1  C1  UNL     1       4.003  12.007  17.241  1.00  0.00     0.045 C 
HETATM    2  C2  UNL     1       3.236  11.684  16.182  1.00  0.00     0.049 A 
HETATM    3  C3  UNL     1       3.844  10.946  15.085  1.00  0.00     0.096 A 
HETATM    4  C4  UNL     1       5.245  10.592  15.158  1.00  0.00     0.103 C 
HETATM    5  N1  UNL     1       6.380  10.315  15.223  1.00  0.00    -0.191 NA
HETATM    6  C5  UNL     1       3.195  10.583  14.012  1.00  0.00     0.087 A 
HETATM    7  N2  UNL     1       3.880   9.854  12.972  1.00  0.00    -0.100 NA
HETATM    8  C6  UNL     1       1.788  10.916  13.870  1.00  0.00     0.082 A 
HETATM    9  C7  UNL     1       1.115  10.529  12.735  1.00  0.00     0.153 A 
HETATM   10  N5  UNL     1      -0.192  10.864  12.648  1.00  0.00    -0.173 N 
ATOM     11  H5  UNL     1      -0.721  10.591  11.819  1.00  0.00     0.186 HD
HETATM   12  C8  UNL     1      -0.801  11.538  13.614  1.00  0.00     0.700 A 
HETATM   13  N7  UNL     1      -0.120  11.916  14.741  1.00  0.00    -0.075 N 
HETATM   14  C9  UNL     1       1.161  11.633  14.916  1.00  0.00     0.163 A 
HETATM   15  N9  UNL     1       1.864  12.039  16.104  1.00  0.00    -0.334 N 
HETATM   16  C10 UNL     1       1.218  12.768  17.169  1.00  0.00     0.158 C 
ENDROOT
BRANCH   9  17
HETATM   17  N3  UNL     1       1.695   9.799  11.682  1.00  0.00    -0.265 N 
ATOM     18  H3  UNL     1       2.259  10.255  10.964  1.00  0.00     0.190 HD
BRANCH  17  19
HETATM   19  N4  UNL     1       1.460   8.399  11.663  1.00  0.00    -0.208 N 
ATOM     20  H4  UNL     1       2.142   7.786  11.215  1.00  0.00     0.215 HD
BRANCH  19  21
HETATM   21  O1  UNL     1       0.439   7.897  12.182  1.00  0.00    -0.274 OA
ATOM     22  H1  UNL     1      -0.017   7.166  11.781  1.00  0.00     0.246 HD
ENDBRANCH  19  21
ENDBRANCH  17  19
ENDBRANCH   9  17
BRANCH  13  23
HETATM   23  N8  UNL     1      -0.827  12.616  15.716  1.00  0.00    -0.322 N 
ATOM     24  H82 UNL     1      -0.663  13.613  15.858  1.00  0.00     0.178 HD
ATOM     25  H81 UNL     1      -1.502  12.094  16.274  1.00  0.00     0.178 HD
ENDBRANCH  13  23
BRANCH  12  26
HETATM   26  N6  UNL     1      -2.039  11.862  13.547  1.00  0.00    -0.233 N 
ATOM     27  H62 UNL     1      -2.664  11.209  13.074  1.00  0.00     0.174 HD
ATOM     28  H61 UNL     1      -2.397  12.732  13.942  1.00  0.00     0.174 HD
ENDBRANCH  12  26
TORSDOF 5
ENDMDL
MODEL 5
REMARK VINA RESULT: -6.393946295      2.285      4.719
REMARK  5 active torsions:
REMARK  status: ('A' for Active; 'I' for Inactive)
REMARK    1  A    between atoms: C7_9  and  N3_10 
REMARK    2  A    between atoms: N3_10  and  N4_12 
REMARK    3  A    between atoms: N4_12  and  O1_14 
REMARK    4  A    between atoms: C8_18  and  N6_19 
REMARK    5  A    between atoms: N7_22  and  N8_23 
ROOT
HETATM    1  C1  UNL     1      -2.750  11.532  16.134  1.00  0.00     0.045 C 
HETATM    2  C2  UNL     1      -1.643  10.836  15.814  1.00  0.00     0.049 A 
HETATM    3  C3  UNL     1      -0.940  10.125  16.872  1.00  0.00     0.096 A 
HETATM    4  C4  UNL     1      -1.442  10.194  18.227  1.00  0.00     0.103 C 
HETATM    5  N1  UNL     1      -1.852  10.259  19.321  1.00  0.00    -0.191 NA
HETATM    6  C5  UNL     1       0.142   9.422  16.674  1.00  0.00     0.087 A 
HETATM    7  N2  UNL     1       0.773   8.750  17.784  1.00  0.00    -0.100 NA
HETATM    8  C6  UNL     1       0.705   9.321  15.338  1.00  0.00     0.082 A 
HETATM    9  C7  UNL     1       1.845   8.578  15.142  1.00  0.00     0.153 A 
HETATM   10  N5  UNL     1       2.332   8.516  13.883  1.00  0.00    -0.173 N 
ATOM     11  H5  UNL     1       3.176   7.972  13.702  1.00  0.00     0.186 HD
HETATM   12  C8  UNL     1       1.738   9.144  12.877  1.00  0.00     0.700 A 
HETATM   13  N7  UNL     1       0.601   9.880  13.086  1.00  0.00    -0.075 N 
HETATM   14  C9  UNL     1       0.050   9.998  14.283  1.00  0.00     0.163 A 
HETATM   15  N9  UNL     1      -1.142  10.777  14.487  1.00  0.00    -0.334 N 
HETATM   16  C10 UNL     1      -1.808  11.463  13.405  1.00  0.00     0.158 C 
ENDROOT
BRANCH   9  17
HETATM   17  N3  UNL     1       2.515   7.875  16.160  1.00  0.00    -0.265 N 
ATOM     18  H3  UNL     1       2.068   7.107  16.660  1.00  0.00     0.190 HD
BRANCH  17  19
HETATM   19  N4  UNL     1       3.843   8.283  16.458  1.00  0.00    -0.208 N 
ATOM     20  H4  UNL     1       4.003   8.922  17.237  1.00  0.00     0.215 HD
BRANCH  19  21
HETATM   21  O1  UNL     1       4.820   7.879  15.791  1.00  0.00    -0.274 OA
ATOM     22  H1  UNL     1       5.099   6.971  15.813  1.00  0.00     0.246 HD
ENDBRANCH  19  21
ENDBRANCH  17  19
ENDBRANCH   9  17
BRANCH  13  23
HETATM   23  N8  UNL     1       0.029  10.507  11.981  1.00  0.00    -0.322 N 
ATOM     24  H82 UNL     1       0.040  11.524  11.901  1.00  0.00     0.178 HD
ATOM     25  H81 UNL     1      -0.398   9.912  11.271  1.00  0.00     0.178 HD
ENDBRANCH  13  23
BRANCH  12  26
HETATM   26  N6  UNL     1       2.186   9.094  11.678  1.00  0.00    -0.233 N 
ATOM     27  H62 UNL     1       2.766   9.875  11.368  1.00  0.00     0.174 HD
ATOM     28  H61 UNL     1       1.980   8.317  11.051  1.00  0.00     0.174 HD
ENDBRANCH  12  26
TORSDOF 5
ENDMDL
