MODEL 1
REMARK VINA RESULT: -6.737279113      0.000      0.000
REMARK  4 active torsions:
REMARK  status: ('A' for Active; 'I' for Inactive)
REMARK    1  A    between atoms: N2_3  and  C2_4 
REMARK    2  A    between atoms: N2_3  and  N9_19 
REMARK    3  A    between atoms: C3_7  and  N4_8 
REMARK    4  A    between atoms: N5_11  and  N6_12 
ROOT
HETATM    1  N1  UNL     1       4.923   9.311  14.484  1.00  0.00    -0.170 NA
HETATM    2  C1  UNL     1       4.127   9.672  13.695  1.00  0.00     0.207 C 
HETATM    3  N2  UNL     1       3.201  10.078  12.756  1.00  0.00    -0.166 N 
ENDROOT
BRANCH   3   4
HETATM    4  C2  UNL     1       1.921  10.522  13.158  1.00  0.00     0.181 A 
HETATM    5  N3  UNL     1       1.867  11.794  13.627  1.00  0.00    -0.171 N 
HETATM    6  C3  UNL     1       0.686  12.296  14.071  1.00  0.00     0.700 A 
ATOM      7  H3  UNL     1       2.709  12.370  13.646  1.00  0.00     0.186 HD
HETATM    8  N5  UNL     1      -0.424  11.549  14.055  1.00  0.00    -0.077 N 
HETATM    9  C4  UNL     1      -0.410  10.276  13.595  1.00  0.00     0.183 A 
HETATM   10  N7  UNL     1      -1.583   9.479  13.599  1.00  0.00    -0.078 NA
HETATM   11  C5  UNL     1       0.786   9.756  13.137  1.00  0.00     0.137 A 
HETATM   12  N8  UNL     1       0.826   8.456  12.614  1.00  0.00    -0.095 NA
BRANCH   6  13
HETATM   13  N4  UNL     1       0.611  13.519  14.504  1.00  0.00    -0.233 N 
ATOM     14  H42 UNL     1       1.368  14.166  14.283  1.00  0.00     0.174 HD
ATOM     15  H41 UNL     1      -0.185  13.821  15.067  1.00  0.00     0.174 HD
ENDBRANCH   6  13
BRANCH   8  16
HETATM   16  N6  UNL     1      -1.629  12.080  14.515  1.00  0.00    -0.323 N 
ATOM     17  H62 UNL     1      -1.781  12.147  15.521  1.00  0.00     0.178 HD
ATOM     18  H61 UNL     1      -2.338  12.390  13.849  1.00  0.00     0.178 HD
ENDBRANCH   8  16
ENDBRANCH   3   4
BRANCH   3  19
HETATM   19  N9  UNL     1       3.556  10.023  11.394  1.00  0.00    -0.244 N 
HETATM   20  C6  UNL     1       3.801  11.090  10.467  1.00  0.00     0.154 C 
HETATM   21  C7  UNL     1       3.823  10.415   9.105  1.00  0.00     0.031 C 
HETATM   22  C8  UNL     1       3.286   9.039   9.297  1.00  0.00     0.106 C 
HETATM   23  C9  UNL     1       3.731   8.761  10.709  1.00  0.00     0.239 C 
HETATM   24  O1  UNL     1       4.158   7.689  11.197  1.00  0.00    -0.272 OA
ENDBRANCH   3  19
TORSDOF 4
ENDMDL
MODEL 2
REMARK VINA RESULT: -6.650962087      1.055      1.353
REMARK  4 active torsions:
REMARK  status: ('A' for Active; 'I' for Inactive)
REMARK    1  A    between atoms: N2_3  and  C2_4 
REMARK    2  A    between atoms: N2_3  and  N9_19 
REMARK    3  A    between atoms: C3_7  and  N4_8 
REMARK    4  A    between atoms: N5_11  and  N6_12 
ROOT
HETATM    1  N1  UNL     1       4.988   9.363  14.654  1.00  0.00    -0.170 NA
HETATM    2  C1  UNL     1       4.165   9.614  13.849  1.00  0.00     0.207 C 
HETATM    3  N2  UNL     1       3.208   9.890  12.895  1.00  0.00    -0.166 N 
ENDROOT
BRANCH   3   4
HETATM    4  C2  UNL     1       1.944  10.396  13.274  1.00  0.00     0.181 A 
HETATM    5  N3  UNL     1       1.938  11.686  13.698  1.00  0.00    -0.171 N 
HETATM    6  C3  UNL     1       0.775  12.248  14.118  1.00  0.00     0.700 A 
ATOM      7  H3  UNL     1       2.801  12.229  13.702  1.00  0.00     0.186 HD
HETATM    8  N5  UNL     1      -0.363  11.544  14.121  1.00  0.00    -0.077 N 
HETATM    9  C4  UNL     1      -0.396  10.256  13.705  1.00  0.00     0.183 A 
HETATM   10  N7  UNL     1      -1.599   9.505  13.730  1.00  0.00    -0.078 NA
HETATM   11  C5  UNL     1       0.781   9.675  13.272  1.00  0.00     0.137 A 
HETATM   12  N8  UNL     1       0.773   8.357  12.795  1.00  0.00    -0.095 NA
BRANCH   6  13
HETATM   13  N4  UNL     1       0.745  13.488  14.508  1.00  0.00    -0.233 N 
ATOM     14  H42 UNL     1       1.429  14.140  14.124  1.00  0.00     0.174 HD
ATOM     15  H41 UNL     1       0.058  13.798  15.195  1.00  0.00     0.174 HD
ENDBRANCH   6  13
BRANCH   8  16
HETATM   16  N6  UNL     1      -1.549  12.137  14.555  1.00  0.00    -0.323 N 
ATOM     17  H62 UNL     1      -1.556  13.141  14.734  1.00  0.00     0.178 HD
ATOM     18  H61 UNL     1      -2.385  11.568  14.689  1.00  0.00     0.178 HD
ENDBRANCH   8  16
ENDBRANCH   3   4
BRANCH   3  19
HETATM   19  N9  UNL     1       3.515   9.639  11.543  1.00  0.00    -0.244 N 
HETATM   20  C6  UNL     1       4.157   8.504  10.946  1.00  0.00     0.154 C 
HETATM   21  C7  UNL     1       4.486   8.953   9.530  1.00  0.00     0.031 C 
HETATM   22  C8  UNL     1       4.286  10.428   9.489  1.00  0.00     0.106 C 
HETATM   23  C9  UNL     1       3.184  10.589  10.504  1.00  0.00     0.239 C 
HETATM   24  O1  UNL     1       2.199  11.363  10.473  1.00  0.00    -0.272 OA
ENDBRANCH   3  19
TORSDOF 4
ENDMDL
MODEL 3
REMARK VINA RESULT: -6.589963600      8.634     10.704
REMARK  4 active torsions:
REMARK  status: ('A' for Active; 'I' for Inactive)
REMARK    1  A    between atoms: N2_3  and  C2_4 
REMARK    2  A    between atoms: N2_3  and  N9_19 
REMARK    3  A    between atoms: C3_7  and  N4_8 
REMARK    4  A    between atoms: N5_11  and  N6_12 
ROOT
HETATM    1  N1  UNL     1       3.413   5.627  21.297  1.00  0.00    -0.170 NA
HETATM    2  C1  UNL     1       4.548   5.925  21.191  1.00  0.00     0.207 C 
HETATM    3  N2  UNL     1       5.881   6.254  21.057  1.00  0.00    -0.166 N 
ENDROOT
BRANCH   3   4
HETATM    4  C2  UNL     1       6.262   7.559  20.675  1.00  0.00     0.181 A 
HETATM    5  N3  UNL     1       6.278   8.477  21.675  1.00  0.00    -0.171 N 
HETATM    6  C3  UNL     1       6.596   9.767  21.396  1.00  0.00     0.700 A 
ATOM      7  H3  UNL     1       6.051   8.199  22.629  1.00  0.00     0.186 HD
HETATM    8  N5  UNL     1       6.891  10.144  20.147  1.00  0.00    -0.077 N 
HETATM    9  C4  UNL     1       6.887   9.258  19.123  1.00  0.00     0.183 A 
HETATM   10  N7  UNL     1       7.179   9.664  17.796  1.00  0.00    -0.078 NA
HETATM   11  C5  UNL     1       6.568   7.941  19.396  1.00  0.00     0.137 A 
HETATM   12  N8  UNL     1       6.596   6.989  18.367  1.00  0.00    -0.095 NA
BRANCH   6  13
HETATM   13  N4  UNL     1       6.636  10.656  22.344  1.00  0.00    -0.233 N 
ATOM     14  H42 UNL     1       7.392  11.340  22.343  1.00  0.00     0.174 HD
ATOM     15  H41 UNL     1       5.931  10.658  23.081  1.00  0.00     0.174 HD
ENDBRANCH   6  13
BRANCH   8  16
HETATM   16  N6  UNL     1       7.217  11.474  19.877  1.00  0.00    -0.323 N 
ATOM     17  H62 UNL     1       6.469  12.168  19.873  1.00  0.00     0.178 HD
ATOM     18  H61 UNL     1       8.184  11.734  19.687  1.00  0.00     0.178 HD
ENDBRANCH   8  16
ENDBRANCH   3   4
BRANCH   3  19
HETATM   19  N9  UNL     1       6.846   5.254  21.293  1.00  0.00    -0.244 N 
HETATM   20  C6  UNL     1       6.783   3.843  21.044  1.00  0.00     0.154 C 
HETATM   21  C7  UNL     1       7.977   3.269  21.790  1.00  0.00     0.031 C 
HETATM   22  C8  UNL     1       8.488   4.349  22.680  1.00  0.00     0.106 C 
HETATM   23  C9  UNL     1       8.134   5.569  21.869  1.00  0.00     0.239 C 
HETATM   24  O1  UNL     1       8.794   6.624  21.717  1.00  0.00    -0.272 OA
ENDBRANCH   3  19
TORSDOF 4
ENDMDL
MODEL 4
REMARK VINA RESULT: -6.550771537      3.012      5.813
REMARK  4 active torsions:
REMARK  status: ('A' for Active; 'I' for Inactive)
REMARK    1  A    between atoms: N2_3  and  C2_4 
REMARK    2  A    between atoms: N2_3  and  N9_19 
REMARK    3  A    between atoms: C3_7  and  N4_8 
REMARK    4  A    between atoms: N5_11  and  N6_12 
ROOT
HETATM    1  N1  UNL     1       1.956  14.492  15.625  1.00  0.00    -0.170 NA
HETATM    2  C1  UNL     1       1.277  13.548  15.433  1.00  0.00     0.207 C 
HETATM    3  N2  UNL     1       0.465  12.456  15.208  1.00  0.00    -0.166 N 
ENDROOT
BRANCH   3   4
HETATM    4  C2  UNL     1       0.876  11.425  14.333  1.00  0.00     0.181 A 
HETATM    5  N3  UNL     1       0.844  11.736  13.013  1.00  0.00    -0.171 N 
HETATM    6  C3  UNL     1       1.186  10.797  12.094  1.00  0.00     0.700 A 
ATOM      7  H3  UNL     1       0.563  12.670  12.713  1.00  0.00     0.186 HD
HETATM    8  N5  UNL     1       1.551   9.568  12.475  1.00  0.00    -0.077 N 
HETATM    9  C4  UNL     1       1.596   9.220  13.783  1.00  0.00     0.183 A 
HETATM   10  N7  UNL     1       1.961   7.910  14.184  1.00  0.00    -0.078 NA
HETATM   11  C5  UNL     1       1.253  10.170  14.727  1.00  0.00     0.137 A 
HETATM   12  N8  UNL     1       1.330   9.855  16.092  1.00  0.00    -0.095 NA
BRANCH   6  13
HETATM   13  N4  UNL     1       1.181  11.083  10.826  1.00  0.00    -0.233 N 
ATOM     14  H42 UNL     1       1.689  10.475  10.183  1.00  0.00     0.174 HD
ATOM     15  H41 UNL     1       0.689  11.908  10.483  1.00  0.00     0.174 HD
ENDBRANCH   6  13
BRANCH   8  16
HETATM   16  N6  UNL     1       1.900   8.615  11.518  1.00  0.00    -0.323 N 
ATOM     17  H62 UNL     1       1.548   7.663  11.626  1.00  0.00     0.178 HD
ATOM     18  H61 UNL     1       2.497   8.874  10.733  1.00  0.00     0.178 HD
ENDBRANCH   8  16
ENDBRANCH   3   4
BRANCH   3  19
HETATM   19  N9  UNL     1      -0.785  12.403  15.857  1.00  0.00    -0.244 N 
HETATM   20  C6  UNL     1      -1.169  12.899  17.147  1.00  0.00     0.154 C 
HETATM   21  C7  UNL     1      -2.528  12.270  17.409  1.00  0.00     0.031 C 
HETATM   22  C8  UNL     1      -2.713  11.204  16.386  1.00  0.00     0.106 C 
HETATM   23  C9  UNL     1      -1.934  11.784  15.234  1.00  0.00     0.239 C 
HETATM   24  O1  UNL     1      -2.204  11.748  14.011  1.00  0.00    -0.272 OA
ENDBRANCH   3  19
TORSDOF 4
ENDMDL
MODEL 5
REMARK VINA RESULT: -6.450337388      5.338      7.999
REMARK  4 active torsions:
REMARK  status: ('A' for Active; 'I' for Inactive)
REMARK    1  A    between atoms: N2_3  and  C2_4 
REMARK    2  A    between atoms: N2_3  and  N9_19 
REMARK    3  A    between atoms: C3_7  and  N4_8 
REMARK    4  A    between atoms: N5_11  and  N6_12 
ROOT
HETATM    1  N1  UNL     1       4.735   8.567  15.105  1.00  0.00    -0.170 NA
HETATM    2  C1  UNL     1       4.218   8.740  16.149  1.00  0.00     0.207 C 
HETATM    3  N2  UNL     1       3.591   8.937  17.362  1.00  0.00    -0.166 N 
ENDROOT
BRANCH   3   4
HETATM    4  C2  UNL     1       4.205   8.514  18.562  1.00  0.00     0.181 A 
HETATM    5  N3  UNL     1       3.816   7.296  19.017  1.00  0.00    -0.171 N 
HETATM    6  C3  UNL     1       4.324   6.822  20.183  1.00  0.00     0.700 A 
ATOM      7  H3  UNL     1       3.145   6.741  18.486  1.00  0.00     0.186 HD
HETATM    8  N5  UNL     1       5.202   7.543  20.890  1.00  0.00    -0.077 N 
HETATM    9  C4  UNL     1       5.615   8.762  20.469  1.00  0.00     0.183 A 
HETATM   10  N7  UNL     1       6.528   9.534  21.231  1.00  0.00    -0.078 NA
HETATM   11  C5  UNL     1       5.106   9.253  19.281  1.00  0.00     0.137 A 
HETATM   12  N8  UNL     1       5.545  10.493  18.795  1.00  0.00    -0.095 NA
BRANCH   6  13
HETATM   13  N4  UNL     1       3.979   5.649  20.624  1.00  0.00    -0.233 N 
ATOM     14  H42 UNL     1       3.668   5.560  21.592  1.00  0.00     0.174 HD
ATOM     15  H41 UNL     1       4.032   4.831  20.016  1.00  0.00     0.174 HD
ENDBRANCH   6  13
BRANCH   8  16
HETATM   16  N6  UNL     1       5.715   7.041  22.086  1.00  0.00    -0.323 N 
ATOM     17  H62 UNL     1       5.104   6.486  22.685  1.00  0.00     0.178 HD
ATOM     18  H61 UNL     1       6.682   7.234  22.348  1.00  0.00     0.178 HD
ENDBRANCH   8  16
ENDBRANCH   3   4
BRANCH   3  19
HETATM   19  N9  UNL     1       2.322   9.551  17.371  1.00  0.00    -0.244 N 
HETATM   20  C6  UNL     1       1.925  10.823  17.901  1.00  0.00     0.154 C 
HETATM   21  C7  UNL     1       0.405  10.781  17.896  1.00  0.00     0.031 C 
HETATM   22  C8  UNL     1       0.015   9.365  17.648  1.00  0.00     0.106 C 
HETATM   23  C9  UNL     1       1.166   8.904  16.792  1.00  0.00     0.239 C 
HETATM   24  O1  UNL     1       1.145   8.138  15.801  1.00  0.00    -0.272 OA
ENDBRANCH   3  19
TORSDOF 4
ENDMDL
