MODEL 1
REMARK VINA RESULT: -7.559173773      0.000      0.000
REMARK  10 active torsions:
REMARK  status: ('A' for Active; 'I' for Inactive)
REMARK       I    between atoms: C2_2  and  N1_4 
REMARK    1  A    between atoms: C3_7  and  N3_8 
REMARK    2  A    between atoms: C5_12  and  N4_13 
REMARK    3  A    between atoms: N4_13  and  C6_15 
REMARK    4  A    between atoms: C6_15  and  C7_16 
REMARK    5  A    between atoms: C9_21  and  N7_22 
REMARK    6  A    between atoms: C10_27  and  N9_28 
REMARK    7  A    between atoms: N9_28  and  C11_29 
REMARK    8  A    between atoms: C11_29  and  C12_30 
REMARK    9  A    between atoms: C12_30  and  N10_31 
REMARK   10  A    between atoms: C15_36  and  N12_37 
ROOT
HETATM    1  C1  UNL     1     130.381  37.703  17.029  1.00  0.00     0.119 C 
HETATM    2  C2  UNL     1     129.127  37.445  17.729  1.00  0.00     0.240 C 
HETATM    3  O1  UNL     1     129.003  36.245  18.199  1.00  0.00    -0.272 OA
HETATM    4  N1  UNL     1     128.062  38.306  17.953  1.00  0.00    -0.204 N 
HETATM    5  N2  UNL     1     126.928  37.988  18.635  1.00  0.00    -0.274 N 
ATOM      6  H2  UNL     1     126.729  37.082  19.059  1.00  0.00     0.189 HD
HETATM    7  C3  UNL     1     126.119  39.049  18.660  1.00  0.00     0.132 A 
HETATM    8  C4  UNL     1     126.730  40.073  17.989  1.00  0.00     0.100 A 
HETATM    9  C5  UNL     1     126.316  41.399  17.763  1.00  0.00     0.135 A 
HETATM   10  N11 UNL     1     127.152  42.180  17.090  1.00  0.00    -0.176 N 
ATOM     11  H11 UNL     1     126.890  43.148  16.901  1.00  0.00     0.186 HD
HETATM   12  C15 UNL     1     128.350  41.713  16.649  1.00  0.00     0.679 A 
HETATM   13  N13 UNL     1     128.770  40.458  16.856  1.00  0.00    -0.174 N 
ATOM     14  H13 UNL     1     129.677  40.144  16.512  1.00  0.00     0.186 HD
HETATM   15  C16 UNL     1     127.945  39.609  17.544  1.00  0.00     0.163 A 
ENDROOT
BRANCH   9  16
HETATM   16  N4  UNL     1     125.175  41.728  18.182  1.00  0.00    -0.370 N 
ATOM     17  H4  UNL     1     124.470  40.993  18.239  1.00  0.00     0.161 HD
BRANCH  16  18
HETATM   18  C6  UNL     1     124.769  43.095  18.602  1.00  0.00     0.168 C 
BRANCH  18  19
HETATM   19  C7  UNL     1     123.522  42.874  19.409  1.00  0.00     0.060 A 
HETATM   20  C8  UNL     1     122.349  43.236  18.722  1.00  0.00     0.144 A 
HETATM   21  N5  UNL     1     122.432  43.807  17.437  1.00  0.00    -0.081 NA
HETATM   22  N6  UNL     1     121.187  43.039  19.368  1.00  0.00    -0.178 N 
HETATM   23  C9  UNL     1     121.168  42.518  20.623  1.00  0.00     0.679 A 
ATOM     24  H6  UNL     1     120.309  43.283  18.911  1.00  0.00     0.185 HD
HETATM   25  N8  UNL     1     122.263  42.174  21.270  1.00  0.00    -0.164 N 
HETATM   26  C10 UNL     1     123.539  42.340  20.662  1.00  0.00     0.203 A 
ATOM     27  H8  UNL     1     122.195  41.787  22.211  1.00  0.00     0.187 HD
BRANCH  23  28
HETATM   28  N7  UNL     1     120.009  42.357  21.215  1.00  0.00    -0.234 N 
ATOM     29  H72 UNL     1     119.942  42.532  22.218  1.00  0.00     0.174 HD
ATOM     30  H71 UNL     1     119.212  42.065  20.651  1.00  0.00     0.174 HD
ENDBRANCH  23  28
BRANCH  26  31
HETATM   31  N9  UNL     1     124.490  41.857  21.227  1.00  0.00    -0.401 NA
BRANCH  31  32
HETATM   32  C11 UNL     1     125.710  41.679  21.746  1.00  0.00     0.187 C 
BRANCH  32  33
HETATM   33  C12 UNL     1     126.718  42.854  21.693  1.00  0.00     0.330 C 
BRANCH  33  34
HETATM   34  N10 UNL     1     126.691  43.674  22.864  1.00  0.00     0.085 N 
HETATM   35  C13 UNL     1     127.759  43.606  23.789  1.00  0.00     0.309 C 
HETATM   36  C14 UNL     1     126.346  45.054  22.641  1.00  0.00     0.309 C 
ENDBRANCH  33  34
ENDBRANCH  32  33
ENDBRANCH  31  32
ENDBRANCH  26  31
ENDBRANCH  18  19
ENDBRANCH  16  18
ENDBRANCH   9  16
BRANCH   7  37
HETATM   37  N3  UNL     1     124.952  39.140  19.232  1.00  0.00    -0.384 N 
ATOM     38  H32 UNL     1     124.647  38.558  20.012  1.00  0.00     0.157 HD
ATOM     39  H31 UNL     1     124.189  39.772  18.985  1.00  0.00     0.157 HD
ENDBRANCH   7  37
BRANCH  12  40
HETATM   40  N12 UNL     1     129.124  42.542  15.974  1.00  0.00    -0.234 N 
ATOM     41 2H12 UNL     1     128.690  43.251  15.383  1.00  0.00     0.174 HD
ATOM     42 1H12 UNL     1     130.134  42.444  16.080  1.00  0.00     0.174 HD
ENDBRANCH  12  40
TORSDOF 10
ENDMDL
MODEL 2
REMARK VINA RESULT: -7.424331723      2.917      7.105
REMARK  10 active torsions:
REMARK  status: ('A' for Active; 'I' for Inactive)
REMARK       I    between atoms: C2_2  and  N1_4 
REMARK    1  A    between atoms: C3_7  and  N3_8 
REMARK    2  A    between atoms: C5_12  and  N4_13 
REMARK    3  A    between atoms: N4_13  and  C6_15 
REMARK    4  A    between atoms: C6_15  and  C7_16 
REMARK    5  A    between atoms: C9_21  and  N7_22 
REMARK    6  A    between atoms: C10_27  and  N9_28 
REMARK    7  A    between atoms: N9_28  and  C11_29 
REMARK    8  A    between atoms: C11_29  and  C12_30 
REMARK    9  A    between atoms: C12_30  and  N10_31 
REMARK   10  A    between atoms: C15_36  and  N12_37 
ROOT
HETATM    1  C1  UNL     1     123.973  42.738  20.218  1.00  0.00     0.119 C 
HETATM    2  C2  UNL     1     124.379  41.337  20.263  1.00  0.00     0.240 C 
HETATM    3  O1  UNL     1     123.790  40.629  21.173  1.00  0.00    -0.272 OA
HETATM    4  N1  UNL     1     125.302  40.672  19.469  1.00  0.00    -0.204 N 
HETATM    5  N2  UNL     1     125.611  39.351  19.566  1.00  0.00    -0.274 N 
ATOM      6  H2  UNL     1     125.202  38.696  20.232  1.00  0.00     0.189 HD
HETATM    7  C3  UNL     1     126.535  39.047  18.651  1.00  0.00     0.132 A 
HETATM    8  C4  UNL     1     126.832  40.182  17.946  1.00  0.00     0.100 A 
HETATM    9  C5  UNL     1     127.706  40.387  16.862  1.00  0.00     0.135 A 
HETATM   10  N11 UNL     1     127.761  41.615  16.362  1.00  0.00    -0.176 N 
ATOM     11  H11 UNL     1     128.384  41.809  15.578  1.00  0.00     0.186 HD
HETATM   12  C15 UNL     1     127.001  42.619  16.876  1.00  0.00     0.679 A 
HETATM   13  N13 UNL     1     126.157  42.449  17.903  1.00  0.00    -0.174 N 
ATOM     14  H13 UNL     1     125.601  43.225  18.260  1.00  0.00     0.186 HD
HETATM   15  C16 UNL     1     126.063  41.200  18.458  1.00  0.00     0.163 A 
ENDROOT
BRANCH   9  16
HETATM   16  N4  UNL     1     128.391  39.403  16.478  1.00  0.00    -0.370 N 
ATOM     17  H4  UNL     1     128.060  38.475  16.739  1.00  0.00     0.161 HD
BRANCH  16  18
HETATM   18  C6  UNL     1     129.642  39.480  15.678  1.00  0.00     0.168 C 
BRANCH  18  19
HETATM   19  C7  UNL     1     130.689  38.890  16.579  1.00  0.00     0.060 A 
HETATM   20  C8  UNL     1     130.983  37.548  16.276  1.00  0.00     0.144 A 
HETATM   21  N5  UNL     1     130.271  36.881  15.260  1.00  0.00    -0.081 NA
HETATM   22  N6  UNL     1     131.934  36.958  17.020  1.00  0.00    -0.178 N 
HETATM   23  C9  UNL     1     132.564  37.639  18.013  1.00  0.00     0.679 A 
ATOM     24  H6  UNL     1     132.186  35.986  16.837  1.00  0.00     0.185 HD
HETATM   25  N8  UNL     1     132.295  38.896  18.298  1.00  0.00    -0.164 N 
HETATM   26  C10 UNL     1     131.307  39.605  17.558  1.00  0.00     0.203 A 
ATOM     27  H8  UNL     1     132.797  39.364  19.053  1.00  0.00     0.187 HD
BRANCH  23  28
HETATM   28  N7  UNL     1     133.476  37.014  18.718  1.00  0.00    -0.234 N 
ATOM     29  H72 UNL     1     134.383  37.460  18.853  1.00  0.00     0.174 HD
ATOM     30  H71 UNL     1     133.245  36.102  19.112  1.00  0.00     0.174 HD
ENDBRANCH  23  28
BRANCH  26  31
HETATM   31  N9  UNL     1     131.219  40.794  17.749  1.00  0.00    -0.401 NA
BRANCH  31  32
HETATM   32  C11 UNL     1     130.904  41.980  18.280  1.00  0.00     0.187 C 
BRANCH  32  33
HETATM   33  C12 UNL     1     131.252  42.244  19.767  1.00  0.00     0.330 C 
BRANCH  33  34
HETATM   34  N10 UNL     1     130.373  43.180  20.395  1.00  0.00     0.085 N 
HETATM   35  C13 UNL     1     130.777  44.529  20.536  1.00  0.00     0.309 C 
HETATM   36  C14 UNL     1     129.007  43.140  19.942  1.00  0.00     0.309 C 
ENDBRANCH  33  34
ENDBRANCH  32  33
ENDBRANCH  31  32
ENDBRANCH  26  31
ENDBRANCH  18  19
ENDBRANCH  16  18
ENDBRANCH   9  16
BRANCH   7  37
HETATM   37  N3  UNL     1     127.069  37.881  18.423  1.00  0.00    -0.384 N 
ATOM     38  H32 UNL     1     127.034  37.096  19.073  1.00  0.00     0.157 HD
ATOM     39  H31 UNL     1     127.598  37.592  17.599  1.00  0.00     0.157 HD
ENDBRANCH   7  37
BRANCH  12  40
HETATM   40  N12 UNL     1     127.117  43.818  16.339  1.00  0.00    -0.234 N 
ATOM     41 2H12 UNL     1     128.048  44.170  16.116  1.00  0.00     0.174 HD
ATOM     42 1H12 UNL     1     126.262  44.345  16.158  1.00  0.00     0.174 HD
ENDBRANCH  12  40
TORSDOF 10
ENDMDL
MODEL 3
REMARK VINA RESULT: -7.306168624      3.413      8.528
REMARK  10 active torsions:
REMARK  status: ('A' for Active; 'I' for Inactive)
REMARK       I    between atoms: C2_2  and  N1_4 
REMARK    1  A    between atoms: C3_7  and  N3_8 
REMARK    2  A    between atoms: C5_12  and  N4_13 
REMARK    3  A    between atoms: N4_13  and  C6_15 
REMARK    4  A    between atoms: C6_15  and  C7_16 
REMARK    5  A    between atoms: C9_21  and  N7_22 
REMARK    6  A    between atoms: C10_27  and  N9_28 
REMARK    7  A    between atoms: N9_28  and  C11_29 
REMARK    8  A    between atoms: C11_29  and  C12_30 
REMARK    9  A    between atoms: C12_30  and  N10_31 
REMARK   10  A    between atoms: C15_36  and  N12_37 
ROOT
HETATM    1  C1  UNL     1     126.790  43.165  21.317  1.00  0.00     0.119 C 
HETATM    2  C2  UNL     1     127.881  43.209  20.349  1.00  0.00     0.240 C 
HETATM    3  O1  UNL     1     128.706  44.195  20.503  1.00  0.00    -0.272 OA
HETATM    4  N1  UNL     1     128.147  42.343  19.298  1.00  0.00    -0.204 N 
HETATM    5  N2  UNL     1     129.204  42.446  18.447  1.00  0.00    -0.274 N 
ATOM      6  H2  UNL     1     129.922  43.170  18.481  1.00  0.00     0.189 HD
HETATM    7  C3  UNL     1     129.152  41.450  17.560  1.00  0.00     0.132 A 
HETATM    8  C4  UNL     1     128.050  40.686  17.835  1.00  0.00     0.100 A 
HETATM    9  C5  UNL     1     127.571  39.512  17.223  1.00  0.00     0.135 A 
HETATM   10  N11 UNL     1     126.474  38.973  17.739  1.00  0.00    -0.176 N 
ATOM     11  H11 UNL     1     126.090  38.124  17.325  1.00  0.00     0.186 HD
HETATM   12  C15 UNL     1     125.853  39.534  18.811  1.00  0.00     0.679 A 
HETATM   13  N13 UNL     1     126.291  40.647  19.415  1.00  0.00    -0.174 N 
ATOM     14  H13 UNL     1     125.799  41.037  20.219  1.00  0.00     0.186 HD
HETATM   15  C16 UNL     1     127.420  41.244  18.921  1.00  0.00     0.163 A 
ENDROOT
BRANCH   9  16
HETATM   16  N4  UNL     1     128.198  39.088  16.216  1.00  0.00    -0.370 N 
ATOM     17  H4  UNL     1     128.477  39.776  15.517  1.00  0.00     0.161 HD
BRANCH  16  18
HETATM   18  C6  UNL     1     128.564  37.670  15.960  1.00  0.00     0.168 C 
BRANCH  18  19
HETATM   19  C7  UNL     1     129.918  37.522  16.594  1.00  0.00     0.060 A 
HETATM   20  C8  UNL     1     129.886  36.789  17.795  1.00  0.00     0.144 A 
HETATM   21  N5  UNL     1     128.657  36.336  18.313  1.00  0.00    -0.081 NA
HETATM   22  N6  UNL     1     131.065  36.587  18.408  1.00  0.00    -0.178 N 
HETATM   23  C9  UNL     1     132.217  37.079  17.881  1.00  0.00     0.679 A 
ATOM     24  H6  UNL     1     131.095  36.058  19.279  1.00  0.00     0.185 HD
HETATM   25  N8  UNL     1     132.253  37.763  16.756  1.00  0.00    -0.164 N 
HETATM   26  C10 UNL     1     131.054  38.020  16.033  1.00  0.00     0.203 A 
ATOM     27  H8  UNL     1     133.144  38.110  16.402  1.00  0.00     0.187 HD
BRANCH  23  28
HETATM   28  N7  UNL     1     133.339  36.865  18.525  1.00  0.00    -0.234 N 
ATOM     29  H72 UNL     1     133.301  36.658  19.523  1.00  0.00     0.174 HD
ATOM     30  H71 UNL     1     134.214  36.909  18.003  1.00  0.00     0.174 HD
ENDBRANCH  23  28
BRANCH  26  31
HETATM   31  N9  UNL     1     131.163  38.503  14.932  1.00  0.00    -0.401 NA
BRANCH  31  32
HETATM   32  C11 UNL     1     131.550  39.275  13.911  1.00  0.00     0.187 C 
BRANCH  32  33
HETATM   33  C12 UNL     1     130.680  39.301  12.628  1.00  0.00     0.330 C 
BRANCH  33  34
HETATM   34  N10 UNL     1     130.030  40.555  12.412  1.00  0.00     0.085 N 
HETATM   35  C13 UNL     1     129.973  41.095  11.105  1.00  0.00     0.309 C 
HETATM   36  C14 UNL     1     128.741  40.696  13.039  1.00  0.00     0.309 C 
ENDBRANCH  33  34
ENDBRANCH  32  33
ENDBRANCH  31  32
ENDBRANCH  26  31
ENDBRANCH  18  19
ENDBRANCH  16  18
ENDBRANCH   9  16
BRANCH   7  37
HETATM   37  N3  UNL     1     129.996  41.202  16.599  1.00  0.00    -0.384 N 
ATOM     38  H32 UNL     1     129.786  41.313  15.607  1.00  0.00     0.157 HD
ATOM     39  H31 UNL     1     130.952  40.856  16.688  1.00  0.00     0.157 HD
ENDBRANCH   7  37
BRANCH  12  40
HETATM   40  N12 UNL     1     124.757  38.953  19.262  1.00  0.00    -0.234 N 
ATOM     41 2H12 UNL     1     123.964  38.838  18.631  1.00  0.00     0.174 HD
ATOM     42 1H12 UNL     1     124.753  38.630  20.231  1.00  0.00     0.174 HD
ENDBRANCH  12  40
TORSDOF 10
ENDMDL
MODEL 4
REMARK VINA RESULT: -7.303683474      1.626      3.656
REMARK  10 active torsions:
REMARK  status: ('A' for Active; 'I' for Inactive)
REMARK       I    between atoms: C2_2  and  N1_4 
REMARK    1  A    between atoms: C3_7  and  N3_8 
REMARK    2  A    between atoms: C5_12  and  N4_13 
REMARK    3  A    between atoms: N4_13  and  C6_15 
REMARK    4  A    between atoms: C6_15  and  C7_16 
REMARK    5  A    between atoms: C9_21  and  N7_22 
REMARK    6  A    between atoms: C10_27  and  N9_28 
REMARK    7  A    between atoms: N9_28  and  C11_29 
REMARK    8  A    between atoms: C11_29  and  C12_30 
REMARK    9  A    between atoms: C12_30  and  N10_31 
REMARK   10  A    between atoms: C15_36  and  N12_37 
ROOT
HETATM    1  C1  UNL     1     129.691  37.478  16.077  1.00  0.00     0.119 C 
HETATM    2  C2  UNL     1     128.526  37.252  16.926  1.00  0.00     0.240 C 
HETATM    3  O1  UNL     1     128.328  36.017  17.261  1.00  0.00    -0.272 OA
HETATM    4  N1  UNL     1     127.612  38.176  17.413  1.00  0.00    -0.204 N 
HETATM    5  N2  UNL     1     126.556  37.881  18.219  1.00  0.00    -0.274 N 
ATOM      6  H2  UNL     1     126.312  36.951  18.557  1.00  0.00     0.189 HD
HETATM    7  C3  UNL     1     125.889  39.004  18.496  1.00  0.00     0.132 A 
HETATM    8  C4  UNL     1     126.517  40.044  17.866  1.00  0.00     0.100 A 
HETATM    9  C5  UNL     1     126.234  41.423  17.868  1.00  0.00     0.135 A 
HETATM   10  N11 UNL     1     127.054  42.202  17.174  1.00  0.00    -0.176 N 
ATOM     11  H11 UNL     1     126.885  43.208  17.145  1.00  0.00     0.186 HD
HETATM   12  C15 UNL     1     128.115  41.684  16.500  1.00  0.00     0.679 A 
HETATM   13  N13 UNL     1     128.409  40.376  16.487  1.00  0.00    -0.174 N 
ATOM     14  H13 UNL     1     129.215  40.024  15.972  1.00  0.00     0.186 HD
HETATM   15  C16 UNL     1     127.594  39.528  17.187  1.00  0.00     0.163 A 
ENDROOT
BRANCH   9  16
HETATM   16  N4  UNL     1     125.211  41.803  18.495  1.00  0.00    -0.370 N 
ATOM     17  H4  UNL     1     124.307  41.472  18.156  1.00  0.00     0.161 HD
BRANCH  16  18
HETATM   18  C6  UNL     1     125.206  42.692  19.687  1.00  0.00     0.168 C 
BRANCH  18  19
HETATM   19  C7  UNL     1     123.759  42.769  20.080  1.00  0.00     0.060 A 
HETATM   20  C8  UNL     1     123.430  41.909  21.143  1.00  0.00     0.144 A 
HETATM   21  N5  UNL     1     124.405  41.046  21.681  1.00  0.00    -0.081 NA
HETATM   22  N6  UNL     1     122.157  41.943  21.574  1.00  0.00    -0.178 N 
HETATM   23  C9  UNL     1     121.248  42.770  20.994  1.00  0.00     0.679 A 
ATOM     24  H6  UNL     1     121.870  41.340  22.345  1.00  0.00     0.185 HD
HETATM   25  N8  UNL     1     121.551  43.579  20.000  1.00  0.00    -0.164 N 
HETATM   26  C10 UNL     1     122.877  43.617  19.483  1.00  0.00     0.203 A 
ATOM     27  H8  UNL     1     120.832  44.182  19.599  1.00  0.00     0.187 HD
BRANCH  23  28
HETATM   28  N7  UNL     1     120.015  42.756  21.442  1.00  0.00    -0.234 N 
ATOM     29  H72 UNL     1     119.292  42.312  20.876  1.00  0.00     0.174 HD
ATOM     30  H71 UNL     1     119.822  43.188  22.345  1.00  0.00     0.174 HD
ENDBRANCH  23  28
BRANCH  26  31
HETATM   31  N9  UNL     1     123.138  44.490  18.691  1.00  0.00    -0.401 NA
BRANCH  31  32
HETATM   32  C11 UNL     1     123.280  45.179  17.554  1.00  0.00     0.187 C 
BRANCH  32  33
HETATM   33  C12 UNL     1     124.242  44.632  16.469  1.00  0.00     0.330 C 
BRANCH  33  34
HETATM   34  N10 UNL     1     123.777  44.858  15.136  1.00  0.00     0.085 N 
HETATM   35  C13 UNL     1     122.527  45.488  14.931  1.00  0.00     0.309 C 
HETATM   36  C14 UNL     1     124.746  45.425  14.234  1.00  0.00     0.309 C 
ENDBRANCH  33  34
ENDBRANCH  32  33
ENDBRANCH  31  32
ENDBRANCH  26  31
ENDBRANCH  18  19
ENDBRANCH  16  18
ENDBRANCH   9  16
BRANCH   7  37
HETATM   37  N3  UNL     1     124.832  39.132  19.248  1.00  0.00    -0.384 N 
ATOM     38  H32 UNL     1     124.029  38.503  19.222  1.00  0.00     0.157 HD
ATOM     39  H31 UNL     1     124.648  39.860  19.938  1.00  0.00     0.157 HD
ENDBRANCH   7  37
BRANCH  12  40
HETATM   40  N12 UNL     1     128.879  42.516  15.819  1.00  0.00    -0.234 N 
ATOM     41 2H12 UNL     1     128.441  43.163  15.163  1.00  0.00     0.174 HD
ATOM     42 1H12 UNL     1     129.886  42.483  15.984  1.00  0.00     0.174 HD
ENDBRANCH  12  40
TORSDOF 10
ENDMDL
MODEL 5
REMARK VINA RESULT: -7.236659602      3.112      8.153
REMARK  10 active torsions:
REMARK  status: ('A' for Active; 'I' for Inactive)
REMARK       I    between atoms: C2_2  and  N1_4 
REMARK    1  A    between atoms: C3_7  and  N3_8 
REMARK    2  A    between atoms: C5_12  and  N4_13 
REMARK    3  A    between atoms: N4_13  and  C6_15 
REMARK    4  A    between atoms: C6_15  and  C7_16 
REMARK    5  A    between atoms: C9_21  and  N7_22 
REMARK    6  A    between atoms: C10_27  and  N9_28 
REMARK    7  A    between atoms: N9_28  and  C11_29 
REMARK    8  A    between atoms: C11_29  and  C12_30 
REMARK    9  A    between atoms: C12_30  and  N10_31 
REMARK   10  A    between atoms: C15_36  and  N12_37 
ROOT
HETATM    1  C1  UNL     1     123.127  43.392  20.622  1.00  0.00     0.119 C 
HETATM    2  C2  UNL     1     123.514  41.985  20.653  1.00  0.00     0.240 C 
HETATM    3  O1  UNL     1     122.877  41.264  21.518  1.00  0.00    -0.272 OA
HETATM    4  N1  UNL     1     124.466  41.328  19.886  1.00  0.00    -0.204 N 
HETATM    5  N2  UNL     1     124.756  40.001  19.966  1.00  0.00    -0.274 N 
ATOM      6  H2  UNL     1     124.309  39.336  20.597  1.00  0.00     0.189 HD
HETATM    7  C3  UNL     1     125.717  39.708  19.087  1.00  0.00     0.132 A 
HETATM    8  C4  UNL     1     126.058  40.855  18.424  1.00  0.00     0.100 A 
HETATM    9  C5  UNL     1     126.984  41.074  17.387  1.00  0.00     0.135 A 
HETATM   10  N11 UNL     1     127.076  42.312  16.919  1.00  0.00    -0.176 N 
ATOM     11  H11 UNL     1     127.737  42.517  16.169  1.00  0.00     0.186 HD
HETATM   12  C15 UNL     1     126.304  43.313  17.421  1.00  0.00     0.679 A 
HETATM   13  N13 UNL     1     125.412  43.129  18.404  1.00  0.00    -0.174 N 
ATOM     14  H13 UNL     1     124.849  43.904  18.753  1.00  0.00     0.186 HD
HETATM   15  C16 UNL     1     125.279  41.870  18.924  1.00  0.00     0.163 A 
ENDROOT
BRANCH   9  16
HETATM   16  N4  UNL     1     127.676  40.091  17.011  1.00  0.00    -0.370 N 
ATOM     17  H4  UNL     1     127.211  39.386  16.439  1.00  0.00     0.161 HD
BRANCH  16  18
HETATM   18  C6  UNL     1     129.111  39.870  17.331  1.00  0.00     0.168 C 
BRANCH  18  19
HETATM   19  C7  UNL     1     129.700  39.376  16.041  1.00  0.00     0.060 A 
HETATM   20  C8  UNL     1     129.882  37.981  16.017  1.00  0.00     0.144 A 
HETATM   21  N5  UNL     1     129.580  37.210  17.157  1.00  0.00    -0.081 NA
HETATM   22  N6  UNL     1     130.378  37.457  14.883  1.00  0.00    -0.178 N 
HETATM   23  C9  UNL     1     130.686  38.253  13.825  1.00  0.00     0.679 A 
ATOM     24  H6  UNL     1     130.525  36.450  14.816  1.00  0.00     0.185 HD
HETATM   25  N8  UNL     1     130.515  39.559  13.841  1.00  0.00    -0.164 N 
HETATM   26  C10 UNL     1     129.988  40.201  14.997  1.00  0.00     0.203 A 
ATOM     27  H8  UNL     1     130.761  40.112  13.020  1.00  0.00     0.187 HD
BRANCH  23  28
HETATM   28  N7  UNL     1     131.178  37.694  12.746  1.00  0.00    -0.234 N 
ATOM     29  H72 UNL     1     130.980  38.119  11.840  1.00  0.00     0.174 HD
ATOM     30  H71 UNL     1     131.748  36.855  12.850  1.00  0.00     0.174 HD
ENDBRANCH  23  28
BRANCH  26  31
HETATM   31  N9  UNL     1     129.697  41.368  14.899  1.00  0.00    -0.401 NA
BRANCH  31  32
HETATM   32  C11 UNL     1     129.334  42.554  14.398  1.00  0.00     0.187 C 
BRANCH  32  33
HETATM   33  C12 UNL     1     129.697  42.882  12.927  1.00  0.00     0.330 C 
BRANCH  33  34
HETATM   34  N10 UNL     1     128.960  42.108  11.978  1.00  0.00     0.085 N 
HETATM   35  C13 UNL     1     127.677  42.543  11.570  1.00  0.00     0.309 C 
HETATM   36  C14 UNL     1     129.704  41.680  10.822  1.00  0.00     0.309 C 
ENDBRANCH  33  34
ENDBRANCH  32  33
ENDBRANCH  31  32
ENDBRANCH  26  31
ENDBRANCH  18  19
ENDBRANCH  16  18
ENDBRANCH   9  16
BRANCH   7  37
HETATM   37  N3  UNL     1     126.248  38.540  18.857  1.00  0.00    -0.384 N 
ATOM     38  H32 UNL     1     125.730  37.662  18.862  1.00  0.00     0.157 HD
ATOM     39  H31 UNL     1     127.228  38.334  18.660  1.00  0.00     0.157 HD
ENDBRANCH   7  37
BRANCH  12  40
HETATM   40  N12 UNL     1     126.458  44.523  16.918  1.00  0.00    -0.234 N 
ATOM     41 2H12 UNL     1     127.199  45.119  17.286  1.00  0.00     0.174 HD
ATOM     42 1H12 UNL     1     125.830  44.811  16.167  1.00  0.00     0.174 HD
ENDBRANCH  12  40
TORSDOF 10
ENDMDL
