MODEL 1
REMARK VINA RESULT: -9.488106312      0.000      0.000
REMARK  8 active torsions:
REMARK  status: ('A' for Active; 'I' for Inactive)
REMARK    1  A    between atoms: O1_2  and  C2_3 
REMARK       I    between atoms: C2_3  and  N1_5 
REMARK    2  A    between atoms: C4_7  and  N2_8 
REMARK    3  A    between atoms: N2_8  and  N3_10 
REMARK    4  A    between atoms: N3_10  and  C5_12 
REMARK    5  A    between atoms: C6_15  and  N5_16 
REMARK    6  A    between atoms: C7_21  and  N7_22 
REMARK    7  A    between atoms: N7_22  and  C8_24 
REMARK    8  A    between atoms: C8_24  and  C10_26 
ROOT
HETATM    1  C5  UNL     1      74.996  67.351  92.980  1.00  0.00     0.726 A 
HETATM    2  N4  UNL     1      73.969  66.488  93.047  1.00  0.00    -0.020 N 
ATOM      3  H4  UNL     1      73.880  65.790  92.308  1.00  0.00     0.203 HD
HETATM    4  C6  UNL     1      73.061  66.489  94.023  1.00  0.00     0.705 A 
HETATM    5  N6  UNL     1      73.193  67.414  94.990  1.00  0.00    -0.022 N 
ATOM      6  H6  UNL     1      72.514  67.441  95.750  1.00  0.00     0.203 HD
HETATM    7  C7  UNL     1      74.194  68.299  94.976  1.00  0.00     0.708 A 
HETATM    8  N9  UNL     1      75.089  68.271  93.983  1.00  0.00    -0.020 N 
ATOM      9  H9  UNL     1      75.853  68.947  93.974  1.00  0.00     0.203 HD
ENDROOT
BRANCH   1  10
HETATM   10  N3  UNL     1      75.875  67.353  92.039  1.00  0.00    -0.129 N 
ATOM     11  H3  UNL     1      76.456  68.173  91.867  1.00  0.00     0.205 HD
BRANCH  10  12
HETATM   12  N2  UNL     1      76.010  66.205  91.262  1.00  0.00    -0.269 N 
ATOM     13  H2  UNL     1      75.507  66.126  90.379  1.00  0.00     0.189 HD
BRANCH  12  14
HETATM   14  C4  UNL     1      76.847  65.147  91.698  1.00  0.00     0.154 A 
HETATM   15  C3  UNL     1      78.214  65.012  91.577  1.00  0.00     0.174 A 
HETATM   16  N1  UNL     1      78.618  63.855  92.126  1.00  0.00    -0.192 N 
HETATM   17  C2  UNL     1      79.973  63.374  92.186  1.00  0.00     0.386 C 
HETATM   18  N11 UNL     1      77.532  63.264  92.588  1.00  0.00    -0.230 N 
HETATM   19  O2  UNL     1      80.907  64.057  91.697  1.00  0.00    -0.236 OA
HETATM   20  N10 UNL     1      76.454  64.022  92.343  1.00  0.00    -0.268 N 
ATOM     21  H11 UNL     1      77.515  62.362  93.063  1.00  0.00     0.209 HD
ATOM     22  H10 UNL     1      75.495  63.790  92.599  1.00  0.00     0.190 HD
BRANCH  17  23
HETATM   23  O1  UNL     1      80.287  62.164  92.775  1.00  0.00    -0.307 OA
HETATM   24  C1  UNL     1      81.457  61.493  92.356  1.00  0.00     0.215 C 
ENDBRANCH  17  23
ENDBRANCH  12  14
ENDBRANCH  10  12
ENDBRANCH   1  10
BRANCH   4  25
HETATM   25  N5  UNL     1      72.086  65.648  94.062  1.00  0.00    -0.234 N 
ATOM     26  H52 UNL     1      71.125  65.972  93.943  1.00  0.00     0.174 HD
ATOM     27  H51 UNL     1      72.229  64.650  94.209  1.00  0.00     0.174 HD
ENDBRANCH   4  25
BRANCH   7  28
HETATM   28  N7  UNL     1      74.287  69.162  95.911  1.00  0.00    -0.213 N 
ATOM     29  H7  UNL     1      73.422  69.472  96.355  1.00  0.00     0.178 HD
BRANCH  28  30
HETATM   30  C8  UNL     1      75.520  69.729  96.383  1.00  0.00     0.184 C 
HETATM   31  C9  UNL     1      75.257  71.059  97.092  1.00  0.00     0.042 C 
BRANCH  30  32
HETATM   32  C10 UNL     1      76.089  68.811  97.404  1.00  0.00     0.254 C 
HETATM   33  N8  UNL     1      75.227  67.753  97.853  1.00  0.00    -0.060 NA
HETATM   34  O3  UNL     1      77.252  68.951  97.848  1.00  0.00    -0.275 OA
ENDBRANCH  30  32
ENDBRANCH  28  30
ENDBRANCH   7  28
TORSDOF 8
ENDMDL
MODEL 2
REMARK VINA RESULT: -9.241280255      1.179      1.396
REMARK  8 active torsions:
REMARK  status: ('A' for Active; 'I' for Inactive)
REMARK    1  A    between atoms: O1_2  and  C2_3 
REMARK       I    between atoms: C2_3  and  N1_5 
REMARK    2  A    between atoms: C4_7  and  N2_8 
REMARK    3  A    between atoms: N2_8  and  N3_10 
REMARK    4  A    between atoms: N3_10  and  C5_12 
REMARK    5  A    between atoms: C6_15  and  N5_16 
REMARK    6  A    between atoms: C7_21  and  N7_22 
REMARK    7  A    between atoms: N7_22  and  C8_24 
REMARK    8  A    between atoms: C8_24  and  C10_26 
ROOT
HETATM    1  C5  UNL     1      74.659  67.740  93.411  1.00  0.00     0.726 A 
HETATM    2  N4  UNL     1      73.719  66.791  93.281  1.00  0.00    -0.020 N 
ATOM      3  H4  UNL     1      73.734  66.211  92.442  1.00  0.00     0.203 HD
HETATM    4  C6  UNL     1      72.768  66.560  94.187  1.00  0.00     0.705 A 
HETATM    5  N6  UNL     1      72.762  67.331  95.288  1.00  0.00    -0.022 N 
ATOM      6  H6  UNL     1      72.047  67.179  95.999  1.00  0.00     0.203 HD
HETATM    7  C7  UNL     1      73.673  68.292  95.471  1.00  0.00     0.708 A 
HETATM    8  N9  UNL     1      74.614  68.498  94.544  1.00  0.00    -0.020 N 
ATOM      9  H9  UNL     1      75.308  69.231  94.686  1.00  0.00     0.203 HD
ENDROOT
BRANCH   1  10
HETATM   10  N3  UNL     1      75.579  67.966  92.539  1.00  0.00    -0.129 N 
ATOM     11  H3  UNL     1      76.177  68.790  92.608  1.00  0.00     0.205 HD
BRANCH  10  12
HETATM   12  N2  UNL     1      75.738  67.055  91.497  1.00  0.00    -0.269 N 
ATOM     13  H2  UNL     1      75.244  67.197  90.616  1.00  0.00     0.189 HD
BRANCH  12  14
HETATM   14  C4  UNL     1      76.584  65.929  91.660  1.00  0.00     0.154 A 
HETATM   15  C3  UNL     1      77.936  65.889  91.929  1.00  0.00     0.174 A 
HETATM   16  N1  UNL     1      78.358  64.616  92.008  1.00  0.00    -0.192 N 
HETATM   17  C2  UNL     1      79.705  64.185  92.273  1.00  0.00     0.386 C 
HETATM   18  N11 UNL     1      77.297  63.860  91.794  1.00  0.00    -0.230 N 
HETATM   19  O2  UNL     1      80.613  65.033  92.457  1.00  0.00    -0.236 OA
HETATM   20  N10 UNL     1      76.219  64.627  91.583  1.00  0.00    -0.268 N 
ATOM     21  H11 UNL     1      77.298  62.840  91.791  1.00  0.00     0.209 HD
ATOM     22  H10 UNL     1      75.276  64.287  91.395  1.00  0.00     0.190 HD
BRANCH  17  23
HETATM   23  O1  UNL     1      80.038  62.846  92.334  1.00  0.00    -0.307 OA
HETATM   24  C1  UNL     1      79.623  62.097  93.458  1.00  0.00     0.215 C 
ENDBRANCH  17  23
ENDBRANCH  12  14
ENDBRANCH  10  12
ENDBRANCH   1  10
BRANCH   4  25
HETATM   25  N5  UNL     1      71.877  65.641  94.036  1.00  0.00    -0.234 N 
ATOM     26  H52 UNL     1      71.276  65.641  93.212  1.00  0.00     0.174 HD
ATOM     27  H51 UNL     1      71.740  64.895  94.717  1.00  0.00     0.174 HD
ENDBRANCH   4  25
BRANCH   7  28
HETATM   28  N7  UNL     1      73.635  69.003  96.529  1.00  0.00    -0.213 N 
ATOM     29  H7  UNL     1      72.922  69.730  96.586  1.00  0.00     0.178 HD
BRANCH  28  30
HETATM   30  C8  UNL     1      74.525  68.854  97.648  1.00  0.00     0.184 C 
HETATM   31  C9  UNL     1      74.978  67.398  97.776  1.00  0.00     0.042 C 
BRANCH  30  32
HETATM   32  C10 UNL     1      75.747  69.654  97.375  1.00  0.00     0.254 C 
HETATM   33  N8  UNL     1      76.990  69.081  97.813  1.00  0.00    -0.060 NA
HETATM   34  O3  UNL     1      75.698  70.765  96.796  1.00  0.00    -0.275 OA
ENDBRANCH  30  32
ENDBRANCH  28  30
ENDBRANCH   7  28
TORSDOF 8
ENDMDL
MODEL 3
REMARK VINA RESULT: -9.222521845      0.758      1.105
REMARK  8 active torsions:
REMARK  status: ('A' for Active; 'I' for Inactive)
REMARK    1  A    between atoms: O1_2  and  C2_3 
REMARK       I    between atoms: C2_3  and  N1_5 
REMARK    2  A    between atoms: C4_7  and  N2_8 
REMARK    3  A    between atoms: N2_8  and  N3_10 
REMARK    4  A    between atoms: N3_10  and  C5_12 
REMARK    5  A    between atoms: C6_15  and  N5_16 
REMARK    6  A    between atoms: C7_21  and  N7_22 
REMARK    7  A    between atoms: N7_22  and  C8_24 
REMARK    8  A    between atoms: C8_24  and  C10_26 
ROOT
HETATM    1  C5  UNL     1      74.901  67.345  93.054  1.00  0.00     0.726 A 
HETATM    2  N4  UNL     1      73.866  66.494  93.139  1.00  0.00    -0.020 N 
ATOM      3  H4  UNL     1      73.766  65.786  92.411  1.00  0.00     0.203 HD
HETATM    4  C6  UNL     1      72.961  66.520  94.119  1.00  0.00     0.705 A 
HETATM    5  N6  UNL     1      73.107  67.458  95.070  1.00  0.00    -0.022 N 
ATOM      6  H6  UNL     1      72.432  67.503  95.833  1.00  0.00     0.203 HD
HETATM    7  C7  UNL     1      74.118  68.332  95.039  1.00  0.00     0.708 A 
HETATM    8  N9  UNL     1      75.008  68.279  94.042  1.00  0.00    -0.020 N 
ATOM      9  H9  UNL     1      75.779  68.947  94.021  1.00  0.00     0.203 HD
ENDROOT
BRANCH   1  10
HETATM   10  N3  UNL     1      75.775  67.323  92.110  1.00  0.00    -0.129 N 
ATOM     11  H3  UNL     1      76.344  68.145  91.903  1.00  0.00     0.205 HD
BRANCH  10  12
HETATM   12  N2  UNL     1      75.925  66.148  91.377  1.00  0.00    -0.269 N 
ATOM     13  H2  UNL     1      75.140  65.780  90.840  1.00  0.00     0.189 HD
BRANCH  12  14
HETATM   14  C4  UNL     1      77.166  65.464  91.377  1.00  0.00     0.154 A 
HETATM   15  C3  UNL     1      77.623  64.490  92.240  1.00  0.00     0.174 A 
HETATM   16  N1  UNL     1      78.860  64.100  91.889  1.00  0.00    -0.192 N 
HETATM   17  C2  UNL     1      79.655  63.105  92.558  1.00  0.00     0.386 C 
HETATM   18  N11 UNL     1      79.186  64.810  90.826  1.00  0.00    -0.230 N 
HETATM   19  O2  UNL     1      79.202  62.510  93.568  1.00  0.00    -0.236 OA
HETATM   20  N10 UNL     1      78.182  65.637  90.498  1.00  0.00    -0.268 N 
ATOM     21  H11 UNL     1      80.071  64.740  90.325  1.00  0.00     0.209 HD
ATOM     22  H10 UNL     1      78.184  66.291  89.716  1.00  0.00     0.190 HD
BRANCH  17  23
HETATM   23  O1  UNL     1      80.922  62.774  92.117  1.00  0.00    -0.307 OA
HETATM   24  C1  UNL     1      81.431  61.493  92.426  1.00  0.00     0.215 C 
ENDBRANCH  17  23
ENDBRANCH  12  14
ENDBRANCH  10  12
ENDBRANCH   1  10
BRANCH   4  25
HETATM   25  N5  UNL     1      71.977  65.690  94.174  1.00  0.00    -0.234 N 
ATOM     26  H52 UNL     1      71.414  65.508  93.343  1.00  0.00     0.174 HD
ATOM     27  H51 UNL     1      71.727  65.194  95.028  1.00  0.00     0.174 HD
ENDBRANCH   4  25
BRANCH   7  28
HETATM   28  N7  UNL     1      74.224  69.207  95.960  1.00  0.00    -0.213 N 
ATOM     29  H7  UNL     1      73.365  69.530  96.407  1.00  0.00     0.178 HD
BRANCH  28  30
HETATM   30  C8  UNL     1      75.464  69.773  96.413  1.00  0.00     0.184 C 
HETATM   31  C9  UNL     1      75.216  71.117  97.101  1.00  0.00     0.042 C 
BRANCH  30  32
HETATM   32  C10 UNL     1      76.034  68.869  97.446  1.00  0.00     0.254 C 
HETATM   33  N8  UNL     1      75.184  67.799  97.889  1.00  0.00    -0.060 NA
HETATM   34  O3  UNL     1      77.190  69.030  97.904  1.00  0.00    -0.275 OA
ENDBRANCH  30  32
ENDBRANCH  28  30
ENDBRANCH   7  28
TORSDOF 8
ENDMDL
MODEL 4
REMARK VINA RESULT: -8.757179161      1.584      7.283
REMARK  8 active torsions:
REMARK  status: ('A' for Active; 'I' for Inactive)
REMARK    1  A    between atoms: O1_2  and  C2_3 
REMARK       I    between atoms: C2_3  and  N1_5 
REMARK    2  A    between atoms: C4_7  and  N2_8 
REMARK    3  A    between atoms: N2_8  and  N3_10 
REMARK    4  A    between atoms: N3_10  and  C5_12 
REMARK    5  A    between atoms: C6_15  and  N5_16 
REMARK    6  A    between atoms: C7_21  and  N7_22 
REMARK    7  A    between atoms: N7_22  and  C8_24 
REMARK    8  A    between atoms: C8_24  and  C10_26 
ROOT
HETATM    1  C5  UNL     1      76.091  66.619  91.475  1.00  0.00     0.726 A 
HETATM    2  N4  UNL     1      76.909  67.455  90.815  1.00  0.00    -0.020 N 
ATOM      3  H4  UNL     1      76.556  68.381  90.573  1.00  0.00     0.203 HD
HETATM    4  C6  UNL     1      78.156  67.145  90.459  1.00  0.00     0.705 A 
HETATM    5  N6  UNL     1      78.607  65.922  90.785  1.00  0.00    -0.022 N 
ATOM      6  H6  UNL     1      79.557  65.655  90.527  1.00  0.00     0.203 HD
HETATM    7  C7  UNL     1      77.838  65.048  91.442  1.00  0.00     0.708 A 
HETATM    8  N9  UNL     1      76.591  65.389  91.785  1.00  0.00    -0.020 N 
ATOM      9  H9  UNL     1      76.007  64.721  92.286  1.00  0.00     0.203 HD
ENDROOT
BRANCH   1  10
HETATM   10  N3  UNL     1      74.886  66.915  91.820  1.00  0.00    -0.129 N 
ATOM     11  H3  UNL     1      74.270  67.426  91.188  1.00  0.00     0.205 HD
BRANCH  10  12
HETATM   12  N2  UNL     1      74.446  66.518  93.081  1.00  0.00    -0.269 N 
ATOM     13  H2  UNL     1      74.005  65.606  93.202  1.00  0.00     0.189 HD
BRANCH  12  14
HETATM   14  C4  UNL     1      74.609  67.379  94.194  1.00  0.00     0.154 A 
HETATM   15  C3  UNL     1      75.668  67.477  95.071  1.00  0.00     0.174 A 
HETATM   16  N1  UNL     1      75.426  68.425  95.991  1.00  0.00    -0.192 N 
HETATM   17  C2  UNL     1      76.303  68.806  97.066  1.00  0.00     0.386 C 
HETATM   18  N11 UNL     1      74.237  68.923  95.707  1.00  0.00    -0.230 N 
HETATM   19  O2  UNL     1      77.413  68.233  97.207  1.00  0.00    -0.236 OA
HETATM   20  N10 UNL     1      73.726  68.309  94.630  1.00  0.00    -0.268 N 
ATOM     21  H11 UNL     1      73.774  69.666  96.230  1.00  0.00     0.209 HD
ATOM     22  H10 UNL     1      72.820  68.510  94.207  1.00  0.00     0.190 HD
BRANCH  17  23
HETATM   23  O1  UNL     1      75.960  69.798  97.964  1.00  0.00    -0.307 OA
HETATM   24  C1  UNL     1      75.785  71.114  97.482  1.00  0.00     0.215 C 
ENDBRANCH  17  23
ENDBRANCH  12  14
ENDBRANCH  10  12
ENDBRANCH   1  10
BRANCH   4  25
HETATM   25  N5  UNL     1      78.919  67.968  89.826  1.00  0.00    -0.234 N 
ATOM     26  H52 UNL     1      79.643  68.483  90.327  1.00  0.00     0.174 HD
ATOM     27  H51 UNL     1      78.833  68.134  88.824  1.00  0.00     0.174 HD
ENDBRANCH   4  25
BRANCH   7  28
HETATM   28  N7  UNL     1      78.301  63.896  91.734  1.00  0.00    -0.213 N 
ATOM     29  H7  UNL     1      77.934  63.094  91.222  1.00  0.00     0.178 HD
BRANCH  28  30
HETATM   30  C8  UNL     1      79.302  63.646  92.734  1.00  0.00     0.184 C 
HETATM   31  C9  UNL     1      78.955  62.388  93.533  1.00  0.00     0.042 C 
BRANCH  30  32
HETATM   32  C10 UNL     1      80.587  63.366  92.041  1.00  0.00     0.254 C 
HETATM   33  N8  UNL     1      81.056  62.009  92.103  1.00  0.00    -0.060 NA
HETATM   34  O3  UNL     1      81.225  64.260  91.438  1.00  0.00    -0.275 OA
ENDBRANCH  30  32
ENDBRANCH  28  30
ENDBRANCH   7  28
TORSDOF 8
ENDMDL
MODEL 5
REMARK VINA RESULT: -8.516264903      2.030      7.443
REMARK  8 active torsions:
REMARK  status: ('A' for Active; 'I' for Inactive)
REMARK    1  A    between atoms: O1_2  and  C2_3 
REMARK       I    between atoms: C2_3  and  N1_5 
REMARK    2  A    between atoms: C4_7  and  N2_8 
REMARK    3  A    between atoms: N2_8  and  N3_10 
REMARK    4  A    between atoms: N3_10  and  C5_12 
REMARK    5  A    between atoms: C6_15  and  N5_16 
REMARK    6  A    between atoms: C7_21  and  N7_22 
REMARK    7  A    between atoms: N7_22  and  C8_24 
REMARK    8  A    between atoms: C8_24  and  C10_26 
ROOT
HETATM    1  C5  UNL     1      76.190  66.681  91.343  1.00  0.00     0.726 A 
HETATM    2  N4  UNL     1      77.026  67.489  90.671  1.00  0.00    -0.020 N 
ATOM      3  H4  UNL     1      76.692  68.417  90.411  1.00  0.00     0.203 HD
HETATM    4  C6  UNL     1      78.268  67.148  90.324  1.00  0.00     0.705 A 
HETATM    5  N6  UNL     1      78.694  65.922  90.675  1.00  0.00    -0.022 N 
ATOM      6  H6  UNL     1      79.639  65.632  90.425  1.00  0.00     0.203 HD
HETATM    7  C7  UNL     1      77.905  65.075  91.344  1.00  0.00     0.708 A 
HETATM    8  N9  UNL     1      76.665  65.447  91.677  1.00  0.00    -0.020 N 
ATOM      9  H9  UNL     1      76.066  64.800  92.188  1.00  0.00     0.203 HD
ENDROOT
BRANCH   1  10
HETATM   10  N3  UNL     1      74.990  67.007  91.678  1.00  0.00    -0.129 N 
ATOM     11  H3  UNL     1      74.187  66.489  91.320  1.00  0.00     0.205 HD
BRANCH  10  12
HETATM   12  N2  UNL     1      74.817  68.085  92.544  1.00  0.00    -0.269 N 
ATOM     13  H2  UNL     1      75.078  69.024  92.245  1.00  0.00     0.189 HD
BRANCH  12  14
HETATM   14  C4  UNL     1      74.278  67.877  93.838  1.00  0.00     0.154 A 
HETATM   15  C3  UNL     1      74.773  68.278  95.061  1.00  0.00     0.174 A 
HETATM   16  N1  UNL     1      73.954  67.878  96.049  1.00  0.00    -0.192 N 
HETATM   17  C2  UNL     1      74.146  68.114  97.455  1.00  0.00     0.386 C 
HETATM   18  N11 UNL     1      72.959  67.236  95.468  1.00  0.00    -0.230 N 
HETATM   19  O2  UNL     1      75.154  68.747  97.856  1.00  0.00    -0.236 OA
HETATM   20  N10 UNL     1      73.131  67.222  94.138  1.00  0.00    -0.268 N 
ATOM     21  H11 UNL     1      72.172  66.812  95.959  1.00  0.00     0.209 HD
ATOM     22  H10 UNL     1      72.502  66.789  93.463  1.00  0.00     0.190 HD
BRANCH  17  23
HETATM   23  O1  UNL     1      73.243  67.659  98.395  1.00  0.00    -0.307 OA
HETATM   24  C1  UNL     1      73.492  66.421  99.028  1.00  0.00     0.215 C 
ENDBRANCH  17  23
ENDBRANCH  12  14
ENDBRANCH  10  12
ENDBRANCH   1  10
BRANCH   4  25
HETATM   25  N5  UNL     1      79.049  67.944  89.680  1.00  0.00    -0.234 N 
ATOM     26  H52 UNL     1      79.971  68.172  90.054  1.00  0.00     0.174 HD
ATOM     27  H51 UNL     1      78.786  68.369  88.791  1.00  0.00     0.174 HD
ENDBRANCH   4  25
BRANCH   7  28
HETATM   28  N7  UNL     1      78.345  63.920  91.659  1.00  0.00    -0.213 N 
ATOM     29  H7  UNL     1      77.984  63.119  91.142  1.00  0.00     0.178 HD
BRANCH  28  30
HETATM   30  C8  UNL     1      79.312  63.666  92.692  1.00  0.00     0.184 C 
HETATM   31  C9  UNL     1      78.911  62.432  93.503  1.00  0.00     0.042 C 
BRANCH  30  32
HETATM   32  C10 UNL     1      80.608  63.342  92.041  1.00  0.00     0.254 C 
HETATM   33  N8  UNL     1      81.040  61.975  92.139  1.00  0.00    -0.060 NA
HETATM   34  O3  UNL     1      81.284  64.209  91.441  1.00  0.00    -0.275 OA
ENDBRANCH  30  32
ENDBRANCH  28  30
ENDBRANCH   7  28
TORSDOF 8
ENDMDL
