MODEL 1
REMARK VINA RESULT: -8.006607537      0.000      0.000
REMARK  9 active torsions:
REMARK  status: ('A' for Active; 'I' for Inactive)
REMARK    1  A    between atoms: C2_2  and  C3_3 
REMARK    2  A    between atoms: C2_2  and  C8_8 
REMARK    3  A    between atoms: C4_4  and  C5_5 
REMARK    4  A    between atoms: C5_5  and  C6_6 
REMARK    5  A    between atoms: C9_9  and  C10_10 
REMARK    6  A    between atoms: C11_11  and  C12_12 
REMARK    7  A    between atoms: C12_12  and  O1_13 
REMARK    8  A    between atoms: C13_15  and  C14_16 
REMARK    9  A    between atoms: C14_16  and  N1_17 
REMARK       I    between atoms: N1_17  and  C15_19 
ROOT
HETATM    1  C8  UNL     1      23.234  54.567  92.030  1.00  0.00     0.041 A 
HETATM    2  C9  UNL     1      24.141  55.311  91.139  1.00  0.00     0.024 A 
HETATM    3  C13 UNL     1      23.653  53.952  90.718  1.00  0.00     0.021 A 
ENDROOT
BRANCH   1   4
HETATM    4  C2  UNL     1      23.618  53.929  93.278  1.00  0.00    -0.009 C 
HETATM    5  C1  UNL     1      23.300  52.700  93.572  1.00  0.00     0.029 C 
BRANCH   4   6
HETATM    6  C3  UNL     1      24.382  54.686  94.263  1.00  0.00    -0.072 C 
HETATM    7  C4  UNL     1      24.999  55.308  95.090  1.00  0.00    -0.101 C 
BRANCH   7   8
HETATM    8  C5  UNL     1      25.726  56.057  96.110  1.00  0.00     0.094 C 
BRANCH   8   9
HETATM    9  C6  UNL     1      24.937  57.307  96.520  1.00  0.00     0.007 C 
HETATM   10  C7  UNL     1      23.705  56.915  97.298  1.00  0.00     0.006 C 
ENDBRANCH   8   9
ENDBRANCH   7   8
ENDBRANCH   4   6
ENDBRANCH   1   4
BRANCH   2  11
HETATM   11  C10 UNL     1      25.589  55.419  91.303  1.00  0.00    -0.023 C 
HETATM   12  C11 UNL     1      26.372  56.302  90.717  1.00  0.00    -0.005 C 
BRANCH  12  13
HETATM   13  C12 UNL     1      27.842  56.355  90.930  1.00  0.00     0.191 C 
BRANCH  13  14
HETATM   14  O1  UNL     1      28.316  57.585  90.500  1.00  0.00    -0.397 OA
ATOM     15  H1  UNL     1      27.947  58.268  91.048  1.00  0.00     0.209 HD
ENDBRANCH  13  14
ENDBRANCH  12  13
ENDBRANCH   2  11
BRANCH   3  16
HETATM   16  C14 UNL     1      22.627  53.860  89.606  1.00  0.00     0.128 C 
BRANCH  16  17
HETATM   17  N1  UNL     1      22.983  54.766  88.519  1.00  0.00    -0.361 N 
HETATM   18  C15 UNL     1      22.035  55.688  87.981  1.00  0.00     0.213 C 
HETATM   19  C16 UNL     1      22.457  56.584  86.878  1.00  0.00     0.117 C 
HETATM   20  O2  UNL     1      20.852  55.752  88.426  1.00  0.00    -0.274 OA
ATOM     21  H1  UNL     1      23.928  54.741  88.137  1.00  0.00     0.162 HD
ENDBRANCH  16  17
ENDBRANCH   3  16
TORSDOF 9
ENDMDL
MODEL 2
REMARK VINA RESULT: -7.844427111      2.915      5.602
REMARK  9 active torsions:
REMARK  status: ('A' for Active; 'I' for Inactive)
REMARK    1  A    between atoms: C2_2  and  C3_3 
REMARK    2  A    between atoms: C2_2  and  C8_8 
REMARK    3  A    between atoms: C4_4  and  C5_5 
REMARK    4  A    between atoms: C5_5  and  C6_6 
REMARK    5  A    between atoms: C9_9  and  C10_10 
REMARK    6  A    between atoms: C11_11  and  C12_12 
REMARK    7  A    between atoms: C12_12  and  O1_13 
REMARK    8  A    between atoms: C13_15  and  C14_16 
REMARK    9  A    between atoms: C14_16  and  N1_17 
REMARK       I    between atoms: N1_17  and  C15_19 
ROOT
HETATM    1  C8  UNL     1      24.157  53.750  92.629  1.00  0.00     0.041 A 
HETATM    2  C9  UNL     1      23.612  53.316  93.926  1.00  0.00     0.024 A 
HETATM    3  C13 UNL     1      22.703  54.000  92.942  1.00  0.00     0.021 A 
ENDROOT
BRANCH   1   4
HETATM    4  C2  UNL     1      25.053  54.876  92.429  1.00  0.00    -0.009 C 
HETATM    5  C1  UNL     1      25.811  55.354  93.376  1.00  0.00     0.029 C 
BRANCH   4   6
HETATM    6  C3  UNL     1      25.113  55.521  91.123  1.00  0.00    -0.072 C 
HETATM    7  C4  UNL     1      25.142  56.054  90.042  1.00  0.00    -0.101 C 
BRANCH   7   8
HETATM    8  C5  UNL     1      25.150  56.702  88.735  1.00  0.00     0.094 C 
BRANCH   8   9
HETATM    9  C6  UNL     1      24.315  55.895  87.732  1.00  0.00     0.007 C 
HETATM   10  C7  UNL     1      24.570  56.383  86.328  1.00  0.00     0.006 C 
ENDBRANCH   8   9
ENDBRANCH   7   8
ENDBRANCH   4   6
ENDBRANCH   1   4
BRANCH   2  11
HETATM   11  C10 UNL     1      23.782  54.019  95.195  1.00  0.00    -0.023 C 
HETATM   12  C11 UNL     1      22.892  54.799  95.775  1.00  0.00    -0.005 C 
BRANCH  12  13
HETATM   13  C12 UNL     1      23.133  55.486  97.072  1.00  0.00     0.191 C 
BRANCH  13  14
HETATM   14  O1  UNL     1      22.602  54.716  98.095  1.00  0.00    -0.397 OA
ATOM     15  H1  UNL     1      21.688  54.946  98.214  1.00  0.00     0.209 HD
ENDBRANCH  13  14
ENDBRANCH  12  13
ENDBRANCH   2  11
BRANCH   3  16
HETATM   16  C14 UNL     1      21.658  53.172  92.220  1.00  0.00     0.128 C 
BRANCH  16  17
HETATM   17  N1  UNL     1      21.076  53.943  91.126  1.00  0.00    -0.361 N 
HETATM   18  C15 UNL     1      21.608  53.871  89.803  1.00  0.00     0.213 C 
HETATM   19  C16 UNL     1      20.973  54.677  88.733  1.00  0.00     0.117 C 
HETATM   20  O2  UNL     1      22.603  53.138  89.532  1.00  0.00    -0.274 OA
ATOM     21  H1  UNL     1      20.274  54.544  91.310  1.00  0.00     0.162 HD
ENDBRANCH  16  17
ENDBRANCH   3  16
TORSDOF 9
ENDMDL
MODEL 3
REMARK VINA RESULT: -7.820165066      2.454      3.722
REMARK  9 active torsions:
REMARK  status: ('A' for Active; 'I' for Inactive)
REMARK    1  A    between atoms: C2_2  and  C3_3 
REMARK    2  A    between atoms: C2_2  and  C8_8 
REMARK    3  A    between atoms: C4_4  and  C5_5 
REMARK    4  A    between atoms: C5_5  and  C6_6 
REMARK    5  A    between atoms: C9_9  and  C10_10 
REMARK    6  A    between atoms: C11_11  and  C12_12 
REMARK    7  A    between atoms: C12_12  and  O1_13 
REMARK    8  A    between atoms: C13_15  and  C14_16 
REMARK    9  A    between atoms: C14_16  and  N1_17 
REMARK       I    between atoms: N1_17  and  C15_19 
ROOT
HETATM    1  C8  UNL     1      23.076  55.976  88.741  1.00  0.00     0.041 A 
HETATM    2  C9  UNL     1      24.388  56.646  88.739  1.00  0.00     0.024 A 
HETATM    3  C13 UNL     1      24.070  55.655  87.654  1.00  0.00     0.021 A 
ENDROOT
BRANCH   1   4
HETATM    4  C2  UNL     1      22.665  54.938  89.670  1.00  0.00    -0.009 C 
HETATM    5  C1  UNL     1      21.693  54.106  89.417  1.00  0.00     0.029 C 
BRANCH   4   6
HETATM    6  C3  UNL     1      23.350  54.811  90.951  1.00  0.00    -0.072 C 
HETATM    7  C4  UNL     1      23.933  54.700  92.000  1.00  0.00    -0.101 C 
BRANCH   7   8
HETATM    8  C5  UNL     1      24.660  54.561  93.257  1.00  0.00     0.094 C 
BRANCH   8   9
HETATM    9  C6  UNL     1      25.885  55.486  93.271  1.00  0.00     0.007 C 
HETATM   10  C7  UNL     1      26.224  55.881  94.687  1.00  0.00     0.006 C 
ENDBRANCH   8   9
ENDBRANCH   7   8
ENDBRANCH   4   6
ENDBRANCH   1   4
BRANCH   2  11
HETATM   11  C10 UNL     1      25.523  56.288  89.585  1.00  0.00    -0.023 C 
HETATM   12  C11 UNL     1      26.780  56.631  89.382  1.00  0.00    -0.005 C 
BRANCH  12  13
HETATM   13  C12 UNL     1      27.889  56.230  90.288  1.00  0.00     0.191 C 
BRANCH  13  14
HETATM   14  O1  UNL     1      28.286  57.332  91.030  1.00  0.00    -0.397 OA
ATOM     15  H1  UNL     1      29.234  57.343  91.085  1.00  0.00     0.209 HD
ENDBRANCH  13  14
ENDBRANCH  12  13
ENDBRANCH   2  11
BRANCH   3  16
HETATM   16  C14 UNL     1      23.799  56.169  86.254  1.00  0.00     0.128 C 
BRANCH  16  17
HETATM   17  N1  UNL     1      24.937  55.885  85.386  1.00  0.00    -0.361 N 
HETATM   18  C15 UNL     1      26.058  56.766  85.320  1.00  0.00     0.213 C 
HETATM   19  C16 UNL     1      27.184  56.423  84.419  1.00  0.00     0.117 C 
HETATM   20  O2  UNL     1      26.105  57.825  86.011  1.00  0.00    -0.274 OA
ATOM     21  H1  UNL     1      24.931  55.040  84.815  1.00  0.00     0.162 HD
ENDBRANCH  16  17
ENDBRANCH   3  16
TORSDOF 9
ENDMDL
MODEL 4
REMARK VINA RESULT: -7.811675735      3.433      6.844
REMARK  9 active torsions:
REMARK  status: ('A' for Active; 'I' for Inactive)
REMARK    1  A    between atoms: C2_2  and  C3_3 
REMARK    2  A    between atoms: C2_2  and  C8_8 
REMARK    3  A    between atoms: C4_4  and  C5_5 
REMARK    4  A    between atoms: C5_5  and  C6_6 
REMARK    5  A    between atoms: C9_9  and  C10_10 
REMARK    6  A    between atoms: C11_11  and  C12_12 
REMARK    7  A    between atoms: C12_12  and  O1_13 
REMARK    8  A    between atoms: C13_15  and  C14_16 
REMARK    9  A    between atoms: C14_16  and  N1_17 
REMARK       I    between atoms: N1_17  and  C15_19 
ROOT
HETATM    1  C8  UNL     1      24.549  55.696  88.145  1.00  0.00     0.041 A 
HETATM    2  C9  UNL     1      25.693  56.174  88.942  1.00  0.00     0.024 A 
HETATM    3  C13 UNL     1      24.332  56.109  89.579  1.00  0.00     0.021 A 
ENDROOT
BRANCH   1   4
HETATM    4  C2  UNL     1      23.902  56.438  87.077  1.00  0.00    -0.009 C 
HETATM    5  C1  UNL     1      22.607  56.492  86.937  1.00  0.00     0.029 C 
BRANCH   4   6
HETATM    6  C3  UNL     1      24.720  57.150  86.102  1.00  0.00    -0.072 C 
HETATM    7  C4  UNL     1      25.391  57.756  85.306  1.00  0.00    -0.101 C 
BRANCH   7   8
HETATM    8  C5  UNL     1      26.200  58.512  84.355  1.00  0.00     0.094 C 
BRANCH   8   9
HETATM    9  C6  UNL     1      26.690  59.820  84.991  1.00  0.00     0.007 C 
HETATM   10  C7  UNL     1      26.684  60.931  83.970  1.00  0.00     0.006 C 
ENDBRANCH   8   9
ENDBRANCH   7   8
ENDBRANCH   4   6
ENDBRANCH   1   4
BRANCH   2  11
HETATM   11  C10 UNL     1      26.275  57.511  88.871  1.00  0.00    -0.023 C 
HETATM   12  C11 UNL     1      27.513  57.801  88.520  1.00  0.00    -0.005 C 
BRANCH  12  13
HETATM   13  C12 UNL     1      28.040  59.190  88.469  1.00  0.00     0.191 C 
BRANCH  13  14
HETATM   14  O1  UNL     1      28.981  59.351  89.475  1.00  0.00    -0.397 OA
ATOM     15  H1  UNL     1      28.533  59.556  90.287  1.00  0.00     0.209 HD
ENDBRANCH  13  14
ENDBRANCH  12  13
ENDBRANCH   2  11
BRANCH   3  16
HETATM   16  C14 UNL     1      24.060  55.029  90.607  1.00  0.00     0.128 C 
BRANCH  16  17
HETATM   17  N1  UNL     1      22.623  54.838  90.766  1.00  0.00    -0.361 N 
HETATM   18  C15 UNL     1      21.924  53.827  90.040  1.00  0.00     0.213 C 
HETATM   19  C16 UNL     1      20.463  53.681  90.245  1.00  0.00     0.117 C 
HETATM   20  O2  UNL     1      22.525  53.061  89.233  1.00  0.00    -0.274 OA
ATOM     21  H1  UNL     1      22.106  55.439  91.408  1.00  0.00     0.162 HD
ENDBRANCH  16  17
ENDBRANCH   3  16
TORSDOF 9
ENDMDL
MODEL 5
REMARK VINA RESULT: -7.793326369      3.265      6.246
REMARK  9 active torsions:
REMARK  status: ('A' for Active; 'I' for Inactive)
REMARK    1  A    between atoms: C2_2  and  C3_3 
REMARK    2  A    between atoms: C2_2  and  C8_8 
REMARK    3  A    between atoms: C4_4  and  C5_5 
REMARK    4  A    between atoms: C5_5  and  C6_6 
REMARK    5  A    between atoms: C9_9  and  C10_10 
REMARK    6  A    between atoms: C11_11  and  C12_12 
REMARK    7  A    between atoms: C12_12  and  O1_13 
REMARK    8  A    between atoms: C13_15  and  C14_16 
REMARK    9  A    between atoms: C14_16  and  N1_17 
REMARK       I    between atoms: N1_17  and  C15_19 
ROOT
HETATM    1  C8  UNL     1      26.729  56.455  89.433  1.00  0.00     0.041 A 
HETATM    2  C9  UNL     1      25.988  56.650  88.175  1.00  0.00     0.024 A 
HETATM    3  C13 UNL     1      26.646  57.834  88.829  1.00  0.00     0.021 A 
ENDROOT
BRANCH   1   4
HETATM    4  C2  UNL     1      26.126  56.201  90.731  1.00  0.00    -0.009 C 
HETATM    5  C1  UNL     1      26.708  56.516  91.855  1.00  0.00     0.029 C 
BRANCH   4   6
HETATM    6  C3  UNL     1      24.821  55.557  90.801  1.00  0.00    -0.072 C 
HETATM    7  C4  UNL     1      23.743  55.023  90.879  1.00  0.00    -0.101 C 
BRANCH   7   8
HETATM    8  C5  UNL     1      22.440  54.378  91.000  1.00  0.00     0.094 C 
BRANCH   8   9
HETATM    9  C6  UNL     1      21.996  53.810  89.646  1.00  0.00     0.007 C 
HETATM   10  C7  UNL     1      20.521  54.048  89.438  1.00  0.00     0.006 C 
ENDBRANCH   8   9
ENDBRANCH   7   8
ENDBRANCH   4   6
ENDBRANCH   1   4
BRANCH   2  11
HETATM   11  C10 UNL     1      24.536  56.745  88.052  1.00  0.00    -0.023 C 
HETATM   12  C11 UNL     1      23.804  56.233  87.082  1.00  0.00    -0.005 C 
BRANCH  12  13
HETATM   13  C12 UNL     1      22.325  56.368  87.021  1.00  0.00     0.191 C 
BRANCH  13  14
HETATM   14  O1  UNL     1      21.902  57.170  88.069  1.00  0.00    -0.397 OA
ATOM     15  H1  UNL     1      21.120  57.640  87.803  1.00  0.00     0.209 HD
ENDBRANCH  13  14
ENDBRANCH  12  13
ENDBRANCH   2  11
BRANCH   3  16
HETATM   16  C14 UNL     1      27.892  58.417  88.192  1.00  0.00     0.128 C 
BRANCH  16  17
HETATM   17  N1  UNL     1      27.592  58.895  86.848  1.00  0.00    -0.361 N 
HETATM   18  C15 UNL     1      27.937  60.218  86.436  1.00  0.00     0.213 C 
HETATM   19  C16 UNL     1      27.606  60.646  85.056  1.00  0.00     0.117 C 
HETATM   20  O2  UNL     1      28.514  61.023  87.223  1.00  0.00    -0.274 OA
ATOM     21  H1  UNL     1      27.126  58.272  86.188  1.00  0.00     0.162 HD
ENDBRANCH  16  17
ENDBRANCH   3  16
TORSDOF 9
ENDMDL
