MODEL 1
REMARK VINA RESULT: -7.395689480      0.000      0.000
REMARK  5 active torsions:
REMARK  status: ('A' for Active; 'I' for Inactive)
REMARK    1  A    between atoms: N1_2  and  C1_4 
REMARK    2  A    between atoms: C4_7  and  C5_8 
REMARK    3  A    between atoms: C5_8  and  O3_9 
REMARK    4  A    between atoms: N2_11  and  O4_13 
REMARK    5  A    between atoms: C7_16  and  N3_17 
ROOT
HETATM    1  C1  UNL     1       0.479  24.682  11.261  1.00  0.00     0.130 A 
HETATM    2  C2  UNL     1      -0.034  23.869  12.278  1.00  0.00     0.039 A 
HETATM    3  C3  UNL     1      -0.958  24.405  13.148  1.00  0.00     0.018 A 
HETATM    4  C4  UNL     1      -1.399  25.711  13.056  1.00  0.00     0.019 A 
HETATM    5  C6  UNL     1      -0.857  26.467  12.031  1.00  0.00     0.048 A 
HETATM    6  C7  UNL     1       0.067  25.996  11.129  1.00  0.00     0.072 A 
ENDROOT
BRANCH   4   7
HETATM    7  C5  UNL     1      -2.367  26.275  13.963  1.00  0.00     0.170 C 
HETATM    8  N2  UNL     1      -2.019  26.751  15.091  1.00  0.00    -0.247 N 
ATOM      9  H2  UNL     1      -1.036  26.734  15.366  1.00  0.00     0.196 HD
BRANCH   7  10
HETATM   10  O3  UNL     1      -3.705  26.289  13.572  1.00  0.00    -0.344 OA
ATOM     11  H3  UNL     1      -3.982  25.679  12.899  1.00  0.00     0.219 HD
ENDBRANCH   7  10
BRANCH   8  12
HETATM   12  O4  UNL     1      -2.967  27.293  15.955  1.00  0.00    -0.288 OA
ATOM     13  H4  UNL     1      -2.703  27.868  16.663  1.00  0.00     0.244 HD
ENDBRANCH   8  12
ENDBRANCH   4   7
BRANCH   6  14
HETATM   14  N3  UNL     1       0.537  26.875  10.129  1.00  0.00    -0.331 N 
HETATM   15  C8  UNL     1       1.738  27.468  10.159  1.00  0.00     0.097 A 
HETATM   16  C9  UNL     1       1.809  28.245   9.004  1.00  0.00     0.019 A 
HETATM   17  C10 UNL     1       0.624  28.103   8.285  1.00  0.00     0.019 A 
HETATM   18  C11 UNL     1      -0.154  27.230   9.027  1.00  0.00     0.097 A 
ENDBRANCH   6  14
BRANCH   1  19
HETATM   19  N1  UNL     1       1.431  24.151  10.353  1.00  0.00    -0.113 N 
HETATM   20  O1  UNL     1       2.586  23.959  10.779  1.00  0.00    -0.532 OA
HETATM   21  O2  UNL     1       1.128  23.852   9.061  1.00  0.00    -0.532 OA
ENDBRANCH   1  19
TORSDOF 5
ENDMDL
MODEL 2
REMARK VINA RESULT: -7.337979920      3.993      7.351
REMARK  5 active torsions:
REMARK  status: ('A' for Active; 'I' for Inactive)
REMARK    1  A    between atoms: N1_2  and  C1_4 
REMARK    2  A    between atoms: C4_7  and  C5_8 
REMARK    3  A    between atoms: C5_8  and  O3_9 
REMARK    4  A    between atoms: N2_11  and  O4_13 
REMARK    5  A    between atoms: C7_16  and  N3_17 
ROOT
HETATM    1  C1  UNL     1       1.034  29.634   8.030  1.00  0.00     0.130 A 
HETATM    2  C2  UNL     1       1.880  30.118   7.025  1.00  0.00     0.039 A 
HETATM    3  C3  UNL     1       3.067  29.459   6.789  1.00  0.00     0.018 A 
HETATM    4  C4  UNL     1       3.454  28.341   7.502  1.00  0.00     0.019 A 
HETATM    5  C6  UNL     1       2.577  27.908   8.482  1.00  0.00     0.048 A 
HETATM    6  C7  UNL     1       1.379  28.517   8.769  1.00  0.00     0.072 A 
ENDROOT
BRANCH   4   7
HETATM    7  C5  UNL     1       4.694  27.648   7.258  1.00  0.00     0.170 C 
HETATM    8  N2  UNL     1       5.113  26.740   8.046  1.00  0.00    -0.247 N 
ATOM      9  H2  UNL     1       4.565  26.493   8.870  1.00  0.00     0.196 HD
BRANCH   7  10
HETATM   10  O3  UNL     1       5.432  27.998   6.128  1.00  0.00    -0.344 OA
ATOM     11  H3  UNL     1       6.044  27.362   5.777  1.00  0.00     0.219 HD
ENDBRANCH   7  10
BRANCH   8  12
HETATM   12  O4  UNL     1       6.314  26.081   7.794  1.00  0.00    -0.288 OA
ATOM     13  H4  UNL     1       6.465  25.206   8.131  1.00  0.00     0.244 HD
ENDBRANCH   8  12
ENDBRANCH   4   7
BRANCH   6  14
HETATM   14  N3  UNL     1       0.577  27.969   9.795  1.00  0.00    -0.331 N 
HETATM   15  C8  UNL     1       0.586  28.404  11.062  1.00  0.00     0.097 A 
HETATM   16  C9  UNL     1      -0.334  27.608  11.744  1.00  0.00     0.019 A 
HETATM   17  C10 UNL     1      -0.890  26.690  10.856  1.00  0.00     0.019 A 
HETATM   18  C11 UNL     1      -0.290  26.950   9.635  1.00  0.00     0.097 A 
ENDBRANCH   6  14
BRANCH   1  19
HETATM   19  N1  UNL     1      -0.194  30.295   8.289  1.00  0.00    -0.113 N 
HETATM   20  O1  UNL     1      -1.168  30.000   7.572  1.00  0.00    -0.532 OA
HETATM   21  O2  UNL     1      -0.336  31.222   9.276  1.00  0.00    -0.532 OA
ENDBRANCH   1  19
TORSDOF 5
ENDMDL
MODEL 3
REMARK VINA RESULT: -7.242653452      1.061      1.449
REMARK  5 active torsions:
REMARK  status: ('A' for Active; 'I' for Inactive)
REMARK    1  A    between atoms: N1_2  and  C1_4 
REMARK    2  A    between atoms: C4_7  and  C5_8 
REMARK    3  A    between atoms: C5_8  and  O3_9 
REMARK    4  A    between atoms: N2_11  and  O4_13 
REMARK    5  A    between atoms: C7_16  and  N3_17 
ROOT
HETATM    1  C1  UNL     1       0.135  24.764  10.517  1.00  0.00     0.130 A 
HETATM    2  C2  UNL     1      -0.340  23.853  11.468  1.00  0.00     0.039 A 
HETATM    3  C3  UNL     1      -0.760  24.334  12.689  1.00  0.00     0.018 A 
HETATM    4  C4  UNL     1      -0.732  25.677  13.011  1.00  0.00     0.019 A 
HETATM    5  C6  UNL     1      -0.252  26.530  12.032  1.00  0.00     0.048 A 
HETATM    6  C7  UNL     1       0.181  26.118  10.795  1.00  0.00     0.072 A 
ENDROOT
BRANCH   4   7
HETATM    7  C5  UNL     1      -1.171  26.184  14.287  1.00  0.00     0.170 C 
HETATM    8  N2  UNL     1      -2.354  26.624  14.455  1.00  0.00    -0.247 N 
ATOM      9  H2  UNL     1      -3.010  26.620  13.674  1.00  0.00     0.196 HD
BRANCH   7  10
HETATM   10  O3  UNL     1      -0.261  26.182  15.344  1.00  0.00    -0.344 OA
ATOM     11  H3  UNL     1       0.633  26.451  15.167  1.00  0.00     0.219 HD
ENDBRANCH   7  10
BRANCH   8  12
HETATM   12  O4  UNL     1      -2.761  27.109  15.695  1.00  0.00    -0.288 OA
ATOM     13  H4  UNL     1      -3.166  27.965  15.770  1.00  0.00     0.244 HD
ENDBRANCH   8  12
ENDBRANCH   4   7
BRANCH   6  14
HETATM   14  N3  UNL     1       0.645  27.096   9.887  1.00  0.00    -0.331 N 
HETATM   15  C8  UNL     1       1.940  27.366   9.676  1.00  0.00     0.097 A 
HETATM   16  C9  UNL     1       1.967  28.380   8.721  1.00  0.00     0.019 A 
HETATM   17  C10 UNL     1       0.661  28.709   8.366  1.00  0.00     0.019 A 
HETATM   18  C11 UNL     1      -0.146  27.876   9.124  1.00  0.00     0.097 A 
ENDBRANCH   6  14
BRANCH   1  19
HETATM   19  N1  UNL     1       0.571  24.292   9.253  1.00  0.00    -0.113 N 
HETATM   20  O1  UNL     1      -0.190  24.462   8.282  1.00  0.00    -0.532 OA
HETATM   21  O2  UNL     1       1.770  23.672   9.072  1.00  0.00    -0.532 OA
ENDBRANCH   1  19
TORSDOF 5
ENDMDL
MODEL 4
REMARK VINA RESULT: -7.176784952      4.216      7.793
REMARK  5 active torsions:
REMARK  status: ('A' for Active; 'I' for Inactive)
REMARK    1  A    between atoms: N1_2  and  C1_4 
REMARK    2  A    between atoms: C4_7  and  C5_8 
REMARK    3  A    between atoms: C5_8  and  O3_9 
REMARK    4  A    between atoms: N2_11  and  O4_13 
REMARK    5  A    between atoms: C7_16  and  N3_17 
ROOT
HETATM    1  C1  UNL     1       1.952  29.370   7.453  1.00  0.00     0.130 A 
HETATM    2  C2  UNL     1       2.901  29.707   6.482  1.00  0.00     0.039 A 
HETATM    3  C3  UNL     1       4.026  28.920   6.358  1.00  0.00     0.018 A 
HETATM    4  C4  UNL     1       4.252  27.813   7.153  1.00  0.00     0.019 A 
HETATM    5  C6  UNL     1       3.278  27.529   8.095  1.00  0.00     0.048 A 
HETATM    6  C7  UNL     1       2.135  28.270   8.271  1.00  0.00     0.072 A 
ENDROOT
BRANCH   4   7
HETATM    7  C5  UNL     1       5.426  26.987   7.027  1.00  0.00     0.170 C 
HETATM    8  N2  UNL     1       6.093  26.944   5.943  1.00  0.00    -0.247 N 
ATOM      9  H2  UNL     1       5.796  27.503   5.144  1.00  0.00     0.196 HD
BRANCH   7  10
HETATM   10  O3  UNL     1       5.820  26.229   8.129  1.00  0.00    -0.344 OA
ATOM     11  H3  UNL     1       6.171  25.360   7.974  1.00  0.00     0.219 HD
ENDBRANCH   7  10
BRANCH   8  12
HETATM   12  O4  UNL     1       7.226  26.141   5.840  1.00  0.00    -0.288 OA
ATOM     13  H4  UNL     1       8.015  26.352   6.325  1.00  0.00     0.244 HD
ENDBRANCH   8  12
ENDBRANCH   4   7
BRANCH   6  14
HETATM   14  N3  UNL     1       1.221  27.866   9.270  1.00  0.00    -0.331 N 
HETATM   15  C8  UNL     1       0.373  26.838   9.134  1.00  0.00     0.097 A 
HETATM   16  C9  UNL     1      -0.343  26.776  10.328  1.00  0.00     0.019 A 
HETATM   17  C10 UNL     1       0.096  27.789  11.178  1.00  0.00     0.019 A 
HETATM   18  C11 UNL     1       1.085  28.455  10.474  1.00  0.00     0.097 A 
ENDBRANCH   6  14
BRANCH   1  19
HETATM   19  N1  UNL     1       0.786  30.165   7.597  1.00  0.00    -0.113 N 
HETATM   20  O1  UNL     1       0.940  31.396   7.708  1.00  0.00    -0.532 OA
HETATM   21  O2  UNL     1      -0.468  29.636   7.617  1.00  0.00    -0.532 OA
ENDBRANCH   1  19
TORSDOF 5
ENDMDL
MODEL 5
REMARK VINA RESULT: -7.156790832      3.745      7.514
REMARK  5 active torsions:
REMARK  status: ('A' for Active; 'I' for Inactive)
REMARK    1  A    between atoms: N1_2  and  C1_4 
REMARK    2  A    between atoms: C4_7  and  C5_8 
REMARK    3  A    between atoms: C5_8  and  O3_9 
REMARK    4  A    between atoms: N2_11  and  O4_13 
REMARK    5  A    between atoms: C7_16  and  N3_17 
ROOT
HETATM    1  C1  UNL     1       1.850  28.610   8.405  1.00  0.00     0.130 A 
HETATM    2  C2  UNL     1       2.759  29.364   7.654  1.00  0.00     0.039 A 
HETATM    3  C3  UNL     1       3.943  28.775   7.267  1.00  0.00     0.018 A 
HETATM    4  C4  UNL     1       4.267  27.471   7.589  1.00  0.00     0.019 A 
HETATM    5  C6  UNL     1       3.330  26.775   8.332  1.00  0.00     0.048 A 
HETATM    6  C7  UNL     1       2.131  27.301   8.750  1.00  0.00     0.072 A 
ENDROOT
BRANCH   4   7
HETATM    7  C5  UNL     1       5.504  26.851   7.185  1.00  0.00     0.170 C 
HETATM    8  N2  UNL     1       5.944  26.962   5.996  1.00  0.00    -0.247 N 
ATOM      9  H2  UNL     1       5.415  27.499   5.309  1.00  0.00     0.196 HD
BRANCH   7  10
HETATM   10  O3  UNL     1       6.215  26.121   8.137  1.00  0.00    -0.344 OA
ATOM     11  H3  UNL     1       6.363  26.517   8.988  1.00  0.00     0.219 HD
ENDBRANCH   7  10
BRANCH   8  12
HETATM   12  O4  UNL     1       7.142  26.357   5.624  1.00  0.00    -0.288 OA
ATOM     13  H4  UNL     1       7.952  26.571   6.072  1.00  0.00     0.244 HD
ENDBRANCH   8  12
ENDBRANCH   4   7
BRANCH   6  14
HETATM   14  N3  UNL     1       1.263  26.477   9.502  1.00  0.00    -0.331 N 
HETATM   15  C8  UNL     1       0.152  25.916   9.007  1.00  0.00     0.097 A 
HETATM   16  C9  UNL     1      -0.409  25.193  10.058  1.00  0.00     0.019 A 
HETATM   17  C10 UNL     1       0.391  25.334  11.189  1.00  0.00     0.019 A 
HETATM   18  C11 UNL     1       1.438  26.152  10.797  1.00  0.00     0.097 A 
ENDBRANCH   6  14
BRANCH   1  19
HETATM   19  N1  UNL     1       0.624  29.195   8.813  1.00  0.00    -0.113 N 
HETATM   20  O1  UNL     1      -0.168  29.552   7.920  1.00  0.00    -0.532 OA
HETATM   21  O2  UNL     1       0.294  29.375  10.121  1.00  0.00    -0.532 OA
ENDBRANCH   1  19
TORSDOF 5
ENDMDL
