MODEL 1
REMARK VINA RESULT: -8.355789615      0.000      0.000
REMARK  2 active torsions:
REMARK  status: ('A' for Active; 'I' for Inactive)
REMARK    1  A    between atoms: C1_2  and  C2_4 
REMARK    2  A    between atoms: C4_6  and  C5_7 
REMARK       I    between atoms: C5_7  and  N2_9 
ROOT
HETATM    1  C2  UNL     1      46.183  33.746   0.278  1.00  0.00     0.061 A 
HETATM    2  C3  UNL     1      47.456  34.243   0.119  1.00  0.00     0.036 A 
HETATM    3  C4  UNL     1      48.314  33.802  -0.856  1.00  0.00     0.035 A 
HETATM    4  C7  UNL     1      47.879  32.820  -1.714  1.00  0.00     0.051 A 
HETATM    5  C8  UNL     1      46.615  32.292  -1.596  1.00  0.00     0.087 A 
HETATM    6  N5  UNL     1      45.931  31.345  -2.273  1.00  0.00    -0.239 N 
ATOM      7  H5  UNL     1      46.277  30.808  -3.068  1.00  0.00     0.197 HD
HETATM    8  O3  UNL     1      44.755  31.238  -1.733  1.00  0.00    -0.156 OA
HETATM    9  N6  UNL     1      44.642  32.067  -0.738  1.00  0.00    -0.239 N 
ATOM     10  H6  UNL     1      43.814  32.174  -0.151  1.00  0.00     0.197 HD
HETATM   11  C9  UNL     1      45.785  32.762  -0.601  1.00  0.00     0.100 A 
ENDROOT
BRANCH   3  12
HETATM   12  C5  UNL     1      49.676  34.364  -0.992  1.00  0.00     0.257 C 
HETATM   13  O2  UNL     1      50.544  33.678  -1.590  1.00  0.00    -0.267 OA
HETATM   14  N2  UNL     1      49.958  35.646  -0.449  1.00  0.00    -0.299 N 
HETATM   15  C6  UNL     1      50.721  35.744   0.578  1.00  0.00     0.203 C 
ATOM     16  H2  UNL     1      49.557  36.483  -0.873  1.00  0.00     0.171 HD
HETATM   17  N3  UNL     1      51.272  34.585   1.158  1.00  0.00    -0.066 NA
HETATM   18  N4  UNL     1      50.992  37.025   1.105  1.00  0.00    -0.066 NA
ENDBRANCH   3  12
BRANCH   1  19
HETATM   19  C1  UNL     1      45.249  34.189   1.300  1.00  0.00     0.267 C 
HETATM   20  N1  UNL     1      43.893  33.833   1.316  1.00  0.00    -0.057 NA
HETATM   21  O1  UNL     1      45.739  34.940   2.208  1.00  0.00    -0.271 OA
ENDBRANCH   1  19
TORSDOF 2
ENDMDL
MODEL 2
REMARK VINA RESULT: -8.354121613      0.976      2.839
REMARK  2 active torsions:
REMARK  status: ('A' for Active; 'I' for Inactive)
REMARK    1  A    between atoms: C1_2  and  C2_4 
REMARK    2  A    between atoms: C4_6  and  C5_7 
REMARK       I    between atoms: C5_7  and  N2_9 
ROOT
HETATM    1  C2  UNL     1      46.469  32.497  -1.225  1.00  0.00     0.061 A 
HETATM    2  C3  UNL     1      47.733  33.005  -1.422  1.00  0.00     0.036 A 
HETATM    3  C4  UNL     1      48.243  34.043  -0.685  1.00  0.00     0.035 A 
HETATM    4  C7  UNL     1      47.456  34.599   0.295  1.00  0.00     0.051 A 
HETATM    5  C8  UNL     1      46.186  34.126   0.531  1.00  0.00     0.087 A 
HETATM    6  N5  UNL     1      45.209  34.463   1.399  1.00  0.00    -0.239 N 
ATOM      7  H5  UNL     1      45.258  35.204   2.098  1.00  0.00     0.197 HD
HETATM    8  O3  UNL     1      44.196  33.678   1.186  1.00  0.00    -0.156 OA
HETATM    9  N6  UNL     1      44.467  32.849   0.222  1.00  0.00    -0.239 N 
ATOM     10  H6  UNL     1      43.834  32.133  -0.133  1.00  0.00     0.197 HD
HETATM   11  C9  UNL     1      45.710  33.081  -0.234  1.00  0.00     0.100 A 
ENDROOT
BRANCH   3  12
HETATM   12  C5  UNL     1      49.608  34.560  -0.929  1.00  0.00     0.257 C 
HETATM   13  O2  UNL     1      50.408  33.840  -1.580  1.00  0.00    -0.267 OA
HETATM   14  N2  UNL     1      49.969  35.837  -0.425  1.00  0.00    -0.299 N 
HETATM   15  C6  UNL     1      50.809  35.922   0.542  1.00  0.00     0.203 C 
ATOM     16  H2  UNL     1      49.564  36.682  -0.828  1.00  0.00     0.171 HD
HETATM   17  N3  UNL     1      51.366  34.752   1.095  1.00  0.00    -0.066 NA
HETATM   18  N4  UNL     1      51.157  37.199   1.031  1.00  0.00    -0.066 NA
ENDBRANCH   3  12
BRANCH   1  19
HETATM   19  C1  UNL     1      45.896  31.399  -1.987  1.00  0.00     0.267 C 
HETATM   20  N1  UNL     1      44.763  31.531  -2.801  1.00  0.00    -0.057 NA
HETATM   21  O1  UNL     1      46.495  30.277  -1.875  1.00  0.00    -0.271 OA
ENDBRANCH   1  19
TORSDOF 2
ENDMDL
MODEL 3
REMARK VINA RESULT: -8.277701273      1.943      5.656
REMARK  2 active torsions:
REMARK  status: ('A' for Active; 'I' for Inactive)
REMARK    1  A    between atoms: C1_2  and  C2_4 
REMARK    2  A    between atoms: C4_6  and  C5_7 
REMARK       I    between atoms: C5_7  and  N2_9 
ROOT
HETATM    1  C2  UNL     1      47.279  34.675   0.796  1.00  0.00     0.061 A 
HETATM    2  C3  UNL     1      47.119  33.543   0.031  1.00  0.00     0.036 A 
HETATM    3  C4  UNL     1      45.924  32.879  -0.080  1.00  0.00     0.035 A 
HETATM    4  C7  UNL     1      44.838  33.369   0.604  1.00  0.00     0.051 A 
HETATM    5  C8  UNL     1      44.946  34.498   1.382  1.00  0.00     0.087 A 
HETATM    6  N5  UNL     1      44.078  35.193   2.148  1.00  0.00    -0.239 N 
ATOM      7  H5  UNL     1      43.093  34.970   2.290  1.00  0.00     0.197 HD
HETATM    8  O3  UNL     1      44.719  36.194   2.672  1.00  0.00    -0.156 OA
HETATM    9  N6  UNL     1      45.960  36.183   2.285  1.00  0.00    -0.239 N 
ATOM     10  H6  UNL     1      46.668  36.864   2.559  1.00  0.00     0.197 HD
HETATM   11  C9  UNL     1      46.166  35.135   1.468  1.00  0.00     0.100 A 
ENDROOT
BRANCH   3  12
HETATM   12  C5  UNL     1      45.795  31.664  -0.915  1.00  0.00     0.257 C 
HETATM   13  O2  UNL     1      46.848  31.094  -1.301  1.00  0.00    -0.267 OA
HETATM   14  N2  UNL     1      44.502  31.185  -1.252  1.00  0.00    -0.299 N 
HETATM   15  C6  UNL     1      44.089  31.276  -2.463  1.00  0.00     0.203 C 
ATOM     16  H2  UNL     1      43.904  30.772  -0.535  1.00  0.00     0.171 HD
HETATM   17  N3  UNL     1      44.917  31.848  -3.448  1.00  0.00    -0.066 NA
HETATM   18  N4  UNL     1      42.800  30.795  -2.781  1.00  0.00    -0.066 NA
ENDBRANCH   3  12
BRANCH   1  19
HETATM   19  C1  UNL     1      48.530  35.403   0.937  1.00  0.00     0.267 C 
HETATM   20  N1  UNL     1      49.401  35.658  -0.131  1.00  0.00    -0.057 NA
HETATM   21  O1  UNL     1      48.802  35.810   2.115  1.00  0.00    -0.271 OA
ENDBRANCH   1  19
TORSDOF 2
ENDMDL
MODEL 4
REMARK VINA RESULT: -8.077137366      1.532      1.675
REMARK  2 active torsions:
REMARK  status: ('A' for Active; 'I' for Inactive)
REMARK    1  A    between atoms: C1_2  and  C2_4 
REMARK    2  A    between atoms: C4_6  and  C5_7 
REMARK       I    between atoms: C5_7  and  N2_9 
ROOT
HETATM    1  C2  UNL     1      46.627  33.810   0.458  1.00  0.00     0.061 A 
HETATM    2  C3  UNL     1      47.993  33.873   0.611  1.00  0.00     0.036 A 
HETATM    3  C4  UNL     1      48.856  33.021  -0.028  1.00  0.00     0.035 A 
HETATM    4  C7  UNL     1      48.331  32.061  -0.861  1.00  0.00     0.051 A 
HETATM    5  C8  UNL     1      46.972  31.958  -1.047  1.00  0.00     0.087 A 
HETATM    6  N5  UNL     1      46.190  31.139  -1.781  1.00  0.00    -0.239 N 
ATOM      7  H5  UNL     1      46.512  30.381  -2.382  1.00  0.00     0.197 HD
HETATM    8  O3  UNL     1      44.953  31.487  -1.585  1.00  0.00    -0.156 OA
HETATM    9  N6  UNL     1      44.895  32.490  -0.760  1.00  0.00    -0.239 N 
ATOM     10  H6  UNL     1      44.038  32.945  -0.446  1.00  0.00     0.197 HD
HETATM   11  C9  UNL     1      46.139  32.834  -0.384  1.00  0.00     0.100 A 
ENDROOT
BRANCH   3  12
HETATM   12  C5  UNL     1      50.320  33.123   0.164  1.00  0.00     0.257 C 
HETATM   13  O2  UNL     1      50.786  32.902   1.311  1.00  0.00    -0.267 OA
HETATM   14  N2  UNL     1      51.145  33.464  -0.941  1.00  0.00    -0.299 N 
HETATM   15  C6  UNL     1      51.721  34.610  -0.970  1.00  0.00     0.203 C 
ATOM     16  H2  UNL     1      51.279  32.802  -1.706  1.00  0.00     0.171 HD
HETATM   17  N3  UNL     1      51.533  35.520   0.088  1.00  0.00    -0.066 NA
HETATM   18  N4  UNL     1      52.537  34.934  -2.075  1.00  0.00    -0.066 NA
ENDBRANCH   3  12
BRANCH   1  19
HETATM   19  C1  UNL     1      45.684  34.696   1.121  1.00  0.00     0.267 C 
HETATM   20  N1  UNL     1      44.372  34.325   1.446  1.00  0.00    -0.057 NA
HETATM   21  O1  UNL     1      46.123  35.861   1.400  1.00  0.00    -0.271 OA
ENDBRANCH   1  19
TORSDOF 2
ENDMDL
MODEL 5
REMARK VINA RESULT: -8.056354843      1.710      2.113
REMARK  2 active torsions:
REMARK  status: ('A' for Active; 'I' for Inactive)
REMARK    1  A    between atoms: C1_2  and  C2_4 
REMARK    2  A    between atoms: C4_6  and  C5_7 
REMARK       I    between atoms: C5_7  and  N2_9 
ROOT
HETATM    1  C2  UNL     1      45.600  34.415   1.227  1.00  0.00     0.061 A 
HETATM    2  C3  UNL     1      46.847  34.904   1.540  1.00  0.00     0.036 A 
HETATM    3  C4  UNL     1      47.999  34.439   0.958  1.00  0.00     0.035 A 
HETATM    4  C7  UNL     1      47.900  33.439   0.020  1.00  0.00     0.051 A 
HETATM    5  C8  UNL     1      46.676  32.918  -0.328  1.00  0.00     0.087 A 
HETATM    6  N5  UNL     1      46.279  31.959  -1.191  1.00  0.00    -0.239 N 
ATOM      7  H5  UNL     1      46.888  31.404  -1.792  1.00  0.00     0.197 HD
HETATM    8  O3  UNL     1      44.985  31.868  -1.121  1.00  0.00    -0.156 OA
HETATM    9  N6  UNL     1      44.523  32.720  -0.254  1.00  0.00    -0.239 N 
ATOM     10  H6  UNL     1      43.538  32.842  -0.017  1.00  0.00     0.197 HD
HETATM   11  C9  UNL     1      45.542  33.414   0.281  1.00  0.00     0.100 A 
ENDROOT
BRANCH   3  12
HETATM   12  C5  UNL     1      49.322  34.993   1.324  1.00  0.00     0.257 C 
HETATM   13  O2  UNL     1      49.366  35.903   2.189  1.00  0.00    -0.267 OA
HETATM   14  N2  UNL     1      50.487  34.484   0.691  1.00  0.00    -0.299 N 
HETATM   15  C6  UNL     1      51.129  35.222  -0.139  1.00  0.00     0.203 C 
ATOM     16  H2  UNL     1      50.812  33.539   0.896  1.00  0.00     0.171 HD
HETATM   17  N3  UNL     1      50.676  36.526  -0.419  1.00  0.00    -0.066 NA
HETATM   18  N4  UNL     1      52.286  34.702  -0.758  1.00  0.00    -0.066 NA
ENDBRANCH   3  12
BRANCH   1  19
HETATM   19  C1  UNL     1      44.359  34.884   1.823  1.00  0.00     0.267 C 
HETATM   20  N1  UNL     1      44.212  36.151   2.405  1.00  0.00    -0.057 NA
HETATM   21  O1  UNL     1      43.384  34.062   1.789  1.00  0.00    -0.271 OA
ENDBRANCH   1  19
TORSDOF 2
ENDMDL
