MODEL 1
REMARK VINA RESULT: -5.971146726      0.000      0.000
REMARK  7 active torsions:
REMARK  status: ('A' for Active; 'I' for Inactive)
REMARK    1  A    between atoms: C2_2  and  N1_5 
REMARK       I    between atoms: N1_5  and  C5_7 
REMARK       I    between atoms: C5_7  and  N2_9 
REMARK    2  A    between atoms: N2_9  and  N3_11 
REMARK    3  A    between atoms: N3_11  and  C6_13 
REMARK    4  A    between atoms: C6_13  and  C7_15 
REMARK    5  A    between atoms: C7_15  and  O3_17 
REMARK    6  A    between atoms: O3_17  and  C8_18 
REMARK    7  A    between atoms: C8_18  and  C9_19 
ROOT
HETATM    1  N1  UNL     1      45.579  34.852   1.023  1.00  0.00    -0.334 N 
ATOM      2  H1  UNL     1      45.187  34.460   0.167  1.00  0.00     0.165 HD
HETATM    3  C5  UNL     1      46.966  35.148   1.078  1.00  0.00     0.335 C 
HETATM    4  O1  UNL     1      47.521  35.633   2.090  1.00  0.00    -0.246 OA
HETATM    5  N2  UNL     1      47.799  34.892  -0.059  1.00  0.00    -0.250 N 
ATOM      6  H2  UNL     1      47.377  34.489  -0.895  1.00  0.00     0.191 HD
ENDROOT
BRANCH   5   7
HETATM    7  N3  UNL     1      49.164  35.174  -0.066  1.00  0.00    -0.281 N 
ATOM      8  H3  UNL     1      49.561  35.928   0.495  1.00  0.00     0.188 HD
BRANCH   7   9
HETATM    9  C6  UNL     1      49.986  34.342  -0.906  1.00  0.00     0.191 C 
HETATM   10  S1  UNL     1      51.593  34.469  -0.944  1.00  0.00    -0.052 SA
BRANCH   9  11
HETATM   11  C7  UNL     1      49.304  33.359  -1.730  1.00  0.00     0.323 C 
HETATM   12  O2  UNL     1      48.626  33.690  -2.727  1.00  0.00    -0.257 OA
BRANCH  11  13
HETATM   13  O3  UNL     1      49.407  32.026  -1.404  1.00  0.00    -0.309 OA
BRANCH  13  14
HETATM   14  C8  UNL     1      48.657  31.443  -0.374  1.00  0.00     0.248 C 
BRANCH  14  15
HETATM   15  C9  UNL     1      47.215  31.255  -0.707  1.00  0.00     0.257 C 
HETATM   16  O4  UNL     1      46.377  32.121  -0.434  1.00  0.00    -0.305 OA
ENDBRANCH  14  15
ENDBRANCH  13  14
ENDBRANCH  11  13
ENDBRANCH   9  11
ENDBRANCH   7   9
ENDBRANCH   5   7
BRANCH   1  17
HETATM   17  C2  UNL     1      44.716  35.091   2.140  1.00  0.00     0.023 C 
HETATM   18  C1  UNL     1      43.355  34.442   1.898  1.00  0.00     0.037 C 
HETATM   19  C3  UNL     1      44.570  36.567   2.377  1.00  0.00     0.037 C 
HETATM   20  C4  UNL     1      45.253  34.400   3.405  1.00  0.00     0.037 C 
ENDBRANCH   1  17
TORSDOF 7
ENDMDL
MODEL 2
REMARK VINA RESULT: -5.905727694      0.044      1.041
REMARK  7 active torsions:
REMARK  status: ('A' for Active; 'I' for Inactive)
REMARK    1  A    between atoms: C2_2  and  N1_5 
REMARK       I    between atoms: N1_5  and  C5_7 
REMARK       I    between atoms: C5_7  and  N2_9 
REMARK    2  A    between atoms: N2_9  and  N3_11 
REMARK    3  A    between atoms: N3_11  and  C6_13 
REMARK    4  A    between atoms: C6_13  and  C7_15 
REMARK    5  A    between atoms: C7_15  and  O3_17 
REMARK    6  A    between atoms: O3_17  and  C8_18 
REMARK    7  A    between atoms: C8_18  and  C9_19 
ROOT
HETATM    1  N1  UNL     1      45.553  34.800   1.014  1.00  0.00    -0.334 N 
ATOM      2  H1  UNL     1      45.169  34.402   0.156  1.00  0.00     0.165 HD
HETATM    3  C5  UNL     1      46.935  35.118   1.070  1.00  0.00     0.335 C 
HETATM    4  O1  UNL     1      47.480  35.612   2.084  1.00  0.00    -0.246 OA
HETATM    5  N2  UNL     1      47.773  34.878  -0.065  1.00  0.00    -0.250 N 
ATOM      6  H2  UNL     1      47.360  34.468  -0.902  1.00  0.00     0.191 HD
ENDROOT
BRANCH   5   7
HETATM    7  N3  UNL     1      49.134  35.181  -0.070  1.00  0.00    -0.281 N 
ATOM      8  H3  UNL     1      49.515  35.949   0.483  1.00  0.00     0.188 HD
BRANCH   7   9
HETATM    9  C6  UNL     1      49.973  34.353  -0.897  1.00  0.00     0.191 C 
HETATM   10  S1  UNL     1      51.579  34.492  -0.913  1.00  0.00    -0.052 SA
BRANCH   9  11
HETATM   11  C7  UNL     1      49.310  33.362  -1.726  1.00  0.00     0.323 C 
HETATM   12  O2  UNL     1      48.632  33.686  -2.725  1.00  0.00    -0.257 OA
BRANCH  11  13
HETATM   13  O3  UNL     1      49.430  32.030  -1.402  1.00  0.00    -0.309 OA
BRANCH  13  14
HETATM   14  C8  UNL     1      48.686  31.435  -0.376  1.00  0.00     0.248 C 
BRANCH  14  15
HETATM   15  C9  UNL     1      47.247  31.228  -0.713  1.00  0.00     0.257 C 
HETATM   16  O4  UNL     1      46.398  32.084  -0.444  1.00  0.00    -0.305 OA
ENDBRANCH  14  15
ENDBRANCH  13  14
ENDBRANCH  11  13
ENDBRANCH   9  11
ENDBRANCH   7   9
ENDBRANCH   5   7
BRANCH   1  17
HETATM   17  C2  UNL     1      44.685  35.023   2.129  1.00  0.00     0.023 C 
HETATM   18  C1  UNL     1      45.302  34.438   3.398  1.00  0.00     0.037 C 
HETATM   19  C3  UNL     1      43.334  34.422   1.866  1.00  0.00     0.037 C 
HETATM   20  C4  UNL     1      44.548  36.527   2.426  1.00  0.00     0.037 C 
ENDBRANCH   1  17
TORSDOF 7
ENDMDL
MODEL 3
REMARK VINA RESULT: -5.903638175      2.031      3.182
REMARK  7 active torsions:
REMARK  status: ('A' for Active; 'I' for Inactive)
REMARK    1  A    between atoms: C2_2  and  N1_5 
REMARK       I    between atoms: N1_5  and  C5_7 
REMARK       I    between atoms: C5_7  and  N2_9 
REMARK    2  A    between atoms: N2_9  and  N3_11 
REMARK    3  A    between atoms: N3_11  and  C6_13 
REMARK    4  A    between atoms: C6_13  and  C7_15 
REMARK    5  A    between atoms: C7_15  and  O3_17 
REMARK    6  A    between atoms: O3_17  and  C8_18 
REMARK    7  A    between atoms: C8_18  and  C9_19 
ROOT
HETATM    1  N1  UNL     1      45.942  35.220   1.411  1.00  0.00    -0.334 N 
ATOM      2  H1  UNL     1      46.597  36.002   1.400  1.00  0.00     0.165 HD
HETATM    3  C5  UNL     1      46.158  34.124   0.535  1.00  0.00     0.335 C 
HETATM    4  O1  UNL     1      45.402  33.127   0.491  1.00  0.00    -0.246 OA
HETATM    5  N2  UNL     1      47.282  34.126  -0.352  1.00  0.00    -0.250 N 
ATOM      6  H2  UNL     1      47.910  34.928  -0.345  1.00  0.00     0.191 HD
ENDROOT
BRANCH   5   7
HETATM    7  N3  UNL     1      47.549  33.072  -1.224  1.00  0.00    -0.281 N 
ATOM      8  H3  UNL     1      47.244  33.089  -2.198  1.00  0.00     0.188 HD
BRANCH   7   9
HETATM    9  C6  UNL     1      48.280  31.958  -0.678  1.00  0.00     0.191 C 
HETATM   10  S1  UNL     1      47.668  30.467  -0.621  1.00  0.00    -0.052 SA
BRANCH   9  11
HETATM   11  C7  UNL     1      49.616  32.226  -0.179  1.00  0.00     0.323 C 
HETATM   12  O2  UNL     1      50.634  31.757  -0.733  1.00  0.00    -0.257 OA
BRANCH  11  13
HETATM   13  O3  UNL     1      49.768  33.018   0.936  1.00  0.00    -0.309 OA
BRANCH  13  14
HETATM   14  C8  UNL     1      50.765  33.996   1.034  1.00  0.00     0.248 C 
BRANCH  14  15
HETATM   15  C9  UNL     1      50.269  35.390   0.833  1.00  0.00     0.257 C 
HETATM   16  O4  UNL     1      49.167  35.744   1.265  1.00  0.00    -0.305 OA
ENDBRANCH  14  15
ENDBRANCH  13  14
ENDBRANCH  11  13
ENDBRANCH   9  11
ENDBRANCH   7   9
ENDBRANCH   5   7
BRANCH   1  17
HETATM   17  C2  UNL     1      44.828  35.255   2.309  1.00  0.00     0.023 C 
HETATM   18  C1  UNL     1      44.479  36.701   2.655  1.00  0.00     0.037 C 
HETATM   19  C3  UNL     1      45.137  34.468   3.551  1.00  0.00     0.037 C 
HETATM   20  C4  UNL     1      43.561  34.704   1.633  1.00  0.00     0.037 C 
ENDBRANCH   1  17
TORSDOF 7
ENDMDL
MODEL 4
REMARK VINA RESULT: -5.894803924      2.031      3.165
REMARK  7 active torsions:
REMARK  status: ('A' for Active; 'I' for Inactive)
REMARK    1  A    between atoms: C2_2  and  N1_5 
REMARK       I    between atoms: N1_5  and  C5_7 
REMARK       I    between atoms: C5_7  and  N2_9 
REMARK    2  A    between atoms: N2_9  and  N3_11 
REMARK    3  A    between atoms: N3_11  and  C6_13 
REMARK    4  A    between atoms: C6_13  and  C7_15 
REMARK    5  A    between atoms: C7_15  and  O3_17 
REMARK    6  A    between atoms: O3_17  and  C8_18 
REMARK    7  A    between atoms: C8_18  and  C9_19 
ROOT
HETATM    1  N1  UNL     1      45.897  35.196   1.389  1.00  0.00    -0.334 N 
ATOM      2  H1  UNL     1      46.550  35.980   1.387  1.00  0.00     0.165 HD
HETATM    3  C5  UNL     1      46.127  34.101   0.517  1.00  0.00     0.335 C 
HETATM    4  O1  UNL     1      45.374  33.102   0.463  1.00  0.00    -0.246 OA
HETATM    5  N2  UNL     1      47.263  34.106  -0.355  1.00  0.00    -0.250 N 
ATOM      6  H2  UNL     1      47.889  34.910  -0.341  1.00  0.00     0.191 HD
ENDROOT
BRANCH   5   7
HETATM    7  N3  UNL     1      47.544  33.052  -1.225  1.00  0.00    -0.281 N 
ATOM      8  H3  UNL     1      47.246  33.066  -2.200  1.00  0.00     0.188 HD
BRANCH   7   9
HETATM    9  C6  UNL     1      48.280  31.945  -0.672  1.00  0.00     0.191 C 
HETATM   10  S1  UNL     1      47.674  30.452  -0.601  1.00  0.00    -0.052 SA
BRANCH   9  11
HETATM   11  C7  UNL     1      49.617  32.221  -0.178  1.00  0.00     0.323 C 
HETATM   12  O2  UNL     1      50.636  31.768  -0.743  1.00  0.00    -0.257 OA
BRANCH  11  13
HETATM   13  O3  UNL     1      49.767  33.004   0.944  1.00  0.00    -0.309 OA
BRANCH  13  14
HETATM   14  C8  UNL     1      50.754  33.993   1.045  1.00  0.00     0.248 C 
BRANCH  14  15
HETATM   15  C9  UNL     1      50.248  35.379   0.822  1.00  0.00     0.257 C 
HETATM   16  O4  UNL     1      49.144  35.732   1.250  1.00  0.00    -0.305 OA
ENDBRANCH  14  15
ENDBRANCH  13  14
ENDBRANCH  11  13
ENDBRANCH   9  11
ENDBRANCH   7   9
ENDBRANCH   5   7
BRANCH   1  17
HETATM   17  C2  UNL     1      44.771  35.228   2.273  1.00  0.00     0.023 C 
HETATM   18  C1  UNL     1      45.096  34.476   3.562  1.00  0.00     0.037 C 
HETATM   19  C3  UNL     1      43.565  34.638   1.599  1.00  0.00     0.037 C 
HETATM   20  C4  UNL     1      44.473  36.666   2.731  1.00  0.00     0.037 C 
ENDBRANCH   1  17
TORSDOF 7
ENDMDL
MODEL 5
REMARK VINA RESULT: -5.828679997      1.161      1.213
REMARK  7 active torsions:
REMARK  status: ('A' for Active; 'I' for Inactive)
REMARK    1  A    between atoms: C2_2  and  N1_5 
REMARK       I    between atoms: N1_5  and  C5_7 
REMARK       I    between atoms: C5_7  and  N2_9 
REMARK    2  A    between atoms: N2_9  and  N3_11 
REMARK    3  A    between atoms: N3_11  and  C6_13 
REMARK    4  A    between atoms: C6_13  and  C7_15 
REMARK    5  A    between atoms: C7_15  and  O3_17 
REMARK    6  A    between atoms: O3_17  and  C8_18 
REMARK    7  A    between atoms: C8_18  and  C9_19 
ROOT
HETATM    1  N1  UNL     1      45.522  34.630   0.890  1.00  0.00    -0.334 N 
ATOM      2  H1  UNL     1      45.052  34.121   0.141  1.00  0.00     0.165 HD
HETATM    3  C5  UNL     1      46.913  34.895   0.780  1.00  0.00     0.335 C 
HETATM    4  O1  UNL     1      47.560  35.516   1.654  1.00  0.00    -0.246 OA
HETATM    5  N2  UNL     1      47.639  34.446  -0.369  1.00  0.00    -0.250 N 
ATOM      6  H2  UNL     1      47.141  33.930  -1.093  1.00  0.00     0.191 HD
ENDROOT
BRANCH   5   7
HETATM    7  N3  UNL     1      49.002  34.687  -0.535  1.00  0.00    -0.281 N 
ATOM      8  H3  UNL     1      49.346  35.512  -1.028  1.00  0.00     0.188 HD
BRANCH   7   9
HETATM    9  C6  UNL     1      49.899  33.711   0.026  1.00  0.00     0.191 C 
HETATM   10  S1  UNL     1      51.088  34.109   1.040  1.00  0.00    -0.052 SA
BRANCH   9  11
HETATM   11  C7  UNL     1      49.688  32.326  -0.354  1.00  0.00     0.323 C 
HETATM   12  O2  UNL     1      50.440  31.742  -1.166  1.00  0.00    -0.257 OA
BRANCH  11  13
HETATM   13  O3  UNL     1      48.632  31.635   0.194  1.00  0.00    -0.309 OA
BRANCH  13  14
HETATM   14  C8  UNL     1      47.882  30.704  -0.536  1.00  0.00     0.248 C 
BRANCH  14  15
HETATM   15  C9  UNL     1      46.681  31.285  -1.204  1.00  0.00     0.257 C 
HETATM   16  O4  UNL     1      45.821  31.893  -0.558  1.00  0.00    -0.305 OA
ENDBRANCH  14  15
ENDBRANCH  13  14
ENDBRANCH  11  13
ENDBRANCH   9  11
ENDBRANCH   7   9
ENDBRANCH   5   7
BRANCH   1  17
HETATM   17  C2  UNL     1      44.764  35.061   2.025  1.00  0.00     0.023 C 
HETATM   18  C1  UNL     1      43.331  34.543   1.923  1.00  0.00     0.037 C 
HETATM   19  C3  UNL     1      44.785  36.560   2.126  1.00  0.00     0.037 C 
HETATM   20  C4  UNL     1      45.309  34.433   3.319  1.00  0.00     0.037 C 
ENDBRANCH   1  17
TORSDOF 7
ENDMDL
