MODEL 1
REMARK VINA RESULT: -1.067306648      0.000      0.000
REMARK  5 active torsions:
REMARK  status: ('A' for Active; 'I' for Inactive)
REMARK    1  A    between atoms: C4_5  and  C5_6 
REMARK    2  A    between atoms: C5_6  and  C6_7 
REMARK    3  A    between atoms: C6_7  and  C7_8 
REMARK    4  A    between atoms: C13_14  and  C14_15 
REMARK    5  A    between atoms: C15_16  and  C16_17 
ROOT
HETATM    1  C1  UNL     1       1.332  36.652   4.456  1.00  0.00     0.058 C 
HETATM    2  C2  UNL     1       1.977  35.357   4.012  1.00  0.00    -0.001 A 
HETATM    3  S1  UNL     1       3.407  35.149   3.109  1.00  0.00    -0.104 SA
HETATM    4  C3  UNL     1       3.443  33.454   3.036  1.00  0.00     0.072 A 
HETATM    5  C4  UNL     1       2.320  33.079   3.728  1.00  0.00     0.044 A 
HETATM    6  C13 UNL     1       1.557  34.074   4.236  1.00  0.00     0.050 A 
ENDROOT
BRANCH   6   7
HETATM    7  C14 UNL     1       0.320  33.855   5.004  1.00  0.00    -0.057 C 
HETATM    8  C15 UNL     1      -0.715  33.686   5.629  1.00  0.00    -0.042 C 
BRANCH   8   9
HETATM    9  C16 UNL     1      -1.926  33.513   6.364  1.00  0.00     0.103 A 
HETATM   10  C17 UNL     1      -2.034  33.252   7.704  1.00  0.00     0.128 A 
HETATM   11  N1  UNL     1      -3.353  33.160   8.011  1.00  0.00    -0.359 N 
HETATM   12  C18 UNL     1      -4.013  33.362   6.865  1.00  0.00     0.181 A 
ATOM     13  H1  UNL     1      -3.758  32.974   8.928  1.00  0.00     0.166 HD
HETATM   14  N2  UNL     1      -3.186  33.580   5.846  1.00  0.00    -0.344 N 
ATOM     15  H2  UNL     1      -3.442  33.760   4.875  1.00  0.00     0.167 HD
ENDBRANCH   8   9
ENDBRANCH   6   7
BRANCH   5  16
HETATM   16  C5  UNL     1       1.980  31.653   3.897  1.00  0.00    -0.059 C 
BRANCH  16  17
HETATM   17  C6  UNL     1       1.689  30.494   4.051  1.00  0.00    -0.061 C 
BRANCH  17  18
HETATM   18  C7  UNL     1       1.325  29.120   4.250  1.00  0.00     0.018 A 
HETATM   19  C8  UNL     1       0.007  28.708   4.287  1.00  0.00     0.020 A 
HETATM   20  C9  UNL     1      -0.329  27.386   4.479  1.00  0.00     0.001 A 
HETATM   21  C10 UNL     1       0.636  26.415   4.643  1.00  0.00     0.000 A 
HETATM   22  C11 UNL     1       1.956  26.808   4.610  1.00  0.00     0.001 A 
HETATM   23  C12 UNL     1       2.289  28.132   4.417  1.00  0.00     0.020 A 
ENDBRANCH  17  18
ENDBRANCH  16  17
ENDBRANCH   5  16
TORSDOF 5
ENDMDL
MODEL 2
REMARK VINA RESULT: -1.039906773      0.016      1.029
REMARK  5 active torsions:
REMARK  status: ('A' for Active; 'I' for Inactive)
REMARK    1  A    between atoms: C4_5  and  C5_6 
REMARK    2  A    between atoms: C5_6  and  C6_7 
REMARK    3  A    between atoms: C6_7  and  C7_8 
REMARK    4  A    between atoms: C13_14  and  C14_15 
REMARK    5  A    between atoms: C15_16  and  C16_17 
ROOT
HETATM    1  C1  UNL     1       1.330  36.658   4.458  1.00  0.00     0.058 C 
HETATM    2  C2  UNL     1       1.977  35.365   4.009  1.00  0.00    -0.001 A 
HETATM    3  S1  UNL     1       3.408  35.162   3.108  1.00  0.00    -0.104 SA
HETATM    4  C3  UNL     1       3.445  33.467   3.027  1.00  0.00     0.072 A 
HETATM    5  C4  UNL     1       2.321  33.089   3.716  1.00  0.00     0.044 A 
HETATM    6  C13 UNL     1       1.558  34.081   4.228  1.00  0.00     0.050 A 
ENDROOT
BRANCH   6   7
HETATM    7  C14 UNL     1       0.320  33.858   4.994  1.00  0.00    -0.057 C 
HETATM    8  C15 UNL     1      -0.716  33.687   5.617  1.00  0.00    -0.042 C 
BRANCH   8   9
HETATM    9  C16 UNL     1      -1.926  33.512   6.354  1.00  0.00     0.103 A 
HETATM   10  C17 UNL     1      -2.032  33.246   7.693  1.00  0.00     0.128 A 
HETATM   11  N1  UNL     1      -3.351  33.153   8.001  1.00  0.00    -0.359 N 
HETATM   12  C18 UNL     1      -4.012  33.359   6.857  1.00  0.00     0.181 A 
ATOM     13  H1  UNL     1      -3.755  32.964   8.918  1.00  0.00     0.166 HD
HETATM   14  N2  UNL     1      -3.187  33.580   5.837  1.00  0.00    -0.344 N 
ATOM     15  H2  UNL     1      -3.444  33.763   4.867  1.00  0.00     0.167 HD
ENDBRANCH   8   9
ENDBRANCH   6   7
BRANCH   5  16
HETATM   16  C5  UNL     1       1.982  31.662   3.880  1.00  0.00    -0.059 C 
BRANCH  16  17
HETATM   17  C6  UNL     1       1.700  30.500   4.034  1.00  0.00    -0.061 C 
BRANCH  17  18
HETATM   18  C7  UNL     1       1.351  29.123   4.238  1.00  0.00     0.018 A 
HETATM   19  C8  UNL     1       2.307  28.139   4.393  1.00  0.00     0.020 A 
HETATM   20  C9  UNL     1       1.959  26.820   4.589  1.00  0.00     0.001 A 
HETATM   21  C10 UNL     1       0.639  26.425   4.639  1.00  0.00     0.000 A 
HETATM   22  C11 UNL     1      -0.329  27.394   4.486  1.00  0.00     0.001 A 
HETATM   23  C12 UNL     1       0.023  28.712   4.291  1.00  0.00     0.020 A 
ENDBRANCH  17  18
ENDBRANCH  16  17
ENDBRANCH   5  16
TORSDOF 5
ENDMDL
