MODEL 1
REMARK VINA RESULT: -8.738408210      0.000      0.000
REMARK  4 active torsions:
REMARK  status: ('A' for Active; 'I' for Inactive)
REMARK    1  A    between atoms: S1_2  and  N1_4 
REMARK    2  A    between atoms: S1_2  and  C17_26 
REMARK    3  A    between atoms: N1_4  and  C1_6 
REMARK    4  A    between atoms: C5_12  and  C6_13 
ROOT
HETATM    1  C1  UNL     1      -0.686  -4.717  88.894  1.00  0.00     0.043 A 
HETATM    2  C2  UNL     1      -0.131  -3.969  87.897  1.00  0.00     0.032 A 
HETATM    3  C3  UNL     1       0.496  -4.544  86.778  1.00  0.00     0.033 A 
HETATM    4  C4  UNL     1       0.571  -5.910  86.654  1.00  0.00     0.043 A 
HETATM    5  N2  UNL     1       1.092  -6.732  85.727  1.00  0.00    -0.354 N 
ATOM      6  H2  UNL     1       1.566  -6.420  84.879  1.00  0.00     0.166 HD
HETATM    7  C5  UNL     1       0.907  -8.020  86.065  1.00  0.00     0.060 A 
HETATM    8  C14 UNL     1       0.235  -8.039  87.269  1.00  0.00     0.045 A 
HETATM    9  C15 UNL     1       0.026  -6.706  87.633  1.00  0.00    -0.005 A 
HETATM   10  C16 UNL     1      -0.573  -6.121  88.701  1.00  0.00     0.043 A 
ENDROOT
BRANCH   1  11
HETATM   11  N1  UNL     1      -1.377  -4.276  90.038  1.00  0.00    -0.279 N 
ATOM     12  H1  UNL     1      -2.347  -4.590  90.087  1.00  0.00     0.179 HD
BRANCH  11  13
HETATM   13  S1  UNL     1      -0.898  -3.327  91.341  1.00  0.00     0.278 S 
HETATM   14  O1  UNL     1      -0.357  -4.174  92.492  1.00  0.00    -0.199 OA
HETATM   15  O2  UNL     1       0.238  -2.383  90.928  1.00  0.00    -0.199 OA
BRANCH  13  16
HETATM   16  C17 UNL     1      -2.124  -2.331  92.029  1.00  0.00     0.149 A 
HETATM   17  C18 UNL     1      -1.925  -1.176  92.728  1.00  0.00     0.044 A 
HETATM   18  C19 UNL     1      -2.919  -0.436  93.339  1.00  0.00     0.004 A 
HETATM   19  C20 UNL     1      -4.208  -0.873  93.252  1.00  0.00     0.017 A 
HETATM   20  C21 UNL     1      -4.424  -2.042  92.547  1.00  0.00     0.089 A 
HETATM   21  N4  UNL     1      -3.436  -2.734  91.966  1.00  0.00    -0.355 N 
ATOM     22  H4  UNL     1      -3.665  -3.590  91.461  1.00  0.00     0.166 HD
ENDBRANCH  13  16
ENDBRANCH  11  13
ENDBRANCH   1  11
BRANCH   7  23
HETATM   23  C6  UNL     1       1.353  -9.175  85.276  1.00  0.00     0.060 A 
HETATM   24  C7  UNL     1       1.723  -9.185  83.948  1.00  0.00     0.045 A 
HETATM   25  C8  UNL     1       2.080 -10.470  83.572  1.00  0.00    -0.007 A 
HETATM   26  C9  UNL     1       2.521 -11.081  82.418  1.00  0.00     0.014 A 
HETATM   27  C13 UNL     1       1.919 -11.249  84.709  1.00  0.00     0.043 A 
HETATM   28  C10 UNL     1       2.810 -12.427  82.335  1.00  0.00     0.001 A 
HETATM   29  C11 UNL     1       2.641 -13.188  83.482  1.00  0.00     0.002 A 
HETATM   30  C12 UNL     1       2.202 -12.598  84.646  1.00  0.00     0.030 A 
HETATM   31  N3  UNL     1       1.481 -10.435  85.708  1.00  0.00    -0.354 N 
ATOM     32  H3  UNL     1       1.278 -10.745  86.658  1.00  0.00     0.166 HD
ENDBRANCH   7  23
TORSDOF 4
ENDMDL
MODEL 2
REMARK VINA RESULT: -8.730253074      4.103     10.890
REMARK  4 active torsions:
REMARK  status: ('A' for Active; 'I' for Inactive)
REMARK    1  A    between atoms: S1_2  and  N1_4 
REMARK    2  A    between atoms: S1_2  and  C17_26 
REMARK    3  A    between atoms: N1_4  and  C1_6 
REMARK    4  A    between atoms: C5_12  and  C6_13 
ROOT
HETATM    1  C1  UNL     1       1.344  -8.899  85.057  1.00  0.00     0.043 A 
HETATM    2  C2  UNL     1       0.769  -9.653  86.037  1.00  0.00     0.032 A 
HETATM    3  C3  UNL     1       0.237  -9.092  87.211  1.00  0.00     0.033 A 
HETATM    4  C4  UNL     1       0.283  -7.733  87.409  1.00  0.00     0.043 A 
HETATM    5  N2  UNL     1      -0.130  -6.924  88.400  1.00  0.00    -0.354 N 
ATOM      6  H2  UNL     1      -0.592  -7.243  89.251  1.00  0.00     0.166 HD
HETATM    7  C5  UNL     1       0.149  -5.638  88.120  1.00  0.00     0.060 A 
HETATM    8  C14 UNL     1       0.772  -5.608  86.891  1.00  0.00     0.045 A 
HETATM    9  C15 UNL     1       0.853  -6.932  86.449  1.00  0.00    -0.005 A 
HETATM   10  C16 UNL     1       1.357  -7.504  85.327  1.00  0.00     0.043 A 
ENDROOT
BRANCH   1  11
HETATM   11  N1  UNL     1       1.871  -9.323  83.822  1.00  0.00    -0.279 N 
ATOM     12  H1  UNL     1       1.375  -8.958  83.009  1.00  0.00     0.179 HD
BRANCH  11  13
HETATM   13  S1  UNL     1       3.170 -10.320  83.441  1.00  0.00     0.278 S 
HETATM   14  O1  UNL     1       3.546 -10.222  81.964  1.00  0.00    -0.199 OA
HETATM   15  O2  UNL     1       4.417  -9.904  84.233  1.00  0.00    -0.199 OA
BRANCH  13  16
HETATM   16  C17 UNL     1       2.940 -11.998  83.756  1.00  0.00     0.149 A 
HETATM   17  C18 UNL     1       1.913 -12.551  84.465  1.00  0.00     0.044 A 
HETATM   18  C19 UNL     1       1.792 -13.893  84.772  1.00  0.00     0.004 A 
HETATM   19  C20 UNL     1       2.762 -14.752  84.346  1.00  0.00     0.017 A 
HETATM   20  C21 UNL     1       3.809 -14.205  83.629  1.00  0.00     0.089 A 
HETATM   21  N4  UNL     1       3.894 -12.899  83.348  1.00  0.00    -0.355 N 
ATOM     22  H4  UNL     1       4.694 -12.561  82.813  1.00  0.00     0.166 HD
ENDBRANCH  13  16
ENDBRANCH  11  13
ENDBRANCH   1  11
BRANCH   7  23
HETATM   23  C6  UNL     1      -0.166  -4.496  88.988  1.00  0.00     0.060 A 
HETATM   24  C7  UNL     1      -0.002  -3.158  88.700  1.00  0.00     0.045 A 
HETATM   25  C8  UNL     1      -0.416  -2.394  89.778  1.00  0.00    -0.007 A 
HETATM   26  C9  UNL     1      -0.489  -1.049  90.073  1.00  0.00     0.014 A 
HETATM   27  C13 UNL     1      -0.841  -3.301  90.737  1.00  0.00     0.043 A 
HETATM   28  C10 UNL     1      -0.963  -0.560  91.272  1.00  0.00     0.001 A 
HETATM   29  C11 UNL     1      -1.383  -1.484  92.217  1.00  0.00     0.002 A 
HETATM   30  C12 UNL     1      -1.318  -2.832  91.944  1.00  0.00     0.030 A 
HETATM   31  N3  UNL     1      -0.674  -4.551  90.225  1.00  0.00    -0.354 N 
ATOM     32  H3  UNL     1      -0.906  -5.414  90.718  1.00  0.00     0.166 HD
ENDBRANCH   7  23
TORSDOF 4
ENDMDL
MODEL 3
REMARK VINA RESULT: -8.644443995      3.281      4.869
REMARK  4 active torsions:
REMARK  status: ('A' for Active; 'I' for Inactive)
REMARK    1  A    between atoms: S1_2  and  N1_4 
REMARK    2  A    between atoms: S1_2  and  C17_26 
REMARK    3  A    between atoms: N1_4  and  C1_6 
REMARK    4  A    between atoms: C5_12  and  C6_13 
ROOT
HETATM    1  C1  UNL     1       0.230  -4.003  88.366  1.00  0.00     0.043 A 
HETATM    2  C2  UNL     1      -0.644  -4.726  89.124  1.00  0.00     0.032 A 
HETATM    3  C3  UNL     1      -0.815  -6.113  88.968  1.00  0.00     0.033 A 
HETATM    4  C4  UNL     1      -0.088  -6.796  88.023  1.00  0.00     0.043 A 
HETATM    5  N2  UNL     1      -0.032  -8.085  87.648  1.00  0.00    -0.354 N 
ATOM      6  H2  UNL     1      -0.590  -8.832  88.061  1.00  0.00     0.166 HD
HETATM    7  C5  UNL     1       0.858  -8.260  86.654  1.00  0.00     0.060 A 
HETATM    8  C14 UNL     1       1.405  -7.027  86.369  1.00  0.00     0.045 A 
HETATM    9  C15 UNL     1       0.805  -6.110  87.235  1.00  0.00    -0.005 A 
HETATM   10  C16 UNL     1       0.947  -4.772  87.411  1.00  0.00     0.043 A 
ENDROOT
BRANCH   1  11
HETATM   11  N1  UNL     1       0.529  -2.630  88.446  1.00  0.00    -0.279 N 
ATOM     12  H1  UNL     1       0.314  -2.208  89.350  1.00  0.00     0.179 HD
BRANCH  11  13
HETATM   13  S1  UNL     1       1.176  -1.556  87.326  1.00  0.00     0.278 S 
HETATM   14  O1  UNL     1       1.085  -0.109  87.809  1.00  0.00    -0.199 OA
HETATM   15  O2  UNL     1       2.667  -1.845  87.105  1.00  0.00    -0.199 OA
BRANCH  13  16
HETATM   16  C17 UNL     1       0.447  -1.576  85.766  1.00  0.00     0.149 A 
HETATM   17  C18 UNL     1      -0.794  -2.058  85.462  1.00  0.00     0.044 A 
HETATM   18  C19 UNL     1      -1.327  -2.136  84.190  1.00  0.00     0.004 A 
HETATM   19  C20 UNL     1      -0.573  -1.707  83.138  1.00  0.00     0.017 A 
HETATM   20  C21 UNL     1       0.686  -1.217  83.430  1.00  0.00     0.089 A 
HETATM   21  N4  UNL     1       1.171  -1.155  84.676  1.00  0.00    -0.355 N 
ATOM     22  H4  UNL     1       2.109  -0.782  84.822  1.00  0.00     0.166 HD
ENDBRANCH  13  16
ENDBRANCH  11  13
ENDBRANCH   1  11
BRANCH   7  23
HETATM   23  C6  UNL     1       1.166  -9.543  86.010  1.00  0.00     0.060 A 
HETATM   24  C7  UNL     1       0.974 -10.805  86.530  1.00  0.00     0.045 A 
HETATM   25  C8  UNL     1       1.391 -11.757  85.613  1.00  0.00    -0.007 A 
HETATM   26  C9  UNL     1       1.445 -13.133  85.566  1.00  0.00     0.014 A 
HETATM   27  C13 UNL     1       1.843 -11.042  84.514  1.00  0.00     0.043 A 
HETATM   28  C10 UNL     1       1.926 -13.836  84.481  1.00  0.00     0.001 A 
HETATM   29  C11 UNL     1       2.374 -13.103  83.393  1.00  0.00     0.002 A 
HETATM   30  C12 UNL     1       2.329 -11.727  83.419  1.00  0.00     0.030 A 
HETATM   31  N3  UNL     1       1.692  -9.718  84.792  1.00  0.00    -0.354 N 
ATOM     32  H3  UNL     1       1.945  -8.961  84.156  1.00  0.00     0.166 HD
ENDBRANCH   7  23
TORSDOF 4
ENDMDL
MODEL 4
REMARK VINA RESULT: -8.615276146      3.622      4.957
REMARK  4 active torsions:
REMARK  status: ('A' for Active; 'I' for Inactive)
REMARK    1  A    between atoms: S1_2  and  N1_4 
REMARK    2  A    between atoms: S1_2  and  C17_26 
REMARK    3  A    between atoms: N1_4  and  C1_6 
REMARK    4  A    between atoms: C5_12  and  C6_13 
ROOT
HETATM    1  C1  UNL     1       0.833  -3.956  88.153  1.00  0.00     0.043 A 
HETATM    2  C2  UNL     1      -0.312  -4.486  88.673  1.00  0.00     0.032 A 
HETATM    3  C3  UNL     1      -0.615  -5.856  88.597  1.00  0.00     0.033 A 
HETATM    4  C4  UNL     1       0.256  -6.722  87.982  1.00  0.00     0.043 A 
HETATM    5  N2  UNL     1       0.246  -8.048  87.758  1.00  0.00    -0.354 N 
ATOM      6  H2  UNL     1      -0.503  -8.677  88.048  1.00  0.00     0.166 HD
HETATM    7  C5  UNL     1       1.353  -8.435  87.100  1.00  0.00     0.060 A 
HETATM    8  C14 UNL     1       2.120  -7.310  86.885  1.00  0.00     0.045 A 
HETATM    9  C15 UNL     1       1.423  -6.235  87.444  1.00  0.00    -0.005 A 
HETATM   10  C16 UNL     1       1.686  -4.907  87.533  1.00  0.00     0.043 A 
ENDROOT
BRANCH   1  11
HETATM   11  N1  UNL     1       1.278  -2.621  88.197  1.00  0.00    -0.279 N 
ATOM     12  H1  UNL     1       1.466  -2.275  89.138  1.00  0.00     0.179 HD
BRANCH  11  13
HETATM   13  S1  UNL     1       1.556  -1.491  86.983  1.00  0.00     0.278 S 
HETATM   14  O1  UNL     1       1.409  -0.059  87.496  1.00  0.00    -0.199 OA
HETATM   15  O2  UNL     1       2.990  -1.615  86.453  1.00  0.00    -0.199 OA
BRANCH  13  16
HETATM   16  C17 UNL     1       0.524  -1.604  85.608  1.00  0.00     0.149 A 
HETATM   17  C18 UNL     1      -0.761  -2.067  85.601  1.00  0.00     0.044 A 
HETATM   18  C19 UNL     1      -1.542  -2.223  84.472  1.00  0.00     0.004 A 
HETATM   19  C20 UNL     1      -1.011  -1.898  83.259  1.00  0.00     0.017 A 
HETATM   20  C21 UNL     1       0.289  -1.429  83.251  1.00  0.00     0.089 A 
HETATM   21  N4  UNL     1       1.018  -1.289  84.365  1.00  0.00    -0.355 N 
ATOM     22  H4  UNL     1       1.972  -0.938  84.289  1.00  0.00     0.166 HD
ENDBRANCH  13  16
ENDBRANCH  11  13
ENDBRANCH   1  11
BRANCH   7  23
HETATM   23  C6  UNL     1       1.660  -9.813  86.698  1.00  0.00     0.060 A 
HETATM   24  C7  UNL     1       1.428 -10.396  85.470  1.00  0.00     0.045 A 
HETATM   25  C8  UNL     1       1.859 -11.713  85.489  1.00  0.00    -0.007 A 
HETATM   26  C9  UNL     1       1.890 -12.760  84.593  1.00  0.00     0.014 A 
HETATM   27  C13 UNL     1       2.363 -11.922  86.764  1.00  0.00     0.043 A 
HETATM   28  C10 UNL     1       2.397 -14.005  84.900  1.00  0.00     0.001 A 
HETATM   29  C11 UNL     1       2.896 -14.194  86.180  1.00  0.00     0.002 A 
HETATM   30  C12 UNL     1       2.874 -13.161  87.091  1.00  0.00     0.030 A 
HETATM   31  N3  UNL     1       2.224 -10.760  87.458  1.00  0.00    -0.354 N 
ATOM     32  H3  UNL     1       2.513 -10.627  88.428  1.00  0.00     0.166 HD
ENDBRANCH   7  23
TORSDOF 4
ENDMDL
MODEL 5
REMARK VINA RESULT: -8.607382447      1.289      1.783
REMARK  4 active torsions:
REMARK  status: ('A' for Active; 'I' for Inactive)
REMARK    1  A    between atoms: S1_2  and  N1_4 
REMARK    2  A    between atoms: S1_2  and  C17_26 
REMARK    3  A    between atoms: N1_4  and  C1_6 
REMARK    4  A    between atoms: C5_12  and  C6_13 
ROOT
HETATM    1  C1  UNL     1      -0.281  -5.178  88.046  1.00  0.00     0.043 A 
HETATM    2  C2  UNL     1       0.331  -4.709  86.920  1.00  0.00     0.032 A 
HETATM    3  C3  UNL     1       0.953  -5.556  85.987  1.00  0.00     0.033 A 
HETATM    4  C4  UNL     1       0.962  -6.915  86.187  1.00  0.00     0.043 A 
HETATM    5  N2  UNL     1       1.461  -7.953  85.494  1.00  0.00    -0.354 N 
ATOM      6  H2  UNL     1       1.968  -7.869  84.612  1.00  0.00     0.166 HD
HETATM    7  C5  UNL     1       1.206  -9.117  86.117  1.00  0.00     0.060 A 
HETATM    8  C14 UNL     1       0.509  -8.824  87.270  1.00  0.00     0.045 A 
HETATM    9  C15 UNL     1       0.358  -7.435  87.306  1.00  0.00    -0.005 A 
HETATM   10  C16 UNL     1      -0.233  -6.591  88.189  1.00  0.00     0.043 A 
ENDROOT
BRANCH   1  11
HETATM   11  N1  UNL     1      -0.973  -4.452  89.033  1.00  0.00    -0.279 N 
ATOM     12  H1  UNL     1      -1.756  -3.905  88.676  1.00  0.00     0.179 HD
BRANCH  11  13
HETATM   13  S1  UNL     1      -0.746  -4.320  90.694  1.00  0.00     0.278 S 
HETATM   14  O1  UNL     1      -1.330  -5.517  91.443  1.00  0.00    -0.199 OA
HETATM   15  O2  UNL     1       0.750  -4.288  91.030  1.00  0.00    -0.199 OA
BRANCH  13  16
HETATM   16  C17 UNL     1      -1.434  -2.924  91.432  1.00  0.00     0.149 A 
HETATM   17  C18 UNL     1      -0.765  -1.787  91.785  1.00  0.00     0.044 A 
HETATM   18  C19 UNL     1      -1.323  -0.711  92.449  1.00  0.00     0.004 A 
HETATM   19  C20 UNL     1      -2.643  -0.766  92.790  1.00  0.00     0.017 A 
HETATM   20  C21 UNL     1      -3.332  -1.911  92.441  1.00  0.00     0.089 A 
HETATM   21  N4  UNL     1      -2.759  -2.936  91.796  1.00  0.00    -0.355 N 
ATOM     22  H4  UNL     1      -3.326  -3.753  91.567  1.00  0.00     0.166 HD
ENDBRANCH  13  16
ENDBRANCH  11  13
ENDBRANCH   1  11
BRANCH   7  23
HETATM   23  C6  UNL     1       1.610 -10.443  85.633  1.00  0.00     0.060 A 
HETATM   24  C7  UNL     1       1.045 -11.659  85.955  1.00  0.00     0.045 A 
HETATM   25  C8  UNL     1       1.712 -12.675  85.291  1.00  0.00    -0.007 A 
HETATM   26  C9  UNL     1       1.609 -14.048  85.217  1.00  0.00     0.014 A 
HETATM   27  C13 UNL     1       2.704 -12.048  84.550  1.00  0.00     0.043 A 
HETATM   28  C10 UNL     1       2.442 -14.829  84.444  1.00  0.00     0.001 A 
HETATM   29  C11 UNL     1       3.427 -14.184  83.711  1.00  0.00     0.002 A 
HETATM   30  C12 UNL     1       3.547 -12.813  83.771  1.00  0.00     0.030 A 
HETATM   31  N3  UNL     1       2.610 -10.711  84.783  1.00  0.00    -0.354 N 
ATOM     32  H3  UNL     1       3.219 -10.007  84.365  1.00  0.00     0.166 HD
ENDBRANCH   7  23
TORSDOF 4
ENDMDL
