MODEL 1
REMARK VINA RESULT: -3.617633643      0.000      0.000
REMARK  1 active torsions:
REMARK  status: ('A' for Active; 'I' for Inactive)
REMARK    1  A    between atoms: C19_24  and  C20_25 
ROOT
HETATM    1  O1  UNL     1      43.018  -1.714  24.784  1.00  0.00    -0.273 OA
HETATM    2  C1  UNL     1      42.231  -0.754  24.588  1.00  0.00     0.228 C 
HETATM    3  N1  UNL     1      40.899  -1.153  24.301  1.00  0.00    -0.360 N 
ATOM      4  H1  UNL     1      40.754  -2.069  23.876  1.00  0.00     0.162 HD
HETATM    5  C2  UNL     1      39.734  -0.337  24.573  1.00  0.00     0.123 C 
HETATM    6  C3  UNL     1      40.160   1.129  24.469  1.00  0.00     0.025 C 
HETATM    7  C4  UNL     1      41.453   1.373  25.217  1.00  0.00     0.007 C 
HETATM    8  C5  UNL     1      41.102   0.977  26.652  1.00  0.00     0.006 C 
HETATM    9  C6  UNL     1      41.457   2.057  27.650  1.00  0.00     0.000 C 
HETATM   10  C7  UNL     1      40.662   1.840  28.912  1.00  0.00     0.000 C 
HETATM   11  C8  UNL     1      41.161   0.707  29.745  1.00  0.00     0.000 C 
HETATM   12  C9  UNL     1      42.374   1.110  30.523  1.00  0.00     0.000 C 
HETATM   13  C10 UNL     1      42.894   0.001  31.404  1.00  0.00     0.001 C 
HETATM   14  C11 UNL     1      43.313  -1.226  30.627  1.00  0.00     0.016 C 
HETATM   15  C12 UNL     1      44.489  -0.929  29.758  1.00  0.00     0.058 C 
HETATM   16 BR1  UNL     1      46.050  -1.969  30.314  1.00  0.00    -0.091 Br
HETATM   17  C13 UNL     1      44.288  -1.169  28.307  1.00  0.00     0.027 C 
HETATM   18  C14 UNL     1      45.002  -0.120  27.449  1.00  0.00     0.081 C 
HETATM   19  C15 UNL     1      44.505   0.380  26.364  1.00  0.00    -0.175 C 
HETATM   20  C16 UNL     1      43.967   0.920  25.194  1.00  0.00     0.089 C 
HETATM   21  C17 UNL     1      44.875   0.559  24.027  1.00  0.00     0.099 C 
HETATM   22 CL1  UNL     1      45.939  -0.842  24.432  1.00  0.00    -0.124 Cl
HETATM   23  C18 UNL     1      44.048   0.334  22.827  1.00  0.00     0.036 C 
HETATM   24  C19 UNL     1      42.781   1.111  23.227  1.00  0.00     0.114 C 
HETATM   25  C21 UNL     1      42.637   0.671  24.649  1.00  0.00     0.071 C 
ENDROOT
BRANCH  24  26
HETATM   26  C20 UNL     1      42.952   2.471  22.794  1.00  0.00     0.392 C 
HETATM   27  F1  UNL     1      43.394   2.396  21.437  1.00  0.00    -0.171 F 
HETATM   28  F2  UNL     1      44.059   3.180  23.308  1.00  0.00    -0.171 F 
HETATM   29  F3  UNL     1      41.962   3.381  22.770  1.00  0.00    -0.171 F 
ENDBRANCH  24  26
TORSDOF 1
ENDMDL
MODEL 2
REMARK VINA RESULT: -3.585855306      3.028      4.480
REMARK  1 active torsions:
REMARK  status: ('A' for Active; 'I' for Inactive)
REMARK    1  A    between atoms: C19_24  and  C20_25 
ROOT
HETATM    1  O1  UNL     1      42.977   1.733  24.748  1.00  0.00    -0.273 OA
HETATM    2  C1  UNL     1      43.770   0.779  24.548  1.00  0.00     0.228 C 
HETATM    3  N1  UNL     1      45.098   1.187  24.259  1.00  0.00    -0.360 N 
ATOM      4  H1  UNL     1      45.236   2.106  23.838  1.00  0.00     0.162 HD
HETATM    5  C2  UNL     1      46.269   0.378  24.526  1.00  0.00     0.123 C 
HETATM    6  C3  UNL     1      45.853  -1.090  24.418  1.00  0.00     0.025 C 
HETATM    7  C4  UNL     1      44.563  -1.345  25.167  1.00  0.00     0.007 C 
HETATM    8  C5  UNL     1      44.914  -0.952  26.604  1.00  0.00     0.006 C 
HETATM    9  C6  UNL     1      44.568  -2.037  27.598  1.00  0.00     0.000 C 
HETATM   10  C7  UNL     1      45.364  -1.820  28.860  1.00  0.00     0.000 C 
HETATM   11  C8  UNL     1      44.860  -0.693  29.698  1.00  0.00     0.000 C 
HETATM   12  C9  UNL     1      43.652  -1.107  30.477  1.00  0.00     0.000 C 
HETATM   13  C10 UNL     1      43.126  -0.004  31.363  1.00  0.00     0.001 C 
HETATM   14  C11 UNL     1      42.697   1.223  30.590  1.00  0.00     0.016 C 
HETATM   15  C12 UNL     1      41.521   0.921  29.723  1.00  0.00     0.058 C 
HETATM   16 BR1  UNL     1      39.955   1.949  30.286  1.00  0.00    -0.091 Br
HETATM   17  C13 UNL     1      41.718   1.167  28.272  1.00  0.00     0.027 C 
HETATM   18  C14 UNL     1      41.009   0.117  27.412  1.00  0.00     0.081 C 
HETATM   19  C15 UNL     1      41.507  -0.377  26.325  1.00  0.00    -0.175 C 
HETATM   20  C16 UNL     1      42.046  -0.909  25.152  1.00  0.00     0.089 C 
HETATM   21  C17 UNL     1      41.133  -0.550  23.988  1.00  0.00     0.099 C 
HETATM   22 CL1  UNL     1      40.061   0.843  24.399  1.00  0.00    -0.124 Cl
HETATM   23  C18 UNL     1      41.956  -0.315  22.787  1.00  0.00     0.036 C 
HETATM   24  C19 UNL     1      43.229  -1.085  23.181  1.00  0.00     0.114 C 
HETATM   25  C21 UNL     1      43.373  -0.650  24.604  1.00  0.00     0.071 C 
ENDROOT
BRANCH  24  26
HETATM   26  C20 UNL     1      43.065  -2.445  22.744  1.00  0.00     0.392 C 
HETATM   27  F1  UNL     1      42.612  -2.368  21.391  1.00  0.00    -0.171 F 
HETATM   28  F2  UNL     1      41.969  -3.165  23.264  1.00  0.00    -0.171 F 
HETATM   29  F3  UNL     1      44.063  -3.347  22.708  1.00  0.00    -0.171 F 
ENDBRANCH  24  26
TORSDOF 1
ENDMDL
MODEL 3
REMARK VINA RESULT: -2.740078174      1.404      1.715
REMARK  1 active torsions:
REMARK  status: ('A' for Active; 'I' for Inactive)
REMARK    1  A    between atoms: C19_24  and  C20_25 
ROOT
HETATM    1  O1  UNL     1      43.093  -2.206  26.318  1.00  0.00    -0.273 OA
HETATM    2  C1  UNL     1      42.625  -1.104  25.939  1.00  0.00     0.228 C 
HETATM    3  N1  UNL     1      41.270  -1.168  25.522  1.00  0.00    -0.360 N 
ATOM      4  H1  UNL     1      40.920  -2.058  25.166  1.00  0.00     0.162 HD
HETATM    5  C2  UNL     1      40.354  -0.047  25.570  1.00  0.00     0.123 C 
HETATM    6  C3  UNL     1      41.175   1.230  25.391  1.00  0.00     0.025 C 
HETATM    7  C4  UNL     1      42.406   1.213  26.272  1.00  0.00     0.007 C 
HETATM    8  C5  UNL     1      41.821   1.100  27.681  1.00  0.00     0.006 C 
HETATM    9  C6  UNL     1      42.360   2.159  28.615  1.00  0.00     0.000 C 
HETATM   10  C7  UNL     1      41.417   2.313  29.780  1.00  0.00     0.000 C 
HETATM   11  C8  UNL     1      41.499   1.197  30.768  1.00  0.00     0.000 C 
HETATM   12  C9  UNL     1      42.695   1.357  31.654  1.00  0.00     0.000 C 
HETATM   13  C10 UNL     1      42.800   0.264  32.689  1.00  0.00     0.001 C 
HETATM   14  C11 UNL     1      42.938  -1.114  32.084  1.00  0.00     0.016 C 
HETATM   15  C12 UNL     1      44.229  -1.245  31.349  1.00  0.00     0.058 C 
HETATM   16 BR1  UNL     1      45.380  -2.585  32.189  1.00  0.00    -0.091 Br
HETATM   17  C13 UNL     1      44.113  -1.596  29.911  1.00  0.00     0.027 C 
HETATM   18  C14 UNL     1      45.170  -0.883  29.060  1.00  0.00     0.081 C 
HETATM   19  C15 UNL     1      44.938  -0.404  27.881  1.00  0.00    -0.175 C 
HETATM   20  C16 UNL     1      44.687   0.113  26.609  1.00  0.00     0.089 C 
HETATM   21  C17 UNL     1      45.570  -0.612  25.603  1.00  0.00     0.099 C 
HETATM   22 CL1  UNL     1      46.161  -2.184  26.263  1.00  0.00    -0.124 Cl
HETATM   23  C18 UNL     1      44.835  -0.754  24.333  1.00  0.00     0.036 C 
HETATM   24  C19 UNL     1      43.799   0.373  24.497  1.00  0.00     0.114 C 
HETATM   25  C21 UNL     1      43.401   0.161  25.923  1.00  0.00     0.071 C 
ENDROOT
BRANCH  24  26
HETATM   26  C20 UNL     1      44.380   1.577  23.971  1.00  0.00     0.392 C 
HETATM   27  F1  UNL     1      43.890   1.693  22.633  1.00  0.00    -0.171 F 
HETATM   28  F2  UNL     1      45.756   1.550  23.660  1.00  0.00    -0.171 F 
HETATM   29  F3  UNL     1      44.187   2.798  24.501  1.00  0.00    -0.171 F 
ENDBRANCH  24  26
TORSDOF 1
ENDMDL
MODEL 4
REMARK VINA RESULT: -2.737358571      3.054      4.486
REMARK  1 active torsions:
REMARK  status: ('A' for Active; 'I' for Inactive)
REMARK    1  A    between atoms: C19_24  and  C20_25 
ROOT
HETATM    1  O1  UNL     1      42.890   2.227  26.316  1.00  0.00    -0.273 OA
HETATM    2  C1  UNL     1      43.355   1.124  25.935  1.00  0.00     0.228 C 
HETATM    3  N1  UNL     1      44.709   1.186  25.514  1.00  0.00    -0.360 N 
ATOM      4  H1  UNL     1      45.060   2.076  25.158  1.00  0.00     0.162 HD
HETATM    5  C2  UNL     1      45.623   0.064  25.559  1.00  0.00     0.123 C 
HETATM    6  C3  UNL     1      44.799  -1.212  25.381  1.00  0.00     0.025 C 
HETATM    7  C4  UNL     1      43.571  -1.193  26.265  1.00  0.00     0.007 C 
HETATM    8  C5  UNL     1      44.159  -1.082  27.672  1.00  0.00     0.006 C 
HETATM    9  C6  UNL     1      43.620  -2.141  28.607  1.00  0.00     0.000 C 
HETATM   10  C7  UNL     1      44.566  -2.298  29.770  1.00  0.00     0.000 C 
HETATM   11  C8  UNL     1      44.489  -1.183  30.758  1.00  0.00     0.000 C 
HETATM   12  C9  UNL     1      43.295  -1.342  31.648  1.00  0.00     0.000 C 
HETATM   13  C10 UNL     1      43.194  -0.250  32.684  1.00  0.00     0.001 C 
HETATM   14  C11 UNL     1      43.058   1.129  32.081  1.00  0.00     0.016 C 
HETATM   15  C12 UNL     1      41.765   1.263  31.349  1.00  0.00     0.058 C 
HETATM   16 BR1  UNL     1      40.618   2.605  32.193  1.00  0.00    -0.091 Br
HETATM   17  C13 UNL     1      41.878   1.615  29.911  1.00  0.00     0.027 C 
HETATM   18  C14 UNL     1      40.818   0.906  29.062  1.00  0.00     0.081 C 
HETATM   19  C15 UNL     1      41.046   0.427  27.882  1.00  0.00    -0.175 C 
HETATM   20  C16 UNL     1      41.292  -0.090  26.609  1.00  0.00     0.089 C 
HETATM   21  C17 UNL     1      40.408   0.638  25.606  1.00  0.00     0.099 C 
HETATM   22 CL1  UNL     1      39.822   2.211  26.269  1.00  0.00    -0.124 Cl
HETATM   23  C18 UNL     1      41.140   0.780  24.334  1.00  0.00     0.036 C 
HETATM   24  C19 UNL     1      42.175  -0.349  24.495  1.00  0.00     0.114 C 
HETATM   25  C21 UNL     1      42.577  -0.139  25.920  1.00  0.00     0.071 C 
ENDROOT
BRANCH  24  26
HETATM   26  C20 UNL     1      41.590  -1.552  23.968  1.00  0.00     0.392 C 
HETATM   27  F1  UNL     1      42.082  -1.671  22.632  1.00  0.00    -0.171 F 
HETATM   28  F2  UNL     1      40.214  -1.520  23.656  1.00  0.00    -0.171 F 
HETATM   29  F3  UNL     1      41.778  -2.773  24.500  1.00  0.00    -0.171 F 
ENDBRANCH  24  26
TORSDOF 1
ENDMDL
MODEL 5
REMARK VINA RESULT: -1.482999642      5.817      8.861
REMARK  1 active torsions:
REMARK  status: ('A' for Active; 'I' for Inactive)
REMARK    1  A    between atoms: C19_24  and  C20_25 
ROOT
HETATM    1  O1  UNL     1      41.885  -1.464  33.428  1.00  0.00    -0.273 OA
HETATM    2  C1  UNL     1      43.038  -1.919  33.221  1.00  0.00     0.228 C 
HETATM    3  N1  UNL     1      43.089  -3.334  33.124  1.00  0.00    -0.360 N 
ATOM      4  H1  UNL     1      42.370  -3.873  33.608  1.00  0.00     0.162 HD
HETATM    5  C2  UNL     1      44.097  -4.058  32.379  1.00  0.00     0.123 C 
HETATM    6  C3  UNL     1      45.378  -3.221  32.399  1.00  0.00     0.025 C 
HETATM    7  C4  UNL     1      45.085  -1.772  32.075  1.00  0.00     0.007 C 
HETATM    8  C5  UNL     1      44.470  -1.848  30.676  1.00  0.00     0.006 C 
HETATM    9  C6  UNL     1      45.149  -0.916  29.698  1.00  0.00     0.000 C 
HETATM   10  C7  UNL     1      44.861  -1.382  28.294  1.00  0.00     0.000 C 
HETATM   11  C8  UNL     1      43.472  -1.081  27.837  1.00  0.00     0.000 C 
HETATM   12  C9  UNL     1      43.342   0.355  27.437  1.00  0.00     0.000 C 
HETATM   13  C10 UNL     1      41.960   0.696  26.939  1.00  0.00     0.001 C 
HETATM   14  C11 UNL     1      40.885   0.477  27.978  1.00  0.00     0.016 C 
HETATM   15  C12 UNL     1      41.053   1.418  29.124  1.00  0.00     0.058 C 
HETATM   16 BR1  UNL     1      39.534   2.643  29.251  1.00  0.00    -0.091 Br
HETATM   17  C13 UNL     1      41.225   0.781  30.454  1.00  0.00     0.027 C 
HETATM   18  C14 UNL     1      42.217   1.549  31.333  1.00  0.00     0.081 C 
HETATM   19  C15 UNL     1      43.073   0.978  32.117  1.00  0.00    -0.175 C 
HETATM   20  C16 UNL     1      43.996   0.362  32.963  1.00  0.00     0.089 C 
HETATM   21  C17 UNL     1      43.692   0.768  34.399  1.00  0.00     0.099 C 
HETATM   22 CL1  UNL     1      42.004   1.385  34.562  1.00  0.00    -0.124 Cl
HETATM   23  C18 UNL     1      43.985  -0.368  35.292  1.00  0.00     0.036 C 
HETATM   24  C19 UNL     1      44.955  -1.165  34.401  1.00  0.00     0.114 C 
HETATM   25  C21 UNL     1      44.247  -1.070  33.087  1.00  0.00     0.071 C 
ENDROOT
BRANCH  24  26
HETATM   26  C20 UNL     1      46.283  -0.679  34.662  1.00  0.00     0.392 C 
HETATM   27  F1  UNL     1      46.889  -1.647  35.522  1.00  0.00    -0.171 F 
HETATM   28  F2  UNL     1      46.408   0.433  35.522  1.00  0.00    -0.171 F 
HETATM   29  F3  UNL     1      47.204  -0.462  33.707  1.00  0.00    -0.171 F 
ENDBRANCH  24  26
TORSDOF 1
ENDMDL
