MODEL 1
REMARK VINA RESULT: -7.398372831      0.000      0.000
REMARK  6 active torsions:
REMARK  status: ('A' for Active; 'I' for Inactive)
REMARK    1  A    between atoms: C9_9  and  O1_10 
REMARK    2  A    between atoms: O1_10  and  C10_11 
REMARK    3  A    between atoms: C10_11  and  N1_12 
REMARK    4  A    between atoms: C10_11  and  S1_18 
REMARK    5  A    between atoms: N1_12  and  C11_14 
REMARK    6  A    between atoms: S1_18  and  N2_19 
ROOT
HETATM    1  O1  UNL     1       1.872  67.736  64.777  1.00  0.00    -0.323 OA
ENDROOT
BRANCH   1   2
HETATM    2  C9  UNL     1       3.004  68.513  64.677  1.00  0.00     0.142 C 
HETATM    3  C2  UNL     1       3.732  68.764  65.964  1.00  0.00     0.012 C 
HETATM    4  C1  UNL     1       2.744  69.375  66.939  1.00  0.00     0.012 C 
HETATM    5  C3  UNL     1       4.744  69.880  65.677  1.00  0.00     0.007 C 
HETATM    6  C4  UNL     1       5.695  69.500  64.595  1.00  0.00     0.001 C 
HETATM    7  C5  UNL     1       4.875  69.266  63.325  1.00  0.00     0.011 C 
HETATM    8  C6  UNL     1       3.926  68.105  63.540  1.00  0.00    -0.021 C 
HETATM    9  C7  UNL     1       4.705  66.870  63.771  1.00  0.00     0.017 C 
HETATM   10  C8  UNL     1       3.057  68.026  62.296  1.00  0.00     0.017 C 
ENDBRANCH   1   2
BRANCH   1  11
HETATM   11  C10 UNL     1       0.585  67.947  64.970  1.00  0.00     0.197 C 
BRANCH  11  12
HETATM   12  N1  UNL     1      -0.267  67.315  65.835  1.00  0.00    -0.356 N 
ATOM     13  H1  UNL     1      -0.585  66.391  65.542  1.00  0.00     0.163 HD
BRANCH  12  14
HETATM   14  C11 UNL     1      -0.779  67.779  67.111  1.00  0.00     0.021 C 
HETATM   15  C12 UNL     1      -0.921  69.237  67.299  1.00  0.00     0.037 C 
HETATM   16  C13 UNL     1      -2.127  67.120  67.411  1.00  0.00     0.037 C 
HETATM   17  C14 UNL     1       0.154  67.272  68.219  1.00  0.00     0.037 C 
ENDBRANCH  12  14
ENDBRANCH  11  12
BRANCH  11  18
HETATM   18  S1  UNL     1      -0.081  69.139  64.064  1.00  0.00     0.038 SA
BRANCH  18  19
HETATM   19  N2  UNL     1      -0.342  68.478  62.551  1.00  0.00    -0.060 NA
HETATM   20 CL1  UNL     1       0.004  69.661  61.278  1.00  0.00     0.010 Cl
ENDBRANCH  18  19
ENDBRANCH  11  18
ENDBRANCH   1  11
TORSDOF 6
ENDMDL
MODEL 2
REMARK VINA RESULT: -7.348360455      2.447      2.664
REMARK  6 active torsions:
REMARK  status: ('A' for Active; 'I' for Inactive)
REMARK    1  A    between atoms: C9_9  and  O1_10 
REMARK    2  A    between atoms: O1_10  and  C10_11 
REMARK    3  A    between atoms: C10_11  and  N1_12 
REMARK    4  A    between atoms: C10_11  and  S1_18 
REMARK    5  A    between atoms: N1_12  and  C11_14 
REMARK    6  A    between atoms: S1_18  and  N2_19 
ROOT
HETATM    1  O1  UNL     1       2.046  68.294  64.447  1.00  0.00    -0.323 OA
ENDROOT
BRANCH   1   2
HETATM    2  C9  UNL     1       3.244  68.813  64.008  1.00  0.00     0.142 C 
HETATM    3  C2  UNL     1       4.367  68.776  65.001  1.00  0.00     0.012 C 
HETATM    4  C1  UNL     1       3.897  69.491  66.253  1.00  0.00     0.012 C 
HETATM    5  C3  UNL     1       5.476  69.668  64.431  1.00  0.00     0.007 C 
HETATM    6  C4  UNL     1       5.934  69.195  63.094  1.00  0.00     0.001 C 
HETATM    7  C5  UNL     1       4.736  69.267  62.147  1.00  0.00     0.011 C 
HETATM    8  C6  UNL     1       3.651  68.325  62.628  1.00  0.00    -0.021 C 
HETATM    9  C7  UNL     1       4.148  66.934  62.572  1.00  0.00     0.017 C 
HETATM   10  C8  UNL     1       2.451  68.555  61.725  1.00  0.00     0.017 C 
ENDBRANCH   1   2
BRANCH   1  11
HETATM   11  C10 UNL     1       1.662  67.272  65.185  1.00  0.00     0.197 C 
BRANCH  11  12
HETATM   12  N1  UNL     1       1.083  67.279  66.425  1.00  0.00    -0.356 N 
ATOM     13  H1  UNL     1       1.525  66.678  67.121  1.00  0.00     0.163 HD
BRANCH  12  14
HETATM   14  C11 UNL     1      -0.075  68.023  66.885  1.00  0.00     0.021 C 
HETATM   15  C12 UNL     1      -0.974  68.589  65.859  1.00  0.00     0.037 C 
HETATM   16  C13 UNL     1      -0.909  67.167  67.840  1.00  0.00     0.037 C 
HETATM   17  C14 UNL     1       0.416  69.195  67.747  1.00  0.00     0.037 C 
ENDBRANCH  12  14
ENDBRANCH  11  12
BRANCH  11  18
HETATM   18  S1  UNL     1       1.894  65.792  64.519  1.00  0.00     0.038 SA
BRANCH  18  19
HETATM   19  N2  UNL     1       3.039  65.032  65.472  1.00  0.00    -0.060 NA
HETATM   20 CL1  UNL     1       3.748  63.649  64.620  1.00  0.00     0.010 Cl
ENDBRANCH  18  19
ENDBRANCH  11  18
ENDBRANCH   1  11
TORSDOF 6
ENDMDL
MODEL 3
REMARK VINA RESULT: -7.080753142      8.482     11.209
REMARK  6 active torsions:
REMARK  status: ('A' for Active; 'I' for Inactive)
REMARK    1  A    between atoms: C9_9  and  O1_10 
REMARK    2  A    between atoms: O1_10  and  C10_11 
REMARK    3  A    between atoms: C10_11  and  N1_12 
REMARK    4  A    between atoms: C10_11  and  S1_18 
REMARK    5  A    between atoms: N1_12  and  C11_14 
REMARK    6  A    between atoms: S1_18  and  N2_19 
ROOT
HETATM    1  O1  UNL     1       1.022  61.324  71.450  1.00  0.00    -0.323 OA
ENDROOT
BRANCH   1   2
HETATM    2  C9  UNL     1       0.629  60.252  72.219  1.00  0.00     0.142 C 
HETATM    3  C2  UNL     1       1.732  59.343  72.675  1.00  0.00     0.012 C 
HETATM    4  C1  UNL     1       2.480  58.875  71.442  1.00  0.00     0.012 C 
HETATM    5  C3  UNL     1       1.054  58.084  73.227  1.00  0.00     0.007 C 
HETATM    6  C4  UNL     1       0.128  58.401  74.351  1.00  0.00     0.001 C 
HETATM    7  C5  UNL     1      -0.961  59.323  73.802  1.00  0.00     0.011 C 
HETATM    8  C6  UNL     1      -0.337  60.622  73.332  1.00  0.00    -0.021 C 
HETATM    9  C7  UNL     1       0.267  61.323  74.485  1.00  0.00     0.017 C 
HETATM   10  C8  UNL     1      -1.452  61.421  72.678  1.00  0.00     0.017 C 
ENDBRANCH   1   2
BRANCH   1  11
HETATM   11  C10 UNL     1       1.817  62.365  71.599  1.00  0.00     0.197 C 
BRANCH  11  12
HETATM   12  N1  UNL     1       3.178  62.392  71.739  1.00  0.00    -0.356 N 
ATOM     13  H1  UNL     1       3.519  62.514  72.693  1.00  0.00     0.163 HD
BRANCH  12  14
HETATM   14  C11 UNL     1       4.202  62.272  70.718  1.00  0.00     0.021 C 
HETATM   15  C12 UNL     1       3.802  61.699  69.416  1.00  0.00     0.037 C 
HETATM   16  C13 UNL     1       4.861  63.629  70.468  1.00  0.00     0.037 C 
HETATM   17  C14 UNL     1       5.331  61.390  71.269  1.00  0.00     0.037 C 
ENDBRANCH  12  14
ENDBRANCH  11  12
BRANCH  11  18
HETATM   18  S1  UNL     1       1.075  63.827  71.597  1.00  0.00     0.038 SA
BRANCH  18  19
HETATM   19  N2  UNL     1       1.186  64.398  70.030  1.00  0.00    -0.060 NA
HETATM   20 CL1  UNL     1       1.551  66.132  70.016  1.00  0.00     0.010 Cl
ENDBRANCH  18  19
ENDBRANCH  11  18
ENDBRANCH   1  11
TORSDOF 6
ENDMDL
MODEL 4
REMARK VINA RESULT: -7.076648178      8.758     11.461
REMARK  6 active torsions:
REMARK  status: ('A' for Active; 'I' for Inactive)
REMARK    1  A    between atoms: C9_9  and  O1_10 
REMARK    2  A    between atoms: O1_10  and  C10_11 
REMARK    3  A    between atoms: C10_11  and  N1_12 
REMARK    4  A    between atoms: C10_11  and  S1_18 
REMARK    5  A    between atoms: N1_12  and  C11_14 
REMARK    6  A    between atoms: S1_18  and  N2_19 
ROOT
HETATM    1  O1  UNL     1       1.500  60.635  71.638  1.00  0.00    -0.323 OA
ENDROOT
BRANCH   1   2
HETATM    2  C9  UNL     1       0.330  60.431  72.334  1.00  0.00     0.142 C 
HETATM    3  C2  UNL     1       0.429  59.501  73.506  1.00  0.00     0.012 C 
HETATM    4  C1  UNL     1       0.992  58.186  73.003  1.00  0.00     0.012 C 
HETATM    5  C3  UNL     1      -1.012  59.180  73.924  1.00  0.00     0.007 C 
HETATM    6  C4  UNL     1      -1.771  60.410  74.284  1.00  0.00     0.001 C 
HETATM    7  C5  UNL     1      -1.826  61.296  73.039  1.00  0.00     0.011 C 
HETATM    8  C6  UNL     1      -0.422  61.712  72.650  1.00  0.00    -0.021 C 
HETATM    9  C7  UNL     1       0.162  62.538  73.729  1.00  0.00     0.017 C 
HETATM   10  C8  UNL     1      -0.547  62.467  71.337  1.00  0.00     0.017 C 
ENDBRANCH   1   2
BRANCH   1  11
HETATM   11  C10 UNL     1       2.645  61.253  71.855  1.00  0.00     0.197 C 
BRANCH  11  12
HETATM   12  N1  UNL     1       2.944  62.580  71.711  1.00  0.00    -0.356 N 
ATOM     13  H1  UNL     1       2.845  63.148  72.553  1.00  0.00     0.163 HD
BRANCH  12  14
HETATM   14  C11 UNL     1       3.381  63.292  70.524  1.00  0.00     0.021 C 
HETATM   15  C12 UNL     1       4.808  63.667  70.441  1.00  0.00     0.037 C 
HETATM   16  C13 UNL     1       3.015  62.501  69.268  1.00  0.00     0.037 C 
HETATM   17  C14 UNL     1       2.569  64.590  70.413  1.00  0.00     0.037 C 
ENDBRANCH  12  14
ENDBRANCH  11  12
BRANCH  11  18
HETATM   18  S1  UNL     1       3.870  60.304  72.390  1.00  0.00     0.038 SA
BRANCH  18  19
HETATM   19  N2  UNL     1       4.722  59.840  71.028  1.00  0.00    -0.060 NA
HETATM   20 CL1  UNL     1       3.656  59.035  69.864  1.00  0.00     0.010 Cl
ENDBRANCH  18  19
ENDBRANCH  11  18
ENDBRANCH   1  11
TORSDOF 6
ENDMDL
MODEL 5
REMARK VINA RESULT: -7.071237851      2.647      3.059
REMARK  6 active torsions:
REMARK  status: ('A' for Active; 'I' for Inactive)
REMARK    1  A    between atoms: C9_9  and  O1_10 
REMARK    2  A    between atoms: O1_10  and  C10_11 
REMARK    3  A    between atoms: C10_11  and  N1_12 
REMARK    4  A    between atoms: C10_11  and  S1_18 
REMARK    5  A    between atoms: N1_12  and  C11_14 
REMARK    6  A    between atoms: S1_18  and  N2_19 
ROOT
HETATM    1  O1  UNL     1       1.723  69.090  65.429  1.00  0.00    -0.323 OA
ENDROOT
BRANCH   1   2
HETATM    2  C9  UNL     1       2.869  69.106  64.666  1.00  0.00     0.142 C 
HETATM    3  C2  UNL     1       4.146  68.851  65.411  1.00  0.00     0.012 C 
HETATM    4  C1  UNL     1       4.233  69.866  66.534  1.00  0.00     0.012 C 
HETATM    5  C3  UNL     1       5.285  69.222  64.455  1.00  0.00     0.007 C 
HETATM    6  C4  UNL     1       5.236  68.424  63.198  1.00  0.00     0.001 C 
HETATM    7  C5  UNL     1       3.912  68.743  62.503  1.00  0.00     0.011 C 
HETATM    8  C6  UNL     1       2.758  68.303  63.381  1.00  0.00    -0.021 C 
HETATM    9  C7  UNL     1       2.801  66.834  63.549  1.00  0.00     0.017 C 
HETATM   10  C8  UNL     1       1.489  68.776  62.692  1.00  0.00     0.017 C 
ENDBRANCH   1   2
BRANCH   1  11
HETATM   11  C10 UNL     1       0.926  68.169  65.934  1.00  0.00     0.197 C 
BRANCH  11  12
HETATM   12  N1  UNL     1      -0.385  67.913  65.638  1.00  0.00    -0.356 N 
ATOM     13  H1  UNL     1      -0.542  67.291  64.844  1.00  0.00     0.163 HD
BRANCH  12  14
HETATM   14  C11 UNL     1      -1.581  68.404  66.296  1.00  0.00     0.021 C 
HETATM   15  C12 UNL     1      -2.731  68.763  65.440  1.00  0.00     0.037 C 
HETATM   16  C13 UNL     1      -2.056  67.401  67.348  1.00  0.00     0.037 C 
HETATM   17  C14 UNL     1      -1.210  69.659  67.098  1.00  0.00     0.037 C 
ENDBRANCH  12  14
ENDBRANCH  11  12
BRANCH  11  18
HETATM   18  S1  UNL     1       1.604  67.186  67.057  1.00  0.00     0.038 SA
BRANCH  18  19
HETATM   19  N2  UNL     1       1.412  67.962  68.526  1.00  0.00    -0.060 NA
HETATM   20 CL1  UNL     1       1.141  66.790  69.826  1.00  0.00     0.010 Cl
ENDBRANCH  18  19
ENDBRANCH  11  18
ENDBRANCH   1  11
TORSDOF 6
ENDMDL
