MODEL 1
REMARK VINA RESULT: -7.140840556      0.000      0.000
REMARK  4 active torsions:
REMARK  status: ('A' for Active; 'I' for Inactive)
REMARK    1  A    between atoms: C2_2  and  C3_4 
REMARK    2  A    between atoms: C6_7  and  N1_9 
REMARK       I    between atoms: N1_9  and  C8_11 
REMARK    3  A    between atoms: C8_11  and  O2_13 
REMARK    4  A    between atoms: O2_13  and  C9_14 
ROOT
HETATM    1  C3  UNL     1       2.577  62.456  70.959  1.00  0.00    -0.018 C 
HETATM    2  C4  UNL     1       2.759  62.779  72.416  1.00  0.00     0.018 C 
HETATM    3  C5  UNL     1       2.162  60.982  70.834  1.00  0.00     0.042 C 
HETATM    4  C6  UNL     1       3.427  60.201  70.739  1.00  0.00     0.033 C 
HETATM    5  C7  UNL     1       3.362  59.146  69.653  1.00  0.00     0.038 C 
HETATM    6  C13 UNL     1       4.530  61.159  70.360  1.00  0.00     0.040 C 
HETATM    7  C14 UNL     1       3.850  62.524  70.179  1.00  0.00    -0.037 C 
HETATM    8  C15 UNL     1       4.826  63.540  70.686  1.00  0.00     0.015 C 
HETATM    9  C16 UNL     1       3.656  62.721  68.710  1.00  0.00     0.015 C 
ENDROOT
BRANCH   4  10
HETATM   10  N1  UNL     1       3.733  59.503  71.985  1.00  0.00    -0.328 N 
HETATM   11  C8  UNL     1       2.747  58.809  72.708  1.00  0.00     0.361 C 
HETATM   12  O1  UNL     1       1.534  58.745  72.324  1.00  0.00    -0.238 OA
ATOM     13  H1  UNL     1       4.689  59.520  72.340  1.00  0.00     0.165 HD
BRANCH  11  14
HETATM   14  O2  UNL     1       3.048  58.157  73.878  1.00  0.00    -0.294 OA
BRANCH  14  15
HETATM   15  C9  UNL     1       2.810  58.678  75.150  1.00  0.00     0.061 C 
HETATM   16  C10 UNL     1       4.003  58.288  76.025  1.00  0.00     0.046 C 
HETATM   17  C11 UNL     1       2.755  60.190  75.170  1.00  0.00     0.046 C 
HETATM   18  C12 UNL     1       1.583  58.114  75.814  1.00  0.00     0.046 C 
ENDBRANCH  14  15
ENDBRANCH  11  14
ENDBRANCH   4  10
BRANCH   1  19
HETATM   19  C2  UNL     1       1.447  63.251  70.400  1.00  0.00     0.087 C 
HETATM   20  C1  UNL     1       1.477  64.708  70.770  1.00  0.00     0.027 C 
HETATM   21 CL1  UNL     1      -0.068  62.579  71.105  1.00  0.00    -0.125 Cl
ENDBRANCH   1  19
TORSDOF 4
ENDMDL
MODEL 2
REMARK VINA RESULT: -6.968827527      2.891      5.920
REMARK  4 active torsions:
REMARK  status: ('A' for Active; 'I' for Inactive)
REMARK    1  A    between atoms: C2_2  and  C3_4 
REMARK    2  A    between atoms: C6_7  and  N1_9 
REMARK       I    between atoms: N1_9  and  C8_11 
REMARK    3  A    between atoms: C8_11  and  O2_13 
REMARK    4  A    between atoms: O2_13  and  C9_14 
ROOT
HETATM    1  C3  UNL     1       3.280  60.115  71.401  1.00  0.00    -0.018 C 
HETATM    2  C4  UNL     1       3.385  60.330  69.917  1.00  0.00     0.018 C 
HETATM    3  C5  UNL     1       2.016  60.826  71.909  1.00  0.00     0.042 C 
HETATM    4  C6  UNL     1       2.429  62.217  72.248  1.00  0.00     0.033 C 
HETATM    5  C7  UNL     1       1.859  62.669  73.577  1.00  0.00     0.038 C 
HETATM    6  C13 UNL     1       3.933  62.227  72.384  1.00  0.00     0.040 C 
HETATM    7  C14 UNL     1       4.380  60.774  72.170  1.00  0.00    -0.037 C 
HETATM    8  C15 UNL     1       5.681  60.849  71.434  1.00  0.00     0.015 C 
HETATM    9  C16 UNL     1       4.615  60.187  73.524  1.00  0.00     0.015 C 
ENDROOT
BRANCH   4  10
HETATM   10  N1  UNL     1       1.979  63.180  71.247  1.00  0.00    -0.328 N 
HETATM   11  C8  UNL     1       0.620  63.321  70.913  1.00  0.00     0.361 C 
HETATM   12  O1  UNL     1      -0.295  62.624  71.458  1.00  0.00    -0.238 OA
ATOM     13  H1  UNL     1       2.669  63.766  70.778  1.00  0.00     0.165 HD
BRANCH  11  14
HETATM   14  O2  UNL     1       0.210  64.230  69.970  1.00  0.00    -0.294 OA
BRANCH  14  15
HETATM   15  C9  UNL     1       0.250  65.614  70.145  1.00  0.00     0.061 C 
HETATM   16  C10 UNL     1      -0.693  66.225  69.105  1.00  0.00     0.046 C 
HETATM   17  C11 UNL     1      -0.276  66.056  71.493  1.00  0.00     0.046 C 
HETATM   18  C12 UNL     1       1.607  66.216  69.904  1.00  0.00     0.046 C 
ENDBRANCH  14  15
ENDBRANCH  11  14
ENDBRANCH   4  10
BRANCH   1  19
HETATM   19  C2  UNL     1       3.083  58.667  71.691  1.00  0.00     0.087 C 
HETATM   20  C1  UNL     1       3.110  57.785  70.474  1.00  0.00     0.027 C 
HETATM   21 CL1  UNL     1       1.440  58.493  72.407  1.00  0.00    -0.125 Cl
ENDBRANCH   1  19
TORSDOF 4
ENDMDL
MODEL 3
REMARK VINA RESULT: -6.828476128      3.167      6.091
REMARK  4 active torsions:
REMARK  status: ('A' for Active; 'I' for Inactive)
REMARK    1  A    between atoms: C2_2  and  C3_4 
REMARK    2  A    between atoms: C6_7  and  N1_9 
REMARK       I    between atoms: N1_9  and  C8_11 
REMARK    3  A    between atoms: C8_11  and  O2_13 
REMARK    4  A    between atoms: O2_13  and  C9_14 
ROOT
HETATM    1  C3  UNL     1       3.011  60.042  71.433  1.00  0.00    -0.018 C 
HETATM    2  C4  UNL     1       2.837  60.153  69.944  1.00  0.00     0.018 C 
HETATM    3  C5  UNL     1       1.758  60.612  72.115  1.00  0.00     0.042 C 
HETATM    4  C6  UNL     1       2.012  62.068  72.302  1.00  0.00     0.033 C 
HETATM    5  C7  UNL     1       1.609  62.541  73.683  1.00  0.00     0.038 C 
HETATM    6  C13 UNL     1       3.499  62.293  72.173  1.00  0.00     0.040 C 
HETATM    7  C14 UNL     1       4.114  60.901  71.962  1.00  0.00    -0.037 C 
HETATM    8  C15 UNL     1       5.251  61.094  71.009  1.00  0.00     0.015 C 
HETATM    9  C16 UNL     1       4.652  60.459  73.284  1.00  0.00     0.015 C 
ENDROOT
BRANCH   4  10
HETATM   10  N1  UNL     1       1.267  62.881  71.344  1.00  0.00    -0.328 N 
HETATM   11  C8  UNL     1       1.864  63.954  70.659  1.00  0.00     0.361 C 
HETATM   12  O1  UNL     1       3.082  64.283  70.830  1.00  0.00    -0.238 OA
ATOM     13  H1  UNL     1       0.286  62.663  71.167  1.00  0.00     0.165 HD
BRANCH  11  14
HETATM   14  O2  UNL     1       1.152  64.709  69.761  1.00  0.00    -0.294 OA
BRANCH  14  15
HETATM   15  C9  UNL     1       0.564  65.939  70.062  1.00  0.00     0.061 C 
HETATM   16  C10 UNL     1      -0.601  66.128  69.088  1.00  0.00     0.046 C 
HETATM   17  C11 UNL     1      -0.041  65.982  71.447  1.00  0.00     0.046 C 
HETATM   18  C12 UNL     1       1.485  67.112  69.869  1.00  0.00     0.046 C 
ENDBRANCH  14  15
ENDBRANCH  11  14
ENDBRANCH   4  10
BRANCH   1  19
HETATM   19  C2  UNL     1       3.079  58.607  71.830  1.00  0.00     0.087 C 
HETATM   20  C1  UNL     1       3.334  57.663  70.689  1.00  0.00     0.027 C 
HETATM   21 CL1  UNL     1       1.465  58.170  72.501  1.00  0.00    -0.125 Cl
ENDBRANCH   1  19
TORSDOF 4
ENDMDL
MODEL 4
REMARK VINA RESULT: -6.617259415      4.011      7.209
REMARK  4 active torsions:
REMARK  status: ('A' for Active; 'I' for Inactive)
REMARK    1  A    between atoms: C2_2  and  C3_4 
REMARK    2  A    between atoms: C6_7  and  N1_9 
REMARK       I    between atoms: N1_9  and  C8_11 
REMARK    3  A    between atoms: C8_11  and  O2_13 
REMARK    4  A    between atoms: O2_13  and  C9_14 
ROOT
HETATM    1  C3  UNL     1       2.607  61.991  70.318  1.00  0.00    -0.018 C 
HETATM    2  C4  UNL     1       2.770  62.077  68.826  1.00  0.00     0.018 C 
HETATM    3  C5  UNL     1       1.142  62.293  70.668  1.00  0.00     0.042 C 
HETATM    4  C6  UNL     1       1.055  63.770  70.852  1.00  0.00     0.033 C 
HETATM    5  C7  UNL     1       0.254  64.141  72.082  1.00  0.00     0.038 C 
HETATM    6  C13 UNL     1       2.457  64.288  71.062  1.00  0.00     0.040 C 
HETATM    7  C14 UNL     1       3.364  63.049  71.054  1.00  0.00    -0.037 C 
HETATM    8  C15 UNL     1       4.633  63.473  70.383  1.00  0.00     0.015 C 
HETATM    9  C16 UNL     1       3.654  62.713  72.481  1.00  0.00     0.015 C 
ENDROOT
BRANCH   4  10
HETATM   10  N1  UNL     1       0.411  64.424  69.716  1.00  0.00    -0.328 N 
HETATM   11  C8  UNL     1       0.112  65.798  69.724  1.00  0.00     0.361 C 
HETATM   12  O1  UNL     1       0.382  66.552  70.714  1.00  0.00    -0.238 OA
ATOM     13  H1  UNL     1       0.172  63.869  68.894  1.00  0.00     0.165 HD
BRANCH  11  14
HETATM   14  O2  UNL     1      -0.493  66.401  68.650  1.00  0.00    -0.294 OA
BRANCH  14  15
HETATM   15  C9  UNL     1       0.104  67.387  67.863  1.00  0.00     0.061 C 
HETATM   16  C10 UNL     1      -0.941  68.485  67.650  1.00  0.00     0.046 C 
HETATM   17  C11 UNL     1       1.278  68.056  68.543  1.00  0.00     0.046 C 
HETATM   18  C12 UNL     1       0.511  66.905  66.498  1.00  0.00     0.046 C 
ENDBRANCH  14  15
ENDBRANCH  11  14
ENDBRANCH   4  10
BRANCH   1  19
HETATM   19  C2  UNL     1       2.860  60.595  70.777  1.00  0.00     0.087 C 
HETATM   20  C1  UNL     1       3.051  59.605  69.662  1.00  0.00     0.027 C 
HETATM   21 CL1  UNL     1       1.396  60.065  71.681  1.00  0.00    -0.125 Cl
ENDBRANCH   1  19
TORSDOF 4
ENDMDL
MODEL 5
REMARK VINA RESULT: -6.425333828      2.760      5.981
REMARK  4 active torsions:
REMARK  status: ('A' for Active; 'I' for Inactive)
REMARK    1  A    between atoms: C2_2  and  C3_4 
REMARK    2  A    between atoms: C6_7  and  N1_9 
REMARK       I    between atoms: N1_9  and  C8_11 
REMARK    3  A    between atoms: C8_11  and  O2_13 
REMARK    4  A    between atoms: O2_13  and  C9_14 
ROOT
HETATM    1  C3  UNL     1       2.978  60.869  71.823  1.00  0.00    -0.018 C 
HETATM    2  C4  UNL     1       1.546  60.593  71.457  1.00  0.00     0.018 C 
HETATM    3  C5  UNL     1       3.189  62.390  71.859  1.00  0.00     0.042 C 
HETATM    4  C6  UNL     1       3.577  62.789  70.477  1.00  0.00     0.033 C 
HETATM    5  C7  UNL     1       4.743  63.756  70.474  1.00  0.00     0.038 C 
HETATM    6  C13 UNL     1       4.030  61.545  69.752  1.00  0.00     0.040 C 
HETATM    7  C14 UNL     1       3.949  60.410  70.782  1.00  0.00    -0.037 C 
HETATM    8  C15 UNL     1       3.507  59.198  70.024  1.00  0.00     0.015 C 
HETATM    9  C16 UNL     1       5.335  60.188  71.296  1.00  0.00     0.015 C 
ENDROOT
BRANCH   4  10
HETATM   10  N1  UNL     1       2.482  63.447  69.771  1.00  0.00    -0.328 N 
HETATM   11  C8  UNL     1       1.408  64.043  70.457  1.00  0.00     0.361 C 
HETATM   12  O1  UNL     1       1.325  64.046  71.728  1.00  0.00    -0.238 OA
ATOM     13  H1  UNL     1       2.496  63.476  68.752  1.00  0.00     0.165 HD
BRANCH  11  14
HETATM   14  O2  UNL     1       0.385  64.659  69.781  1.00  0.00    -0.294 OA
BRANCH  14  15
HETATM   15  C9  UNL     1       0.118  66.027  69.838  1.00  0.00     0.061 C 
HETATM   16  C10 UNL     1      -0.468  66.313  71.222  1.00  0.00     0.046 C 
HETATM   17  C11 UNL     1       1.364  66.878  69.730  1.00  0.00     0.046 C 
HETATM   18  C12 UNL     1      -0.903  66.486  68.832  1.00  0.00     0.046 C 
ENDBRANCH  14  15
ENDBRANCH  11  14
ENDBRANCH   4  10
BRANCH   1  19
HETATM   19  C2  UNL     1       3.252  60.381  73.204  1.00  0.00     0.087 C 
HETATM   20  C1  UNL     1       2.632  59.049  73.522  1.00  0.00     0.027 C 
HETATM   21 CL1  UNL     1       2.511  61.569  74.337  1.00  0.00    -0.125 Cl
ENDBRANCH   1  19
TORSDOF 4
ENDMDL
