MODEL 1
REMARK VINA RESULT: -5.393834285      0.000      0.000
REMARK  15 active torsions:
REMARK  status: ('A' for Active; 'I' for Inactive)
REMARK    1  A    between atoms: C2_2  and  C3_3 
REMARK    2  A    between atoms: C3_3  and  N1_4 
REMARK    3  A    between atoms: N1_4  and  C4_7 
REMARK    4  A    between atoms: C4_7  and  C5_8 
REMARK    5  A    between atoms: C5_8  and  C6_9 
REMARK    6  A    between atoms: C6_9  and  C7_10 
REMARK    7  A    between atoms: C18_24  and  C19_25 
REMARK    8  A    between atoms: C22_33  and  O2_34 
REMARK    9  A    between atoms: C23_36  and  C24_37 
REMARK   10  A    between atoms: C24_37  and  C26_39 
REMARK   11  A    between atoms: C28_43  and  O3_44 
REMARK   12  A    between atoms: C29_46  and  C30_47 
REMARK   13  A    between atoms: C30_47  and  C31_48 
REMARK   14  A    between atoms: C31_48  and  C32_49 
REMARK   15  A    between atoms: C33_54  and  O6_55 
ROOT
HETATM    1  C7  UNL     1      19.022  19.012  12.942  1.00  0.00     0.060 C 
HETATM    2  C8  UNL     1      18.706  18.624  11.545  1.00  0.00     0.013 C 
HETATM    3  C9  UNL     1      18.149  19.852  10.849  1.00  0.00     0.001 C 
HETATM    4  C10 UNL     1      18.412  19.814   9.357  1.00  0.00     0.000 C 
HETATM    5  C11 UNL     1      17.794  21.068   8.775  1.00  0.00     0.002 C 
HETATM    6  C12 UNL     1      17.476  20.892   7.290  1.00  0.00     0.020 C 
HETATM    7  C13 UNL     1      18.710  20.297   6.659  1.00  0.00     0.122 C 
HETATM    8  N2  UNL     1      18.488  19.856   5.306  1.00  0.00    -0.361 N 
ATOM      9  H2  UNL     1      18.370  20.556   4.573  1.00  0.00     0.162 HD
HETATM   10  C14 UNL     1      18.427  18.489   4.958  1.00  0.00     0.217 C 
HETATM   11  O1  UNL     1      18.653  18.075   3.776  1.00  0.00    -0.274 OA
HETATM   12  C15 UNL     1      18.091  17.409   5.943  1.00  0.00     0.103 C 
HETATM   13  C16 UNL     1      19.202  16.400   6.019  1.00  0.00     0.012 C 
HETATM   14  C17 UNL     1      19.660  16.132   7.458  1.00  0.00     0.032 C 
HETATM   15  C18 UNL     1      19.544  14.664   7.680  1.00  0.00     0.140 C 
HETATM   16  N4  UNL     1      19.602  14.213   9.025  1.00  0.00    -0.362 N 
ATOM     17  H4  UNL     1      18.758  14.419   9.560  1.00  0.00     0.162 HD
HETATM   18  C22 UNL     1      20.577  13.546   9.761  1.00  0.00     0.135 C 
HETATM   19  C23 UNL     1      21.941  14.049  10.095  1.00  0.00     0.161 C 
HETATM   20  N5  UNL     1      21.960  15.224  10.936  1.00  0.00    -0.360 N 
ATOM     21  H5  UNL     1      22.506  15.990  10.540  1.00  0.00     0.162 HD
HETATM   22  C28 UNL     1      21.402  15.533  12.156  1.00  0.00     0.135 C 
HETATM   23  C29 UNL     1      19.997  15.762  12.594  1.00  0.00     0.158 C 
HETATM   24  N6  UNL     1      19.974  16.718  13.705  1.00  0.00    -0.362 N 
ATOM     25  H6  UNL     1      20.528  16.423  14.509  1.00  0.00     0.162 HD
HETATM   26  C33 UNL     1      19.361  17.923  13.878  1.00  0.00     0.116 C 
ENDROOT
BRANCH   1  27
HETATM   27  C6  UNL     1      20.177  20.018  12.983  1.00  0.00     0.014 C 
BRANCH  27  28
HETATM   28  C5  UNL     1      21.459  19.391  13.466  1.00  0.00     0.028 C 
BRANCH  28  29
HETATM   29  C4  UNL     1      22.009  20.125  14.672  1.00  0.00     0.232 C 
BRANCH  29  30
HETATM   30  N1  UNL     1      20.987  20.728  15.483  1.00  0.00    -0.072 N 
ATOM     31  H12 UNL     1      20.626  20.108  16.208  1.00  0.00     0.277 HD
ATOM     32  H11 UNL     1      20.106  20.867  14.989  1.00  0.00     0.277 HD
BRANCH  30  33
HETATM   33  C3  UNL     1      21.561  21.966  16.009  1.00  0.00     0.259 C 
BRANCH  33  34
HETATM   34  C2  UNL     1      22.714  22.414  15.206  1.00  0.00    -0.010 C 
HETATM   35  C1  UNL     1      23.068  23.699  15.249  1.00  0.00     0.008 C 
ENDBRANCH  33  34
ENDBRANCH  30  33
ENDBRANCH  29  30
ENDBRANCH  28  29
ENDBRANCH  27  28
ENDBRANCH   1  27
BRANCH  26  36
HETATM   36  O6  UNL     1      18.988  18.207  15.093  1.00  0.00    -0.349 OA
ATOM     37  H6  UNL     1      18.172  17.773  15.316  1.00  0.00     0.219 HD
ENDBRANCH  26  36
BRANCH  23  38
HETATM   38  C30 UNL     1      19.408  14.495  13.246  1.00  0.00     0.044 C 
BRANCH  38  39
HETATM   39  C31 UNL     1      18.205  14.056  12.440  1.00  0.00     0.116 C 
BRANCH  39  40
HETATM   40  C32 UNL     1      17.395  15.195  11.990  1.00  0.00     0.172 C 
HETATM   41  O4  UNL     1      16.795  15.928  12.821  1.00  0.00    -0.648 OA
HETATM   42  O5  UNL     1      17.277  15.482  10.647  1.00  0.00    -0.648 OA
ENDBRANCH  39  40
ENDBRANCH  38  39
ENDBRANCH  23  38
BRANCH  22  43
HETATM   43  O3  UNL     1      22.232  15.660  13.150  1.00  0.00    -0.348 OA
ATOM     44  H3  UNL     1      21.950  15.293  13.980  1.00  0.00     0.219 HD
ENDBRANCH  22  43
BRANCH  19  45
HETATM   45  C24 UNL     1      22.863  12.968  10.563  1.00  0.00     0.012 C 
HETATM   46  C25 UNL     1      23.301  11.959   9.588  1.00  0.00     0.012 C 
BRANCH  45  47
HETATM   47  C26 UNL     1      24.044  13.436  11.372  1.00  0.00     0.002 C 
HETATM   48  C27 UNL     1      24.039  12.651  12.664  1.00  0.00     0.005 C 
ENDBRANCH  45  47
ENDBRANCH  19  45
BRANCH  18  49
HETATM   49  O2  UNL     1      20.235  12.362  10.188  1.00  0.00    -0.348 OA
ATOM     50  H2  UNL     1      19.602  12.357  10.895  1.00  0.00     0.219 HD
ENDBRANCH  18  49
BRANCH  15  51
HETATM   51  C19 UNL     1      20.414  13.933   6.715  1.00  0.00     0.073 A 
HETATM   52  N3  UNL     1      20.126  12.871   5.983  1.00  0.00    -0.361 N 
HETATM   53  C20 UNL     1      21.015  12.360   5.202  1.00  0.00     0.096 A 
ATOM     54  H3  UNL     1      19.197  12.454   6.037  1.00  0.00     0.165 HD
HETATM   55  C21 UNL     1      22.252  12.955   5.162  1.00  0.00     0.068 A 
HETATM   56  S1  UNL     1      22.037  14.239   6.281  1.00  0.00    -0.085 SA
ENDBRANCH  15  51
TORSDOF 15
ENDMDL
MODEL 2
REMARK VINA RESULT: -5.184878825      0.954      1.046
REMARK  15 active torsions:
REMARK  status: ('A' for Active; 'I' for Inactive)
REMARK    1  A    between atoms: C2_2  and  C3_3 
REMARK    2  A    between atoms: C3_3  and  N1_4 
REMARK    3  A    between atoms: N1_4  and  C4_7 
REMARK    4  A    between atoms: C4_7  and  C5_8 
REMARK    5  A    between atoms: C5_8  and  C6_9 
REMARK    6  A    between atoms: C6_9  and  C7_10 
REMARK    7  A    between atoms: C18_24  and  C19_25 
REMARK    8  A    between atoms: C22_33  and  O2_34 
REMARK    9  A    between atoms: C23_36  and  C24_37 
REMARK   10  A    between atoms: C24_37  and  C26_39 
REMARK   11  A    between atoms: C28_43  and  O3_44 
REMARK   12  A    between atoms: C29_46  and  C30_47 
REMARK   13  A    between atoms: C30_47  and  C31_48 
REMARK   14  A    between atoms: C31_48  and  C32_49 
REMARK   15  A    between atoms: C33_54  and  O6_55 
ROOT
HETATM    1  C7  UNL     1      18.757  18.713  12.737  1.00  0.00     0.060 C 
HETATM    2  C8  UNL     1      18.509  18.260  11.346  1.00  0.00     0.013 C 
HETATM    3  C9  UNL     1      17.960  19.446  10.575  1.00  0.00     0.001 C 
HETATM    4  C10 UNL     1      18.289  19.350   9.098  1.00  0.00     0.000 C 
HETATM    5  C11 UNL     1      17.673  20.565   8.436  1.00  0.00     0.002 C 
HETATM    6  C12 UNL     1      17.423  20.320   6.948  1.00  0.00     0.020 C 
HETATM    7  C13 UNL     1      18.694  19.723   6.397  1.00  0.00     0.122 C 
HETATM    8  N2  UNL     1      18.539  19.222   5.056  1.00  0.00    -0.361 N 
ATOM      9  H2  UNL     1      18.440  19.887   4.289  1.00  0.00     0.162 HD
HETATM   10  C14 UNL     1      18.519  17.840   4.765  1.00  0.00     0.217 C 
HETATM   11  O1  UNL     1      18.804  17.381   3.613  1.00  0.00    -0.274 OA
HETATM   12  C15 UNL     1      18.161  16.796   5.781  1.00  0.00     0.103 C 
HETATM   13  C16 UNL     1      19.286  15.815   5.948  1.00  0.00     0.012 C 
HETATM   14  C17 UNL     1      19.687  15.617   7.415  1.00  0.00     0.032 C 
HETATM   15  C18 UNL     1      19.589  14.158   7.696  1.00  0.00     0.140 C 
HETATM   16  N4  UNL     1      19.597  13.765   9.060  1.00  0.00    -0.362 N 
ATOM     17  H4  UNL     1      18.727  13.977   9.549  1.00  0.00     0.162 HD
HETATM   18  C22 UNL     1      20.552  13.150   9.865  1.00  0.00     0.135 C 
HETATM   19  C23 UNL     1      21.890  13.696  10.234  1.00  0.00     0.161 C 
HETATM   20  N5  UNL     1      21.851  14.905  11.024  1.00  0.00    -0.360 N 
ATOM     21  H5  UNL     1      22.398  15.665  10.619  1.00  0.00     0.162 HD
HETATM   22  C28 UNL     1      21.234  15.254  12.205  1.00  0.00     0.135 C 
HETATM   23  C29 UNL     1      19.807  15.473  12.572  1.00  0.00     0.158 C 
HETATM   24  N6  UNL     1      19.718  16.474  13.638  1.00  0.00    -0.362 N 
ATOM     25  H6  UNL     1      20.242  16.225  14.478  1.00  0.00     0.162 HD
HETATM   26  C33 UNL     1      19.076  17.672  13.733  1.00  0.00     0.116 C 
ENDROOT
BRANCH   1  27
HETATM   27  C6  UNL     1      19.890  19.744  12.784  1.00  0.00     0.014 C 
BRANCH  27  28
HETATM   28  C5  UNL     1      21.205  19.124  13.182  1.00  0.00     0.028 C 
BRANCH  28  29
HETATM   29  C4  UNL     1      21.825  19.857  14.354  1.00  0.00     0.232 C 
BRANCH  29  30
HETATM   30  N1  UNL     1      20.853  20.486  15.207  1.00  0.00    -0.072 N 
ATOM     31  H12 UNL     1      20.464  19.859  15.910  1.00  0.00     0.277 HD
ATOM     32  H11 UNL     1      19.976  20.701  14.733  1.00  0.00     0.277 HD
BRANCH  30  33
HETATM   33  C3  UNL     1      21.510  21.662  15.776  1.00  0.00     0.259 C 
BRANCH  33  34
HETATM   34  C2  UNL     1      22.666  22.085  14.963  1.00  0.00    -0.010 C 
HETATM   35  C1  UNL     1      23.095  23.344  15.059  1.00  0.00     0.008 C 
ENDBRANCH  33  34
ENDBRANCH  30  33
ENDBRANCH  29  30
ENDBRANCH  28  29
ENDBRANCH  27  28
ENDBRANCH   1  27
BRANCH  26  36
HETATM   36  O6  UNL     1      18.645  18.000  14.918  1.00  0.00    -0.349 OA
ATOM     37  H6  UNL     1      18.278  17.251  15.373  1.00  0.00     0.219 HD
ENDBRANCH  26  36
BRANCH  23  38
HETATM   38  C30 UNL     1      19.215  14.223  13.253  1.00  0.00     0.044 C 
BRANCH  38  39
HETATM   39  C31 UNL     1      17.709  14.266  13.109  1.00  0.00     0.116 C 
BRANCH  39  40
HETATM   40  C32 UNL     1      17.028  14.287  14.409  1.00  0.00     0.172 C 
HETATM   41  O4  UNL     1      16.083  13.491  14.655  1.00  0.00    -0.648 OA
HETATM   42  O5  UNL     1      17.414  15.179  15.386  1.00  0.00    -0.648 OA
ENDBRANCH  39  40
ENDBRANCH  38  39
ENDBRANCH  23  38
BRANCH  22  43
HETATM   43  O3  UNL     1      22.018  15.441  13.227  1.00  0.00    -0.348 OA
ATOM     44  H3  UNL     1      21.746  15.035  14.041  1.00  0.00     0.219 HD
ENDBRANCH  22  43
BRANCH  19  45
HETATM   45  C24 UNL     1      22.811  12.655  10.788  1.00  0.00     0.012 C 
HETATM   46  C25 UNL     1      23.363  11.654   9.863  1.00  0.00     0.012 C 
BRANCH  45  47
HETATM   47  C26 UNL     1      23.905  13.174  11.682  1.00  0.00     0.002 C 
HETATM   48  C27 UNL     1      23.830  12.396  12.977  1.00  0.00     0.005 C 
ENDBRANCH  45  47
ENDBRANCH  19  45
BRANCH  18  49
HETATM   49  O2  UNL     1      20.214  11.979  10.327  1.00  0.00    -0.348 OA
ATOM     50  H2  UNL     1      19.729  11.993  11.144  1.00  0.00     0.219 HD
ENDBRANCH  18  49
BRANCH  15  51
HETATM   51  C19 UNL     1      20.514  13.405   6.801  1.00  0.00     0.073 A 
HETATM   52  N3  UNL     1      20.277  12.308   6.102  1.00  0.00    -0.361 N 
HETATM   53  C20 UNL     1      21.209  11.782   5.383  1.00  0.00     0.096 A 
ATOM     54  H3  UNL     1      19.354  11.876   6.132  1.00  0.00     0.165 HD
HETATM   55  C21 UNL     1      22.436  12.400   5.372  1.00  0.00     0.068 A 
HETATM   56  S1  UNL     1      22.149  13.723   6.426  1.00  0.00    -0.085 SA
ENDBRANCH  15  51
TORSDOF 15
ENDMDL
MODEL 3
REMARK VINA RESULT: -5.156356872      3.575      8.403
REMARK  15 active torsions:
REMARK  status: ('A' for Active; 'I' for Inactive)
REMARK    1  A    between atoms: C2_2  and  C3_3 
REMARK    2  A    between atoms: C3_3  and  N1_4 
REMARK    3  A    between atoms: N1_4  and  C4_7 
REMARK    4  A    between atoms: C4_7  and  C5_8 
REMARK    5  A    between atoms: C5_8  and  C6_9 
REMARK    6  A    between atoms: C6_9  and  C7_10 
REMARK    7  A    between atoms: C18_24  and  C19_25 
REMARK    8  A    between atoms: C22_33  and  O2_34 
REMARK    9  A    between atoms: C23_36  and  C24_37 
REMARK   10  A    between atoms: C24_37  and  C26_39 
REMARK   11  A    between atoms: C28_43  and  O3_44 
REMARK   12  A    between atoms: C29_46  and  C30_47 
REMARK   13  A    between atoms: C30_47  and  C31_48 
REMARK   14  A    between atoms: C31_48  and  C32_49 
REMARK   15  A    between atoms: C33_54  and  O6_55 
ROOT
HETATM    1  C7  UNL     1      18.798  17.564   4.240  1.00  0.00     0.060 C 
HETATM    2  C8  UNL     1      18.573  18.320   5.497  1.00  0.00     0.013 C 
HETATM    3  C9  UNL     1      17.717  19.525   5.153  1.00  0.00     0.001 C 
HETATM    4  C10 UNL     1      16.886  19.973   6.339  1.00  0.00     0.000 C 
HETATM    5  C11 UNL     1      16.099  21.185   5.885  1.00  0.00     0.002 C 
HETATM    6  C12 UNL     1      15.690  22.058   7.072  1.00  0.00     0.020 C 
HETATM    7  C13 UNL     1      15.108  21.124   8.104  1.00  0.00     0.122 C 
HETATM    8  N2  UNL     1      14.887  21.765   9.375  1.00  0.00    -0.361 N 
ATOM      9  H2  UNL     1      14.128  22.441   9.461  1.00  0.00     0.162 HD
HETATM   10  C14 UNL     1      15.687  21.491  10.506  1.00  0.00     0.217 C 
HETATM   11  O1  UNL     1      15.281  21.697  11.694  1.00  0.00    -0.274 OA
HETATM   12  C15 UNL     1      17.077  20.938  10.411  1.00  0.00     0.103 C 
HETATM   13  C16 UNL     1      17.181  19.639  11.158  1.00  0.00     0.012 C 
HETATM   14  C17 UNL     1      17.793  18.516  10.311  1.00  0.00     0.032 C 
HETATM   15  C18 UNL     1      18.963  17.993  11.070  1.00  0.00     0.140 C 
HETATM   16  N4  UNL     1      19.877  17.176  10.355  1.00  0.00    -0.362 N 
ATOM     17  H4  UNL     1      20.461  17.696   9.700  1.00  0.00     0.162 HD
HETATM   18  C22 UNL     1      20.138  15.808  10.367  1.00  0.00     0.135 C 
HETATM   19  C23 UNL     1      19.194  14.718   9.985  1.00  0.00     0.161 C 
HETATM   20  N5  UNL     1      18.784  14.735   8.599  1.00  0.00    -0.360 N 
ATOM     21  H5  UNL     1      17.771  14.738   8.483  1.00  0.00     0.162 HD
HETATM   22  C28 UNL     1      19.465  14.746   7.403  1.00  0.00     0.135 C 
HETATM   23  C29 UNL     1      20.301  15.778   6.727  1.00  0.00     0.158 C 
HETATM   24  N6  UNL     1      20.191  15.630   5.273  1.00  0.00    -0.362 N 
ATOM     25  H6  UNL     1      20.466  14.707   4.935  1.00  0.00     0.162 HD
HETATM   26  C33 UNL     1      19.795  16.477   4.282  1.00  0.00     0.116 C 
ENDROOT
BRANCH   1  27
HETATM   27  C6  UNL     1      17.489  16.954   3.726  1.00  0.00     0.014 C 
BRANCH  27  28
HETATM   28  C5  UNL     1      17.285  17.205   2.254  1.00  0.00     0.028 C 
BRANCH  28  29
HETATM   29  C4  UNL     1      17.185  18.688   1.959  1.00  0.00     0.232 C 
BRANCH  29  30
HETATM   30  N1  UNL     1      16.265  18.994   0.898  1.00  0.00    -0.072 N 
ATOM     31  H12 UNL     1      16.320  18.345   0.113  1.00  0.00     0.277 HD
ATOM     32  H11 UNL     1      16.509  19.837   0.379  1.00  0.00     0.277 HD
BRANCH  30  33
HETATM   33  C3  UNL     1      14.938  19.052   1.512  1.00  0.00     0.259 C 
BRANCH  33  34
HETATM   34  C2  UNL     1      14.950  19.847   2.755  1.00  0.00    -0.010 C 
HETATM   35  C1  UNL     1      14.572  21.125   2.704  1.00  0.00     0.008 C 
ENDBRANCH  33  34
ENDBRANCH  30  33
ENDBRANCH  29  30
ENDBRANCH  28  29
ENDBRANCH  27  28
ENDBRANCH   1  27
BRANCH  26  36
HETATM   36  O6  UNL     1      20.388  16.331   3.132  1.00  0.00    -0.349 OA
ATOM     37  H6  UNL     1      21.298  16.600   3.174  1.00  0.00     0.219 HD
ENDBRANCH  26  36
BRANCH  23  38
HETATM   38  C30 UNL     1      21.801  15.517   6.966  1.00  0.00     0.044 C 
BRANCH  38  39
HETATM   39  C31 UNL     1      22.340  14.717   5.800  1.00  0.00     0.116 C 
BRANCH  39  40
HETATM   40  C32 UNL     1      23.368  15.452   5.052  1.00  0.00     0.172 C 
HETATM   41  O4  UNL     1      23.202  15.735   3.836  1.00  0.00    -0.648 OA
HETATM   42  O5  UNL     1      24.535  15.846   5.671  1.00  0.00    -0.648 OA
ENDBRANCH  39  40
ENDBRANCH  38  39
ENDBRANCH  23  38
BRANCH  22  43
HETATM   43  O3  UNL     1      19.389  13.661   6.689  1.00  0.00    -0.348 OA
ATOM     44  H3  UNL     1      19.417  13.777   5.747  1.00  0.00     0.219 HD
ENDBRANCH  22  43
BRANCH  19  45
HETATM   45  C24 UNL     1      19.639  13.370  10.456  1.00  0.00     0.012 C 
HETATM   46  C25 UNL     1      19.212  12.926  11.792  1.00  0.00     0.012 C 
BRANCH  45  47
HETATM   47  C26 UNL     1      19.453  12.250   9.468  1.00  0.00     0.002 C 
HETATM   48  C27 UNL     1      20.823  11.674   9.184  1.00  0.00     0.005 C 
ENDBRANCH  45  47
ENDBRANCH  19  45
BRANCH  18  49
HETATM   49  O2  UNL     1      21.337  15.477  10.758  1.00  0.00    -0.348 OA
ATOM     50  H2  UNL     1      21.686  15.998  11.470  1.00  0.00     0.219 HD
ENDBRANCH  18  49
BRANCH  15  51
HETATM   51  C19 UNL     1      18.516  17.461  12.390  1.00  0.00     0.073 A 
HETATM   52  N3  UNL     1      17.573  16.570  12.645  1.00  0.00    -0.361 N 
HETATM   53  C20 UNL     1      17.311  16.233  13.862  1.00  0.00     0.096 A 
ATOM     54  H3  UNL     1      17.052  16.147  11.878  1.00  0.00     0.165 HD
HETATM   55  C21 UNL     1      18.039  16.829  14.863  1.00  0.00     0.068 A 
HETATM   56  S1  UNL     1      19.072  17.854  13.955  1.00  0.00    -0.085 SA
ENDBRANCH  15  51
TORSDOF 15
ENDMDL
MODEL 4
REMARK VINA RESULT: -5.073384787     13.720     19.073
REMARK  15 active torsions:
REMARK  status: ('A' for Active; 'I' for Inactive)
REMARK    1  A    between atoms: C2_2  and  C3_3 
REMARK    2  A    between atoms: C3_3  and  N1_4 
REMARK    3  A    between atoms: N1_4  and  C4_7 
REMARK    4  A    between atoms: C4_7  and  C5_8 
REMARK    5  A    between atoms: C5_8  and  C6_9 
REMARK    6  A    between atoms: C6_9  and  C7_10 
REMARK    7  A    between atoms: C18_24  and  C19_25 
REMARK    8  A    between atoms: C22_33  and  O2_34 
REMARK    9  A    between atoms: C23_36  and  C24_37 
REMARK   10  A    between atoms: C24_37  and  C26_39 
REMARK   11  A    between atoms: C28_43  and  O3_44 
REMARK   12  A    between atoms: C29_46  and  C30_47 
REMARK   13  A    between atoms: C30_47  and  C31_48 
REMARK   14  A    between atoms: C31_48  and  C32_49 
REMARK   15  A    between atoms: C33_54  and  O6_55 
ROOT
HETATM    1  C7  UNL     1       9.126  23.882   3.060  1.00  0.00     0.060 C 
HETATM    2  C8  UNL     1       8.712  24.454   4.365  1.00  0.00     0.013 C 
HETATM    3  C9  UNL     1       9.974  24.701   5.172  1.00  0.00     0.001 C 
HETATM    4  C10 UNL     1       9.788  25.834   6.161  1.00  0.00     0.000 C 
HETATM    5  C11 UNL     1      11.094  25.969   6.916  1.00  0.00     0.002 C 
HETATM    6  C12 UNL     1      10.882  26.633   8.277  1.00  0.00     0.020 C 
HETATM    7  C13 UNL     1      10.027  27.851   8.026  1.00  0.00     0.122 C 
HETATM    8  N2  UNL     1       9.547  28.456   9.242  1.00  0.00    -0.361 N 
ATOM      9  H2  UNL     1      10.206  28.959   9.835  1.00  0.00     0.162 HD
HETATM   10  C14 UNL     1       8.195  28.376   9.641  1.00  0.00     0.217 C 
HETATM   11  O1  UNL     1       7.669  29.215  10.440  1.00  0.00    -0.274 OA
HETATM   12  C15 UNL     1       7.264  27.301   9.165  1.00  0.00     0.103 C 
HETATM   13  C16 UNL     1       6.074  27.902   8.473  1.00  0.00     0.012 C 
HETATM   14  C17 UNL     1       5.821  27.289   7.090  1.00  0.00     0.032 C 
HETATM   15  C18 UNL     1       4.418  26.789   7.090  1.00  0.00     0.140 C 
HETATM   16  N4  UNL     1       4.054  25.900   6.045  1.00  0.00    -0.362 N 
ATOM     17  H4  UNL     1       4.448  24.966   6.150  1.00  0.00     0.162 HD
HETATM   18  C22 UNL     1       3.267  26.048   4.906  1.00  0.00     0.135 C 
HETATM   19  C23 UNL     1       3.530  26.957   3.753  1.00  0.00     0.161 C 
HETATM   20  N5  UNL     1       4.733  26.659   3.012  1.00  0.00    -0.360 N 
ATOM     21  H5  UNL     1       5.357  27.461   2.922  1.00  0.00     0.162 HD
HETATM   22  C28 UNL     1       5.221  25.526   2.400  1.00  0.00     0.135 C 
HETATM   23  C29 UNL     1       5.736  24.233   2.933  1.00  0.00     0.158 C 
HETATM   24  N6  UNL     1       6.751  23.693   2.024  1.00  0.00    -0.362 N 
ATOM     25  H6  UNL     1       6.412  23.547   1.073  1.00  0.00     0.162 HD
HETATM   26  C33 UNL     1       8.057  23.345   2.196  1.00  0.00     0.116 C 
ENDROOT
BRANCH   1  27
HETATM   27  C6  UNL     1       9.900  24.913   2.231  1.00  0.00     0.014 C 
BRANCH  27  28
HETATM   28  C5  UNL     1      11.239  24.389   1.781  1.00  0.00     0.028 C 
BRANCH  28  29
HETATM   29  C4  UNL     1      12.000  23.763   2.933  1.00  0.00     0.232 C 
BRANCH  29  30
HETATM   30  N1  UNL     1      12.715  24.724   3.728  1.00  0.00    -0.072 N 
ATOM     31  H12 UNL     1      12.126  25.476   4.084  1.00  0.00     0.277 HD
ATOM     32  H11 UNL     1      13.349  25.310   3.184  1.00  0.00     0.277 HD
BRANCH  30  33
HETATM   33  C3  UNL     1      13.387  23.963   4.781  1.00  0.00     0.259 C 
BRANCH  33  34
HETATM   34  C2  UNL     1      12.910  22.568   4.830  1.00  0.00    -0.010 C 
HETATM   35  C1  UNL     1      12.556  22.050   6.007  1.00  0.00     0.008 C 
ENDBRANCH  33  34
ENDBRANCH  30  33
ENDBRANCH  29  30
ENDBRANCH  28  29
ENDBRANCH  27  28
ENDBRANCH   1  27
BRANCH  26  36
HETATM   36  O6  UNL     1       8.486  22.349   1.473  1.00  0.00    -0.349 OA
ATOM     37  H6  UNL     1       7.767  21.808   1.168  1.00  0.00     0.219 HD
ENDBRANCH  26  36
BRANCH  23  38
HETATM   38  C30 UNL     1       4.646  23.143   2.885  1.00  0.00     0.044 C 
BRANCH  38  39
HETATM   39  C31 UNL     1       4.754  22.304   4.140  1.00  0.00     0.116 C 
BRANCH  39  40
HETATM   40  C32 UNL     1       3.786  21.200   4.152  1.00  0.00     0.172 C 
HETATM   41  O4  UNL     1       3.983  20.177   4.861  1.00  0.00    -0.648 OA
HETATM   42  O5  UNL     1       2.641  21.265   3.387  1.00  0.00    -0.648 OA
ENDBRANCH  39  40
ENDBRANCH  38  39
ENDBRANCH  23  38
BRANCH  22  43
HETATM   43  O3  UNL     1       5.257  25.547   1.099  1.00  0.00    -0.348 OA
ATOM     44  H3  UNL     1       6.065  25.249   0.699  1.00  0.00     0.219 HD
ENDBRANCH  22  43
BRANCH  19  45
HETATM   45  C24 UNL     1       2.330  27.156   2.882  1.00  0.00     0.012 C 
HETATM   46  C25 UNL     1       1.299  28.106   3.326  1.00  0.00     0.012 C 
BRANCH  45  47
HETATM   47  C26 UNL     1       2.624  27.374   1.422  1.00  0.00     0.002 C 
HETATM   48  C27 UNL     1       1.862  26.320   0.651  1.00  0.00     0.005 C 
ENDBRANCH  45  47
ENDBRANCH  19  45
BRANCH  18  49
HETATM   49  O2  UNL     1       2.199  25.301   4.872  1.00  0.00    -0.348 OA
ATOM     50  H2  UNL     1       1.505  25.616   4.305  1.00  0.00     0.219 HD
ENDBRANCH  18  49
BRANCH  15  51
HETATM   51  C19 UNL     1       3.476  27.919   7.337  1.00  0.00     0.073 A 
HETATM   52  N3  UNL     1       2.467  27.982   8.189  1.00  0.00    -0.361 N 
HETATM   53  C20 UNL     1       1.744  29.047   8.260  1.00  0.00     0.096 A 
ATOM     54  H3  UNL     1       2.261  27.187   8.791  1.00  0.00     0.165 HD
HETATM   55  C21 UNL     1       2.060  30.094   7.429  1.00  0.00     0.068 A 
HETATM   56  S1  UNL     1       3.409  29.451   6.586  1.00  0.00    -0.085 SA
ENDBRANCH  15  51
TORSDOF 15
ENDMDL
MODEL 5
REMARK VINA RESULT: -5.064596616      1.586      2.254
REMARK  15 active torsions:
REMARK  status: ('A' for Active; 'I' for Inactive)
REMARK    1  A    between atoms: C2_2  and  C3_3 
REMARK    2  A    between atoms: C3_3  and  N1_4 
REMARK    3  A    between atoms: N1_4  and  C4_7 
REMARK    4  A    between atoms: C4_7  and  C5_8 
REMARK    5  A    between atoms: C5_8  and  C6_9 
REMARK    6  A    between atoms: C6_9  and  C7_10 
REMARK    7  A    between atoms: C18_24  and  C19_25 
REMARK    8  A    between atoms: C22_33  and  O2_34 
REMARK    9  A    between atoms: C23_36  and  C24_37 
REMARK   10  A    between atoms: C24_37  and  C26_39 
REMARK   11  A    between atoms: C28_43  and  O3_44 
REMARK   12  A    between atoms: C29_46  and  C30_47 
REMARK   13  A    between atoms: C30_47  and  C31_48 
REMARK   14  A    between atoms: C31_48  and  C32_49 
REMARK   15  A    between atoms: C33_54  and  O6_55 
ROOT
HETATM    1  C7  UNL     1      18.746  18.629  13.094  1.00  0.00     0.060 C 
HETATM    2  C8  UNL     1      18.491  18.340  11.661  1.00  0.00     0.013 C 
HETATM    3  C9  UNL     1      18.052  19.637  11.008  1.00  0.00     0.001 C 
HETATM    4  C10 UNL     1      18.401  19.664   9.533  1.00  0.00     0.000 C 
HETATM    5  C11 UNL     1      17.896  20.986   8.992  1.00  0.00     0.002 C 
HETATM    6  C12 UNL     1      17.657  20.912   7.483  1.00  0.00     0.020 C 
HETATM    7  C13 UNL     1      18.888  20.274   6.889  1.00  0.00     0.122 C 
HETATM    8  N2  UNL     1      18.721  19.924   5.502  1.00  0.00    -0.361 N 
ATOM      9  H2  UNL     1      18.689  20.669   4.806  1.00  0.00     0.162 HD
HETATM   10  C14 UNL     1      18.598  18.585   5.072  1.00  0.00     0.217 C 
HETATM   11  O1  UNL     1      18.868  18.222   3.883  1.00  0.00    -0.274 OA
HETATM   12  C15 UNL     1      18.139  17.475   5.971  1.00  0.00     0.103 C 
HETATM   13  C16 UNL     1      19.181  16.396   6.051  1.00  0.00     0.012 C 
HETATM   14  C17 UNL     1      19.535  16.020   7.495  1.00  0.00     0.032 C 
HETATM   15  C18 UNL     1      19.317  14.553   7.624  1.00  0.00     0.140 C 
HETATM   16  N4  UNL     1      19.267  14.025   8.942  1.00  0.00    -0.362 N 
ATOM     17  H4  UNL     1      18.408  14.255   9.439  1.00  0.00     0.162 HD
HETATM   18  C22 UNL     1      20.156  13.258   9.690  1.00  0.00     0.135 C 
HETATM   19  C23 UNL     1      21.525  13.654  10.129  1.00  0.00     0.161 C 
HETATM   20  N5  UNL     1      21.565  14.778  11.038  1.00  0.00    -0.360 N 
ATOM     21  H5  UNL     1      22.178  15.528  10.718  1.00  0.00     0.162 HD
HETATM   22  C28 UNL     1      20.955  15.054  12.241  1.00  0.00     0.135 C 
HETATM   23  C29 UNL     1      19.542  15.348  12.612  1.00  0.00     0.158 C 
HETATM   24  N6  UNL     1      19.511  16.241  13.773  1.00  0.00    -0.362 N 
ATOM     25  H6  UNL     1      19.996  15.868  14.589  1.00  0.00     0.162 HD
HETATM   26  C33 UNL     1      18.962  17.471  13.982  1.00  0.00     0.116 C 
ENDROOT
BRANCH   1  27
HETATM   27  C6  UNL     1      19.956  19.556  13.258  1.00  0.00     0.014 C 
BRANCH  27  28
HETATM   28  C5  UNL     1      21.223  18.933  12.733  1.00  0.00     0.028 C 
BRANCH  28  29
HETATM   29  C4  UNL     1      22.280  18.842  13.815  1.00  0.00     0.232 C 
BRANCH  29  30
HETATM   30  N1  UNL     1      23.219  17.774  13.602  1.00  0.00    -0.072 N 
ATOM     31  H12 UNL     1      22.874  16.864  13.908  1.00  0.00     0.277 HD
ATOM     32  H11 UNL     1      24.028  17.816  14.222  1.00  0.00     0.277 HD
BRANCH  30  33
HETATM   33  C3  UNL     1      23.570  17.816  12.183  1.00  0.00     0.259 C 
BRANCH  33  34
HETATM   34  C2  UNL     1      24.519  16.745  11.826  1.00  0.00    -0.010 C 
HETATM   35  C1  UNL     1      24.724  16.470  10.538  1.00  0.00     0.008 C 
ENDBRANCH  33  34
ENDBRANCH  30  33
ENDBRANCH  29  30
ENDBRANCH  28  29
ENDBRANCH  27  28
ENDBRANCH   1  27
BRANCH  26  36
HETATM   36  O6  UNL     1      18.535  17.711  15.189  1.00  0.00    -0.349 OA
ATOM     37  H6  UNL     1      18.748  16.999  15.780  1.00  0.00     0.219 HD
ENDBRANCH  26  36
BRANCH  23  38
HETATM   38  C30 UNL     1      18.840  14.087  13.155  1.00  0.00     0.044 C 
BRANCH  38  39
HETATM   39  C31 UNL     1      17.347  14.337  13.166  1.00  0.00     0.116 C 
BRANCH  39  40
HETATM   40  C32 UNL     1      16.773  14.199  14.510  1.00  0.00     0.172 C 
HETATM   41  O4  UNL     1      15.749  13.491  14.703  1.00  0.00    -0.648 OA
HETATM   42  O5  UNL     1      17.346  14.843  15.585  1.00  0.00    -0.648 OA
ENDBRANCH  39  40
ENDBRANCH  38  39
ENDBRANCH  23  38
BRANCH  22  43
HETATM   43  O3  UNL     1      21.730  15.074  13.285  1.00  0.00    -0.348 OA
ATOM     44  H3  UNL     1      21.387  15.517  14.052  1.00  0.00     0.219 HD
ENDBRANCH  22  43
BRANCH  19  45
HETATM   45  C24 UNL     1      22.350  12.493  10.585  1.00  0.00     0.012 C 
HETATM   46  C25 UNL     1      22.796  11.520   9.576  1.00  0.00     0.012 C 
BRANCH  45  47
HETATM   47  C26 UNL     1      23.498  12.838  11.496  1.00  0.00     0.002 C 
HETATM   48  C27 UNL     1      23.355  11.985  12.736  1.00  0.00     0.005 C 
ENDBRANCH  45  47
ENDBRANCH  19  45
BRANCH  18  49
HETATM   49  O2  UNL     1      19.718  12.077  10.027  1.00  0.00    -0.348 OA
ATOM     50  H2  UNL     1      19.705  11.903  10.961  1.00  0.00     0.219 HD
ENDBRANCH  18  49
BRANCH  15  51
HETATM   51  C19 UNL     1      20.198  13.822   6.668  1.00  0.00     0.073 A 
HETATM   52  N3  UNL     1      19.892  12.817   5.866  1.00  0.00    -0.361 N 
HETATM   53  C20 UNL     1      20.794  12.294   5.106  1.00  0.00     0.096 A 
ATOM     54  H3  UNL     1      18.940  12.453   5.848  1.00  0.00     0.165 HD
HETATM   55  C21 UNL     1      22.062  12.818   5.164  1.00  0.00     0.068 A 
HETATM   56  S1  UNL     1      21.857  14.054   6.337  1.00  0.00    -0.085 SA
ENDBRANCH  15  51
TORSDOF 15
ENDMDL
