MODEL 1
REMARK VINA RESULT: -7.200801349      0.000      0.000
REMARK  8 active torsions:
REMARK  status: ('A' for Active; 'I' for Inactive)
REMARK    1  A    between atoms: N2_3  and  C2_5 
REMARK    2  A    between atoms: C3_10  and  N5_11 
REMARK    3  A    between atoms: N7_19  and  C8_20 
REMARK    4  A    between atoms: C8_20  and  C9_21 
REMARK    5  A    between atoms: C9_21  and  N8_22 
REMARK    6  A    between atoms: N8_22  and  C10_24 
REMARK    7  A    between atoms: C11_29  and  C12_30 
REMARK    8  A    between atoms: C12_30  and  O1_31 
ROOT
HETATM    1  N1  UNL     1      19.798  26.239 110.111  1.00  0.00    -0.171 NA
HETATM    2  C1  UNL     1      19.944  25.115 109.804  1.00  0.00     0.196 C 
HETATM    3  N2  UNL     1      20.119  23.766 109.459  1.00  0.00    -0.124 N 
ATOM      4  H2  UNL     1      20.936  23.262 109.802  1.00  0.00     0.197 HD
ENDROOT
BRANCH   3   5
HETATM    5  C2  UNL     1      19.252  23.150 108.706  1.00  0.00     0.723 A 
HETATM    6  N3  UNL     1      19.510  22.468 107.569  1.00  0.00    -0.116 N 
HETATM    7  N4  UNL     1      18.383  21.987 107.084  1.00  0.00    -0.117 N 
ATOM      8  H3  UNL     1      20.432  22.345 107.151  1.00  0.00     0.206 HD
HETATM    9  C3  UNL     1      17.339  22.340 107.893  1.00  0.00     0.712 A 
ATOM     10  H4  UNL     1      18.301  21.432 106.231  1.00  0.00     0.206 HD
HETATM   11  N7  UNL     1      17.911  23.053 108.881  1.00  0.00    -0.009 N 
BRANCH   9  12
HETATM   12  N5  UNL     1      15.973  22.019 107.675  1.00  0.00    -0.213 N 
HETATM   13  C4  UNL     1      14.853  22.885 107.670  1.00  0.00     0.168 C 
HETATM   14  C5  UNL     1      13.585  22.165 108.065  1.00  0.00     0.252 C 
HETATM   15  N6  UNL     1      13.334  20.962 107.325  1.00  0.00    -0.072 N 
HETATM   16  C6  UNL     1      14.490  20.495 106.589  1.00  0.00     0.252 C 
ATOM     17  H62 UNL     1      12.971  20.229 107.935  1.00  0.00     0.277 HD
ATOM     18  H61 UNL     1      12.531  21.077 106.706  1.00  0.00     0.277 HD
HETATM   19  C7  UNL     1      15.716  20.587 107.441  1.00  0.00     0.168 C 
ENDBRANCH   9  12
BRANCH  11  20
HETATM   20  C8  UNL     1      17.234  23.658 110.008  1.00  0.00     0.187 C 
BRANCH  20  21
HETATM   21  C9  UNL     1      17.258  22.791 111.252  1.00  0.00     0.159 C 
BRANCH  21  22
HETATM   22  N8  UNL     1      17.174  23.569 112.463  1.00  0.00    -0.223 N 
ATOM     23  H8  UNL     1      16.278  23.600 112.950  1.00  0.00     0.177 HD
BRANCH  22  24
HETATM   24  C10 UNL     1      18.157  24.226 112.969  1.00  0.00     0.694 A 
HETATM   25  N9  UNL     1      19.421  24.322 112.519  1.00  0.00    -0.131 N 
HETATM   26  N10 UNL     1      20.151  25.101 113.315  1.00  0.00    -0.272 N 
ATOM     27  H9  UNL     1      19.773  23.860 111.681  1.00  0.00     0.205 HD
HETATM   28  C11 UNL     1      19.343  25.522 114.308  1.00  0.00     0.136 A 
ATOM     29  H10 UNL     1      21.136  25.336 113.195  1.00  0.00     0.189 HD
HETATM   30  N11 UNL     1      18.114  24.972 114.081  1.00  0.00    -0.176 N 
ATOM     31  H11 UNL     1      17.291  25.109 114.667  1.00  0.00     0.185 HD
BRANCH  28  32
HETATM   32  C12 UNL     1      19.761  26.408 115.408  1.00  0.00     0.242 C 
BRANCH  32  33
HETATM   33  O1  UNL     1      18.658  26.566 116.255  1.00  0.00    -0.393 OA
ATOM     34  H1  UNL     1      18.823  27.332 116.792  1.00  0.00     0.209 HD
ENDBRANCH  32  33
ENDBRANCH  28  32
ENDBRANCH  22  24
ENDBRANCH  21  22
ENDBRANCH  20  21
ENDBRANCH  11  20
ENDBRANCH   3   5
TORSDOF 8
ENDMDL
MODEL 2
REMARK VINA RESULT: -7.037852787      1.512      2.289
REMARK  8 active torsions:
REMARK  status: ('A' for Active; 'I' for Inactive)
REMARK    1  A    between atoms: N2_3  and  C2_5 
REMARK    2  A    between atoms: C3_10  and  N5_11 
REMARK    3  A    between atoms: N7_19  and  C8_20 
REMARK    4  A    between atoms: C8_20  and  C9_21 
REMARK    5  A    between atoms: C9_21  and  N8_22 
REMARK    6  A    between atoms: N8_22  and  C10_24 
REMARK    7  A    between atoms: C11_29  and  C12_30 
REMARK    8  A    between atoms: C12_30  and  O1_31 
ROOT
HETATM    1  N1  UNL     1      22.440  22.065 106.173  1.00  0.00    -0.171 NA
HETATM    2  C1  UNL     1      21.616  22.224 106.995  1.00  0.00     0.196 C 
HETATM    3  N2  UNL     1      20.642  22.434 107.982  1.00  0.00    -0.124 N 
ATOM      4  H2  UNL     1      20.928  22.547 108.955  1.00  0.00     0.197 HD
ENDROOT
BRANCH   3   5
HETATM    5  C2  UNL     1      19.376  22.485 107.675  1.00  0.00     0.723 A 
HETATM    6  N3  UNL     1      18.848  22.537 106.433  1.00  0.00    -0.116 N 
HETATM    7  N4  UNL     1      17.534  22.585 106.520  1.00  0.00    -0.117 N 
ATOM      8  H3  UNL     1      19.383  22.538 105.564  1.00  0.00     0.206 HD
HETATM    9  C3  UNL     1      17.153  22.568 107.832  1.00  0.00     0.712 A 
ATOM     10  H4  UNL     1      16.895  22.629 105.725  1.00  0.00     0.206 HD
HETATM   11  N7  UNL     1      18.312  22.505 108.514  1.00  0.00    -0.009 N 
BRANCH   9  12
HETATM   12  N5  UNL     1      15.817  22.631 108.311  1.00  0.00    -0.213 N 
HETATM   13  C4  UNL     1      14.996  21.577 108.776  1.00  0.00     0.168 C 
HETATM   14  C5  UNL     1      13.529  21.873 108.566  1.00  0.00     0.252 C 
HETATM   15  N6  UNL     1      13.105  23.146 109.074  1.00  0.00    -0.072 N 
HETATM   16  C6  UNL     1      14.208  24.031 109.384  1.00  0.00     0.252 C 
ATOM     17  H62 UNL     1      12.450  23.593 108.433  1.00  0.00     0.277 HD
ATOM     18  H61 UNL     1      12.494  23.030 109.883  1.00  0.00     0.277 HD
HETATM   19  C7  UNL     1      15.230  23.983 108.293  1.00  0.00     0.168 C 
ENDBRANCH   9  12
BRANCH  11  20
HETATM   20  C8  UNL     1      18.462  22.458 109.952  1.00  0.00     0.187 C 
BRANCH  20  21
HETATM   21  C9  UNL     1      18.220  23.798 110.621  1.00  0.00     0.159 C 
BRANCH  21  22
HETATM   22  N8  UNL     1      18.164  23.691 112.058  1.00  0.00    -0.223 N 
ATOM     23  H8  UNL     1      17.640  22.913 112.459  1.00  0.00     0.177 HD
BRANCH  22  24
HETATM   24  C10 UNL     1      18.734  24.514 112.866  1.00  0.00     0.694 A 
HETATM   25  N9  UNL     1      19.962  25.056 112.782  1.00  0.00    -0.131 N 
HETATM   26  N10 UNL     1      20.194  25.870 113.811  1.00  0.00    -0.272 N 
ATOM     27  H9  UNL     1      20.627  24.870 112.032  1.00  0.00     0.205 HD
HETATM   28  C11 UNL     1      19.090  25.856 114.584  1.00  0.00     0.136 A 
ATOM     29  H10 UNL     1      21.046  26.403 113.982  1.00  0.00     0.189 HD
HETATM   30  N11 UNL     1      18.197  25.013 113.987  1.00  0.00    -0.176 N 
ATOM     31  H11 UNL     1      17.265  24.797 114.340  1.00  0.00     0.185 HD
BRANCH  28  32
HETATM   32  C12 UNL     1      18.930  26.625 115.830  1.00  0.00     0.242 C 
BRANCH  32  33
HETATM   33  O1  UNL     1      20.209  27.021 116.240  1.00  0.00    -0.393 OA
ATOM     34  H1  UNL     1      20.570  27.564 115.549  1.00  0.00     0.209 HD
ENDBRANCH  32  33
ENDBRANCH  28  32
ENDBRANCH  22  24
ENDBRANCH  21  22
ENDBRANCH  20  21
ENDBRANCH  11  20
ENDBRANCH   3   5
TORSDOF 8
ENDMDL
MODEL 3
REMARK VINA RESULT: -7.010882145      3.431      6.037
REMARK  8 active torsions:
REMARK  status: ('A' for Active; 'I' for Inactive)
REMARK    1  A    between atoms: N2_3  and  C2_5 
REMARK    2  A    between atoms: C3_10  and  N5_11 
REMARK    3  A    between atoms: N7_19  and  C8_20 
REMARK    4  A    between atoms: C8_20  and  C9_21 
REMARK    5  A    between atoms: C9_21  and  N8_22 
REMARK    6  A    between atoms: N8_22  and  C10_24 
REMARK    7  A    between atoms: C11_29  and  C12_30 
REMARK    8  A    between atoms: C12_30  and  O1_31 
ROOT
HETATM    1  N1  UNL     1      19.090  25.812 114.957  1.00  0.00    -0.171 NA
HETATM    2  C1  UNL     1      19.164  25.304 113.901  1.00  0.00     0.196 C 
HETATM    3  N2  UNL     1      19.269  24.686 112.646  1.00  0.00    -0.124 N 
ATOM      4  H2  UNL     1      20.144  24.750 112.126  1.00  0.00     0.197 HD
ENDROOT
BRANCH   3   5
HETATM    5  C2  UNL     1      18.265  24.031 112.135  1.00  0.00     0.723 A 
HETATM    6  N3  UNL     1      17.361  23.285 112.807  1.00  0.00    -0.116 N 
HETATM    7  N4  UNL     1      16.498  22.773 111.952  1.00  0.00    -0.117 N 
ATOM      8  H3  UNL     1      17.349  23.140 113.816  1.00  0.00     0.206 HD
HETATM    9  C3  UNL     1      16.809  23.168 110.682  1.00  0.00     0.712 A 
ATOM     10  H4  UNL     1      15.713  22.170 112.202  1.00  0.00     0.206 HD
HETATM   11  N7  UNL     1      17.900  23.942 110.832  1.00  0.00    -0.009 N 
BRANCH   9  12
HETATM   12  N5  UNL     1      16.114  22.793 109.501  1.00  0.00    -0.213 N 
HETATM   13  C4  UNL     1      16.420  21.754 108.590  1.00  0.00     0.168 C 
HETATM   14  C5  UNL     1      15.917  22.059 107.199  1.00  0.00     0.252 C 
HETATM   15  N6  UNL     1      14.533  22.432 107.140  1.00  0.00    -0.072 N 
HETATM   16  C6  UNL     1      13.978  22.765 108.436  1.00  0.00     0.252 C 
ATOM     17  H62 UNL     1      14.389  23.193 106.477  1.00  0.00     0.277 HD
ATOM     18  H61 UNL     1      13.980  21.707 106.684  1.00  0.00     0.277 HD
HETATM   19  C7  UNL     1      14.934  23.623 109.202  1.00  0.00     0.168 C 
ENDBRANCH   9  12
BRANCH  11  20
HETATM   20  C8  UNL     1      18.627  24.618 109.779  1.00  0.00     0.187 C 
BRANCH  20  21
HETATM   21  C9  UNL     1      19.836  23.839 109.296  1.00  0.00     0.159 C 
BRANCH  21  22
HETATM   22  N8  UNL     1      19.497  22.883 108.271  1.00  0.00    -0.223 N 
ATOM     23  H8  UNL     1      18.539  22.535 108.240  1.00  0.00     0.177 HD
BRANCH  22  24
HETATM   24  C10 UNL     1      20.326  22.442 107.392  1.00  0.00     0.694 A 
HETATM   25  N9  UNL     1      21.661  22.605 107.342  1.00  0.00    -0.131 N 
HETATM   26  N10 UNL     1      22.175  21.993 106.277  1.00  0.00    -0.272 N 
ATOM     27  H9  UNL     1      22.205  23.127 108.028  1.00  0.00     0.205 HD
HETATM   28  C11 UNL     1      21.150  21.419 105.617  1.00  0.00     0.136 A 
ATOM     29  H10 UNL     1      23.159  21.964 106.011  1.00  0.00     0.189 HD
HETATM   30  N11 UNL     1      20.014  21.705 106.317  1.00  0.00    -0.176 N 
ATOM     31  H11 UNL     1      19.074  21.405 106.062  1.00  0.00     0.185 HD
BRANCH  28  32
HETATM   32  C12 UNL     1      21.287  20.639 104.374  1.00  0.00     0.242 C 
BRANCH  32  33
HETATM   33  O1  UNL     1      20.530  19.472 104.531  1.00  0.00    -0.393 OA
ATOM     34  H1  UNL     1      20.754  18.893 103.812  1.00  0.00     0.209 HD
ENDBRANCH  32  33
ENDBRANCH  28  32
ENDBRANCH  22  24
ENDBRANCH  21  22
ENDBRANCH  20  21
ENDBRANCH  11  20
ENDBRANCH   3   5
TORSDOF 8
ENDMDL
MODEL 4
REMARK VINA RESULT: -6.969986429      1.422      1.990
REMARK  8 active torsions:
REMARK  status: ('A' for Active; 'I' for Inactive)
REMARK    1  A    between atoms: N2_3  and  C2_5 
REMARK    2  A    between atoms: C3_10  and  N5_11 
REMARK    3  A    between atoms: N7_19  and  C8_20 
REMARK    4  A    between atoms: C8_20  and  C9_21 
REMARK    5  A    between atoms: C9_21  and  N8_22 
REMARK    6  A    between atoms: N8_22  and  C10_24 
REMARK    7  A    between atoms: C11_29  and  C12_30 
REMARK    8  A    between atoms: C12_30  and  O1_31 
ROOT
HETATM    1  N1  UNL     1      22.320  22.250 106.363  1.00  0.00    -0.171 NA
HETATM    2  C1  UNL     1      21.490  22.422 107.176  1.00  0.00     0.196 C 
HETATM    3  N2  UNL     1      20.504  22.647 108.148  1.00  0.00    -0.124 N 
ATOM      4  H2  UNL     1      20.774  23.011 109.062  1.00  0.00     0.197 HD
ENDROOT
BRANCH   3   5
HETATM    5  C2  UNL     1      19.249  22.398 107.901  1.00  0.00     0.723 A 
HETATM    6  N3  UNL     1      18.763  21.535 106.982  1.00  0.00    -0.116 N 
HETATM    7  N4  UNL     1      17.445  21.557 107.019  1.00  0.00    -0.117 N 
ATOM      8  H3  UNL     1      19.326  20.958 106.358  1.00  0.00     0.206 HD
HETATM    9  C3  UNL     1      17.020  22.442 107.969  1.00  0.00     0.712 A 
ATOM     10  H4  UNL     1      16.833  20.996 106.425  1.00  0.00     0.206 HD
HETATM   11  N7  UNL     1      18.156  22.940 108.492  1.00  0.00    -0.009 N 
BRANCH   9  12
HETATM   12  N5  UNL     1      15.667  22.748 108.274  1.00  0.00    -0.213 N 
HETATM   13  C4  UNL     1      14.987  23.980 108.129  1.00  0.00     0.168 C 
HETATM   14  C5  UNL     1      13.853  24.116 109.118  1.00  0.00     0.252 C 
HETATM   15  N6  UNL     1      12.947  23.003 109.135  1.00  0.00    -0.072 N 
HETATM   16  C6  UNL     1      13.468  21.836 108.456  1.00  0.00     0.252 C 
ATOM     17  H62 UNL     1      12.669  22.775 110.089  1.00  0.00     0.277 HD
ATOM     18  H61 UNL     1      12.038  23.269 108.755  1.00  0.00     0.277 HD
HETATM   19  C7  UNL     1      14.900  21.618 108.828  1.00  0.00     0.168 C 
ENDBRANCH   9  12
BRANCH  11  20
HETATM   20  C8  UNL     1      18.259  23.922 109.550  1.00  0.00     0.187 C 
BRANCH  20  21
HETATM   21  C9  UNL     1      17.573  23.490 110.832  1.00  0.00     0.159 C 
BRANCH  21  22
HETATM   22  N8  UNL     1      18.507  23.297 111.914  1.00  0.00    -0.223 N 
ATOM     23  H8  UNL     1      18.856  22.353 112.081  1.00  0.00     0.177 HD
BRANCH  22  24
HETATM   24  C10 UNL     1      18.928  24.240 112.681  1.00  0.00     0.694 A 
HETATM   25  N9  UNL     1      20.035  24.993 112.554  1.00  0.00    -0.131 N 
HETATM   26  N10 UNL     1      20.128  25.873 113.549  1.00  0.00    -0.272 N 
ATOM     27  H9  UNL     1      20.713  24.902 111.797  1.00  0.00     0.205 HD
HETATM   28  C11 UNL     1      19.056  25.688 114.344  1.00  0.00     0.136 A 
ATOM     29  H10 UNL     1      20.871  26.559 113.684  1.00  0.00     0.189 HD
HETATM   30  N11 UNL     1      18.323  24.675 113.794  1.00  0.00    -0.176 N 
ATOM     31  H11 UNL     1      17.451  24.307 114.173  1.00  0.00     0.185 HD
BRANCH  28  32
HETATM   32  C12 UNL     1      18.775  26.462 115.566  1.00  0.00     0.242 C 
BRANCH  32  33
HETATM   33  O1  UNL     1      20.008  26.843 116.108  1.00  0.00    -0.393 OA
ATOM     34  H1  UNL     1      19.923  26.809 117.053  1.00  0.00     0.209 HD
ENDBRANCH  32  33
ENDBRANCH  28  32
ENDBRANCH  22  24
ENDBRANCH  21  22
ENDBRANCH  20  21
ENDBRANCH  11  20
ENDBRANCH   3   5
TORSDOF 8
ENDMDL
MODEL 5
REMARK VINA RESULT: -6.501222668      3.845      7.768
REMARK  8 active torsions:
REMARK  status: ('A' for Active; 'I' for Inactive)
REMARK    1  A    between atoms: N2_3  and  C2_5 
REMARK    2  A    between atoms: C3_10  and  N5_11 
REMARK    3  A    between atoms: N7_19  and  C8_20 
REMARK    4  A    between atoms: C8_20  and  C9_21 
REMARK    5  A    between atoms: C9_21  and  N8_22 
REMARK    6  A    between atoms: N8_22  and  C10_24 
REMARK    7  A    between atoms: C11_29  and  C12_30 
REMARK    8  A    between atoms: C12_30  and  O1_31 
ROOT
HETATM    1  N1  UNL     1      21.776  20.732 104.688  1.00  0.00    -0.171 NA
HETATM    2  C1  UNL     1      20.882  21.282 105.215  1.00  0.00     0.196 C 
HETATM    3  N2  UNL     1      19.803  21.922 105.841  1.00  0.00    -0.124 N 
ATOM      4  H2  UNL     1      18.945  22.089 105.315  1.00  0.00     0.197 HD
ENDROOT
BRANCH   3   5
HETATM    5  C2  UNL     1      19.880  22.306 107.084  1.00  0.00     0.723 A 
HETATM    6  N3  UNL     1      21.008  22.564 107.781  1.00  0.00    -0.116 N 
HETATM    7  N4  UNL     1      20.688  22.922 109.008  1.00  0.00    -0.117 N 
ATOM      8  H3  UNL     1      21.957  22.492 107.415  1.00  0.00     0.206 HD
HETATM    9  C3  UNL     1      19.330  22.911 109.159  1.00  0.00     0.712 A 
ATOM     10  H4  UNL     1      21.357  23.172 109.738  1.00  0.00     0.206 HD
HETATM   11  N7  UNL     1      18.865  22.528 107.955  1.00  0.00    -0.009 N 
BRANCH   9  12
HETATM   12  N5  UNL     1      18.624  23.218 110.353  1.00  0.00    -0.213 N 
HETATM   13  C4  UNL     1      17.429  22.641 110.843  1.00  0.00     0.168 C 
HETATM   14  C5  UNL     1      16.653  23.606 111.709  1.00  0.00     0.252 C 
HETATM   15  N6  UNL     1      17.425  24.210 112.757  1.00  0.00    -0.072 N 
HETATM   16  C6  UNL     1      18.852  24.042 112.582  1.00  0.00     0.252 C 
ATOM     17  H62 UNL     1      17.186  25.196 112.862  1.00  0.00     0.277 HD
ATOM     18  H61 UNL     1      17.128  23.868 113.671  1.00  0.00     0.277 HD
HETATM   19  C7  UNL     1      19.231  24.294 111.157  1.00  0.00     0.168 C 
ENDBRANCH   9  12
BRANCH  11  20
HETATM   20  C8  UNL     1      17.478  22.363 107.582  1.00  0.00     0.187 C 
BRANCH  20  21
HETATM   21  C9  UNL     1      16.892  21.040 108.035  1.00  0.00     0.159 C 
BRANCH  21  22
HETATM   22  N8  UNL     1      15.578  20.806 107.487  1.00  0.00    -0.223 N 
ATOM     23  H8  UNL     1      14.783  21.244 107.951  1.00  0.00     0.177 HD
BRANCH  22  24
HETATM   24  C10 UNL     1      15.347  20.081 106.451  1.00  0.00     0.694 A 
HETATM   25  N9  UNL     1      15.733  18.815 106.209  1.00  0.00    -0.131 N 
HETATM   26  N10 UNL     1      15.294  18.402 105.021  1.00  0.00    -0.272 N 
ATOM     27  H9  UNL     1      16.287  18.248 106.850  1.00  0.00     0.205 HD
HETATM   28  C11 UNL     1      14.606  19.425 104.476  1.00  0.00     0.136 A 
ATOM     29  H10 UNL     1      15.449  17.485 104.603  1.00  0.00     0.189 HD
HETATM   30  N11 UNL     1      14.648  20.455 105.370  1.00  0.00    -0.176 N 
ATOM     31  H11 UNL     1      14.214  21.368 105.237  1.00  0.00     0.185 HD
BRANCH  28  32
HETATM   32  C12 UNL     1      13.952  19.384 103.156  1.00  0.00     0.242 C 
BRANCH  32  33
HETATM   33  O1  UNL     1      14.186  20.618 102.538  1.00  0.00    -0.393 OA
ATOM     34  H1  UNL     1      13.354  21.074 102.495  1.00  0.00     0.209 HD
ENDBRANCH  32  33
ENDBRANCH  28  32
ENDBRANCH  22  24
ENDBRANCH  21  22
ENDBRANCH  20  21
ENDBRANCH  11  20
ENDBRANCH   3   5
TORSDOF 8
ENDMDL
