MODEL 1
REMARK VINA RESULT: -6.999354644      0.000      0.000
REMARK  8 active torsions:
REMARK  status: ('A' for Active; 'I' for Inactive)
REMARK       I    between atoms: C1_4  and  N3_6 
REMARK    1  A    between atoms: C5_10  and  C6_11 
REMARK       I    between atoms: C6_11  and  N4_13 
REMARK    2  A    between atoms: N4_13  and  C7_15 
REMARK    3  A    between atoms: C7_15  and  C8_16 
REMARK    4  A    between atoms: C8_16  and  C9_17 
REMARK    5  A    between atoms: C9_17  and  C10_18 
REMARK    6  A    between atoms: C10_18  and  O2_19 
REMARK    7  A    between atoms: C10_18  and  C11_21 
REMARK    8  A    between atoms: C16_29  and  C17_30 
ROOT
HETATM    1  C9  UNL     1      36.045  17.884  38.053  1.00  0.00     0.067 C 
ENDROOT
BRANCH   1   2
HETATM    2  C8  UNL     1      35.782  18.860  36.905  1.00  0.00     0.026 C 
BRANCH   2   3
HETATM    3  C7  UNL     1      36.805  19.913  36.721  1.00  0.00     0.123 C 
BRANCH   3   4
HETATM    4  N4  UNL     1      38.088  19.529  37.309  1.00  0.00    -0.359 N 
HETATM    5  C6  UNL     1      38.948  20.457  37.931  1.00  0.00     0.240 C 
HETATM    6  O1  UNL     1      38.644  21.669  38.001  1.00  0.00    -0.271 OA
ATOM      7  H4  UNL     1      38.372  18.551  37.268  1.00  0.00     0.162 HD
BRANCH   5   8
HETATM    8  C5  UNL     1      40.249  20.057  38.530  1.00  0.00     0.179 C 
HETATM    9  N3  UNL     1      41.311  20.040  37.559  1.00  0.00    -0.342 N 
HETATM   10  C1  UNL     1      41.691  21.066  36.655  1.00  0.00     0.184 C 
HETATM   11  C2  UNL     1      42.009  18.751  37.607  1.00  0.00     0.126 C 
HETATM   12  N1  UNL     1      41.734  22.292  37.044  1.00  0.00    -0.374 N 
HETATM   13  N2  UNL     1      42.028  20.762  35.314  1.00  0.00    -0.064 NA
ATOM     14  H12 UNL     1      42.007  23.030  36.393  1.00  0.00     0.158 HD
ATOM     15  H11 UNL     1      41.491  22.512  38.009  1.00  0.00     0.158 HD
HETATM   16  C3  UNL     1      41.643  18.218  38.987  1.00  0.00     0.022 C 
HETATM   17  C4  UNL     1      40.210  18.686  39.121  1.00  0.00     0.037 C 
ENDBRANCH   5   8
ENDBRANCH   3   4
ENDBRANCH   2   3
ENDBRANCH   1   2
BRANCH   1  18
HETATM   18  C10 UNL     1      35.521  18.259  39.322  1.00  0.00     0.054 C 
BRANCH  18  19
HETATM   19  O2  UNL     1      36.255  19.035  40.079  1.00  0.00    -0.364 OA
ATOM     20  H2  UNL     1      35.831  19.467  40.812  1.00  0.00     0.217 HD
ENDBRANCH  18  19
BRANCH  18  21
HETATM   21  C11 UNL     1      34.284  17.915  39.963  1.00  0.00     0.010 A 
HETATM   22  C12 UNL     1      33.183  18.647  39.438  1.00  0.00     0.060 A 
HETATM   23  C13 UNL     1      31.930  18.471  39.935  1.00  0.00     0.159 A 
HETATM   24  F1  UNL     1      30.878  19.165  39.440  1.00  0.00    -0.203 F 
HETATM   25  C14 UNL     1      31.693  17.582  40.955  1.00  0.00     0.194 A 
HETATM   26  F2  UNL     1      30.441  17.397  41.461  1.00  0.00    -0.200 F 
HETATM   27  C15 UNL     1      32.757  16.879  41.458  1.00  0.00     0.169 A 
HETATM   28  F3  UNL     1      32.513  15.998  42.484  1.00  0.00    -0.202 F 
HETATM   29  C16 UNL     1      34.065  17.036  40.967  1.00  0.00     0.050 A 
BRANCH  29  30
HETATM   30  C17 UNL     1      35.107  16.240  41.609  1.00  0.00     0.220 C 
HETATM   31 CL1  UNL     1      36.234  15.445  40.496  1.00  0.00    -0.078 Cl
HETATM   32 CL2  UNL     1      35.830  17.024  42.987  1.00  0.00    -0.078 Cl
HETATM   33 CL3  UNL     1      34.227  14.788  42.348  1.00  0.00    -0.078 Cl
ENDBRANCH  29  30
ENDBRANCH  18  21
ENDBRANCH   1  18
TORSDOF 8
ENDMDL
MODEL 2
REMARK VINA RESULT: -6.696250283      4.672      6.839
REMARK  8 active torsions:
REMARK  status: ('A' for Active; 'I' for Inactive)
REMARK       I    between atoms: C1_4  and  N3_6 
REMARK    1  A    between atoms: C5_10  and  C6_11 
REMARK       I    between atoms: C6_11  and  N4_13 
REMARK    2  A    between atoms: N4_13  and  C7_15 
REMARK    3  A    between atoms: C7_15  and  C8_16 
REMARK    4  A    between atoms: C8_16  and  C9_17 
REMARK    5  A    between atoms: C9_17  and  C10_18 
REMARK    6  A    between atoms: C10_18  and  O2_19 
REMARK    7  A    between atoms: C10_18  and  C11_21 
REMARK    8  A    between atoms: C16_29  and  C17_30 
ROOT
HETATM    1  C9  UNL     1      42.238  17.762  38.250  1.00  0.00     0.067 C 
ENDROOT
BRANCH   1   2
HETATM    2  C8  UNL     1      41.953  17.437  36.784  1.00  0.00     0.026 C 
BRANCH   2   3
HETATM    3  C7  UNL     1      43.121  17.507  35.879  1.00  0.00     0.123 C 
BRANCH   3   4
HETATM    4  N4  UNL     1      43.442  18.888  35.517  1.00  0.00    -0.359 N 
HETATM    5  C6  UNL     1      43.796  19.269  34.207  1.00  0.00     0.240 C 
HETATM    6  O1  UNL     1      43.854  18.424  33.285  1.00  0.00    -0.271 OA
ATOM      7  H4  UNL     1      43.409  19.604  36.242  1.00  0.00     0.162 HD
BRANCH   5   8
HETATM    8  C5  UNL     1      44.116  20.676  33.848  1.00  0.00     0.179 C 
HETATM    9  N3  UNL     1      45.527  20.950  33.935  1.00  0.00    -0.342 N 
HETATM   10  C1  UNL     1      46.599  20.229  33.347  1.00  0.00     0.184 C 
HETATM   11  C2  UNL     1      45.752  22.141  34.759  1.00  0.00     0.126 C 
HETATM   12  N1  UNL     1      46.508  19.798  32.137  1.00  0.00    -0.374 N 
HETATM   13  N2  UNL     1      47.784  19.973  34.076  1.00  0.00    -0.064 NA
ATOM     14  H12 UNL     1      47.278  19.280  31.715  1.00  0.00     0.158 HD
ATOM     15  H11 UNL     1      45.653  19.983  31.612  1.00  0.00     0.158 HD
HETATM   16  C3  UNL     1      44.399  22.841  34.722  1.00  0.00     0.022 C 
HETATM   17  C4  UNL     1      43.449  21.664  34.748  1.00  0.00     0.037 C 
ENDBRANCH   5   8
ENDBRANCH   3   4
ENDBRANCH   2   3
ENDBRANCH   1   2
BRANCH   1  18
HETATM   18  C10 UNL     1      41.253  18.541  38.919  1.00  0.00     0.054 C 
BRANCH  18  19
HETATM   19  O2  UNL     1      41.607  19.156  40.019  1.00  0.00    -0.364 OA
ATOM     20  H2  UNL     1      41.041  19.850  40.339  1.00  0.00     0.217 HD
ENDBRANCH  18  19
BRANCH  18  21
HETATM   21  C11 UNL     1      39.873  18.775  38.605  1.00  0.00     0.010 A 
HETATM   22  C12 UNL     1      39.008  17.850  39.252  1.00  0.00     0.060 A 
HETATM   23  C13 UNL     1      37.663  17.902  39.059  1.00  0.00     0.159 A 
HETATM   24  F1  UNL     1      36.834  17.024  39.671  1.00  0.00    -0.203 F 
HETATM   25  C14 UNL     1      37.104  18.849  38.235  1.00  0.00     0.194 A 
HETATM   26  F2  UNL     1      35.757  18.911  38.034  1.00  0.00    -0.200 F 
HETATM   27  C15 UNL     1      37.941  19.739  37.614  1.00  0.00     0.169 A 
HETATM   28  F3  UNL     1      37.375  20.678  36.786  1.00  0.00    -0.202 F 
HETATM   29  C16 UNL     1      39.335  19.713  37.792  1.00  0.00     0.050 A 
BRANCH  29  30
HETATM   30  C17 UNL     1      40.110  20.705  37.052  1.00  0.00     0.220 C 
HETATM   31 CL1  UNL     1      41.664  21.141  37.786  1.00  0.00    -0.078 Cl
HETATM   32 CL2  UNL     1      40.136  20.425  35.333  1.00  0.00    -0.078 Cl
HETATM   33 CL3  UNL     1      39.164  22.288  37.220  1.00  0.00    -0.078 Cl
ENDBRANCH  29  30
ENDBRANCH  18  21
ENDBRANCH   1  18
TORSDOF 8
ENDMDL
MODEL 3
REMARK VINA RESULT: -6.613821308      5.455      8.731
REMARK  8 active torsions:
REMARK  status: ('A' for Active; 'I' for Inactive)
REMARK       I    between atoms: C1_4  and  N3_6 
REMARK    1  A    between atoms: C5_10  and  C6_11 
REMARK       I    between atoms: C6_11  and  N4_13 
REMARK    2  A    between atoms: N4_13  and  C7_15 
REMARK    3  A    between atoms: C7_15  and  C8_16 
REMARK    4  A    between atoms: C8_16  and  C9_17 
REMARK    5  A    between atoms: C9_17  and  C10_18 
REMARK    6  A    between atoms: C10_18  and  O2_19 
REMARK    7  A    between atoms: C10_18  and  C11_21 
REMARK    8  A    between atoms: C16_29  and  C17_30 
ROOT
HETATM    1  C9  UNL     1      39.478  21.546  37.869  1.00  0.00     0.067 C 
ENDROOT
BRANCH   1   2
HETATM    2  C8  UNL     1      38.702  21.184  36.602  1.00  0.00     0.026 C 
BRANCH   2   3
HETATM    3  C7  UNL     1      37.495  20.355  36.813  1.00  0.00     0.123 C 
BRANCH   3   4
HETATM    4  N4  UNL     1      37.487  19.739  38.140  1.00  0.00    -0.359 N 
HETATM    5  C6  UNL     1      36.608  18.694  38.489  1.00  0.00     0.240 C 
HETATM    6  O1  UNL     1      35.780  18.246  37.662  1.00  0.00    -0.271 OA
ATOM      7  H4  UNL     1      38.144  20.079  38.841  1.00  0.00     0.162 HD
BRANCH   5   8
HETATM    8  C5  UNL     1      36.610  18.071  39.839  1.00  0.00     0.179 C 
HETATM    9  N3  UNL     1      36.563  16.634  39.773  1.00  0.00    -0.342 N 
HETATM   10  C1  UNL     1      37.399  15.761  39.029  1.00  0.00     0.184 C 
HETATM   11  C2  UNL     1      35.475  16.132  40.619  1.00  0.00     0.126 C 
HETATM   12  N1  UNL     1      38.668  15.966  38.973  1.00  0.00    -0.374 N 
HETATM   13  N2  UNL     1      36.855  14.652  38.338  1.00  0.00    -0.064 NA
ATOM     14  H12 UNL     1      39.269  15.339  38.438  1.00  0.00     0.158 HD
ATOM     15  H11 UNL     1      39.060  16.766  39.470  1.00  0.00     0.158 HD
HETATM   16  C3  UNL     1      35.224  17.294  41.573  1.00  0.00     0.022 C 
HETATM   17  C4  UNL     1      35.434  18.483  40.662  1.00  0.00     0.037 C 
ENDBRANCH   5   8
ENDBRANCH   3   4
ENDBRANCH   2   3
ENDBRANCH   1   2
BRANCH   1  18
HETATM   18  C10 UNL     1      40.887  21.671  37.722  1.00  0.00     0.054 C 
BRANCH  18  19
HETATM   19  O2  UNL     1      41.521  22.450  38.562  1.00  0.00    -0.364 OA
ATOM     20  H2  UNL     1      41.770  23.316  38.259  1.00  0.00     0.217 HD
ENDBRANCH  18  19
BRANCH  18  21
HETATM   21  C11 UNL     1      41.785  21.084  36.768  1.00  0.00     0.010 A 
HETATM   22  C12 UNL     1      42.376  22.056  35.915  1.00  0.00     0.060 A 
HETATM   23  C13 UNL     1      43.240  21.687  34.933  1.00  0.00     0.159 A 
HETATM   24  F1  UNL     1      43.807  22.608  34.117  1.00  0.00    -0.203 F 
HETATM   25  C14 UNL     1      43.566  20.366  34.738  1.00  0.00     0.194 A 
HETATM   26  F2  UNL     1      44.432  19.984  33.757  1.00  0.00    -0.200 F 
HETATM   27  C15 UNL     1      42.994  19.433  35.563  1.00  0.00     0.169 A 
HETATM   28  F3  UNL     1      43.319  18.114  35.357  1.00  0.00    -0.202 F 
HETATM   29  C16 UNL     1      42.097  19.781  36.588  1.00  0.00     0.050 A 
BRANCH  29  30
HETATM   30  C17 UNL     1      41.545  18.683  37.377  1.00  0.00     0.220 C 
HETATM   31 CL1  UNL     1      41.387  19.013  39.112  1.00  0.00    -0.078 Cl
HETATM   32 CL2  UNL     1      40.178  17.907  36.627  1.00  0.00    -0.078 Cl
HETATM   33 CL3  UNL     1      42.850  17.369  37.367  1.00  0.00    -0.078 Cl
ENDBRANCH  29  30
ENDBRANCH  18  21
ENDBRANCH   1  18
TORSDOF 8
ENDMDL
MODEL 4
REMARK VINA RESULT: -6.602989193      5.993      7.368
REMARK  8 active torsions:
REMARK  status: ('A' for Active; 'I' for Inactive)
REMARK       I    between atoms: C1_4  and  N3_6 
REMARK    1  A    between atoms: C5_10  and  C6_11 
REMARK       I    between atoms: C6_11  and  N4_13 
REMARK    2  A    between atoms: N4_13  and  C7_15 
REMARK    3  A    between atoms: C7_15  and  C8_16 
REMARK    4  A    between atoms: C8_16  and  C9_17 
REMARK    5  A    between atoms: C9_17  and  C10_18 
REMARK    6  A    between atoms: C10_18  and  O2_19 
REMARK    7  A    between atoms: C10_18  and  C11_21 
REMARK    8  A    between atoms: C16_29  and  C17_30 
ROOT
HETATM    1  C9  UNL     1      39.120  22.303  37.182  1.00  0.00     0.067 C 
ENDROOT
BRANCH   1   2
HETATM    2  C8  UNL     1      40.296  23.081  37.775  1.00  0.00     0.026 C 
BRANCH   2   3
HETATM    3  C7  UNL     1      41.338  23.490  36.807  1.00  0.00     0.123 C 
BRANCH   3   4
HETATM    4  N4  UNL     1      42.041  22.335  36.249  1.00  0.00    -0.359 N 
HETATM    5  C6  UNL     1      43.337  22.423  35.703  1.00  0.00     0.240 C 
HETATM    6  O1  UNL     1      43.948  23.516  35.671  1.00  0.00    -0.271 OA
ATOM      7  H4  UNL     1      41.573  21.429  36.254  1.00  0.00     0.162 HD
BRANCH   5   8
HETATM    8  C5  UNL     1      44.045  21.242  35.141  1.00  0.00     0.179 C 
HETATM    9  N3  UNL     1      44.178  21.321  33.710  1.00  0.00    -0.342 N 
HETATM   10  C1  UNL     1      44.697  22.390  32.933  1.00  0.00     0.184 C 
HETATM   11  C2  UNL     1      43.681  20.085  33.096  1.00  0.00     0.126 C 
HETATM   12  N1  UNL     1      45.756  23.015  33.312  1.00  0.00    -0.374 N 
HETATM   13  N2  UNL     1      44.061  22.786  31.732  1.00  0.00    -0.064 NA
ATOM     14  H12 UNL     1      46.128  23.783  32.754  1.00  0.00     0.158 HD
ATOM     15  H11 UNL     1      46.213  22.729  34.178  1.00  0.00     0.158 HD
HETATM   16  C3  UNL     1      43.732  19.089  34.248  1.00  0.00     0.022 C 
HETATM   17  C4  UNL     1      43.331  19.960  35.418  1.00  0.00     0.037 C 
ENDBRANCH   5   8
ENDBRANCH   3   4
ENDBRANCH   2   3
ENDBRANCH   1   2
BRANCH   1  18
HETATM   18  C10 UNL     1      38.928  20.986  37.685  1.00  0.00     0.054 C 
BRANCH  18  19
HETATM   19  O2  UNL     1      37.810  20.732  38.317  1.00  0.00    -0.364 OA
ATOM     20  H2  UNL     1      37.857  20.195  39.100  1.00  0.00     0.217 HD
ENDBRANCH  18  19
BRANCH  18  21
HETATM   21  C11 UNL     1      39.781  19.832  37.639  1.00  0.00     0.010 A 
HETATM   22  C12 UNL     1      40.525  19.664  38.840  1.00  0.00     0.060 A 
HETATM   23  C13 UNL     1      41.404  18.636  38.976  1.00  0.00     0.159 A 
HETATM   24  F1  UNL     1      42.116  18.470  40.115  1.00  0.00    -0.203 F 
HETATM   25  C14 UNL     1      41.595  17.731  37.959  1.00  0.00     0.194 A 
HETATM   26  F2  UNL     1      42.473  16.696  38.084  1.00  0.00    -0.200 F 
HETATM   27  C15 UNL     1      40.876  17.897  36.804  1.00  0.00     0.169 A 
HETATM   28  F3  UNL     1      41.079  16.993  35.790  1.00  0.00    -0.202 F 
HETATM   29  C16 UNL     1      39.960  18.949  36.631  1.00  0.00     0.050 A 
BRANCH  29  30
HETATM   30  C17 UNL     1      39.277  19.019  35.342  1.00  0.00     0.220 C 
HETATM   31 CL1  UNL     1      37.507  18.973  35.428  1.00  0.00    -0.078 Cl
HETATM   32 CL2  UNL     1      39.952  20.209  34.263  1.00  0.00    -0.078 Cl
HETATM   33 CL3  UNL     1      39.650  17.411  34.504  1.00  0.00    -0.078 Cl
ENDBRANCH  29  30
ENDBRANCH  18  21
ENDBRANCH   1  18
TORSDOF 8
ENDMDL
MODEL 5
REMARK VINA RESULT: -6.534953297      5.674      7.507
REMARK  8 active torsions:
REMARK  status: ('A' for Active; 'I' for Inactive)
REMARK       I    between atoms: C1_4  and  N3_6 
REMARK    1  A    between atoms: C5_10  and  C6_11 
REMARK       I    between atoms: C6_11  and  N4_13 
REMARK    2  A    between atoms: N4_13  and  C7_15 
REMARK    3  A    between atoms: C7_15  and  C8_16 
REMARK    4  A    between atoms: C8_16  and  C9_17 
REMARK    5  A    between atoms: C9_17  and  C10_18 
REMARK    6  A    between atoms: C10_18  and  O2_19 
REMARK    7  A    between atoms: C10_18  and  C11_21 
REMARK    8  A    between atoms: C16_29  and  C17_30 
ROOT
HETATM    1  C9  UNL     1      43.701  14.871  37.112  1.00  0.00     0.067 C 
ENDROOT
BRANCH   1   2
HETATM    2  C8  UNL     1      45.046  15.583  36.965  1.00  0.00     0.026 C 
BRANCH   2   3
HETATM    3  C7  UNL     1      45.368  16.057  35.601  1.00  0.00     0.123 C 
BRANCH   3   4
HETATM    4  N4  UNL     1      45.138  17.495  35.460  1.00  0.00    -0.359 N 
HETATM    5  C6  UNL     1      44.489  18.057  34.342  1.00  0.00     0.240 C 
HETATM    6  O1  UNL     1      44.080  17.333  33.406  1.00  0.00    -0.271 OA
ATOM      7  H4  UNL     1      45.461  18.117  36.201  1.00  0.00     0.162 HD
BRANCH   5   8
HETATM    8  C5  UNL     1      44.257  19.519  34.210  1.00  0.00     0.179 C 
HETATM    9  N3  UNL     1      45.485  20.268  34.242  1.00  0.00    -0.342 N 
HETATM   10  C1  UNL     1      46.656  20.070  33.463  1.00  0.00     0.184 C 
HETATM   11  C2  UNL     1      45.391  21.337  35.242  1.00  0.00     0.126 C 
HETATM   12  N1  UNL     1      46.564  19.805  32.207  1.00  0.00    -0.374 N 
HETATM   13  N2  UNL     1      47.940  20.162  34.051  1.00  0.00    -0.064 NA
ATOM     14  H12 UNL     1      47.405  19.662  31.648  1.00  0.00     0.158 HD
ATOM     15  H11 UNL     1      45.638  19.739  31.784  1.00  0.00     0.158 HD
HETATM   16  C3  UNL     1      43.886  21.500  35.424  1.00  0.00     0.022 C 
HETATM   17  C4  UNL     1      43.412  20.067  35.313  1.00  0.00     0.037 C 
ENDBRANCH   5   8
ENDBRANCH   3   4
ENDBRANCH   2   3
ENDBRANCH   1   2
BRANCH   1  18
HETATM   18  C10 UNL     1      42.946  15.200  38.272  1.00  0.00     0.054 C 
BRANCH  18  19
HETATM   19  O2  UNL     1      43.274  14.617  39.398  1.00  0.00    -0.364 OA
ATOM     20  H2  UNL     1      43.465  13.686  39.375  1.00  0.00     0.217 HD
ENDBRANCH  18  19
BRANCH  18  21
HETATM   21  C11 UNL     1      41.826  16.082  38.442  1.00  0.00     0.010 A 
HETATM   22  C12 UNL     1      42.221  17.447  38.503  1.00  0.00     0.060 A 
HETATM   23  C13 UNL     1      41.299  18.430  38.682  1.00  0.00     0.159 A 
HETATM   24  F1  UNL     1      41.667  19.732  38.741  1.00  0.00    -0.203 F 
HETATM   25  C14 UNL     1      39.963  18.132  38.807  1.00  0.00     0.194 A 
HETATM   26  F2  UNL     1      39.030  19.109  38.987  1.00  0.00    -0.200 F 
HETATM   27  C15 UNL     1      39.588  16.815  38.748  1.00  0.00     0.169 A 
HETATM   28  F3  UNL     1      38.252  16.525  38.882  1.00  0.00    -0.202 F 
HETATM   29  C16 UNL     1      40.515  15.774  38.564  1.00  0.00     0.050 A 
BRANCH  29  30
HETATM   30  C17 UNL     1      39.981  14.416  38.542  1.00  0.00     0.220 C 
HETATM   31 CL1  UNL     1      40.816  13.300  37.446  1.00  0.00    -0.078 Cl
HETATM   32 CL2  UNL     1      39.612  13.788  40.124  1.00  0.00    -0.078 Cl
HETATM   33 CL3  UNL     1      38.321  14.557  37.733  1.00  0.00    -0.078 Cl
ENDBRANCH  29  30
ENDBRANCH  18  21
ENDBRANCH   1  18
TORSDOF 8
ENDMDL
