MODEL 1
REMARK VINA RESULT: -5.931668823      0.000      0.000
REMARK  8 active torsions:
REMARK  status: ('A' for Active; 'I' for Inactive)
REMARK    1  A    between atoms: C2_2  and  C5_5 
REMARK    2  A    between atoms: C6_6  and  N1_7 
REMARK    3  A    between atoms: N1_7  and  C7_9 
REMARK    4  A    between atoms: C7_9  and  C8_10 
REMARK    5  A    between atoms: C7_9  and  C9_13 
REMARK    6  A    between atoms: C12_16  and  C13_17 
REMARK       I    between atoms: C13_17  and  N2_19 
REMARK    7  A    between atoms: N2_19  and  C14_21 
REMARK    8  A    between atoms: C14_21  and  C15_23 
REMARK       I    between atoms: N3_27  and  C16_28 
ROOT
HETATM    1  C9  UNL     1      38.126  18.071  37.304  1.00  0.00     0.141 C 
HETATM    2  C10 UNL     1      38.427  16.628  37.632  1.00  0.00     0.034 C 
HETATM    3  C11 UNL     1      39.291  16.664  38.835  1.00  0.00     0.037 C 
HETATM    4  C12 UNL     1      39.945  18.024  38.751  1.00  0.00     0.181 C 
HETATM    5  N3  UNL     1      39.238  18.806  37.770  1.00  0.00    -0.313 N 
HETATM    6  C16 UNL     1      39.701  20.084  37.364  1.00  0.00     0.332 C 
HETATM    7  N4  UNL     1      40.810  20.714  38.010  1.00  0.00    -0.040 NA
HETATM    8  O2  UNL     1      39.197  20.769  36.426  1.00  0.00    -0.251 OA
ENDROOT
BRANCH   1   9
HETATM    9  C7  UNL     1      36.759  18.378  37.744  1.00  0.00     0.074 C 
BRANCH   9  10
HETATM   10  N1  UNL     1      36.551  19.010  39.013  1.00  0.00    -0.367 N 
ATOM     11  H1  UNL     1      36.355  20.010  38.998  1.00  0.00     0.165 HD
BRANCH  10  12
HETATM   12  C6  UNL     1      36.590  18.398  40.268  1.00  0.00     0.084 C 
HETATM   13  C5  UNL     1      35.655  17.776  40.896  1.00  0.00    -0.001 C 
BRANCH  13  14
HETATM   14  C2  UNL     1      34.271  17.548  40.428  1.00  0.00    -0.032 C 
HETATM   15  C1  UNL     1      34.269  16.420  39.429  1.00  0.00     0.018 C 
HETATM   16  C3  UNL     1      33.647  18.783  39.846  1.00  0.00     0.018 C 
HETATM   17  C4  UNL     1      33.388  17.147  41.634  1.00  0.00     0.018 C 
ENDBRANCH  13  14
ENDBRANCH  10  12
ENDBRANCH   9  10
BRANCH   9  18
HETATM   18  C8  UNL     1      35.839  18.930  36.712  1.00  0.00     0.401 C 
HETATM   19  F1  UNL     1      36.054  20.283  36.564  1.00  0.00    -0.208 F 
HETATM   20  F2  UNL     1      36.279  18.429  35.454  1.00  0.00    -0.208 F 
ENDBRANCH   9  18
ENDBRANCH   1   9
BRANCH   4  21
HETATM   21  C13 UNL     1      41.354  17.765  38.414  1.00  0.00     0.242 C 
HETATM   22  O1  UNL     1      42.181  18.141  39.320  1.00  0.00    -0.271 OA
HETATM   23  N2  UNL     1      41.898  17.180  37.277  1.00  0.00    -0.338 N 
ATOM     24  H2  UNL     1      41.261  16.867  36.544  1.00  0.00     0.164 HD
BRANCH  23  25
HETATM   25  C14 UNL     1      43.316  16.990  37.075  1.00  0.00     0.236 C 
HETATM   26 CL1  UNL     1      43.901  17.725  35.567  1.00  0.00    -0.098 Cl
BRANCH  25  27
HETATM   27  C15 UNL     1      43.724  15.539  37.133  1.00  0.00     0.221 C 
HETATM   28 CL2  UNL     1      45.429  15.412  36.624  1.00  0.00    -0.080 Cl
HETATM   29 CL3  UNL     1      42.770  14.499  36.089  1.00  0.00    -0.080 Cl
HETATM   30 CL4  UNL     1      43.628  14.905  38.792  1.00  0.00    -0.080 Cl
ENDBRANCH  25  27
ENDBRANCH  23  25
ENDBRANCH   4  21
TORSDOF 8
ENDMDL
MODEL 2
REMARK VINA RESULT: -5.871665341      4.358      7.236
REMARK  8 active torsions:
REMARK  status: ('A' for Active; 'I' for Inactive)
REMARK    1  A    between atoms: C2_2  and  C5_5 
REMARK    2  A    between atoms: C6_6  and  N1_7 
REMARK    3  A    between atoms: N1_7  and  C7_9 
REMARK    4  A    between atoms: C7_9  and  C8_10 
REMARK    5  A    between atoms: C7_9  and  C9_13 
REMARK    6  A    between atoms: C12_16  and  C13_17 
REMARK       I    between atoms: C13_17  and  N2_19 
REMARK    7  A    between atoms: N2_19  and  C14_21 
REMARK    8  A    between atoms: C14_21  and  C15_23 
REMARK       I    between atoms: N3_27  and  C16_28 
ROOT
HETATM    1  C9  UNL     1      39.250  19.407  38.316  1.00  0.00     0.141 C 
HETATM    2  C10 UNL     1      39.407  18.295  39.325  1.00  0.00     0.034 C 
HETATM    3  C11 UNL     1      38.833  17.089  38.683  1.00  0.00     0.037 C 
HETATM    4  C12 UNL     1      37.847  17.662  37.691  1.00  0.00     0.181 C 
HETATM    5  N3  UNL     1      38.107  19.071  37.557  1.00  0.00    -0.313 N 
HETATM    6  C16 UNL     1      37.255  19.916  36.800  1.00  0.00     0.332 C 
HETATM    7  N4  UNL     1      36.180  19.385  36.021  1.00  0.00    -0.040 NA
HETATM    8  O2  UNL     1      37.358  21.177  36.738  1.00  0.00    -0.251 OA
ENDROOT
BRANCH   1   9
HETATM    9  C7  UNL     1      40.551  19.656  37.682  1.00  0.00     0.074 C 
BRANCH   9  10
HETATM   10  N1  UNL     1      40.982  18.819  36.603  1.00  0.00    -0.367 N 
ATOM     11  H1  UNL     1      40.254  18.303  36.107  1.00  0.00     0.165 HD
BRANCH  10  12
HETATM   12  C6  UNL     1      42.292  18.636  36.158  1.00  0.00     0.084 C 
HETATM   13  C5  UNL     1      43.079  17.633  36.341  1.00  0.00    -0.001 C 
BRANCH  13  14
HETATM   14  C2  UNL     1      42.776  16.393  37.088  1.00  0.00    -0.032 C 
HETATM   15  C1  UNL     1      41.583  15.721  36.461  1.00  0.00     0.018 C 
HETATM   16  C3  UNL     1      42.548  16.641  38.550  1.00  0.00     0.018 C 
HETATM   17  C4  UNL     1      43.990  15.439  36.997  1.00  0.00     0.018 C 
ENDBRANCH  13  14
ENDBRANCH  10  12
ENDBRANCH   9  10
BRANCH   9  18
HETATM   18  C8  UNL     1      40.904  21.080  37.433  1.00  0.00     0.401 C 
HETATM   19  F1  UNL     1      40.464  21.463  36.185  1.00  0.00    -0.208 F 
HETATM   20  F2  UNL     1      40.079  21.867  38.284  1.00  0.00    -0.208 F 
ENDBRANCH   9  18
ENDBRANCH   1   9
BRANCH   4  21
HETATM   21  C13 UNL     1      36.514  17.344  38.231  1.00  0.00     0.242 C 
HETATM   22  O1  UNL     1      35.965  16.320  37.684  1.00  0.00    -0.271 OA
HETATM   23  N2  UNL     1      35.789  17.983  39.228  1.00  0.00    -0.338 N 
ATOM     24  H2  UNL     1      36.206  18.795  39.682  1.00  0.00     0.164 HD
BRANCH  23  25
HETATM   25  C14 UNL     1      34.476  17.560  39.659  1.00  0.00     0.236 C 
HETATM   26 CL1  UNL     1      33.325  18.908  39.782  1.00  0.00    -0.098 Cl
BRANCH  25  27
HETATM   27  C15 UNL     1      34.508  16.789  40.954  1.00  0.00     0.221 C 
HETATM   28 CL2  UNL     1      32.880  16.841  41.682  1.00  0.00    -0.080 Cl
HETATM   29 CL3  UNL     1      35.644  17.431  42.127  1.00  0.00    -0.080 Cl
HETATM   30 CL4  UNL     1      34.898  15.075  40.679  1.00  0.00    -0.080 Cl
ENDBRANCH  25  27
ENDBRANCH  23  25
ENDBRANCH   4  21
TORSDOF 8
ENDMDL
MODEL 3
REMARK VINA RESULT: -5.763374977      3.884      5.548
REMARK  8 active torsions:
REMARK  status: ('A' for Active; 'I' for Inactive)
REMARK    1  A    between atoms: C2_2  and  C5_5 
REMARK    2  A    between atoms: C6_6  and  N1_7 
REMARK    3  A    between atoms: N1_7  and  C7_9 
REMARK    4  A    between atoms: C7_9  and  C8_10 
REMARK    5  A    between atoms: C7_9  and  C9_13 
REMARK    6  A    between atoms: C12_16  and  C13_17 
REMARK       I    between atoms: C13_17  and  N2_19 
REMARK    7  A    between atoms: N2_19  and  C14_21 
REMARK    8  A    between atoms: C14_21  and  C15_23 
REMARK       I    between atoms: N3_27  and  C16_28 
ROOT
HETATM    1  C9  UNL     1      41.011  20.249  37.927  1.00  0.00     0.141 C 
HETATM    2  C10 UNL     1      41.009  21.754  37.819  1.00  0.00     0.034 C 
HETATM    3  C11 UNL     1      41.080  22.051  36.369  1.00  0.00     0.037 C 
HETATM    4  C12 UNL     1      41.744  20.820  35.796  1.00  0.00     0.181 C 
HETATM    5  N3  UNL     1      41.727  19.789  36.800  1.00  0.00    -0.313 N 
HETATM    6  C16 UNL     1      42.403  18.556  36.611  1.00  0.00     0.332 C 
HETATM    7  N4  UNL     1      43.014  18.225  35.361  1.00  0.00    -0.040 NA
HETATM    8  O2  UNL     1      42.527  17.658  37.495  1.00  0.00    -0.251 OA
ENDROOT
BRANCH   1   9
HETATM    9  C7  UNL     1      39.642  19.795  38.209  1.00  0.00     0.074 C 
BRANCH   9  10
HETATM   10  N1  UNL     1      38.661  19.824  37.166  1.00  0.00    -0.367 N 
ATOM     11  H1  UNL     1      38.728  19.095  36.455  1.00  0.00     0.165 HD
BRANCH  10  12
HETATM   12  C6  UNL     1      37.621  20.744  37.022  1.00  0.00     0.084 C 
HETATM   13  C5  UNL     1      36.780  20.873  36.056  1.00  0.00    -0.001 C 
BRANCH  13  14
HETATM   14  C2  UNL     1      36.706  20.052  34.828  1.00  0.00    -0.032 C 
HETATM   15  C1  UNL     1      36.250  18.663  35.192  1.00  0.00     0.018 C 
HETATM   16  C3  UNL     1      38.007  20.012  34.081  1.00  0.00     0.018 C 
HETATM   17  C4  UNL     1      35.673  20.678  33.862  1.00  0.00     0.018 C 
ENDBRANCH  13  14
ENDBRANCH  10  12
ENDBRANCH   9  10
BRANCH   9  18
HETATM   18  C8  UNL     1      39.510  18.566  39.039  1.00  0.00     0.401 C 
HETATM   19  F1  UNL     1      40.313  18.663  40.154  1.00  0.00    -0.208 F 
HETATM   20  F2  UNL     1      38.209  18.594  39.616  1.00  0.00    -0.208 F 
ENDBRANCH   9  18
ENDBRANCH   1   9
BRANCH   4  21
HETATM   21  C13 UNL     1      43.095  21.250  35.397  1.00  0.00     0.242 C 
HETATM   22  O1  UNL     1      43.714  21.918  36.301  1.00  0.00    -0.271 OA
HETATM   23  N2  UNL     1      43.775  21.035  34.205  1.00  0.00    -0.338 N 
ATOM     24  H2  UNL     1      43.306  20.502  33.472  1.00  0.00     0.164 HD
BRANCH  23  25
HETATM   25  C14 UNL     1      45.109  21.524  33.945  1.00  0.00     0.236 C 
HETATM   26 CL1  UNL     1      45.117  23.081  33.088  1.00  0.00    -0.098 Cl
BRANCH  25  27
HETATM   27  C15 UNL     1      45.963  20.525  33.206  1.00  0.00     0.221 C 
HETATM   28 CL2  UNL     1      46.584  21.300  31.724  1.00  0.00    -0.080 Cl
HETATM   29 CL3  UNL     1      45.095  19.074  32.733  1.00  0.00    -0.080 Cl
HETATM   30 CL4  UNL     1      47.377  20.041  34.171  1.00  0.00    -0.080 Cl
ENDBRANCH  25  27
ENDBRANCH  23  25
ENDBRANCH   4  21
TORSDOF 8
ENDMDL
MODEL 4
REMARK VINA RESULT: -5.735978994      2.705      3.673
REMARK  8 active torsions:
REMARK  status: ('A' for Active; 'I' for Inactive)
REMARK    1  A    between atoms: C2_2  and  C5_5 
REMARK    2  A    between atoms: C6_6  and  N1_7 
REMARK    3  A    between atoms: N1_7  and  C7_9 
REMARK    4  A    between atoms: C7_9  and  C8_10 
REMARK    5  A    between atoms: C7_9  and  C9_13 
REMARK    6  A    between atoms: C12_16  and  C13_17 
REMARK       I    between atoms: C13_17  and  N2_19 
REMARK    7  A    between atoms: N2_19  and  C14_21 
REMARK    8  A    between atoms: C14_21  and  C15_23 
REMARK       I    between atoms: N3_27  and  C16_28 
ROOT
HETATM    1  C9  UNL     1      40.226  17.187  37.817  1.00  0.00     0.141 C 
HETATM    2  C10 UNL     1      41.508  17.267  38.610  1.00  0.00     0.034 C 
HETATM    3  C11 UNL     1      41.676  18.698  38.956  1.00  0.00     0.037 C 
HETATM    4  C12 UNL     1      40.906  19.409  37.866  1.00  0.00     0.181 C 
HETATM    5  N3  UNL     1      40.098  18.438  37.176  1.00  0.00    -0.313 N 
HETATM    6  C16 UNL     1      39.365  18.776  36.008  1.00  0.00     0.332 C 
HETATM    7  N4  UNL     1      39.284  20.126  35.545  1.00  0.00    -0.040 NA
HETATM    8  O2  UNL     1      38.733  17.948  35.289  1.00  0.00    -0.251 OA
ENDROOT
BRANCH   1   9
HETATM    9  C7  UNL     1      39.168  16.652  38.685  1.00  0.00     0.074 C 
BRANCH   9  10
HETATM   10  N1  UNL     1      37.875  17.266  38.679  1.00  0.00    -0.367 N 
ATOM     11  H1  UNL     1      37.170  16.840  38.076  1.00  0.00     0.165 HD
BRANCH  10  12
HETATM   12  C6  UNL     1      37.476  18.385  39.412  1.00  0.00     0.084 C 
HETATM   13  C5  UNL     1      36.391  18.575  40.077  1.00  0.00    -0.001 C 
BRANCH  13  14
HETATM   14  C2  UNL     1      35.269  17.625  40.235  1.00  0.00    -0.032 C 
HETATM   15  C1  UNL     1      35.530  16.751  41.434  1.00  0.00     0.018 C 
HETATM   16  C3  UNL     1      35.036  16.797  39.006  1.00  0.00     0.018 C 
HETATM   17  C4  UNL     1      33.963  18.419  40.474  1.00  0.00     0.018 C 
ENDBRANCH  13  14
ENDBRANCH  10  12
ENDBRANCH   9  10
BRANCH   9  18
HETATM   18  C8  UNL     1      39.061  15.170  38.762  1.00  0.00     0.401 C 
HETATM   19  F1  UNL     1      39.919  14.684  39.724  1.00  0.00    -0.208 F 
HETATM   20  F2  UNL     1      37.791  14.875  39.332  1.00  0.00    -0.208 F 
ENDBRANCH   9  18
ENDBRANCH   1   9
BRANCH   4  21
HETATM   21  C13 UNL     1      41.924  20.056  37.022  1.00  0.00     0.242 C 
HETATM   22  O1  UNL     1      42.201  21.258  37.374  1.00  0.00    -0.271 OA
HETATM   23  N2  UNL     1      42.612  19.553  35.924  1.00  0.00    -0.338 N 
ATOM     24  H2  UNL     1      42.414  18.597  35.628  1.00  0.00     0.164 HD
BRANCH  23  25
HETATM   25  C14 UNL     1      43.592  20.308  35.179  1.00  0.00     0.236 C 
HETATM   26 CL1  UNL     1      42.894  21.147  33.777  1.00  0.00    -0.098 Cl
BRANCH  25  27
HETATM   27  C15 UNL     1      44.769  19.470  34.746  1.00  0.00     0.221 C 
HETATM   28 CL2  UNL     1      44.745  19.341  32.967  1.00  0.00    -0.080 Cl
HETATM   29 CL3  UNL     1      44.753  17.844  35.406  1.00  0.00    -0.080 Cl
HETATM   30 CL4  UNL     1      46.310  20.239  35.191  1.00  0.00    -0.080 Cl
ENDBRANCH  25  27
ENDBRANCH  23  25
ENDBRANCH   4  21
TORSDOF 8
ENDMDL
MODEL 5
REMARK VINA RESULT: -5.734225814      6.669      9.818
REMARK  8 active torsions:
REMARK  status: ('A' for Active; 'I' for Inactive)
REMARK    1  A    between atoms: C2_2  and  C5_5 
REMARK    2  A    between atoms: C6_6  and  N1_7 
REMARK    3  A    between atoms: N1_7  and  C7_9 
REMARK    4  A    between atoms: C7_9  and  C8_10 
REMARK    5  A    between atoms: C7_9  and  C9_13 
REMARK    6  A    between atoms: C12_16  and  C13_17 
REMARK       I    between atoms: C13_17  and  N2_19 
REMARK    7  A    between atoms: N2_19  and  C14_21 
REMARK    8  A    between atoms: C14_21  and  C15_23 
REMARK       I    between atoms: N3_27  and  C16_28 
ROOT
HETATM    1  C9  UNL     1      44.408  20.266  33.733  1.00  0.00     0.141 C 
HETATM    2  C10 UNL     1      43.610  19.099  33.204  1.00  0.00     0.034 C 
HETATM    3  C11 UNL     1      42.225  19.600  33.049  1.00  0.00     0.037 C 
HETATM    4  C12 UNL     1      42.153  20.733  34.047  1.00  0.00     0.181 C 
HETATM    5  N3  UNL     1      43.493  21.049  34.469  1.00  0.00    -0.313 N 
HETATM    6  C16 UNL     1      43.744  21.979  35.511  1.00  0.00     0.332 C 
HETATM    7  N4  UNL     1      42.689  22.748  36.093  1.00  0.00    -0.040 NA
HETATM    8  O2  UNL     1      44.884  22.214  36.008  1.00  0.00    -0.251 OA
ENDROOT
BRANCH   1   9
HETATM    9  C7  UNL     1      45.199  20.834  32.633  1.00  0.00     0.074 C 
BRANCH   9  10
HETATM   10  N1  UNL     1      44.977  22.190  32.232  1.00  0.00    -0.367 N 
ATOM     11  H1  UNL     1      44.069  22.401  31.817  1.00  0.00     0.165 HD
BRANCH  10  12
HETATM   12  C6  UNL     1      45.872  23.255  32.350  1.00  0.00     0.084 C 
HETATM   13  C5  UNL     1      46.124  24.200  31.513  1.00  0.00    -0.001 C 
BRANCH  13  14
HETATM   14  C2  UNL     1      45.507  24.396  30.184  1.00  0.00    -0.032 C 
HETATM   15  C1  UNL     1      44.151  25.027  30.360  1.00  0.00     0.018 C 
HETATM   16  C3  UNL     1      45.409  23.121  29.399  1.00  0.00     0.018 C 
HETATM   17  C4  UNL     1      46.395  25.349  29.349  1.00  0.00     0.018 C 
ENDBRANCH  13  14
ENDBRANCH  10  12
ENDBRANCH   9  10
BRANCH   9  18
HETATM   18  C8  UNL     1      46.650  20.499  32.618  1.00  0.00     0.401 C 
HETATM   19  F1  UNL     1      46.863  19.300  33.263  1.00  0.00    -0.208 F 
HETATM   20  F2  UNL     1      46.985  20.168  31.275  1.00  0.00    -0.208 F 
ENDBRANCH   9  18
ENDBRANCH   1   9
BRANCH   4  21
HETATM   21  C13 UNL     1      41.279  20.250  35.129  1.00  0.00     0.242 C 
HETATM   22  O1  UNL     1      40.030  20.459  34.918  1.00  0.00    -0.271 OA
HETATM   23  N2  UNL     1      41.612  19.612  36.318  1.00  0.00    -0.338 N 
ATOM     24  H2  UNL     1      42.598  19.430  36.506  1.00  0.00     0.164 HD
BRANCH  23  25
HETATM   25  C14 UNL     1      40.640  19.193  37.301  1.00  0.00     0.236 C 
HETATM   26 CL1  UNL     1      40.050  20.537  38.302  1.00  0.00    -0.098 Cl
BRANCH  25  27
HETATM   27  C15 UNL     1      41.145  18.078  38.181  1.00  0.00     0.221 C 
HETATM   28 CL2  UNL     1      41.548  18.759  39.780  1.00  0.00    -0.080 Cl
HETATM   29 CL3  UNL     1      42.579  17.284  37.555  1.00  0.00    -0.080 Cl
HETATM   30 CL4  UNL     1      39.892  16.842  38.444  1.00  0.00    -0.080 Cl
ENDBRANCH  25  27
ENDBRANCH  23  25
ENDBRANCH   4  21
TORSDOF 8
ENDMDL
