MODEL 1
REMARK VINA RESULT: -6.322317589      0.000      0.000
REMARK  7 active torsions:
REMARK  status: ('A' for Active; 'I' for Inactive)
REMARK       I    between atoms: C1_2  and  N1_3 
REMARK    1  A    between atoms: C1_2  and  C5_10 
REMARK    2  A    between atoms: N1_3  and  C2_5 
REMARK    3  A    between atoms: C2_5  and  C3_6 
REMARK    4  A    between atoms: C3_6  and  C4_7 
REMARK    5  A    between atoms: C4_7  and  O2_8 
REMARK    6  A    between atoms: C9_18  and  C10_19 
REMARK    7  A    between atoms: C10_19  and  C11_20 
ROOT
HETATM    1  C5  UNL     1      41.856  19.407  36.871  1.00  0.00     0.067 A 
HETATM    2  C6  UNL     1      42.179  18.424  37.771  1.00  0.00     0.066 A 
HETATM    3 CL1  UNL     1      41.524  18.473  39.390  1.00  0.00    -0.082 Cl
HETATM    4  C7  UNL     1      42.990  17.323  37.445  1.00  0.00     0.116 A 
HETATM    5  N2  UNL     1      43.450  17.254  36.195  1.00  0.00    -0.332 N 
ATOM      6  H2  UNL     1      44.041  16.468  35.920  1.00  0.00     0.168 HD
HETATM    7  C8  UNL     1      43.145  18.212  35.282  1.00  0.00     0.253 A 
HETATM    8  O3  UNL     1      43.637  18.029  34.147  1.00  0.00    -0.268 OA
HETATM    9  C9  UNL     1      42.352  19.310  35.570  1.00  0.00     0.032 A 
ENDROOT
BRANCH   9  10
HETATM   10  C10 UNL     1      42.029  20.353  34.605  1.00  0.00     0.089 C 
BRANCH  10  11
HETATM   11  C11 UNL     1      43.173  21.047  33.970  1.00  0.00     0.013 A 
HETATM   12  C12 UNL     1      44.043  21.756  34.761  1.00  0.00     0.166 A 
HETATM   13  F1  UNL     1      43.870  21.806  36.114  1.00  0.00    -0.202 F 
HETATM   14  C13 UNL     1      45.100  22.425  34.199  1.00  0.00     0.197 A 
HETATM   15  F2  UNL     1      45.948  23.117  34.982  1.00  0.00    -0.199 F 
HETATM   16  C14 UNL     1      45.296  22.390  32.831  1.00  0.00     0.198 A 
HETATM   17  F3  UNL     1      46.338  23.048  32.259  1.00  0.00    -0.199 F 
HETATM   18  C15 UNL     1      44.442  21.688  32.005  1.00  0.00     0.180 A 
HETATM   19  F4  UNL     1      44.642  21.657  30.649  1.00  0.00    -0.201 F 
HETATM   20  C16 UNL     1      43.394  21.032  32.614  1.00  0.00     0.085 A 
HETATM   21 CL2  UNL     1      42.306  20.134  31.545  1.00  0.00    -0.080 Cl
ENDBRANCH  10  11
ENDBRANCH   9  10
BRANCH   1  22
HETATM   22  C1  UNL     1      41.072  20.552  37.264  1.00  0.00     0.254 C 
HETATM   23  O1  UNL     1      39.798  20.549  37.066  1.00  0.00    -0.268 OA
HETATM   24  N1  UNL     1      41.529  21.735  37.856  1.00  0.00    -0.357 N 
ATOM     25  H1  UNL     1      42.523  21.852  38.052  1.00  0.00     0.162 HD
BRANCH  24  26
HETATM   26  C2  UNL     1      40.606  22.790  38.191  1.00  0.00     0.125 C 
BRANCH  26  27
HETATM   27  C3  UNL     1      40.864  24.076  37.439  1.00  0.00     0.046 C 
BRANCH  27  28
HETATM   28  C4  UNL     1      41.129  25.208  38.404  1.00  0.00     0.165 C 
BRANCH  28  29
HETATM   29  O2  UNL     1      42.319  25.856  38.180  1.00  0.00    -0.401 OA
ATOM     30  H2  UNL     1      42.880  25.898  38.946  1.00  0.00     0.209 HD
ENDBRANCH  28  29
ENDBRANCH  27  28
ENDBRANCH  26  27
ENDBRANCH  24  26
ENDBRANCH   1  22
TORSDOF 7
ENDMDL
MODEL 2
REMARK VINA RESULT: -6.223863829      4.365      5.476
REMARK  7 active torsions:
REMARK  status: ('A' for Active; 'I' for Inactive)
REMARK       I    between atoms: C1_2  and  N1_3 
REMARK    1  A    between atoms: C1_2  and  C5_10 
REMARK    2  A    between atoms: N1_3  and  C2_5 
REMARK    3  A    between atoms: C2_5  and  C3_6 
REMARK    4  A    between atoms: C3_6  and  C4_7 
REMARK    5  A    between atoms: C4_7  and  O2_8 
REMARK    6  A    between atoms: C9_18  and  C10_19 
REMARK    7  A    between atoms: C10_19  and  C11_20 
ROOT
HETATM    1  C5  UNL     1      39.803  19.356  36.341  1.00  0.00     0.067 A 
HETATM    2  C6  UNL     1      38.535  19.148  35.863  1.00  0.00     0.066 A 
HETATM    3 CL1  UNL     1      37.272  20.306  36.207  1.00  0.00    -0.082 Cl
HETATM    4  C7  UNL     1      38.192  18.055  35.049  1.00  0.00     0.116 A 
HETATM    5  N2  UNL     1      39.165  17.196  34.741  1.00  0.00    -0.332 N 
ATOM      6  H2  UNL     1      38.955  16.390  34.151  1.00  0.00     0.168 HD
HETATM    7  C8  UNL     1      40.431  17.377  35.199  1.00  0.00     0.253 A 
HETATM    8  O3  UNL     1      41.248  16.503  34.836  1.00  0.00    -0.268 OA
HETATM    9  C9  UNL     1      40.802  18.441  36.004  1.00  0.00     0.032 A 
ENDROOT
BRANCH   9  10
HETATM   10  C10 UNL     1      42.152  18.639  36.515  1.00  0.00     0.089 C 
BRANCH  10  11
HETATM   11  C11 UNL     1      42.798  17.469  37.155  1.00  0.00     0.013 A 
HETATM   12  C12 UNL     1      42.252  16.954  38.304  1.00  0.00     0.166 A 
HETATM   13  F1  UNL     1      41.121  17.497  38.841  1.00  0.00    -0.202 F 
HETATM   14  C13 UNL     1      42.840  15.884  38.930  1.00  0.00     0.197 A 
HETATM   15  F2  UNL     1      42.297  15.386  40.056  1.00  0.00    -0.199 F 
HETATM   16  C14 UNL     1      43.987  15.318  38.405  1.00  0.00     0.198 A 
HETATM   17  F3  UNL     1      44.580  14.258  39.013  1.00  0.00    -0.199 F 
HETATM   18  C15 UNL     1      44.563  15.809  37.252  1.00  0.00     0.180 A 
HETATM   19  F4  UNL     1      45.700  15.242  36.737  1.00  0.00    -0.201 F 
HETATM   20  C16 UNL     1      43.938  16.884  36.658  1.00  0.00     0.085 A 
HETATM   21 CL2  UNL     1      44.686  17.506  35.179  1.00  0.00    -0.080 Cl
ENDBRANCH  10  11
ENDBRANCH   9  10
BRANCH   1  22
HETATM   22  C1  UNL     1      40.099  20.457  37.225  1.00  0.00     0.254 C 
HETATM   23  O1  UNL     1      39.988  20.297  38.500  1.00  0.00    -0.268 OA
HETATM   24  N1  UNL     1      40.505  21.749  36.870  1.00  0.00    -0.357 N 
ATOM     25  H1  UNL     1      40.618  21.992  35.886  1.00  0.00     0.162 HD
BRANCH  24  26
HETATM   26  C2  UNL     1      40.764  22.739  37.885  1.00  0.00     0.125 C 
BRANCH  26  27
HETATM   27  C3  UNL     1      40.832  24.149  37.345  1.00  0.00     0.046 C 
BRANCH  27  28
HETATM   28  C4  UNL     1      41.151  25.124  38.454  1.00  0.00     0.165 C 
BRANCH  28  29
HETATM   29  O2  UNL     1      42.303  25.842  38.244  1.00  0.00    -0.401 OA
ATOM     30  H2  UNL     1      42.151  26.761  38.055  1.00  0.00     0.209 HD
ENDBRANCH  28  29
ENDBRANCH  27  28
ENDBRANCH  26  27
ENDBRANCH  24  26
ENDBRANCH   1  22
TORSDOF 7
ENDMDL
MODEL 3
REMARK VINA RESULT: -6.199396386      5.314      7.347
REMARK  7 active torsions:
REMARK  status: ('A' for Active; 'I' for Inactive)
REMARK       I    between atoms: C1_2  and  N1_3 
REMARK    1  A    between atoms: C1_2  and  C5_10 
REMARK    2  A    between atoms: N1_3  and  C2_5 
REMARK    3  A    between atoms: C2_5  and  C3_6 
REMARK    4  A    between atoms: C3_6  and  C4_7 
REMARK    5  A    between atoms: C4_7  and  O2_8 
REMARK    6  A    between atoms: C9_18  and  C10_19 
REMARK    7  A    between atoms: C10_19  and  C11_20 
ROOT
HETATM    1  C5  UNL     1      37.693  15.574  38.014  1.00  0.00     0.067 A 
HETATM    2  C6  UNL     1      37.635  14.533  37.124  1.00  0.00     0.066 A 
HETATM    3 CL1  UNL     1      36.191  13.556  37.017  1.00  0.00    -0.082 Cl
HETATM    4  C7  UNL     1      38.680  14.226  36.236  1.00  0.00     0.116 A 
HETATM    5  N2  UNL     1      39.764  15.001  36.278  1.00  0.00    -0.332 N 
ATOM      6  H2  UNL     1      40.543  14.810  35.647  1.00  0.00     0.168 HD
HETATM    7  C8  UNL     1      39.848  16.041  37.148  1.00  0.00     0.253 A 
HETATM    8  O3  UNL     1      40.915  16.690  37.086  1.00  0.00    -0.268 OA
HETATM    9  C9  UNL     1      38.840  16.370  38.038  1.00  0.00     0.032 A 
ENDROOT
BRANCH   9  10
HETATM   10  C10 UNL     1      38.923  17.473  38.987  1.00  0.00     0.089 C 
BRANCH  10  11
HETATM   11  C11 UNL     1      39.170  18.819  38.419  1.00  0.00     0.013 A 
HETATM   12  C12 UNL     1      38.167  19.439  37.716  1.00  0.00     0.166 A 
HETATM   13  F1  UNL     1      36.953  18.835  37.557  1.00  0.00    -0.202 F 
HETATM   14  C13 UNL     1      38.374  20.676  37.162  1.00  0.00     0.197 A 
HETATM   15  F2  UNL     1      37.385  21.277  36.475  1.00  0.00    -0.199 F 
HETATM   16  C14 UNL     1      39.596  21.307  37.310  1.00  0.00     0.198 A 
HETATM   17  F3  UNL     1      39.815  22.533  36.767  1.00  0.00    -0.199 F 
HETATM   18  C15 UNL     1      40.626  20.715  38.009  1.00  0.00     0.180 A 
HETATM   19  F4  UNL     1      41.835  21.346  38.152  1.00  0.00    -0.201 F 
HETATM   20  C16 UNL     1      40.373  19.471  38.548  1.00  0.00     0.085 A 
HETATM   21 CL2  UNL     1      41.702  18.721  39.444  1.00  0.00    -0.080 Cl
ENDBRANCH  10  11
ENDBRANCH   9  10
BRANCH   1  22
HETATM   22  C1  UNL     1      36.624  15.817  38.952  1.00  0.00     0.254 C 
HETATM   23  O1  UNL     1      35.592  16.495  38.579  1.00  0.00    -0.268 OA
HETATM   24  N1  UNL     1      36.551  15.402  40.287  1.00  0.00    -0.357 N 
ATOM     25  H1  UNL     1      37.317  14.865  40.693  1.00  0.00     0.162 HD
BRANCH  24  26
HETATM   26  C2  UNL     1      35.402  15.729  41.093  1.00  0.00     0.125 C 
BRANCH  26  27
HETATM   27  C3  UNL     1      35.552  17.025  41.857  1.00  0.00     0.046 C 
BRANCH  27  28
HETATM   28  C4  UNL     1      34.480  18.007  41.446  1.00  0.00     0.165 C 
BRANCH  28  29
HETATM   29  O2  UNL     1      34.818  18.769  40.355  1.00  0.00    -0.401 OA
ATOM     30  H2  UNL     1      34.418  19.631  40.352  1.00  0.00     0.209 HD
ENDBRANCH  28  29
ENDBRANCH  27  28
ENDBRANCH  26  27
ENDBRANCH  24  26
ENDBRANCH   1  22
TORSDOF 7
ENDMDL
MODEL 4
REMARK VINA RESULT: -6.065327394      3.626      5.974
REMARK  7 active torsions:
REMARK  status: ('A' for Active; 'I' for Inactive)
REMARK       I    between atoms: C1_2  and  N1_3 
REMARK    1  A    between atoms: C1_2  and  C5_10 
REMARK    2  A    between atoms: N1_3  and  C2_5 
REMARK    3  A    between atoms: C2_5  and  C3_6 
REMARK    4  A    between atoms: C3_6  and  C4_7 
REMARK    5  A    between atoms: C4_7  and  O2_8 
REMARK    6  A    between atoms: C9_18  and  C10_19 
REMARK    7  A    between atoms: C10_19  and  C11_20 
ROOT
HETATM    1  C5  UNL     1      42.011  20.395  35.710  1.00  0.00     0.067 A 
HETATM    2  C6  UNL     1      43.024  20.699  34.838  1.00  0.00     0.066 A 
HETATM    3 CL1  UNL     1      43.882  22.214  34.991  1.00  0.00    -0.082 Cl
HETATM    4  C7  UNL     1      43.458  19.821  33.830  1.00  0.00     0.116 A 
HETATM    5  N2  UNL     1      42.841  18.641  33.742  1.00  0.00    -0.332 N 
ATOM      6  H2  UNL     1      43.129  17.977  33.024  1.00  0.00     0.168 HD
HETATM    7  C8  UNL     1      41.835  18.312  34.594  1.00  0.00     0.253 A 
HETATM    8  O3  UNL     1      41.342  17.178  34.408  1.00  0.00    -0.268 OA
HETATM    9  C9  UNL     1      41.382  19.154  35.595  1.00  0.00     0.032 A 
ENDROOT
BRANCH   9  10
HETATM   10  C10 UNL     1      40.294  18.820  36.506  1.00  0.00     0.089 C 
BRANCH  10  11
HETATM   11  C11 UNL     1      40.466  17.597  37.324  1.00  0.00     0.013 A 
HETATM   12  C12 UNL     1      41.550  17.501  38.159  1.00  0.00     0.166 A 
HETATM   13  F1  UNL     1      42.449  18.524  38.252  1.00  0.00    -0.202 F 
HETATM   14  C13 UNL     1      41.746  16.372  38.913  1.00  0.00     0.197 A 
HETATM   15  F2  UNL     1      42.812  16.287  39.730  1.00  0.00    -0.199 F 
HETATM   16  C14 UNL     1      40.849  15.322  38.835  1.00  0.00     0.198 A 
HETATM   17  F3  UNL     1      41.029  14.197  39.575  1.00  0.00    -0.199 F 
HETATM   18  C15 UNL     1      39.748  15.382  38.006  1.00  0.00     0.180 A 
HETATM   19  F4  UNL     1      38.863  14.337  37.934  1.00  0.00    -0.201 F 
HETATM   20  C16 UNL     1      39.593  16.536  37.268  1.00  0.00     0.085 A 
HETATM   21 CL2  UNL     1      38.176  16.603  36.209  1.00  0.00    -0.080 Cl
ENDBRANCH  10  11
ENDBRANCH   9  10
BRANCH   1  22
HETATM   22  C1  UNL     1      41.555  21.350  36.690  1.00  0.00     0.254 C 
HETATM   23  O1  UNL     1      42.196  21.476  37.802  1.00  0.00    -0.268 OA
HETATM   24  N1  UNL     1      40.448  22.203  36.598  1.00  0.00    -0.357 N 
ATOM     25  H1  UNL     1      39.862  22.184  35.764  1.00  0.00     0.162 HD
BRANCH  24  26
HETATM   26  C2  UNL     1      40.130  23.106  37.675  1.00  0.00     0.125 C 
BRANCH  26  27
HETATM   27  C3  UNL     1      40.740  24.479  37.507  1.00  0.00     0.046 C 
BRANCH  27  28
HETATM   28  C4  UNL     1      41.208  25.017  38.839  1.00  0.00     0.165 C 
BRANCH  28  29
HETATM   29  O2  UNL     1      41.851  24.085  39.615  1.00  0.00    -0.401 OA
ATOM     30  H2  UNL     1      41.309  23.338  39.843  1.00  0.00     0.209 HD
ENDBRANCH  28  29
ENDBRANCH  27  28
ENDBRANCH  26  27
ENDBRANCH  24  26
ENDBRANCH   1  22
TORSDOF 7
ENDMDL
MODEL 5
REMARK VINA RESULT: -6.046945733      5.648      7.907
REMARK  7 active torsions:
REMARK  status: ('A' for Active; 'I' for Inactive)
REMARK       I    between atoms: C1_2  and  N1_3 
REMARK    1  A    between atoms: C1_2  and  C5_10 
REMARK    2  A    between atoms: N1_3  and  C2_5 
REMARK    3  A    between atoms: C2_5  and  C3_6 
REMARK    4  A    between atoms: C3_6  and  C4_7 
REMARK    5  A    between atoms: C4_7  and  O2_8 
REMARK    6  A    between atoms: C9_18  and  C10_19 
REMARK    7  A    between atoms: C10_19  and  C11_20 
ROOT
HETATM    1  C5  UNL     1      37.574  15.559  37.984  1.00  0.00     0.067 A 
HETATM    2  C6  UNL     1      37.438  14.555  37.061  1.00  0.00     0.066 A 
HETATM    3 CL1  UNL     1      35.988  13.579  37.041  1.00  0.00    -0.082 Cl
HETATM    4  C7  UNL     1      38.400  14.287  36.072  1.00  0.00     0.116 A 
HETATM    5  N2  UNL     1      39.485  15.063  36.050  1.00  0.00    -0.332 N 
ATOM      6  H2  UNL     1      40.204  14.901  35.346  1.00  0.00     0.168 HD
HETATM    7  C8  UNL     1      39.645  16.067  36.952  1.00  0.00     0.253 A 
HETATM    8  O3  UNL     1      40.703  16.721  36.823  1.00  0.00    -0.268 OA
HETATM    9  C9  UNL     1      38.720  16.356  37.940  1.00  0.00     0.032 A 
ENDROOT
BRANCH   9  10
HETATM   10  C10 UNL     1      38.887  17.419  38.922  1.00  0.00     0.089 C 
BRANCH  10  11
HETATM   11  C11 UNL     1      39.136  18.779  38.392  1.00  0.00     0.013 A 
HETATM   12  C12 UNL     1      38.135  19.419  37.703  1.00  0.00     0.166 A 
HETATM   13  F1  UNL     1      36.921  18.821  37.526  1.00  0.00    -0.202 F 
HETATM   14  C13 UNL     1      38.343  20.671  37.183  1.00  0.00     0.197 A 
HETATM   15  F2  UNL     1      37.356  21.290  36.510  1.00  0.00    -0.199 F 
HETATM   16  C14 UNL     1      39.565  21.296  37.350  1.00  0.00     0.198 A 
HETATM   17  F3  UNL     1      39.787  22.536  36.840  1.00  0.00    -0.199 F 
HETATM   18  C15 UNL     1      40.594  20.685  38.035  1.00  0.00     0.180 A 
HETATM   19  F4  UNL     1      41.803  21.312  38.197  1.00  0.00    -0.201 F 
HETATM   20  C16 UNL     1      40.339  19.428  38.540  1.00  0.00     0.085 A 
HETATM   21 CL2  UNL     1      41.665  18.652  39.418  1.00  0.00    -0.080 Cl
ENDBRANCH  10  11
ENDBRANCH   9  10
BRANCH   1  22
HETATM   22  C1  UNL     1      36.592  15.760  39.022  1.00  0.00     0.254 C 
HETATM   23  O1  UNL     1      35.572  16.514  38.794  1.00  0.00    -0.268 OA
HETATM   24  N1  UNL     1      36.598  15.225  40.316  1.00  0.00    -0.357 N 
ATOM     25  H1  UNL     1      37.364  14.619  40.610  1.00  0.00     0.162 HD
BRANCH  24  26
HETATM   26  C2  UNL     1      35.530  15.526  41.236  1.00  0.00     0.125 C 
BRANCH  26  27
HETATM   27  C3  UNL     1      35.305  14.445  42.269  1.00  0.00     0.046 C 
BRANCH  27  28
HETATM   28  C4  UNL     1      36.355  13.367  42.142  1.00  0.00     0.165 C 
BRANCH  28  29
HETATM   29  O2  UNL     1      37.413  13.522  43.004  1.00  0.00    -0.401 OA
ATOM     30  H2  UNL     1      38.177  13.010  42.766  1.00  0.00     0.209 HD
ENDBRANCH  28  29
ENDBRANCH  27  28
ENDBRANCH  26  27
ENDBRANCH  24  26
ENDBRANCH   1  22
TORSDOF 7
ENDMDL
