MODEL 1
REMARK VINA RESULT: -7.458352042      0.000      0.000
REMARK  12 active torsions:
REMARK  status: ('A' for Active; 'I' for Inactive)
REMARK    1  A    between atoms: C2_2  and  C4_4 
REMARK    2  A    between atoms: C4_4  and  C5_6 
REMARK    3  A    between atoms: C5_6  and  C6_7 
REMARK    4  A    between atoms: C6_7  and  N1_8 
REMARK    5  A    between atoms: C6_7  and  C9_15 
REMARK       I    between atoms: N1_8  and  C7_10 
REMARK    6  A    between atoms: C7_10  and  C8_12 
REMARK    7  A    between atoms: C10_16  and  O3_17 
REMARK    8  A    between atoms: C16_24  and  C17_25 
REMARK    9  A    between atoms: C17_25  and  C18_26 
REMARK   10  A    between atoms: C18_26  and  C19_27 
REMARK   11  A    between atoms: C19_27  and  C20_28 
REMARK   12  A    between atoms: C20_28  and  C21_29 
ROOT
HETATM    1  C9  UNL     1      -1.695  33.771  63.809  1.00  0.00     0.041 C 
HETATM    2  C10 UNL     1      -1.012  34.698  62.893  1.00  0.00     0.125 C 
HETATM    3  C11 UNL     1      -1.269  36.153  63.033  1.00  0.00     0.041 C 
HETATM    4  C12 UNL     1      -1.404  36.593  64.469  1.00  0.00    -0.045 C 
HETATM    5  C13 UNL     1      -1.857  38.044  64.445  1.00  0.00     0.015 C 
HETATM    6  C14 UNL     1      -0.137  36.506  65.243  1.00  0.00     0.015 C 
HETATM    7  C15 UNL     1      -2.539  35.790  65.019  1.00  0.00     0.014 C 
HETATM    8  C16 UNL     1      -2.355  34.301  65.019  1.00  0.00    -0.005 C 
ENDROOT
BRANCH   1   9
HETATM    9  C6  UNL     1      -0.784  32.596  64.044  1.00  0.00     0.098 C 
BRANCH   9  10
HETATM   10  C5  UNL     1      -1.273  31.295  63.527  1.00  0.00     0.104 C 
BRANCH  10  11
HETATM   11  C4  UNL     1      -0.401  30.168  63.898  1.00  0.00     0.132 C 
HETATM   12  O1  UNL     1       0.622  30.018  63.188  1.00  0.00    -0.298 OA
BRANCH  11  13
HETATM   13  C2  UNL     1      -0.595  29.207  64.987  1.00  0.00     0.047 C 
HETATM   14  C1  UNL     1      -0.150  27.822  64.539  1.00  0.00     0.017 C 
HETATM   15  C3  UNL     1      -2.106  29.056  65.237  1.00  0.00     0.017 C 
ENDBRANCH  11  13
ENDBRANCH  10  11
ENDBRANCH   9  10
BRANCH   9  16
HETATM   16  N1  UNL     1       0.584  32.908  63.767  1.00  0.00    -0.354 N 
HETATM   17  C7  UNL     1       1.688  33.008  64.643  1.00  0.00     0.247 C 
HETATM   18  O2  UNL     1       1.649  32.818  65.879  1.00  0.00    -0.271 OA
ATOM     19  H1  UNL     1       0.795  33.084  62.785  1.00  0.00     0.162 HD
BRANCH  17  20
HETATM   20  C8  UNL     1       3.061  33.371  64.134  1.00  0.00     0.245 C 
HETATM   21 CL1  UNL     1       4.247  32.111  64.393  1.00  0.00    -0.103 Cl
HETATM   22 BR1  UNL     1       2.835  33.569  62.199  1.00  0.00    -0.064 Br
ENDBRANCH  17  20
ENDBRANCH   9  16
ENDBRANCH   1   9
BRANCH   2  23
HETATM   23  O3  UNL     1      -1.285  34.354  61.563  1.00  0.00    -0.395 OA
ATOM     24  H3  UNL     1      -0.491  34.397  61.042  1.00  0.00     0.210 HD
ENDBRANCH   2  23
BRANCH   8  25
HETATM   25  C17 UNL     1      -3.793  33.768  65.170  1.00  0.00     0.005 C 
BRANCH  25  26
HETATM   26  C18 UNL     1      -4.660  34.688  65.982  1.00  0.00     0.001 C 
BRANCH  26  27
HETATM   27  C19 UNL     1      -6.103  34.209  66.006  1.00  0.00     0.007 C 
BRANCH  27  28
HETATM   28  C20 UNL     1      -6.542  33.969  64.591  1.00  0.00     0.072 C 
BRANCH  28  29
HETATM   29  C21 UNL     1      -7.951  34.391  64.374  1.00  0.00     0.086 C 
HETATM   30  N2  UNL     1      -8.832  34.313  65.329  1.00  0.00    -0.391 N 
ATOM     31  H22 UNL     1      -8.544  33.955  66.240  1.00  0.00     0.157 HD
ATOM     32  H21 UNL     1      -9.799  34.602  65.180  1.00  0.00     0.157 HD
HETATM   33  N3  UNL     1      -8.351  34.886  63.113  1.00  0.00    -0.088 NA
ENDBRANCH  28  29
ENDBRANCH  27  28
ENDBRANCH  26  27
ENDBRANCH  25  26
ENDBRANCH   8  25
TORSDOF 12
ENDMDL
MODEL 2
REMARK VINA RESULT: -7.432235128      3.347      6.943
REMARK  12 active torsions:
REMARK  status: ('A' for Active; 'I' for Inactive)
REMARK    1  A    between atoms: C2_2  and  C4_4 
REMARK    2  A    between atoms: C4_4  and  C5_6 
REMARK    3  A    between atoms: C5_6  and  C6_7 
REMARK    4  A    between atoms: C6_7  and  N1_8 
REMARK    5  A    between atoms: C6_7  and  C9_15 
REMARK       I    between atoms: N1_8  and  C7_10 
REMARK    6  A    between atoms: C7_10  and  C8_12 
REMARK    7  A    between atoms: C10_16  and  O3_17 
REMARK    8  A    between atoms: C16_24  and  C17_25 
REMARK    9  A    between atoms: C17_25  and  C18_26 
REMARK   10  A    between atoms: C18_26  and  C19_27 
REMARK   11  A    between atoms: C19_27  and  C20_28 
REMARK   12  A    between atoms: C20_28  and  C21_29 
ROOT
HETATM    1  C9  UNL     1      -1.225  32.064  65.276  1.00  0.00     0.041 C 
HETATM    2  C10 UNL     1      -1.743  31.393  64.073  1.00  0.00     0.125 C 
HETATM    3  C11 UNL     1      -1.226  30.043  63.735  1.00  0.00     0.041 C 
HETATM    4  C12 UNL     1      -0.994  29.179  64.948  1.00  0.00    -0.045 C 
HETATM    5  C13 UNL     1      -0.288  27.922  64.466  1.00  0.00     0.015 C 
HETATM    6  C14 UNL     1      -2.244  28.779  65.647  1.00  0.00     0.015 C 
HETATM    7  C15 UNL     1      -0.013  29.936  65.785  1.00  0.00     0.014 C 
HETATM    8  C16 UNL     1      -0.462  31.284  66.271  1.00  0.00    -0.005 C 
ENDROOT
BRANCH   1   9
HETATM    9  C6  UNL     1      -2.328  32.915  65.844  1.00  0.00     0.098 C 
BRANCH   9  10
HETATM   10  C5  UNL     1      -2.726  32.600  67.238  1.00  0.00     0.104 C 
BRANCH  10  11
HETATM   11  C4  UNL     1      -3.027  33.803  68.032  1.00  0.00     0.132 C 
HETATM   12  O1  UNL     1      -4.229  34.160  68.039  1.00  0.00    -0.298 OA
BRANCH  11  13
HETATM   13  C2  UNL     1      -2.088  34.626  68.800  1.00  0.00     0.047 C 
HETATM   14  C1  UNL     1      -1.029  33.738  69.439  1.00  0.00     0.017 C 
HETATM   15  C3  UNL     1      -2.842  35.235  69.994  1.00  0.00     0.017 C 
ENDBRANCH  11  13
ENDBRANCH  10  11
ENDBRANCH   9  10
BRANCH   9  16
HETATM   16  N1  UNL     1      -2.155  34.301  65.538  1.00  0.00    -0.354 N 
HETATM   17  C7  UNL     1      -2.639  35.058  64.447  1.00  0.00     0.247 C 
HETATM   18  O2  UNL     1      -3.353  34.615  63.521  1.00  0.00    -0.271 OA
ATOM     19  H1  UNL     1      -1.595  34.824  66.211  1.00  0.00     0.162 HD
BRANCH  17  20
HETATM   20  C8  UNL     1      -2.318  36.525  64.309  1.00  0.00     0.245 C 
HETATM   21 CL1  UNL     1      -2.665  37.446  65.756  1.00  0.00    -0.103 Cl
HETATM   22 BR1  UNL     1      -0.380  36.584  64.032  1.00  0.00    -0.064 Br
ENDBRANCH  17  20
ENDBRANCH   9  16
ENDBRANCH   1   9
BRANCH   2  23
HETATM   23  O3  UNL     1      -1.556  32.204  62.947  1.00  0.00    -0.395 OA
ATOM     24  H3  UNL     1      -1.966  31.810  62.185  1.00  0.00     0.210 HD
ENDBRANCH   2  23
BRANCH   8  25
HETATM   25  C17 UNL     1       0.858  31.977  66.657  1.00  0.00     0.005 C 
BRANCH  25  26
HETATM   26  C18 UNL     1       1.375  32.870  65.565  1.00  0.00     0.001 C 
BRANCH  26  27
HETATM   27  C19 UNL     1       2.598  32.270  64.891  1.00  0.00     0.007 C 
BRANCH  27  28
HETATM   28  C20 UNL     1       2.829  33.002  63.601  1.00  0.00     0.072 C 
BRANCH  28  29
HETATM   29  C21 UNL     1       1.741  32.743  62.620  1.00  0.00     0.086 C 
HETATM   30  N2  UNL     1       1.032  33.718  62.128  1.00  0.00    -0.391 N 
ATOM     31  H22 UNL     1       1.232  34.674  62.425  1.00  0.00     0.157 HD
ATOM     32  H21 UNL     1       0.286  33.541  61.456  1.00  0.00     0.157 HD
HETATM   33  N3  UNL     1       1.465  31.420  62.210  1.00  0.00    -0.088 NA
ENDBRANCH  28  29
ENDBRANCH  27  28
ENDBRANCH  26  27
ENDBRANCH  25  26
ENDBRANCH   8  25
TORSDOF 12
ENDMDL
MODEL 3
REMARK VINA RESULT: -7.426573829      4.461      7.073
REMARK  12 active torsions:
REMARK  status: ('A' for Active; 'I' for Inactive)
REMARK    1  A    between atoms: C2_2  and  C4_4 
REMARK    2  A    between atoms: C4_4  and  C5_6 
REMARK    3  A    between atoms: C5_6  and  C6_7 
REMARK    4  A    between atoms: C6_7  and  N1_8 
REMARK    5  A    between atoms: C6_7  and  C9_15 
REMARK       I    between atoms: N1_8  and  C7_10 
REMARK    6  A    between atoms: C7_10  and  C8_12 
REMARK    7  A    between atoms: C10_16  and  O3_17 
REMARK    8  A    between atoms: C16_24  and  C17_25 
REMARK    9  A    between atoms: C17_25  and  C18_26 
REMARK   10  A    between atoms: C18_26  and  C19_27 
REMARK   11  A    between atoms: C19_27  and  C20_28 
REMARK   12  A    between atoms: C20_28  and  C21_29 
ROOT
HETATM    1  C9  UNL     1      -2.577  35.307  68.423  1.00  0.00     0.041 C 
HETATM    2  C10 UNL     1      -2.026  34.543  69.553  1.00  0.00     0.125 C 
HETATM    3  C11 UNL     1      -1.910  33.068  69.423  1.00  0.00     0.041 C 
HETATM    4  C12 UNL     1      -1.501  32.627  68.041  1.00  0.00    -0.045 C 
HETATM    5  C13 UNL     1      -1.619  31.112  68.009  1.00  0.00     0.015 C 
HETATM    6  C14 UNL     1      -0.108  33.001  67.681  1.00  0.00     0.015 C 
HETATM    7  C15 UNL     1      -2.558  33.166  67.131  1.00  0.00     0.014 C 
HETATM    8  C16 UNL     1      -2.706  34.659  67.102  1.00  0.00    -0.005 C 
ENDROOT
BRANCH   1   9
HETATM    9  C6  UNL     1      -1.912  36.656  68.408  1.00  0.00     0.098 C 
BRANCH   9  10
HETATM   10  C5  UNL     1      -2.801  37.811  68.683  1.00  0.00     0.104 C 
BRANCH  10  11
HETATM   11  C4  UNL     1      -2.110  39.106  68.567  1.00  0.00     0.132 C 
HETATM   12  O1  UNL     1      -1.425  39.446  69.561  1.00  0.00    -0.298 OA
BRANCH  11  13
HETATM   13  C2  UNL     1      -2.138  40.036  67.434  1.00  0.00     0.047 C 
HETATM   14  C1  UNL     1      -2.119  41.470  67.945  1.00  0.00     0.017 C 
HETATM   15  C3  UNL     1      -3.500  39.903  66.731  1.00  0.00     0.017 C 
ENDBRANCH  11  13
ENDBRANCH  10  11
ENDBRANCH   9  10
BRANCH   9  16
HETATM   16  N1  UNL     1      -0.659  36.650  69.097  1.00  0.00    -0.354 N 
HETATM   17  C7  UNL     1       0.659  36.688  68.588  1.00  0.00     0.247 C 
HETATM   18  O2  UNL     1       0.963  36.748  67.376  1.00  0.00    -0.271 OA
ATOM     19  H1  UNL     1      -0.727  36.614  70.114  1.00  0.00     0.162 HD
BRANCH  17  20
HETATM   20  C8  UNL     1       1.854  36.654  69.507  1.00  0.00     0.245 C 
HETATM   21 CL1  UNL     1       2.716  38.177  69.572  1.00  0.00    -0.103 Cl
HETATM   22 BR1  UNL     1       1.103  36.334  71.286  1.00  0.00    -0.064 Br
ENDBRANCH  17  20
ENDBRANCH   9  16
ENDBRANCH   1   9
BRANCH   2  23
HETATM   23  O3  UNL     1      -2.760  34.801  70.717  1.00  0.00    -0.395 OA
ATOM     24  H3  UNL     1      -2.186  34.804  71.475  1.00  0.00     0.210 HD
ENDBRANCH   2  23
BRANCH   8  25
HETATM   25  C17 UNL     1      -4.107  34.863  66.495  1.00  0.00     0.005 C 
BRANCH  25  26
HETATM   26  C18 UNL     1      -4.473  33.775  65.526  1.00  0.00     0.001 C 
BRANCH  26  27
HETATM   27  C19 UNL     1      -5.888  33.956  64.999  1.00  0.00     0.007 C 
BRANCH  27  28
HETATM   28  C20 UNL     1      -6.809  34.113  66.174  1.00  0.00     0.072 C 
BRANCH  28  29
HETATM   29  C21 UNL     1      -8.105  33.418  65.952  1.00  0.00     0.086 C 
HETATM   30  N2  UNL     1      -8.653  33.375  64.771  1.00  0.00    -0.391 N 
ATOM     31  H22 UNL     1      -8.179  33.828  63.989  1.00  0.00     0.157 HD
ATOM     32  H21 UNL     1      -9.541  32.898  64.619  1.00  0.00     0.157 HD
HETATM   33  N3  UNL     1      -8.761  32.791  67.034  1.00  0.00    -0.088 NA
ENDBRANCH  28  29
ENDBRANCH  27  28
ENDBRANCH  26  27
ENDBRANCH  25  26
ENDBRANCH   8  25
TORSDOF 12
ENDMDL
MODEL 4
REMARK VINA RESULT: -7.401632509      4.000      5.974
REMARK  12 active torsions:
REMARK  status: ('A' for Active; 'I' for Inactive)
REMARK    1  A    between atoms: C2_2  and  C4_4 
REMARK    2  A    between atoms: C4_4  and  C5_6 
REMARK    3  A    between atoms: C5_6  and  C6_7 
REMARK    4  A    between atoms: C6_7  and  N1_8 
REMARK    5  A    between atoms: C6_7  and  C9_15 
REMARK       I    between atoms: N1_8  and  C7_10 
REMARK    6  A    between atoms: C7_10  and  C8_12 
REMARK    7  A    between atoms: C10_16  and  O3_17 
REMARK    8  A    between atoms: C16_24  and  C17_25 
REMARK    9  A    between atoms: C17_25  and  C18_26 
REMARK   10  A    between atoms: C18_26  and  C19_27 
REMARK   11  A    between atoms: C19_27  and  C20_28 
REMARK   12  A    between atoms: C20_28  and  C21_29 
ROOT
HETATM    1  C9  UNL     1       0.608  31.588  66.328  1.00  0.00     0.041 C 
HETATM    2  C10 UNL     1       0.288  30.425  67.172  1.00  0.00     0.125 C 
HETATM    3  C11 UNL     1      -0.931  29.637  66.861  1.00  0.00     0.041 C 
HETATM    4  C12 UNL     1      -1.180  29.492  65.381  1.00  0.00    -0.045 C 
HETATM    5  C13 UNL     1      -2.546  28.845  65.224  1.00  0.00     0.015 C 
HETATM    6  C14 UNL     1      -0.174  28.646  64.685  1.00  0.00     0.015 C 
HETATM    7  C15 UNL     1      -1.297  30.891  64.866  1.00  0.00     0.014 C 
HETATM    8  C16 UNL     1      -0.087  31.761  65.037  1.00  0.00    -0.005 C 
ENDROOT
BRANCH   1   9
HETATM    9  C6  UNL     1       2.105  31.719  66.268  1.00  0.00     0.098 C 
BRANCH   9  10
HETATM   10  C5  UNL     1       2.731  31.330  64.981  1.00  0.00     0.104 C 
BRANCH  10  11
HETATM   11  C4  UNL     1       3.622  32.371  64.440  1.00  0.00     0.132 C 
HETATM   12  O1  UNL     1       4.719  32.506  65.032  1.00  0.00    -0.298 OA
BRANCH  11  13
HETATM   13  C2  UNL     1       3.369  33.263  63.305  1.00  0.00     0.047 C 
HETATM   14  C1  UNL     1       2.828  34.594  63.806  1.00  0.00     0.017 C 
HETATM   15  C3  UNL     1       2.216  32.675  62.473  1.00  0.00     0.017 C 
ENDBRANCH  11  13
ENDBRANCH  10  11
ENDBRANCH   9  10
BRANCH   9  16
HETATM   16  N1  UNL     1       2.565  32.944  66.845  1.00  0.00    -0.354 N 
HETATM   17  C7  UNL     1       2.535  33.385  68.188  1.00  0.00     0.247 C 
HETATM   18  O2  UNL     1       2.084  32.729  69.153  1.00  0.00    -0.271 OA
ATOM     19  H1  UNL     1       2.979  33.602  66.185  1.00  0.00     0.162 HD
BRANCH  17  20
HETATM   20  C8  UNL     1       3.066  34.741  68.579  1.00  0.00     0.245 C 
HETATM   21 CL1  UNL     1       4.196  35.400  67.416  1.00  0.00    -0.103 Cl
HETATM   22 BR1  UNL     1       1.492  35.906  68.586  1.00  0.00    -0.064 Br
ENDBRANCH  17  20
ENDBRANCH   9  16
ENDBRANCH   1   9
BRANCH   2  23
HETATM   23  O3  UNL     1       0.204  30.808  68.515  1.00  0.00    -0.395 OA
ATOM     24  H3  UNL     1       0.883  30.380  69.024  1.00  0.00     0.210 HD
ENDBRANCH   2  23
BRANCH   8  25
HETATM   25  C17 UNL     1      -0.651  33.186  64.873  1.00  0.00     0.005 C 
BRANCH  25  26
HETATM   26  C18 UNL     1      -0.724  33.924  66.180  1.00  0.00     0.001 C 
BRANCH  26  27
HETATM   27  C19 UNL     1      -2.166  34.162  66.600  1.00  0.00     0.007 C 
BRANCH  27  28
HETATM   28  C20 UNL     1      -2.181  34.481  68.067  1.00  0.00     0.072 C 
BRANCH  28  29
HETATM   29  C21 UNL     1      -1.891  33.278  68.893  1.00  0.00     0.086 C 
HETATM   30  N2  UNL     1      -0.941  33.285  69.782  1.00  0.00    -0.391 N 
ATOM     31  H22 UNL     1      -0.389  34.134  69.910  1.00  0.00     0.157 HD
ATOM     32  H21 UNL     1      -0.742  32.461  70.349  1.00  0.00     0.157 HD
HETATM   33  N3  UNL     1      -2.655  32.103  68.716  1.00  0.00    -0.088 NA
ENDBRANCH  28  29
ENDBRANCH  27  28
ENDBRANCH  26  27
ENDBRANCH  25  26
ENDBRANCH   8  25
TORSDOF 12
ENDMDL
MODEL 5
REMARK VINA RESULT: -7.381910576      4.428      6.831
REMARK  12 active torsions:
REMARK  status: ('A' for Active; 'I' for Inactive)
REMARK    1  A    between atoms: C2_2  and  C4_4 
REMARK    2  A    between atoms: C4_4  and  C5_6 
REMARK    3  A    between atoms: C5_6  and  C6_7 
REMARK    4  A    between atoms: C6_7  and  N1_8 
REMARK    5  A    between atoms: C6_7  and  C9_15 
REMARK       I    between atoms: N1_8  and  C7_10 
REMARK    6  A    between atoms: C7_10  and  C8_12 
REMARK    7  A    between atoms: C10_16  and  O3_17 
REMARK    8  A    between atoms: C16_24  and  C17_25 
REMARK    9  A    between atoms: C17_25  and  C18_26 
REMARK   10  A    between atoms: C18_26  and  C19_27 
REMARK   11  A    between atoms: C19_27  and  C20_28 
REMARK   12  A    between atoms: C20_28  and  C21_29 
ROOT
HETATM    1  C9  UNL     1      -2.097  37.080  67.212  1.00  0.00     0.041 C 
HETATM    2  C10 UNL     1      -3.051  37.657  68.173  1.00  0.00     0.125 C 
HETATM    3  C11 UNL     1      -2.942  39.100  68.502  1.00  0.00     0.041 C 
HETATM    4  C12 UNL     1      -2.577  39.951  67.312  1.00  0.00    -0.045 C 
HETATM    5  C13 UNL     1      -2.310  41.352  67.837  1.00  0.00     0.015 C 
HETATM    6  C14 UNL     1      -3.647  40.029  66.282  1.00  0.00     0.015 C 
HETATM    7  C15 UNL     1      -1.270  39.409  66.830  1.00  0.00     0.014 C 
HETATM    8  C16 UNL     1      -1.276  37.978  66.376  1.00  0.00    -0.005 C 
ENDROOT
BRANCH   1   9
HETATM    9  C6  UNL     1      -2.801  35.980  66.464  1.00  0.00     0.098 C 
BRANCH   9  10
HETATM   10  C5  UNL     1      -2.924  36.179  65.000  1.00  0.00     0.104 C 
BRANCH  10  11
HETATM   11  C4  UNL     1      -2.520  34.994  64.225  1.00  0.00     0.132 C 
HETATM   12  O1  UNL     1      -3.324  34.031  64.250  1.00  0.00    -0.298 OA
BRANCH  11  13
HETATM   13  C2  UNL     1      -1.293  34.811  63.445  1.00  0.00     0.047 C 
HETATM   14  C1  UNL     1      -0.213  34.192  64.320  1.00  0.00     0.017 C 
HETATM   15  C3  UNL     1      -0.737  36.199  63.082  1.00  0.00     0.017 C 
ENDBRANCH  11  13
ENDBRANCH  10  11
ENDBRANCH   9  10
BRANCH   9  16
HETATM   16  N1  UNL     1      -2.378  34.681  66.888  1.00  0.00    -0.354 N 
HETATM   17  C7  UNL     1      -2.928  33.820  67.865  1.00  0.00     0.247 C 
HETATM   18  O2  UNL     1      -3.944  34.064  68.553  1.00  0.00    -0.271 OA
ATOM     19  H1  UNL     1      -1.552  34.320  66.411  1.00  0.00     0.162 HD
BRANCH  17  20
HETATM   20  C8  UNL     1      -2.304  32.482  68.169  1.00  0.00     0.245 C 
HETATM   21 CL1  UNL     1      -2.125  31.467  66.755  1.00  0.00    -0.103 Cl
HETATM   22 BR1  UNL     1      -0.503  32.909  68.810  1.00  0.00    -0.064 Br
ENDBRANCH  17  20
ENDBRANCH   9  16
ENDBRANCH   1   9
BRANCH   2  23
HETATM   23  O3  UNL     1      -3.010  36.951  69.381  1.00  0.00    -0.395 OA
ATOM     24  H3  UNL     1      -3.645  36.244  69.373  1.00  0.00     0.210 HD
ENDBRANCH   2  23
BRANCH   8  25
HETATM   25  C17 UNL     1       0.215  37.592  66.409  1.00  0.00     0.005 C 
BRANCH  25  26
HETATM   26  C18 UNL     1       0.583  36.843  67.657  1.00  0.00     0.001 C 
BRANCH  26  27
HETATM   27  C19 UNL     1       1.411  37.706  68.596  1.00  0.00     0.007 C 
BRANCH  27  28
HETATM   28  C20 UNL     1       1.435  37.044  69.944  1.00  0.00     0.072 C 
BRANCH  28  29
HETATM   29  C21 UNL     1       0.089  37.033  70.575  1.00  0.00     0.086 C 
HETATM   30  N2  UNL     1      -0.485  35.917  70.918  1.00  0.00    -0.391 N 
ATOM     31  H22 UNL     1       0.003  35.037  70.748  1.00  0.00     0.157 HD
ATOM     32  H21 UNL     1      -1.408  35.909  71.351  1.00  0.00     0.157 HD
HETATM   33  N3  UNL     1      -0.587  38.251  70.810  1.00  0.00    -0.088 NA
ENDBRANCH  28  29
ENDBRANCH  27  28
ENDBRANCH  26  27
ENDBRANCH  25  26
ENDBRANCH   8  25
TORSDOF 12
ENDMDL
