MODEL 1
REMARK VINA RESULT: -5.191665301      0.000      0.000
REMARK  5 active torsions:
REMARK  status: ('A' for Active; 'I' for Inactive)
REMARK    1  A    between atoms: C2_2  and  O1_3 
REMARK    2  A    between atoms: O1_3  and  C3_4 
REMARK    3  A    between atoms: C3_4  and  N2_9 
REMARK    4  A    between atoms: N1_5  and  O2_7 
REMARK    5  A    between atoms: N2_9  and  N3_11 
ROOT
HETATM    1  C3  UNL     1      11.195 -14.137  40.168  1.00  0.00     0.258 C 
HETATM    2  N1  UNL     1      11.031 -15.344  39.791  1.00  0.00    -0.231 N 
ATOM      3  H1  UNL     1      10.077 -15.691  39.701  1.00  0.00     0.198 HD
ENDROOT
BRANCH   1   4
HETATM    4  O1  UNL     1      10.074 -13.387  40.426  1.00  0.00    -0.320 OA
BRANCH   4   5
HETATM    5  C2  UNL     1       9.822 -12.631  41.558  1.00  0.00     0.174 C 
HETATM    6  C1  UNL     1       9.896 -13.376  42.858  1.00  0.00     0.034 C 
ENDBRANCH   4   5
ENDBRANCH   1   4
BRANCH   1   7
HETATM    7  N2  UNL     1      12.514 -13.625  40.302  1.00  0.00    -0.264 N 
ATOM      8  H2  UNL     1      13.153 -13.661  39.509  1.00  0.00     0.190 HD
BRANCH   7   9
HETATM    9  N3  UNL     1      12.934 -13.081  41.492  1.00  0.00    -0.307 N 
HETATM   10  C4  UNL     1      13.962 -13.569  42.082  1.00  0.00    -0.004 C 
HETATM   11  C5  UNL     1      14.680 -14.707  41.475  1.00  0.00     0.064 C 
HETATM   12  C6  UNL     1      14.422 -12.998  43.357  1.00  0.00     0.064 C 
ATOM     13  H3  UNL     1      12.431 -12.295  41.904  1.00  0.00     0.186 HD
ENDBRANCH   7   9
ENDBRANCH   1   7
BRANCH   2  14
HETATM   14  O2  UNL     1      12.062 -16.209  39.499  1.00  0.00    -0.287 OA
ATOM     15  H2  UNL     1      12.228 -17.018  39.966  1.00  0.00     0.244 HD
ENDBRANCH   2  14
TORSDOF 5
ENDMDL
MODEL 2
REMARK VINA RESULT: -5.128537115      1.550      2.053
REMARK  5 active torsions:
REMARK  status: ('A' for Active; 'I' for Inactive)
REMARK    1  A    between atoms: C2_2  and  O1_3 
REMARK    2  A    between atoms: O1_3  and  C3_4 
REMARK    3  A    between atoms: C3_4  and  N2_9 
REMARK    4  A    between atoms: N1_5  and  O2_7 
REMARK    5  A    between atoms: N2_9  and  N3_11 
ROOT
HETATM    1  C3  UNL     1       9.943 -13.999  40.706  1.00  0.00     0.258 C 
HETATM    2  N1  UNL     1       9.288 -14.935  40.142  1.00  0.00    -0.231 N 
ATOM      3  H1  UNL     1       8.422 -15.245  40.582  1.00  0.00     0.198 HD
ENDROOT
BRANCH   1   4
HETATM    4  O1  UNL     1       9.437 -13.471  41.869  1.00  0.00    -0.320 OA
BRANCH   4   5
HETATM    5  C2  UNL     1       9.589 -13.978  43.147  1.00  0.00     0.174 C 
HETATM    6  C1  UNL     1       8.729 -15.163  43.475  1.00  0.00     0.034 C 
ENDBRANCH   4   5
ENDBRANCH   1   4
BRANCH   1   7
HETATM    7  N2  UNL     1      11.153 -13.545  40.116  1.00  0.00    -0.264 N 
ATOM      8  H2  UNL     1      11.189 -12.624  39.679  1.00  0.00     0.190 HD
BRANCH   7   9
HETATM    9  N3  UNL     1      12.276 -14.337  40.128  1.00  0.00    -0.307 N 
HETATM   10  C4  UNL     1      13.192 -14.122  40.998  1.00  0.00    -0.004 C 
HETATM   11  C5  UNL     1      13.028 -13.027  41.975  1.00  0.00     0.064 C 
HETATM   12  C6  UNL     1      14.400 -14.961  41.022  1.00  0.00     0.064 C 
ATOM     13  H3  UNL     1      12.380 -15.091  39.450  1.00  0.00     0.186 HD
ENDBRANCH   7   9
ENDBRANCH   1   7
BRANCH   2  14
HETATM   14  O2  UNL     1       9.675 -15.555  38.975  1.00  0.00    -0.287 OA
ATOM     15  H2  UNL     1      10.528 -15.447  38.571  1.00  0.00     0.244 HD
ENDBRANCH   2  14
TORSDOF 5
ENDMDL
MODEL 3
REMARK VINA RESULT: -5.099280341      1.278      1.383
REMARK  5 active torsions:
REMARK  status: ('A' for Active; 'I' for Inactive)
REMARK    1  A    between atoms: C2_2  and  O1_3 
REMARK    2  A    between atoms: O1_3  and  C3_4 
REMARK    3  A    between atoms: C3_4  and  N2_9 
REMARK    4  A    between atoms: N1_5  and  O2_7 
REMARK    5  A    between atoms: N2_9  and  N3_11 
ROOT
HETATM    1  C3  UNL     1      12.491 -13.948  40.627  1.00  0.00     0.258 C 
HETATM    2  N1  UNL     1      12.333 -14.887  39.778  1.00  0.00    -0.231 N 
ATOM      3  H1  UNL     1      11.496 -14.869  39.197  1.00  0.00     0.198 HD
ENDROOT
BRANCH   1   4
HETATM    4  O1  UNL     1      11.522 -12.978  40.699  1.00  0.00    -0.320 OA
BRANCH   4   5
HETATM    5  C2  UNL     1      10.246 -13.113  41.219  1.00  0.00     0.174 C 
HETATM    6  C1  UNL     1      10.152 -13.046  42.714  1.00  0.00     0.034 C 
ENDBRANCH   4   5
ENDBRANCH   1   4
BRANCH   1   7
HETATM    7  N2  UNL     1      13.648 -13.946  41.452  1.00  0.00    -0.264 N 
ATOM      8  H2  UNL     1      14.395 -14.618  41.277  1.00  0.00     0.190 HD
BRANCH   7   9
HETATM    9  N3  UNL     1      13.769 -13.045  42.482  1.00  0.00    -0.307 N 
HETATM   10  C4  UNL     1      14.737 -13.162  43.314  1.00  0.00    -0.004 C 
HETATM   11  C5  UNL     1      15.709 -14.262  43.153  1.00  0.00     0.064 C 
HETATM   12  C6  UNL     1      14.878 -12.206  44.423  1.00  0.00     0.064 C 
ATOM     13  H3  UNL     1      13.093 -12.288  42.585  1.00  0.00     0.186 HD
ENDBRANCH   7   9
ENDBRANCH   1   7
BRANCH   2  14
HETATM   14  O2  UNL     1      13.222 -15.922  39.598  1.00  0.00    -0.287 OA
ATOM     15  H2  UNL     1      13.177 -16.545  38.882  1.00  0.00     0.244 HD
ENDBRANCH   2  14
TORSDOF 5
ENDMDL
MODEL 4
REMARK VINA RESULT: -5.019799446      3.350      5.253
REMARK  5 active torsions:
REMARK  status: ('A' for Active; 'I' for Inactive)
REMARK    1  A    between atoms: C2_2  and  O1_3 
REMARK    2  A    between atoms: O1_3  and  C3_4 
REMARK    3  A    between atoms: C3_4  and  N2_9 
REMARK    4  A    between atoms: N1_5  and  O2_7 
REMARK    5  A    between atoms: N2_9  and  N3_11 
ROOT
HETATM    1  C3  UNL     1      14.503 -12.696  44.166  1.00  0.00     0.258 C 
HETATM    2  N1  UNL     1      15.466 -13.482  43.883  1.00  0.00    -0.231 N 
ATOM      3  H1  UNL     1      16.361 -13.327  44.346  1.00  0.00     0.198 HD
ENDROOT
BRANCH   1   4
HETATM    4  O1  UNL     1      14.736 -11.695  45.076  1.00  0.00    -0.320 OA
BRANCH   4   5
HETATM    5  C2  UNL     1      15.947 -11.081  45.344  1.00  0.00     0.174 C 
HETATM    6  C1  UNL     1      15.958  -9.589  45.185  1.00  0.00     0.034 C 
ENDBRANCH   4   5
ENDBRANCH   1   4
BRANCH   1   7
HETATM    7  N2  UNL     1      13.243 -12.888  43.536  1.00  0.00    -0.264 N 
ATOM      8  H2  UNL     1      12.395 -12.924  44.101  1.00  0.00     0.190 HD
BRANCH   7   9
HETATM    9  N3  UNL     1      13.159 -13.025  42.171  1.00  0.00    -0.307 N 
HETATM   10  C4  UNL     1      12.008 -13.111  41.615  1.00  0.00    -0.004 C 
HETATM   11  C5  UNL     1      10.789 -13.062  42.446  1.00  0.00     0.064 C 
HETATM   12  C6  UNL     1      11.902 -13.260  40.155  1.00  0.00     0.064 C 
ATOM     13  H3  UNL     1      14.006 -13.057  41.605  1.00  0.00     0.186 HD
ENDBRANCH   7   9
ENDBRANCH   1   7
BRANCH   2  14
HETATM   14  O2  UNL     1      15.375 -14.527  42.990  1.00  0.00    -0.287 OA
ATOM     15  H2  UNL     1      16.118 -14.916  42.547  1.00  0.00     0.244 HD
ENDBRANCH   2  14
TORSDOF 5
ENDMDL
MODEL 5
REMARK VINA RESULT: -4.995269990      3.028      5.345
REMARK  5 active torsions:
REMARK  status: ('A' for Active; 'I' for Inactive)
REMARK    1  A    between atoms: C2_2  and  O1_3 
REMARK    2  A    between atoms: O1_3  and  C3_4 
REMARK    3  A    between atoms: C3_4  and  N2_9 
REMARK    4  A    between atoms: N1_5  and  O2_7 
REMARK    5  A    between atoms: N2_9  and  N3_11 
ROOT
HETATM    1  C3  UNL     1      14.932 -13.545  43.023  1.00  0.00     0.258 C 
HETATM    2  N1  UNL     1      15.062 -13.159  44.232  1.00  0.00    -0.231 N 
ATOM      3  H1  UNL     1      15.819 -13.562  44.783  1.00  0.00     0.198 HD
ENDROOT
BRANCH   1   4
HETATM    4  O1  UNL     1      15.820 -14.477  42.548  1.00  0.00    -0.320 OA
BRANCH   4   5
HETATM    5  C2  UNL     1      17.127 -14.254  42.150  1.00  0.00     0.174 C 
HETATM    6  C1  UNL     1      17.472 -14.745  40.775  1.00  0.00     0.034 C 
ENDBRANCH   4   5
ENDBRANCH   1   4
BRANCH   1   7
HETATM    7  N2  UNL     1      13.886 -13.001  42.230  1.00  0.00    -0.264 N 
ATOM      8  H2  UNL     1      14.095 -12.631  41.303  1.00  0.00     0.190 HD
BRANCH   7   9
HETATM    9  N3  UNL     1      12.596 -12.970  42.701  1.00  0.00    -0.307 N 
HETATM   10  C4  UNL     1      11.619 -13.029  41.874  1.00  0.00    -0.004 C 
HETATM   11  C5  UNL     1      11.892 -13.129  40.427  1.00  0.00     0.064 C 
HETATM   12  C6  UNL     1      10.232 -12.995  42.365  1.00  0.00     0.064 C 
ATOM     13  H3  UNL     1      12.416 -12.901  43.703  1.00  0.00     0.186 HD
ENDBRANCH   7   9
ENDBRANCH   1   7
BRANCH   2  14
HETATM   14  O2  UNL     1      14.244 -12.232  44.839  1.00  0.00    -0.287 OA
ATOM     15  H2  UNL     1      14.042 -11.379  44.474  1.00  0.00     0.244 HD
ENDBRANCH   2  14
TORSDOF 5
ENDMDL
