MODEL 1
REMARK VINA RESULT: -8.577009935      0.000      0.000
REMARK  16 active torsions:
REMARK  status: ('A' for Active; 'I' for Inactive)
REMARK    1  A    between atoms: N3_4  and  C2_6 
REMARK    2  A    between atoms: C2_6  and  C3_7 
REMARK    3  A    between atoms: C3_7  and  C4_8 
REMARK    4  A    between atoms: C4_8  and  N4_9 
REMARK    5  A    between atoms: N4_9  and  C5_12 
REMARK    6  A    between atoms: C5_12  and  C6_13 
REMARK    7  A    between atoms: C6_13  and  C7_14 
REMARK    8  A    between atoms: C7_14  and  N5_15 
REMARK    9  A    between atoms: C7_14  and  C14_28 
REMARK   10  A    between atoms: N5_15  and  S1_17 
REMARK   11  A    between atoms: S1_17  and  C8_20 
REMARK   12  A    between atoms: C21_35  and  S2_36 
REMARK   13  A    between atoms: S2_36  and  N6_39 
REMARK   14  A    between atoms: N6_39  and  C22_41 
REMARK   15  A    between atoms: C22_41  and  C23_42 
REMARK   16  A    between atoms: C23_42  and  O5_43 
ROOT
HETATM    1  C7  UNL     1      36.299  -8.569   2.399  1.00  0.00     0.127 C 
ENDROOT
BRANCH   1   2
HETATM    2  C6  UNL     1      36.717  -9.742   1.521  1.00  0.00     0.058 C 
BRANCH   2   3
HETATM    3  C5  UNL     1      35.520 -10.482   1.044  1.00  0.00     0.234 C 
BRANCH   3   4
HETATM    4  N4  UNL     1      34.828  -9.951  -0.077  1.00  0.00    -0.075 N 
ATOM      5  H42 UNL     1      35.273  -9.122  -0.470  1.00  0.00     0.277 HD
ATOM      6  H41 UNL     1      33.939  -9.514   0.168  1.00  0.00     0.277 HD
BRANCH   4   7
HETATM    7  C4  UNL     1      34.690 -11.037  -1.033  1.00  0.00     0.234 C 
BRANCH   7   8
HETATM    8  C3  UNL     1      33.266 -11.353  -1.365  1.00  0.00     0.047 C 
BRANCH   8   9
HETATM    9  C2  UNL     1      32.491 -10.048  -1.365  1.00  0.00     0.123 C 
BRANCH   9  10
HETATM   10  N3  UNL     1      32.933  -9.156  -2.416  1.00  0.00    -0.367 N 
HETATM   11  C1  UNL     1      32.071  -8.689  -3.256  1.00  0.00     0.196 C 
HETATM   12  N1  UNL     1      30.686  -9.056  -3.143  1.00  0.00    -0.067 NA
HETATM   13  N2  UNL     1      32.469  -7.810  -4.299  1.00  0.00    -0.067 NA
ATOM     14  H3  UNL     1      33.917  -8.900  -2.492  1.00  0.00     0.161 HD
ENDBRANCH   9  10
ENDBRANCH   8   9
ENDBRANCH   7   8
ENDBRANCH   4   7
ENDBRANCH   3   4
ENDBRANCH   2   3
ENDBRANCH   1   2
BRANCH   1  15
HETATM   15  N5  UNL     1      36.688  -8.631   3.705  1.00  0.00    -0.306 N 
ATOM     16  H5  UNL     1      37.403  -7.952   3.969  1.00  0.00     0.173 HD
BRANCH  15  17
HETATM   17  S1  UNL     1      36.199  -9.612   4.919  1.00  0.00     0.262 S 
HETATM   18  O1  UNL     1      37.081  -9.571   6.164  1.00  0.00    -0.200 OA
HETATM   19  O2  UNL     1      34.870  -9.056   5.460  1.00  0.00    -0.200 OA
BRANCH  17  20
HETATM   20  C8  UNL     1      35.911 -11.297   4.576  1.00  0.00     0.118 A 
HETATM   21  C9  UNL     1      34.623 -11.690   4.204  1.00  0.00     0.030 A 
HETATM   22  C10 UNL     1      34.327 -12.993   3.875  1.00  0.00     0.021 A 
HETATM   23  C11 UNL     1      35.308 -13.946   3.907  1.00  0.00     0.013 A 
HETATM   24 BR1  UNL     1      34.885 -15.746   3.448  1.00  0.00    -0.051 Br
HETATM   25  C12 UNL     1      36.586 -13.597   4.269  1.00  0.00     0.063 A 
HETATM   26  C13 UNL     1      36.866 -12.272   4.601  1.00  0.00     0.141 A 
HETATM   27  F1  UNL     1      38.145 -12.000   4.992  1.00  0.00    -0.204 F 
ENDBRANCH  17  20
ENDBRANCH  15  17
ENDBRANCH   1  15
BRANCH   1  28
HETATM   28  C14 UNL     1      36.981  -7.371   1.766  1.00  0.00    -0.034 A 
HETATM   29  C15 UNL     1      38.184  -6.884   2.158  1.00  0.00     0.010 A 
HETATM   30  C16 UNL     1      38.783  -5.787   1.576  1.00  0.00     0.013 A 
HETATM   31  C17 UNL     1      38.128  -5.141   0.537  1.00  0.00    -0.024 A 
HETATM   32  C18 UNL     1      38.699  -4.048  -0.074  1.00  0.00     0.012 A 
HETATM   33  C24 UNL     1      36.900  -5.617   0.120  1.00  0.00    -0.002 A 
HETATM   34  C19 UNL     1      38.037  -3.437  -1.099  1.00  0.00     0.002 A 
HETATM   35  C20 UNL     1      36.799  -3.928  -1.509  1.00  0.00     0.026 A 
HETATM   36  C21 UNL     1      36.187  -5.019  -0.926  1.00  0.00     0.090 A 
HETATM   37  C25 UNL     1      36.318  -6.724   0.719  1.00  0.00     0.023 A 
BRANCH  36  38
HETATM   38  S2  UNL     1      34.634  -5.627  -1.447  1.00  0.00     0.259 S 
HETATM   39  O3  UNL     1      34.377  -5.298  -2.887  1.00  0.00    -0.201 OA
HETATM   40  O4  UNL     1      34.624  -7.165  -1.337  1.00  0.00    -0.201 OA
BRANCH  38  41
HETATM   41  N6  UNL     1      33.323  -5.051  -0.513  1.00  0.00    -0.313 N 
ATOM     42  H6  UNL     1      32.424  -5.531  -0.469  1.00  0.00     0.172 HD
BRANCH  41  43
HETATM   43  C22 UNL     1      33.587  -3.840   0.204  1.00  0.00     0.158 C 
BRANCH  43  44
HETATM   44  C23 UNL     1      32.331  -3.380   0.949  1.00  0.00     0.184 C 
BRANCH  44  45
HETATM   45  O5  UNL     1      31.208  -4.094   0.516  1.00  0.00    -0.399 OA
ATOM     46  H5  UNL     1      30.661  -4.340   1.253  1.00  0.00     0.209 HD
ENDBRANCH  44  45
ENDBRANCH  43  44
ENDBRANCH  41  43
ENDBRANCH  38  41
ENDBRANCH  36  38
ENDBRANCH   1  28
TORSDOF 16
ENDMDL
MODEL 2
REMARK VINA RESULT: -8.444828916      1.330      2.037
REMARK  16 active torsions:
REMARK  status: ('A' for Active; 'I' for Inactive)
REMARK    1  A    between atoms: N3_4  and  C2_6 
REMARK    2  A    between atoms: C2_6  and  C3_7 
REMARK    3  A    between atoms: C3_7  and  C4_8 
REMARK    4  A    between atoms: C4_8  and  N4_9 
REMARK    5  A    between atoms: N4_9  and  C5_12 
REMARK    6  A    between atoms: C5_12  and  C6_13 
REMARK    7  A    between atoms: C6_13  and  C7_14 
REMARK    8  A    between atoms: C7_14  and  N5_15 
REMARK    9  A    between atoms: C7_14  and  C14_28 
REMARK   10  A    between atoms: N5_15  and  S1_17 
REMARK   11  A    between atoms: S1_17  and  C8_20 
REMARK   12  A    between atoms: C21_35  and  S2_36 
REMARK   13  A    between atoms: S2_36  and  N6_39 
REMARK   14  A    between atoms: N6_39  and  C22_41 
REMARK   15  A    between atoms: C22_41  and  C23_42 
REMARK   16  A    between atoms: C23_42  and  O5_43 
ROOT
HETATM    1  C7  UNL     1      36.301  -8.537   2.338  1.00  0.00     0.127 C 
ENDROOT
BRANCH   1   2
HETATM    2  C6  UNL     1      36.703  -9.647   1.375  1.00  0.00     0.058 C 
BRANCH   2   3
HETATM    3  C5  UNL     1      35.519 -10.470   1.012  1.00  0.00     0.234 C 
BRANCH   3   4
HETATM    4  N4  UNL     1      35.161 -10.529  -0.362  1.00  0.00    -0.075 N 
ATOM      5  H42 UNL     1      35.905 -10.218  -0.986  1.00  0.00     0.277 HD
ATOM      6  H41 UNL     1      34.470  -9.827  -0.628  1.00  0.00     0.277 HD
BRANCH   4   7
HETATM    7  C4  UNL     1      34.726 -11.891  -0.620  1.00  0.00     0.234 C 
BRANCH   7   8
HETATM    8  C3  UNL     1      34.192 -12.087  -2.004  1.00  0.00     0.047 C 
BRANCH   8   9
HETATM    9  C2  UNL     1      34.133 -10.727  -2.673  1.00  0.00     0.123 C 
BRANCH   9  10
HETATM   10  N3  UNL     1      32.784 -10.373  -3.060  1.00  0.00    -0.367 N 
HETATM   11  C1  UNL     1      32.112  -9.543  -2.334  1.00  0.00     0.196 C 
HETATM   12  N1  UNL     1      32.705  -8.981  -1.152  1.00  0.00    -0.067 NA
HETATM   13  N2  UNL     1      30.786  -9.172  -2.686  1.00  0.00    -0.067 NA
ATOM     14  H3  UNL     1      32.369 -10.776  -3.900  1.00  0.00     0.161 HD
ENDBRANCH   9  10
ENDBRANCH   8   9
ENDBRANCH   7   8
ENDBRANCH   4   7
ENDBRANCH   3   4
ENDBRANCH   2   3
ENDBRANCH   1   2
BRANCH   1  15
HETATM   15  N5  UNL     1      36.731  -8.677   3.625  1.00  0.00    -0.306 N 
ATOM     16  H5  UNL     1      37.532  -8.095   3.871  1.00  0.00     0.173 HD
BRANCH  15  17
HETATM   17  S1  UNL     1      36.177  -9.624   4.839  1.00  0.00     0.262 S 
HETATM   18  O1  UNL     1      36.987  -9.541   6.130  1.00  0.00    -0.200 OA
HETATM   19  O2  UNL     1      34.819  -9.057   5.288  1.00  0.00    -0.200 OA
BRANCH  17  20
HETATM   20  C8  UNL     1      35.912 -11.319   4.532  1.00  0.00     0.118 A 
HETATM   21  C9  UNL     1      34.644 -11.731   4.116  1.00  0.00     0.030 A 
HETATM   22  C10 UNL     1      34.369 -13.044   3.811  1.00  0.00     0.021 A 
HETATM   23  C11 UNL     1      35.353 -13.990   3.913  1.00  0.00     0.013 A 
HETATM   24 BR1  UNL     1      34.959 -15.805   3.487  1.00  0.00    -0.051 Br
HETATM   25  C12 UNL     1      36.612 -13.623   4.319  1.00  0.00     0.063 A 
HETATM   26  C13 UNL     1      36.871 -12.287   4.625  1.00  0.00     0.141 A 
HETATM   27  F1  UNL     1      38.130 -11.997   5.063  1.00  0.00    -0.204 F 
ENDBRANCH  17  20
ENDBRANCH  15  17
ENDBRANCH   1  15
BRANCH   1  28
HETATM   28  C14 UNL     1      36.949  -7.293   1.763  1.00  0.00    -0.034 A 
HETATM   29  C15 UNL     1      38.093  -6.741   2.238  1.00  0.00     0.010 A 
HETATM   30  C16 UNL     1      38.661  -5.603   1.707  1.00  0.00     0.013 A 
HETATM   31  C17 UNL     1      38.039  -4.984   0.632  1.00  0.00    -0.024 A 
HETATM   32  C18 UNL     1      38.582  -3.851   0.070  1.00  0.00     0.012 A 
HETATM   33  C24 UNL     1      36.872  -5.526   0.130  1.00  0.00    -0.002 A 
HETATM   34  C19 UNL     1      37.954  -3.267  -0.992  1.00  0.00     0.002 A 
HETATM   35  C20 UNL     1      36.778  -3.826  -1.487  1.00  0.00     0.026 A 
HETATM   36  C21 UNL     1      36.194  -4.959  -0.955  1.00  0.00     0.090 A 
HETATM   37  C25 UNL     1      36.319  -6.673   0.680  1.00  0.00     0.023 A 
BRANCH  36  38
HETATM   38  S2  UNL     1      34.719  -5.651  -1.584  1.00  0.00     0.259 S 
HETATM   39  O3  UNL     1      33.690  -5.809  -0.506  1.00  0.00    -0.201 OA
HETATM   40  O4  UNL     1      34.115  -4.700  -2.636  1.00  0.00    -0.201 OA
BRANCH  38  41
HETATM   41  N6  UNL     1      34.943  -7.164  -2.349  1.00  0.00    -0.313 N 
ATOM     42  H6  UNL     1      34.806  -8.052  -1.865  1.00  0.00     0.172 HD
BRANCH  41  43
HETATM   43  C22 UNL     1      35.340  -7.087  -3.722  1.00  0.00     0.158 C 
BRANCH  43  44
HETATM   44  C23 UNL     1      34.175  -7.478  -4.634  1.00  0.00     0.184 C 
BRANCH  44  45
HETATM   45  O5  UNL     1      32.949  -7.230  -4.006  1.00  0.00    -0.399 OA
ATOM     46  H5  UNL     1      32.321  -6.869  -4.622  1.00  0.00     0.209 HD
ENDBRANCH  44  45
ENDBRANCH  43  44
ENDBRANCH  41  43
ENDBRANCH  38  41
ENDBRANCH  36  38
ENDBRANCH   1  28
TORSDOF 16
ENDMDL
MODEL 3
REMARK VINA RESULT: -8.390672551      3.736      6.689
REMARK  16 active torsions:
REMARK  status: ('A' for Active; 'I' for Inactive)
REMARK    1  A    between atoms: N3_4  and  C2_6 
REMARK    2  A    between atoms: C2_6  and  C3_7 
REMARK    3  A    between atoms: C3_7  and  C4_8 
REMARK    4  A    between atoms: C4_8  and  N4_9 
REMARK    5  A    between atoms: N4_9  and  C5_12 
REMARK    6  A    between atoms: C5_12  and  C6_13 
REMARK    7  A    between atoms: C6_13  and  C7_14 
REMARK    8  A    between atoms: C7_14  and  N5_15 
REMARK    9  A    between atoms: C7_14  and  C14_28 
REMARK   10  A    between atoms: N5_15  and  S1_17 
REMARK   11  A    between atoms: S1_17  and  C8_20 
REMARK   12  A    between atoms: C21_35  and  S2_36 
REMARK   13  A    between atoms: S2_36  and  N6_39 
REMARK   14  A    between atoms: N6_39  and  C22_41 
REMARK   15  A    between atoms: C22_41  and  C23_42 
REMARK   16  A    between atoms: C23_42  and  O5_43 
ROOT
HETATM    1  C7  UNL     1      35.994  -9.350   1.528  1.00  0.00     0.127 C 
ENDROOT
BRANCH   1   2
HETATM    2  C6  UNL     1      35.668  -9.765   2.957  1.00  0.00     0.058 C 
BRANCH   2   3
HETATM    3  C5  UNL     1      35.441 -11.233   3.030  1.00  0.00     0.234 C 
BRANCH   3   4
HETATM    4  N4  UNL     1      34.121 -11.676   3.312  1.00  0.00    -0.075 N 
ATOM      5  H42 UNL     1      33.502 -11.640   2.502  1.00  0.00     0.277 HD
ATOM      6  H41 UNL     1      33.596 -11.030   3.902  1.00  0.00     0.277 HD
BRANCH   4   7
HETATM    7  C4  UNL     1      34.243 -13.007   3.882  1.00  0.00     0.234 C 
BRANCH   7   8
HETATM    8  C3  UNL     1      34.207 -13.012   5.378  1.00  0.00     0.047 C 
BRANCH   8   9
HETATM    9  C2  UNL     1      35.461 -13.713   5.867  1.00  0.00     0.123 C 
BRANCH   9  10
HETATM   10  N3  UNL     1      36.403 -12.787   6.459  1.00  0.00    -0.367 N 
HETATM   11  C1  UNL     1      37.555 -12.612   5.904  1.00  0.00     0.196 C 
HETATM   12  N1  UNL     1      37.894 -13.335   4.710  1.00  0.00    -0.067 NA
HETATM   13  N2  UNL     1      38.503 -11.709   6.458  1.00  0.00    -0.067 NA
ATOM     14  H3  UNL     1      36.157 -12.277   7.308  1.00  0.00     0.161 HD
ENDBRANCH   9  10
ENDBRANCH   8   9
ENDBRANCH   7   8
ENDBRANCH   4   7
ENDBRANCH   3   4
ENDBRANCH   2   3
ENDBRANCH   1   2
BRANCH   1  15
HETATM   15  N5  UNL     1      34.931  -9.244   0.680  1.00  0.00    -0.306 N 
ATOM     16  H5  UNL     1      34.393  -8.382   0.777  1.00  0.00     0.173 HD
BRANCH  15  17
HETATM   17  S1  UNL     1      34.374 -10.269  -0.468  1.00  0.00     0.262 S 
HETATM   18  O1  UNL     1      35.408 -11.266  -0.984  1.00  0.00    -0.200 OA
HETATM   19  O2  UNL     1      33.349 -11.203   0.200  1.00  0.00    -0.200 OA
BRANCH  17  20
HETATM   20  C8  UNL     1      33.581  -9.611  -1.873  1.00  0.00     0.118 A 
HETATM   21  C9  UNL     1      34.367  -9.208  -2.955  1.00  0.00     0.030 A 
HETATM   22  C10 UNL     1      33.813  -8.721  -4.116  1.00  0.00     0.021 A 
HETATM   23  C11 UNL     1      32.453  -8.620  -4.234  1.00  0.00     0.013 A 
HETATM   24 BR1  UNL     1      31.697  -7.945  -5.848  1.00  0.00    -0.051 Br
HETATM   25  C12 UNL     1      31.647  -9.006  -3.192  1.00  0.00     0.063 A 
HETATM   26  C13 UNL     1      32.228  -9.496  -2.022  1.00  0.00     0.141 A 
HETATM   27  F1  UNL     1      31.374  -9.821  -1.009  1.00  0.00    -0.204 F 
ENDBRANCH  17  20
ENDBRANCH  15  17
ENDBRANCH   1  15
BRANCH   1  28
HETATM   28  C14 UNL     1      36.613  -7.974   1.673  1.00  0.00    -0.034 A 
HETATM   29  C15 UNL     1      37.340  -7.574   2.745  1.00  0.00     0.010 A 
HETATM   30  C16 UNL     1      37.887  -6.314   2.862  1.00  0.00     0.013 A 
HETATM   31  C17 UNL     1      37.688  -5.402   1.836  1.00  0.00    -0.024 A 
HETATM   32  C18 UNL     1      38.226  -4.137   1.913  1.00  0.00     0.012 A 
HETATM   33  C24 UNL     1      36.950  -5.784   0.732  1.00  0.00    -0.002 A 
HETATM   34  C19 UNL     1      38.022  -3.262   0.885  1.00  0.00     0.002 A 
HETATM   35  C20 UNL     1      37.275  -3.662  -0.221  1.00  0.00     0.026 A 
HETATM   36  C21 UNL     1      36.714  -4.918  -0.342  1.00  0.00     0.090 A 
HETATM   37  C25 UNL     1      36.410  -7.058   0.636  1.00  0.00     0.023 A 
BRANCH  36  38
HETATM   38  S2  UNL     1      35.780  -5.410  -1.734  1.00  0.00     0.259 S 
HETATM   39  O3  UNL     1      34.593  -6.232  -1.329  1.00  0.00    -0.201 OA
HETATM   40  O4  UNL     1      35.228  -4.160  -2.447  1.00  0.00    -0.201 OA
BRANCH  38  41
HETATM   41  N6  UNL     1      36.682  -6.288  -2.890  1.00  0.00    -0.313 N 
ATOM     42  H6  UNL     1      36.523  -7.278  -3.077  1.00  0.00     0.172 HD
BRANCH  41  43
HETATM   43  C22 UNL     1      37.681  -5.525  -3.575  1.00  0.00     0.158 C 
BRANCH  43  44
HETATM   44  C23 UNL     1      39.066  -6.131  -3.341  1.00  0.00     0.184 C 
BRANCH  44  45
HETATM   45  O5  UNL     1      39.311  -6.297  -1.973  1.00  0.00    -0.399 OA
ATOM     46  H5  UNL     1      40.082  -5.811  -1.707  1.00  0.00     0.209 HD
ENDBRANCH  44  45
ENDBRANCH  43  44
ENDBRANCH  41  43
ENDBRANCH  38  41
ENDBRANCH  36  38
ENDBRANCH   1  28
TORSDOF 16
ENDMDL
MODEL 4
REMARK VINA RESULT: -8.283290650      3.627      6.415
REMARK  16 active torsions:
REMARK  status: ('A' for Active; 'I' for Inactive)
REMARK    1  A    between atoms: N3_4  and  C2_6 
REMARK    2  A    between atoms: C2_6  and  C3_7 
REMARK    3  A    between atoms: C3_7  and  C4_8 
REMARK    4  A    between atoms: C4_8  and  N4_9 
REMARK    5  A    between atoms: N4_9  and  C5_12 
REMARK    6  A    between atoms: C5_12  and  C6_13 
REMARK    7  A    between atoms: C6_13  and  C7_14 
REMARK    8  A    between atoms: C7_14  and  N5_15 
REMARK    9  A    between atoms: C7_14  and  C14_28 
REMARK   10  A    between atoms: N5_15  and  S1_17 
REMARK   11  A    between atoms: S1_17  and  C8_20 
REMARK   12  A    between atoms: C21_35  and  S2_36 
REMARK   13  A    between atoms: S2_36  and  N6_39 
REMARK   14  A    between atoms: N6_39  and  C22_41 
REMARK   15  A    between atoms: C22_41  and  C23_42 
REMARK   16  A    between atoms: C23_42  and  O5_43 
ROOT
HETATM    1  C7  UNL     1      35.991  -9.343   1.515  1.00  0.00     0.127 C 
ENDROOT
BRANCH   1   2
HETATM    2  C6  UNL     1      35.741  -9.670   2.982  1.00  0.00     0.058 C 
BRANCH   2   3
HETATM    3  C5  UNL     1      35.498 -11.127   3.152  1.00  0.00     0.234 C 
BRANCH   3   4
HETATM    4  N4  UNL     1      34.156 -11.545   3.357  1.00  0.00    -0.075 N 
ATOM      5  H42 UNL     1      33.580 -11.478   2.519  1.00  0.00     0.277 HD
ATOM      6  H41 UNL     1      33.616 -10.899   3.934  1.00  0.00     0.277 HD
BRANCH   4   7
HETATM    7  C4  UNL     1      34.219 -12.890   3.905  1.00  0.00     0.234 C 
BRANCH   7   8
HETATM    8  C3  UNL     1      34.203 -12.919   5.401  1.00  0.00     0.047 C 
BRANCH   8   9
HETATM    9  C2  UNL     1      35.435 -13.675   5.861  1.00  0.00     0.123 C 
BRANCH   9  10
HETATM   10  N3  UNL     1      36.423 -12.794   6.447  1.00  0.00    -0.367 N 
HETATM   11  C1  UNL     1      37.576 -12.668   5.881  1.00  0.00     0.196 C 
HETATM   12  N1  UNL     1      37.871 -13.399   4.680  1.00  0.00    -0.067 NA
HETATM   13  N2  UNL     1      38.569 -11.810   6.429  1.00  0.00    -0.067 NA
ATOM     14  H3  UNL     1      36.208 -12.278   7.301  1.00  0.00     0.161 HD
ENDBRANCH   9  10
ENDBRANCH   8   9
ENDBRANCH   7   8
ENDBRANCH   4   7
ENDBRANCH   3   4
ENDBRANCH   2   3
ENDBRANCH   1   2
BRANCH   1  15
HETATM   15  N5  UNL     1      34.885  -9.299   0.717  1.00  0.00    -0.306 N 
ATOM     16  H5  UNL     1      34.284  -8.488   0.867  1.00  0.00     0.173 HD
BRANCH  15  17
HETATM   17  S1  UNL     1      34.364 -10.329  -0.442  1.00  0.00     0.262 S 
HETATM   18  O1  UNL     1      35.431 -11.287  -0.967  1.00  0.00    -0.200 OA
HETATM   19  O2  UNL     1      33.369 -11.303   0.215  1.00  0.00    -0.200 OA
BRANCH  17  20
HETATM   20  C8  UNL     1      33.552  -9.683  -1.842  1.00  0.00     0.118 A 
HETATM   21  C9  UNL     1      34.322  -9.300  -2.942  1.00  0.00     0.030 A 
HETATM   22  C10 UNL     1      33.752  -8.824  -4.100  1.00  0.00     0.021 A 
HETATM   23  C11 UNL     1      32.391  -8.714  -4.196  1.00  0.00     0.013 A 
HETATM   24 BR1  UNL     1      31.613  -8.054  -5.805  1.00  0.00    -0.051 Br
HETATM   25  C12 UNL     1      31.601  -9.080  -3.135  1.00  0.00     0.063 A 
HETATM   26  C13 UNL     1      32.198  -9.560  -1.970  1.00  0.00     0.141 A 
HETATM   27  F1  UNL     1      31.359  -9.866  -0.938  1.00  0.00    -0.204 F 
ENDBRANCH  17  20
ENDBRANCH  15  17
ENDBRANCH   1  15
BRANCH   1  28
HETATM   28  C14 UNL     1      36.600  -7.955   1.543  1.00  0.00    -0.034 A 
HETATM   29  C15 UNL     1      37.533  -7.550   2.440  1.00  0.00     0.010 A 
HETATM   30  C16 UNL     1      38.068  -6.279   2.454  1.00  0.00     0.013 A 
HETATM   31  C17 UNL     1      37.636  -5.362   1.508  1.00  0.00    -0.024 A 
HETATM   32  C18 UNL     1      38.154  -4.087   1.485  1.00  0.00     0.012 A 
HETATM   33  C24 UNL     1      36.686  -5.749   0.583  1.00  0.00    -0.002 A 
HETATM   34  C19 UNL     1      37.717  -3.206   0.538  1.00  0.00     0.002 A 
HETATM   35  C20 UNL     1      36.758  -3.612  -0.387  1.00  0.00     0.026 A 
HETATM   36  C21 UNL     1      36.208  -4.878  -0.404  1.00  0.00     0.090 A 
HETATM   37  C25 UNL     1      36.162  -7.033   0.587  1.00  0.00     0.023 A 
BRANCH  36  38
HETATM   38  S2  UNL     1      35.006  -5.376  -1.569  1.00  0.00     0.259 S 
HETATM   39  O3  UNL     1      35.633  -6.101  -2.721  1.00  0.00    -0.201 OA
HETATM   40  O4  UNL     1      34.029  -6.366  -0.904  1.00  0.00    -0.201 OA
BRANCH  38  41
HETATM   41  N6  UNL     1      34.069  -4.084  -2.182  1.00  0.00    -0.313 N 
ATOM     42  H6  UNL     1      33.187  -3.795  -1.759  1.00  0.00     0.172 HD
BRANCH  41  43
HETATM   43  C22 UNL     1      34.620  -3.441  -3.336  1.00  0.00     0.158 C 
BRANCH  43  44
HETATM   44  C23 UNL     1      33.810  -3.803  -4.583  1.00  0.00     0.184 C 
BRANCH  44  45
HETATM   45  O5  UNL     1      33.369  -5.130  -4.520  1.00  0.00    -0.399 OA
ATOM     46  H5  UNL     1      34.015  -5.680  -4.091  1.00  0.00     0.209 HD
ENDBRANCH  44  45
ENDBRANCH  43  44
ENDBRANCH  41  43
ENDBRANCH  38  41
ENDBRANCH  36  38
ENDBRANCH   1  28
TORSDOF 16
ENDMDL
MODEL 5
REMARK VINA RESULT: -8.207432166      3.724      5.975
REMARK  16 active torsions:
REMARK  status: ('A' for Active; 'I' for Inactive)
REMARK    1  A    between atoms: N3_4  and  C2_6 
REMARK    2  A    between atoms: C2_6  and  C3_7 
REMARK    3  A    between atoms: C3_7  and  C4_8 
REMARK    4  A    between atoms: C4_8  and  N4_9 
REMARK    5  A    between atoms: N4_9  and  C5_12 
REMARK    6  A    between atoms: C5_12  and  C6_13 
REMARK    7  A    between atoms: C6_13  and  C7_14 
REMARK    8  A    between atoms: C7_14  and  N5_15 
REMARK    9  A    between atoms: C7_14  and  C14_28 
REMARK   10  A    between atoms: N5_15  and  S1_17 
REMARK   11  A    between atoms: S1_17  and  C8_20 
REMARK   12  A    between atoms: C21_35  and  S2_36 
REMARK   13  A    between atoms: S2_36  and  N6_39 
REMARK   14  A    between atoms: N6_39  and  C22_41 
REMARK   15  A    between atoms: C22_41  and  C23_42 
REMARK   16  A    between atoms: C23_42  and  O5_43 
ROOT
HETATM    1  C7  UNL     1      36.004  -9.362   1.567  1.00  0.00     0.127 C 
ENDROOT
BRANCH   1   2
HETATM    2  C6  UNL     1      35.679  -9.766   2.999  1.00  0.00     0.058 C 
BRANCH   2   3
HETATM    3  C5  UNL     1      35.424 -11.229   3.079  1.00  0.00     0.234 C 
BRANCH   3   4
HETATM    4  N4  UNL     1      34.086 -11.646   3.314  1.00  0.00    -0.075 N 
ATOM      5  H42 UNL     1      33.505 -11.628   2.476  1.00  0.00     0.277 HD
ATOM      6  H41 UNL     1      33.545 -10.975   3.859  1.00  0.00     0.277 HD
BRANCH   4   7
HETATM    7  C4  UNL     1      34.164 -12.960   3.931  1.00  0.00     0.234 C 
BRANCH   7   8
HETATM    8  C3  UNL     1      35.132 -13.875   3.250  1.00  0.00     0.047 C 
BRANCH   8   9
HETATM    9  C2  UNL     1      34.335 -14.817   2.368  1.00  0.00     0.123 C 
BRANCH   9  10
HETATM   10  N3  UNL     1      34.096 -14.257   1.055  1.00  0.00    -0.367 N 
HETATM   11  C1  UNL     1      34.554 -14.865   0.012  1.00  0.00     0.196 C 
HETATM   12  N1  UNL     1      35.295 -16.088   0.162  1.00  0.00    -0.067 NA
HETATM   13  N2  UNL     1      34.337 -14.344  -1.292  1.00  0.00    -0.067 NA
ATOM     14  H3  UNL     1      33.570 -13.388   0.955  1.00  0.00     0.161 HD
ENDBRANCH   9  10
ENDBRANCH   8   9
ENDBRANCH   7   8
ENDBRANCH   4   7
ENDBRANCH   3   4
ENDBRANCH   2   3
ENDBRANCH   1   2
BRANCH   1  15
HETATM   15  N5  UNL     1      34.941  -9.273   0.716  1.00  0.00    -0.306 N 
ATOM     16  H5  UNL     1      34.386  -8.423   0.816  1.00  0.00     0.173 HD
BRANCH  15  17
HETATM   17  S1  UNL     1      34.410 -10.303  -0.439  1.00  0.00     0.262 S 
HETATM   18  O1  UNL     1      35.469 -11.267  -0.967  1.00  0.00    -0.200 OA
HETATM   19  O2  UNL     1      33.412 -11.270   0.224  1.00  0.00    -0.200 OA
BRANCH  17  20
HETATM   20  C8  UNL     1      33.594  -9.654  -1.836  1.00  0.00     0.118 A 
HETATM   21  C9  UNL     1      34.363  -9.260  -2.933  1.00  0.00     0.030 A 
HETATM   22  C10 UNL     1      33.791  -8.781  -4.089  1.00  0.00     0.021 A 
HETATM   23  C11 UNL     1      32.429  -8.680  -4.186  1.00  0.00     0.013 A 
HETATM   24 BR1  UNL     1      31.649  -8.017  -5.792  1.00  0.00    -0.051 Br
HETATM   25  C12 UNL     1      31.641  -9.057  -3.128  1.00  0.00     0.063 A 
HETATM   26  C13 UNL     1      32.240  -9.539  -1.964  1.00  0.00     0.141 A 
HETATM   27  F1  UNL     1      31.402  -9.857  -0.935  1.00  0.00    -0.204 F 
ENDBRANCH  17  20
ENDBRANCH  15  17
ENDBRANCH   1  15
BRANCH   1  28
HETATM   28  C14 UNL     1      36.611  -7.979   1.700  1.00  0.00    -0.034 A 
HETATM   29  C15 UNL     1      37.330  -7.562   2.771  1.00  0.00     0.010 A 
HETATM   30  C16 UNL     1      37.866  -6.296   2.876  1.00  0.00     0.013 A 
HETATM   31  C17 UNL     1      37.664  -5.397   1.840  1.00  0.00    -0.024 A 
HETATM   32  C18 UNL     1      38.191  -4.127   1.906  1.00  0.00     0.012 A 
HETATM   33  C24 UNL     1      36.934  -5.796   0.737  1.00  0.00    -0.002 A 
HETATM   34  C19 UNL     1      37.985  -3.264   0.868  1.00  0.00     0.002 A 
HETATM   35  C20 UNL     1      37.246  -3.683  -0.237  1.00  0.00     0.026 A 
HETATM   36  C21 UNL     1      36.697  -4.944  -0.348  1.00  0.00     0.090 A 
HETATM   37  C25 UNL     1      36.406  -7.076   0.652  1.00  0.00     0.023 A 
BRANCH  36  38
HETATM   38  S2  UNL     1      35.772  -5.459  -1.738  1.00  0.00     0.259 S 
HETATM   39  O3  UNL     1      34.591  -6.286  -1.329  1.00  0.00    -0.201 OA
HETATM   40  O4  UNL     1      35.214  -4.221  -2.468  1.00  0.00    -0.201 OA
BRANCH  38  41
HETATM   41  N6  UNL     1      36.687  -6.342  -2.880  1.00  0.00    -0.313 N 
ATOM     42  H6  UNL     1      36.568  -7.345  -3.025  1.00  0.00     0.172 HD
BRANCH  41  43
HETATM   43  C22 UNL     1      37.635  -5.564  -3.619  1.00  0.00     0.158 C 
BRANCH  43  44
HETATM   44  C23 UNL     1      39.043  -6.139  -3.449  1.00  0.00     0.184 C 
BRANCH  44  45
HETATM   45  O5  UNL     1      39.346  -6.316  -2.094  1.00  0.00    -0.399 OA
ATOM     46  H5  UNL     1      40.234  -6.635  -1.986  1.00  0.00     0.209 HD
ENDBRANCH  44  45
ENDBRANCH  43  44
ENDBRANCH  41  43
ENDBRANCH  38  41
ENDBRANCH  36  38
ENDBRANCH   1  28
TORSDOF 16
ENDMDL
