MODEL 1
REMARK VINA RESULT: -4.707418925      0.000      0.000
REMARK  1 active torsions:
REMARK  status: ('A' for Active; 'I' for Inactive)
REMARK    1  A    between atoms: N1_2  and  C2_4 
ROOT
HETATM    1  C2  UNL     1      73.501  41.485  45.486  1.00  0.00     0.248 A 
HETATM    2  N2  UNL     1      73.483  40.136  45.991  1.00  0.00    -0.337 N 
ATOM      3  H2  UNL     1      73.430  39.911  46.984  1.00  0.00     0.164 HD
HETATM    4  C3  UNL     1      73.541  39.250  45.073  1.00  0.00     0.191 A 
HETATM    5  N3  UNL     1      73.539  37.840  45.267  1.00  0.00    -0.063 NA
HETATM    6  N4  UNL     1      73.626  39.897  43.793  1.00  0.00    -0.317 N 
ATOM      7  H4  UNL     1      73.682  39.437  42.884  1.00  0.00     0.170 HD
HETATM    8  C4  UNL     1      73.618  41.290  44.030  1.00  0.00     0.120 A 
HETATM    9  N5  UNL     1      73.708  42.201  43.093  1.00  0.00    -0.386 N 
ATOM     10  H51 UNL     1      73.789  42.066  42.085  1.00  0.00     0.157 HD
ATOM     11  H52 UNL     1      73.702  43.207  43.264  1.00  0.00     0.157 HD
ENDROOT
BRANCH   1  12
HETATM   12  N1  UNL     1      74.576  42.223  46.068  1.00  0.00    -0.400 N 
HETATM   13  C1  UNL     1      74.912  41.845  47.410  1.00  0.00     0.142 C 
ATOM     14  H1  UNL     1      75.067  42.963  45.567  1.00  0.00     0.155 HD
ENDBRANCH   1  12
TORSDOF 1
ENDMDL
MODEL 2
REMARK VINA RESULT: -4.506717072      7.105      9.461
REMARK  1 active torsions:
REMARK  status: ('A' for Active; 'I' for Inactive)
REMARK    1  A    between atoms: N1_2  and  C2_4 
ROOT
HETATM    1  C2  UNL     1      74.707  31.299  43.770  1.00  0.00     0.248 A 
HETATM    2  N2  UNL     1      75.301  32.565  44.120  1.00  0.00    -0.337 N 
ATOM      3  H2  UNL     1      76.217  32.864  43.786  1.00  0.00     0.164 HD
HETATM    4  C3  UNL     1      74.567  33.274  44.887  1.00  0.00     0.191 A 
HETATM    5  N3  UNL     1      74.887  34.564  45.395  1.00  0.00    -0.063 NA
HETATM    6  N4  UNL     1      73.357  32.558  45.182  1.00  0.00    -0.317 N 
ATOM      7  H4  UNL     1      72.588  32.883  45.769  1.00  0.00     0.170 HD
HETATM    8  C4  UNL     1      73.432  31.319  44.508  1.00  0.00     0.120 A 
HETATM    9  N5  UNL     1      72.512  30.388  44.565  1.00  0.00    -0.386 N 
ATOM     10  H51 UNL     1      71.628  30.401  45.075  1.00  0.00     0.157 HD
ATOM     11  H52 UNL     1      72.566  29.494  44.077  1.00  0.00     0.157 HD
ENDROOT
BRANCH   1  12
HETATM   12  N1  UNL     1      75.575  30.224  44.127  1.00  0.00    -0.400 N 
HETATM   13  C1  UNL     1      76.358  30.445  45.308  1.00  0.00     0.142 C 
ATOM     14  H1  UNL     1      75.634  29.363  43.582  1.00  0.00     0.155 HD
ENDBRANCH   1  12
TORSDOF 1
ENDMDL
MODEL 3
REMARK VINA RESULT: -4.352710213      7.297      9.078
REMARK  1 active torsions:
REMARK  status: ('A' for Active; 'I' for Inactive)
REMARK    1  A    between atoms: N1_2  and  C2_4 
ROOT
HETATM    1  C2  UNL     1      73.702  32.053  45.639  1.00  0.00     0.248 A 
HETATM    2  N2  UNL     1      75.059  32.471  45.394  1.00  0.00    -0.337 N 
ATOM      3  H2  UNL     1      75.509  33.235  45.897  1.00  0.00     0.164 HD
HETATM    4  C3  UNL     1      75.644  31.789  44.487  1.00  0.00     0.191 A 
HETATM    5  N3  UNL     1      76.980  31.970  44.032  1.00  0.00    -0.063 NA
HETATM    6  N4  UNL     1      74.733  30.807  43.969  1.00  0.00    -0.317 N 
ATOM      7  H4  UNL     1      74.929  30.123  43.237  1.00  0.00     0.170 HD
HETATM    8  C4  UNL     1      73.512  30.965  44.664  1.00  0.00     0.120 A 
HETATM    9  N5  UNL     1      72.435  30.253  44.440  1.00  0.00    -0.386 N 
ATOM     10  H51 UNL     1      72.303  29.500  43.765  1.00  0.00     0.157 HD
ATOM     11  H52 UNL     1      71.555  30.367  44.942  1.00  0.00     0.157 HD
ENDROOT
BRANCH   1  12
HETATM   12  N1  UNL     1      72.804  33.150  45.477  1.00  0.00    -0.400 N 
HETATM   13  C1  UNL     1      73.350  34.433  45.812  1.00  0.00     0.142 C 
ATOM     14  H1  UNL     1      71.846  33.030  45.148  1.00  0.00     0.155 HD
ENDBRANCH   1  12
TORSDOF 1
ENDMDL
MODEL 4
REMARK VINA RESULT: -4.204293234      6.452      8.094
REMARK  1 active torsions:
REMARK  status: ('A' for Active; 'I' for Inactive)
REMARK    1  A    between atoms: N1_2  and  C2_4 
ROOT
HETATM    1  C2  UNL     1      72.418  32.983  46.019  1.00  0.00     0.248 A 
HETATM    2  N2  UNL     1      72.891  31.778  45.387  1.00  0.00    -0.337 N 
ATOM      3  H2  UNL     1      72.398  30.886  45.443  1.00  0.00     0.164 HD
HETATM    4  C3  UNL     1      73.987  31.935  44.752  1.00  0.00     0.191 A 
HETATM    5  N3  UNL     1      74.691  30.928  44.032  1.00  0.00    -0.063 NA
HETATM    6  N4  UNL     1      74.423  33.297  44.886  1.00  0.00    -0.317 N 
ATOM      7  H4  UNL     1      75.265  33.707  44.481  1.00  0.00     0.170 HD
HETATM    8  C4  UNL     1      73.467  33.963  45.685  1.00  0.00     0.120 A 
HETATM    9  N5  UNL     1      73.546  35.221  46.042  1.00  0.00    -0.386 N 
ATOM     10  H51 UNL     1      74.273  35.900  45.811  1.00  0.00     0.157 HD
ATOM     11  H52 UNL     1      72.856  35.702  46.618  1.00  0.00     0.157 HD
ENDROOT
BRANCH   1  12
HETATM   12  N1  UNL     1      72.233  32.775  47.419  1.00  0.00    -0.400 N 
HETATM   13  C1  UNL     1      71.112  33.464  47.990  1.00  0.00     0.142 C 
ATOM     14  H1  UNL     1      72.851  32.181  47.971  1.00  0.00     0.155 HD
ENDBRANCH   1  12
TORSDOF 1
ENDMDL
MODEL 5
REMARK VINA RESULT: -4.150548147      7.208      8.116
REMARK  1 active torsions:
REMARK  status: ('A' for Active; 'I' for Inactive)
REMARK    1  A    between atoms: N1_2  and  C2_4 
ROOT
HETATM    1  C2  UNL     1      75.107  33.366  44.879  1.00  0.00     0.248 A 
HETATM    2  N2  UNL     1      73.946  33.780  45.625  1.00  0.00    -0.337 N 
ATOM      3  H2  UNL     1      73.912  34.638  46.177  1.00  0.00     0.164 HD
HETATM    4  C3  UNL     1      72.965  32.969  45.528  1.00  0.00     0.191 A 
HETATM    5  N3  UNL     1      71.693  33.113  46.150  1.00  0.00    -0.063 NA
HETATM    6  N4  UNL     1      73.346  31.860  44.698  1.00  0.00    -0.317 N 
ATOM      7  H4  UNL     1      72.762  31.063  44.446  1.00  0.00     0.170 HD
HETATM    8  C4  UNL     1      74.682  32.082  44.296  1.00  0.00     0.120 A 
HETATM    9  N5  UNL     1      75.376  31.261  43.546  1.00  0.00    -0.386 N 
ATOM     10  H51 UNL     1      75.082  30.371  43.142  1.00  0.00     0.157 HD
ATOM     11  H52 UNL     1      76.340  31.421  43.255  1.00  0.00     0.157 HD
ENDROOT
BRANCH   1  12
HETATM   12  N1  UNL     1      76.246  33.275  45.735  1.00  0.00    -0.400 N 
HETATM   13  C1  UNL     1      76.322  34.285  46.750  1.00  0.00     0.142 C 
ATOM     14  H1  UNL     1      76.951  32.545  45.633  1.00  0.00     0.155 HD
ENDBRANCH   1  12
TORSDOF 1
ENDMDL
