MODEL 1
REMARK VINA RESULT: -8.707660907      0.000      0.000
REMARK  9 active torsions:
REMARK  status: ('A' for Active; 'I' for Inactive)
REMARK    1  A    between atoms: C1_2  and  C2_4 
REMARK    2  A    between atoms: C2_4  and  C3_5 
REMARK    3  A    between atoms: C3_5  and  C4_6 
REMARK    4  A    between atoms: C4_6  and  C5_7 
REMARK    5  A    between atoms: C5_7  and  C6_8 
REMARK       I    between atoms: C6_8  and  N2_10 
REMARK    6  A    between atoms: C7_11  and  C8_12 
REMARK       I    between atoms: C8_12  and  N3_14 
REMARK    7  A    between atoms: C10_19  and  C11_20 
REMARK       I    between atoms: C11_20  and  N6_22 
REMARK    8  A    between atoms: N6_22  and  C12_23 
REMARK    9  A    between atoms: C12_23  and  C13_24 
ROOT
HETATM    1  C6  UNL     1       5.052   8.222  23.790  1.00  0.00     0.221 C 
HETATM    2  O2  UNL     1       4.193   9.134  24.068  1.00  0.00    -0.273 OA
HETATM    3  N2  UNL     1       4.770   7.394  22.699  1.00  0.00    -0.332 N 
HETATM    4  C7  UNL     1       5.739   6.424  22.206  1.00  0.00     0.194 C 
HETATM    5  C10 UNL     1       5.148   5.375  21.369  1.00  0.00     0.130 C 
HETATM    6  C19 UNL     1       3.675   5.673  21.007  1.00  0.00     0.015 C 
HETATM    7  C20 UNL     1       3.570   7.162  20.624  1.00  0.00     0.032 C 
HETATM    8  C21 UNL     1       3.429   7.412  22.087  1.00  0.00     0.097 C 
HETATM    9  C22 UNL     1       2.931   5.995  22.209  1.00  0.00    -0.015 A 
HETATM   10  C23 UNL     1       1.586   5.579  22.554  1.00  0.00     0.013 A 
HETATM   11  C24 UNL     1       2.814   5.248  23.434  1.00  0.00     0.013 A 
ENDROOT
BRANCH   5  12
HETATM   12  C11 UNL     1       5.802   5.030  20.065  1.00  0.00     0.298 C 
HETATM   13  O4  UNL     1       5.476   5.756  19.094  1.00  0.00    -0.257 OA
HETATM   14  N6  UNL     1       6.685   3.977  19.982  1.00  0.00    -0.387 NA
BRANCH  14  15
HETATM   15  C12 UNL     1       7.555   2.938  19.900  1.00  0.00     0.163 C 
BRANCH  15  16
HETATM   16  C13 UNL     1       6.967   1.551  19.586  1.00  0.00     0.038 C 
HETATM   17  C14 UNL     1       6.317   1.695  18.219  1.00  0.00     0.011 C 
HETATM   18  C15 UNL     1       6.160   0.303  17.628  1.00  0.00     0.001 C 
HETATM   19  C16 UNL     1       7.517  -0.171  17.197  1.00  0.00     0.000 C 
HETATM   20  C17 UNL     1       8.610   0.426  18.079  1.00  0.00     0.001 C 
HETATM   21  C18 UNL     1       8.081   0.554  19.513  1.00  0.00     0.011 C 
ENDBRANCH  15  16
ENDBRANCH  14  15
ENDBRANCH   5  12
BRANCH   4  22
HETATM   22  C8  UNL     1       6.943   7.039  21.618  1.00  0.00     0.247 C 
HETATM   23  O3  UNL     1       8.053   6.518  21.997  1.00  0.00    -0.271 OA
HETATM   24  N3  UNL     1       6.901   8.118  20.709  1.00  0.00    -0.302 N 
HETATM   25  C9  UNL     1       7.916   8.556  20.086  1.00  0.00     0.203 C 
ATOM     26  H3  UNL     1       6.003   8.573  20.544  1.00  0.00     0.171 HD
HETATM   27  N4  UNL     1       7.787   9.666  19.173  1.00  0.00    -0.066 NA
HETATM   28  N5  UNL     1       9.244   8.035  20.170  1.00  0.00    -0.066 NA
ENDBRANCH   4  22
BRANCH   1  29
HETATM   29  C5  UNL     1       6.225   8.140  24.650  1.00  0.00     0.103 C 
BRANCH  29  30
HETATM   30  C4  UNL     1       7.330   9.096  24.359  1.00  0.00     0.010 C 
BRANCH  30  31
HETATM   31  C3  UNL     1       8.714   8.691  24.682  1.00  0.00     0.009 C 
BRANCH  31  32
HETATM   32  C2  UNL     1       8.887   7.631  25.711  1.00  0.00     0.099 C 
BRANCH  32  33
HETATM   33  C1  UNL     1      10.180   7.679  26.403  1.00  0.00     0.231 C 
HETATM   34  N1  UNL     1      11.065   8.770  26.060  1.00  0.00    -0.062 NA
HETATM   35  O1  UNL     1      10.618   6.892  27.260  1.00  0.00    -0.277 OA
ENDBRANCH  32  33
ENDBRANCH  31  32
ENDBRANCH  30  31
ENDBRANCH  29  30
ENDBRANCH   1  29
TORSDOF 9
ENDMDL
MODEL 2
REMARK VINA RESULT: -8.602427602      1.005      1.052
REMARK  9 active torsions:
REMARK  status: ('A' for Active; 'I' for Inactive)
REMARK    1  A    between atoms: C1_2  and  C2_4 
REMARK    2  A    between atoms: C2_4  and  C3_5 
REMARK    3  A    between atoms: C3_5  and  C4_6 
REMARK    4  A    between atoms: C4_6  and  C5_7 
REMARK    5  A    between atoms: C5_7  and  C6_8 
REMARK       I    between atoms: C6_8  and  N2_10 
REMARK    6  A    between atoms: C7_11  and  C8_12 
REMARK       I    between atoms: C8_12  and  N3_14 
REMARK    7  A    between atoms: C10_19  and  C11_20 
REMARK       I    between atoms: C11_20  and  N6_22 
REMARK    8  A    between atoms: N6_22  and  C12_23 
REMARK    9  A    between atoms: C12_23  and  C13_24 
ROOT
HETATM    1  C6  UNL     1       4.566   7.924  23.765  1.00  0.00     0.221 C 
HETATM    2  O2  UNL     1       3.678   8.809  24.037  1.00  0.00    -0.273 OA
HETATM    3  N2  UNL     1       4.347   7.129  22.635  1.00  0.00    -0.332 N 
HETATM    4  C7  UNL     1       5.356   6.196  22.151  1.00  0.00     0.194 C 
HETATM    5  C10 UNL     1       4.821   5.166  21.254  1.00  0.00     0.130 C 
HETATM    6  C19 UNL     1       3.360   5.448  20.840  1.00  0.00     0.015 C 
HETATM    7  C20 UNL     1       3.240   6.948  20.503  1.00  0.00     0.032 C 
HETATM    8  C21 UNL     1       3.033   7.144  21.967  1.00  0.00     0.097 C 
HETATM    9  C22 UNL     1       2.559   5.714  22.019  1.00  0.00    -0.015 A 
HETATM   10  C23 UNL     1       1.209   5.261  22.292  1.00  0.00     0.013 A 
HETATM   11  C24 UNL     1       2.405   4.923  23.211  1.00  0.00     0.013 A 
ENDROOT
BRANCH   5  12
HETATM   12  C11 UNL     1       5.537   4.879  19.968  1.00  0.00     0.298 C 
HETATM   13  O4  UNL     1       5.200   5.599  18.996  1.00  0.00    -0.257 OA
HETATM   14  N6  UNL     1       6.483   3.881  19.901  1.00  0.00    -0.387 NA
BRANCH  14  15
HETATM   15  C12 UNL     1       7.415   2.896  19.834  1.00  0.00     0.163 C 
BRANCH  15  16
HETATM   16  C13 UNL     1       6.920   1.480  19.491  1.00  0.00     0.038 C 
HETATM   17  C14 UNL     1       6.409   1.574  18.062  1.00  0.00     0.011 C 
HETATM   18  C15 UNL     1       6.371   0.167  17.487  1.00  0.00     0.001 C 
HETATM   19  C16 UNL     1       7.783  -0.255  17.207  1.00  0.00     0.000 C 
HETATM   20  C17 UNL     1       8.755   0.403  18.183  1.00  0.00     0.001 C 
HETATM   21  C18 UNL     1       8.076   0.532  19.553  1.00  0.00     0.011 C 
ENDBRANCH  15  16
ENDBRANCH  14  15
ENDBRANCH   5  12
BRANCH   4  22
HETATM   22  C8  UNL     1       6.570   6.854  21.637  1.00  0.00     0.247 C 
HETATM   23  O3  UNL     1       7.674   6.329  22.029  1.00  0.00    -0.271 OA
HETATM   24  N3  UNL     1       6.545   7.976  20.781  1.00  0.00    -0.302 N 
HETATM   25  C9  UNL     1       7.575   8.456  20.215  1.00  0.00     0.203 C 
ATOM     26  H3  UNL     1       5.647   8.427  20.606  1.00  0.00     0.171 HD
HETATM   27  N4  UNL     1       7.462   9.608  19.353  1.00  0.00    -0.066 NA
HETATM   28  N5  UNL     1       8.906   7.948  20.320  1.00  0.00    -0.066 NA
ENDBRANCH   4  22
BRANCH   1  29
HETATM   29  C5  UNL     1       5.703   7.834  24.670  1.00  0.00     0.103 C 
BRANCH  29  30
HETATM   30  C4  UNL     1       6.756   8.877  24.521  1.00  0.00     0.010 C 
BRANCH  30  31
HETATM   31  C3  UNL     1       8.159   8.505  24.797  1.00  0.00     0.009 C 
BRANCH  31  32
HETATM   32  C2  UNL     1       9.183   8.939  23.809  1.00  0.00     0.099 C 
BRANCH  32  33
HETATM   33  C1  UNL     1      10.503   9.198  24.395  1.00  0.00     0.231 C 
HETATM   34  N1  UNL     1      10.657   8.924  25.807  1.00  0.00    -0.062 NA
HETATM   35  O1  UNL     1      11.521   9.626  23.824  1.00  0.00    -0.277 OA
ENDBRANCH  32  33
ENDBRANCH  31  32
ENDBRANCH  30  31
ENDBRANCH  29  30
ENDBRANCH   1  29
TORSDOF 9
ENDMDL
MODEL 3
REMARK VINA RESULT: -8.510459735      1.833      2.660
REMARK  9 active torsions:
REMARK  status: ('A' for Active; 'I' for Inactive)
REMARK    1  A    between atoms: C1_2  and  C2_4 
REMARK    2  A    between atoms: C2_4  and  C3_5 
REMARK    3  A    between atoms: C3_5  and  C4_6 
REMARK    4  A    between atoms: C4_6  and  C5_7 
REMARK    5  A    between atoms: C5_7  and  C6_8 
REMARK       I    between atoms: C6_8  and  N2_10 
REMARK    6  A    between atoms: C7_11  and  C8_12 
REMARK       I    between atoms: C8_12  and  N3_14 
REMARK    7  A    between atoms: C10_19  and  C11_20 
REMARK       I    between atoms: C11_20  and  N6_22 
REMARK    8  A    between atoms: N6_22  and  C12_23 
REMARK    9  A    between atoms: C12_23  and  C13_24 
ROOT
HETATM    1  C6  UNL     1       3.285   6.719  22.034  1.00  0.00     0.221 C 
HETATM    2  O2  UNL     1       2.021   6.883  21.884  1.00  0.00    -0.273 OA
HETATM    3  N2  UNL     1       3.853   5.581  21.452  1.00  0.00    -0.332 N 
HETATM    4  C7  UNL     1       5.295   5.372  21.435  1.00  0.00     0.194 C 
HETATM    5  C10 UNL     1       5.683   3.979  21.189  1.00  0.00     0.130 C 
HETATM    6  C19 UNL     1       4.484   3.100  20.767  1.00  0.00     0.015 C 
HETATM    7  C20 UNL     1       3.646   3.894  19.745  1.00  0.00     0.032 C 
HETATM    8  C21 UNL     1       2.986   4.508  20.933  1.00  0.00     0.097 C 
HETATM    9  C22 UNL     1       3.392   3.278  21.705  1.00  0.00    -0.015 A 
HETATM   10  C23 UNL     1       2.508   2.260  22.236  1.00  0.00     0.013 A 
HETATM   11  C24 UNL     1       3.395   3.148  23.138  1.00  0.00     0.013 A 
ENDROOT
BRANCH   5  12
HETATM   12  C11 UNL     1       6.747   3.690  20.172  1.00  0.00     0.298 C 
HETATM   13  O4  UNL     1       7.834   4.294  20.349  1.00  0.00    -0.257 OA
HETATM   14  N6  UNL     1       6.503   2.824  19.130  1.00  0.00    -0.387 NA
BRANCH  14  15
HETATM   15  C12 UNL     1       6.262   1.970  18.102  1.00  0.00     0.163 C 
BRANCH  15  16
HETATM   16  C13 UNL     1       6.878   0.563  18.198  1.00  0.00     0.038 C 
HETATM   17  C14 UNL     1       7.626   0.367  16.889  1.00  0.00     0.011 C 
HETATM   18  C15 UNL     1       8.645  -0.743  17.095  1.00  0.00     0.001 C 
HETATM   19  C16 UNL     1       9.764  -0.193  17.929  1.00  0.00     0.000 C 
HETATM   20  C17 UNL     1       9.259   0.893  18.875  1.00  0.00     0.001 C 
HETATM   21  C18 UNL     1       7.843   0.530  19.341  1.00  0.00     0.011 C 
ENDBRANCH  15  16
ENDBRANCH  14  15
ENDBRANCH   5  12
BRANCH   4  22
HETATM   22  C8  UNL     1       6.023   6.344  20.601  1.00  0.00     0.247 C 
HETATM   23  O3  UNL     1       5.497   6.567  19.452  1.00  0.00    -0.271 OA
HETATM   24  N3  UNL     1       7.208   6.989  21.013  1.00  0.00    -0.302 N 
HETATM   25  C9  UNL     1       7.759   7.933  20.368  1.00  0.00     0.203 C 
ATOM     26  H3  UNL     1       7.649   6.679  21.879  1.00  0.00     0.171 HD
HETATM   27  N4  UNL     1       8.973   8.540  20.858  1.00  0.00    -0.066 NA
HETATM   28  N5  UNL     1       7.279   8.515  19.154  1.00  0.00    -0.066 NA
ENDBRANCH   4  22
BRANCH   1  29
HETATM   29  C5  UNL     1       3.991   7.733  22.806  1.00  0.00     0.103 C 
BRANCH  29  30
HETATM   30  C4  UNL     1       4.279   7.403  24.229  1.00  0.00     0.010 C 
BRANCH  30  31
HETATM   31  C3  UNL     1       5.652   7.610  24.736  1.00  0.00     0.009 C 
BRANCH  31  32
HETATM   32  C2  UNL     1       6.413   8.762  24.182  1.00  0.00     0.099 C 
BRANCH  32  33
HETATM   33  C1  UNL     1       7.869   8.592  24.232  1.00  0.00     0.231 C 
HETATM   34  N1  UNL     1       8.378   7.250  24.054  1.00  0.00    -0.062 NA
HETATM   35  O1  UNL     1       8.734   9.467  24.407  1.00  0.00    -0.277 OA
ENDBRANCH  32  33
ENDBRANCH  31  32
ENDBRANCH  30  31
ENDBRANCH  29  30
ENDBRANCH   1  29
TORSDOF 9
ENDMDL
MODEL 4
REMARK VINA RESULT: -8.250226686      2.366      5.161
REMARK  9 active torsions:
REMARK  status: ('A' for Active; 'I' for Inactive)
REMARK    1  A    between atoms: C1_2  and  C2_4 
REMARK    2  A    between atoms: C2_4  and  C3_5 
REMARK    3  A    between atoms: C3_5  and  C4_6 
REMARK    4  A    between atoms: C4_6  and  C5_7 
REMARK    5  A    between atoms: C5_7  and  C6_8 
REMARK       I    between atoms: C6_8  and  N2_10 
REMARK    6  A    between atoms: C7_11  and  C8_12 
REMARK       I    between atoms: C8_12  and  N3_14 
REMARK    7  A    between atoms: C10_19  and  C11_20 
REMARK       I    between atoms: C11_20  and  N6_22 
REMARK    8  A    between atoms: N6_22  and  C12_23 
REMARK    9  A    between atoms: C12_23  and  C13_24 
ROOT
HETATM    1  C6  UNL     1       5.979   8.646  24.165  1.00  0.00     0.221 C 
HETATM    2  O2  UNL     1       6.932   8.865  24.995  1.00  0.00    -0.273 OA
HETATM    3  N2  UNL     1       6.297   7.938  23.002  1.00  0.00    -0.332 N 
HETATM    4  C7  UNL     1       5.268   7.509  22.064  1.00  0.00     0.194 C 
HETATM    5  C10 UNL     1       5.788   7.175  20.734  1.00  0.00     0.130 C 
HETATM    6  C19 UNL     1       7.332   7.124  20.702  1.00  0.00     0.015 C 
HETATM    7  C20 UNL     1       7.811   6.379  21.963  1.00  0.00     0.032 C 
HETATM    8  C21 UNL     1       7.707   7.700  22.646  1.00  0.00     0.097 C 
HETATM    9  C22 UNL     1       7.874   8.335  21.289  1.00  0.00    -0.015 A 
HETATM   10  C23 UNL     1       9.011   9.108  20.830  1.00  0.00     0.013 A 
HETATM   11  C24 UNL     1       7.592   9.708  20.963  1.00  0.00     0.013 A 
ENDROOT
BRANCH   5  12
HETATM   12  C11 UNL     1       5.348   5.899  20.081  1.00  0.00     0.298 C 
HETATM   13  O4  UNL     1       4.238   5.951  19.497  1.00  0.00    -0.257 OA
HETATM   14  N6  UNL     1       6.134   4.771  20.150  1.00  0.00    -0.387 NA
BRANCH  14  15
HETATM   15  C12 UNL     1       6.909   3.658  20.218  1.00  0.00     0.163 C 
BRANCH  15  16
HETATM   16  C13 UNL     1       6.244   2.315  19.869  1.00  0.00     0.038 C 
HETATM   17  C14 UNL     1       6.149   2.301  18.351  1.00  0.00     0.011 C 
HETATM   18  C15 UNL     1       5.977   0.857  17.908  1.00  0.00     0.001 C 
HETATM   19  C16 UNL     1       7.298   0.164  18.069  1.00  0.00     0.000 C 
HETATM   20  C17 UNL     1       8.097   0.771  19.220  1.00  0.00     0.001 C 
HETATM   21  C18 UNL     1       7.128   1.199  20.330  1.00  0.00     0.011 C 
ENDBRANCH  15  16
ENDBRANCH  14  15
ENDBRANCH   5  12
BRANCH   4  22
HETATM   22  C8  UNL     1       4.355   6.491  22.613  1.00  0.00     0.247 C 
HETATM   23  O3  UNL     1       4.903   5.657  23.421  1.00  0.00    -0.271 OA
HETATM   24  N3  UNL     1       2.983   6.420  22.290  1.00  0.00    -0.302 N 
HETATM   25  C9  UNL     1       2.161   5.645  22.868  1.00  0.00     0.203 C 
ATOM     26  H3  UNL     1       2.632   7.026  21.549  1.00  0.00     0.171 HD
HETATM   27  N4  UNL     1       0.772   5.633  22.476  1.00  0.00    -0.066 NA
HETATM   28  N5  UNL     1       2.461   4.747  23.938  1.00  0.00    -0.066 NA
ENDBRANCH   4  22
BRANCH   1  29
HETATM   29  C5  UNL     1       4.667   9.173  24.518  1.00  0.00     0.103 C 
BRANCH  29  30
HETATM   30  C4  UNL     1       3.860   8.360  25.470  1.00  0.00     0.010 C 
BRANCH  30  31
HETATM   31  C3  UNL     1       2.493   8.815  25.800  1.00  0.00     0.009 C 
BRANCH  31  32
HETATM   32  C2  UNL     1       1.406   8.435  24.858  1.00  0.00     0.099 C 
BRANCH  32  33
HETATM   33  C1  UNL     1       1.123   9.448  23.835  1.00  0.00     0.231 C 
HETATM   34  N1  UNL     1       1.796   9.299  22.563  1.00  0.00    -0.062 NA
HETATM   35  O1  UNL     1       0.366  10.430  23.922  1.00  0.00    -0.277 OA
ENDBRANCH  32  33
ENDBRANCH  31  32
ENDBRANCH  30  31
ENDBRANCH  29  30
ENDBRANCH   1  29
TORSDOF 9
ENDMDL
MODEL 5
REMARK VINA RESULT: -8.025862398      0.844      1.188
REMARK  9 active torsions:
REMARK  status: ('A' for Active; 'I' for Inactive)
REMARK    1  A    between atoms: C1_2  and  C2_4 
REMARK    2  A    between atoms: C2_4  and  C3_5 
REMARK    3  A    between atoms: C3_5  and  C4_6 
REMARK    4  A    between atoms: C4_6  and  C5_7 
REMARK    5  A    between atoms: C5_7  and  C6_8 
REMARK       I    between atoms: C6_8  and  N2_10 
REMARK    6  A    between atoms: C7_11  and  C8_12 
REMARK       I    between atoms: C8_12  and  N3_14 
REMARK    7  A    between atoms: C10_19  and  C11_20 
REMARK       I    between atoms: C11_20  and  N6_22 
REMARK    8  A    between atoms: N6_22  and  C12_23 
REMARK    9  A    between atoms: C12_23  and  C13_24 
ROOT
HETATM    1  C6  UNL     1       5.051   8.234  24.030  1.00  0.00     0.221 C 
HETATM    2  O2  UNL     1       4.350   9.247  24.391  1.00  0.00    -0.273 OA
HETATM    3  N2  UNL     1       4.585   7.494  22.938  1.00  0.00    -0.332 N 
HETATM    4  C7  UNL     1       5.373   6.417  22.355  1.00  0.00     0.194 C 
HETATM    5  C10 UNL     1       4.586   5.492  21.531  1.00  0.00     0.130 C 
HETATM    6  C19 UNL     1       3.151   6.007  21.278  1.00  0.00     0.015 C 
HETATM    7  C20 UNL     1       3.235   7.509  20.944  1.00  0.00     0.032 C 
HETATM    8  C21 UNL     1       3.225   7.723  22.419  1.00  0.00     0.097 C 
HETATM    9  C22 UNL     1       2.537   6.386  22.536  1.00  0.00    -0.015 A 
HETATM   10  C23 UNL     1       1.172   6.151  22.961  1.00  0.00     0.013 A 
HETATM   11  C24 UNL     1       2.393   5.619  23.745  1.00  0.00     0.013 A 
ENDROOT
BRANCH   5  12
HETATM   12  C11 UNL     1       5.100   5.107  20.177  1.00  0.00     0.298 C 
HETATM   13  O4  UNL     1       5.206   6.051  19.356  1.00  0.00    -0.257 OA
HETATM   14  N6  UNL     1       5.413   3.796  19.894  1.00  0.00    -0.387 NA
BRANCH  14  15
HETATM   15  C12 UNL     1       5.721   2.504  19.614  1.00  0.00     0.163 C 
BRANCH  15  16
HETATM   16  C13 UNL     1       6.998   2.246  18.795  1.00  0.00     0.038 C 
HETATM   17  C14 UNL     1       7.756   1.178  19.567  1.00  0.00     0.011 C 
HETATM   18  C15 UNL     1       8.741   0.522  18.612  1.00  0.00     0.001 C 
HETATM   19  C16 UNL     1       7.963  -0.362  17.683  1.00  0.00     0.000 C 
HETATM   20  C17 UNL     1       6.558   0.187  17.453  1.00  0.00     0.001 C 
HETATM   21  C18 UNL     1       6.615   1.720  17.448  1.00  0.00     0.011 C 
ENDBRANCH  15  16
ENDBRANCH  14  15
ENDBRANCH   5  12
BRANCH   4  22
HETATM   22  C8  UNL     1       6.612   6.878  21.703  1.00  0.00     0.247 C 
HETATM   23  O3  UNL     1       7.621   6.098  21.853  1.00  0.00    -0.271 OA
HETATM   24  N3  UNL     1       6.705   8.079  20.969  1.00  0.00    -0.302 N 
HETATM   25  C9  UNL     1       7.720   8.411  20.283  1.00  0.00     0.203 C 
ATOM     26  H3  UNL     1       5.911   8.719  20.990  1.00  0.00     0.171 HD
HETATM   27  N4  UNL     1       7.735   9.660  19.560  1.00  0.00    -0.066 NA
HETATM   28  N5  UNL     1       8.910   7.638  20.114  1.00  0.00    -0.066 NA
ENDBRANCH   4  22
BRANCH   1  29
HETATM   29  C5  UNL     1       6.252   7.957  24.805  1.00  0.00     0.103 C 
BRANCH  29  30
HETATM   30  C4  UNL     1       7.455   8.773  24.481  1.00  0.00     0.010 C 
BRANCH  30  31
HETATM   31  C3  UNL     1       8.784   8.133  24.571  1.00  0.00     0.009 C 
BRANCH  31  32
HETATM   32  C2  UNL     1       9.205   7.628  25.905  1.00  0.00     0.099 C 
BRANCH  32  33
HETATM   33  C1  UNL     1      10.544   8.069  26.314  1.00  0.00     0.231 C 
HETATM   34  N1  UNL     1      11.299   7.170  27.159  1.00  0.00    -0.062 NA
HETATM   35  O1  UNL     1      11.121   9.130  26.020  1.00  0.00    -0.277 OA
ENDBRANCH  32  33
ENDBRANCH  31  32
ENDBRANCH  30  31
ENDBRANCH  29  30
ENDBRANCH   1  29
TORSDOF 9
ENDMDL
