MODEL 1
REMARK VINA RESULT: -6.039984898      0.000      0.000
REMARK  6 active torsions:
REMARK  status: ('A' for Active; 'I' for Inactive)
REMARK    1  A    between atoms: C2_2  and  C3_3 
REMARK    2  A    between atoms: C3_3  and  N1_4 
REMARK    3  A    between atoms: N1_4  and  C4_6 
REMARK    4  A    between atoms: N3_11  and  C7_13 
REMARK    5  A    between atoms: C7_13  and  C8_14 
REMARK    6  A    between atoms: C8_14  and  N4_15 
ROOT
HETATM    1  C4  UNL     1      11.184  32.982  37.427  1.00  0.00     0.088 A 
HETATM    2  C5  UNL     1      11.023  31.850  38.080  1.00  0.00     0.122 A 
HETATM    3  N2  UNL     1      11.617  31.049  37.079  1.00  0.00    -0.348 N 
ATOM      4  H2  UNL     1      11.818  30.058  36.946  1.00  0.00     0.167 HD
HETATM    5  C6  UNL     1      11.808  32.242  36.346  1.00  0.00     0.129 A 
HETATM    6  N3  UNL     1      12.325  32.532  35.199  1.00  0.00    -0.373 N 
ATOM      7  H3  UNL     1      12.345  33.502  34.883  1.00  0.00     0.161 HD
ENDROOT
BRANCH   1   8
HETATM    8  N1  UNL     1      10.876  34.373  37.667  1.00  0.00    -0.386 N 
ATOM      9  H1  UNL     1      10.942  35.056  36.912  1.00  0.00     0.159 HD
BRANCH   8  10
HETATM   10  C3  UNL     1      10.471  34.785  39.002  1.00  0.00     0.119 C 
BRANCH  10  11
HETATM   11  C2  UNL     1      11.430  35.785  39.552  1.00  0.00     0.015 C 
HETATM   12  C1  UNL     1      11.284  35.848  41.055  1.00  0.00     0.006 C 
ENDBRANCH  10  11
ENDBRANCH   8  10
ENDBRANCH   1   8
BRANCH   6  13
HETATM   13  C7  UNL     1      12.869  31.501  34.367  1.00  0.00     0.148 C 
BRANCH  13  14
HETATM   14  C8  UNL     1      14.330  31.724  34.026  1.00  0.00     0.251 C 
BRANCH  14  15
HETATM   15  N4  UNL     1      15.094  31.156  35.141  1.00  0.00    -0.077 N 
HETATM   16  C9  UNL     1      14.708  29.799  35.399  1.00  0.00     0.267 C 
ATOM     17  H42 UNL     1      16.099  31.237  34.987  1.00  0.00     0.276 HD
ATOM     18  H41 UNL     1      15.019  31.733  35.979  1.00  0.00     0.276 HD
ENDBRANCH  14  15
ENDBRANCH  13  14
ENDBRANCH   6  13
TORSDOF 6
ENDMDL
MODEL 2
REMARK VINA RESULT: -6.022789216      1.821      2.078
REMARK  6 active torsions:
REMARK  status: ('A' for Active; 'I' for Inactive)
REMARK    1  A    between atoms: C2_2  and  C3_3 
REMARK    2  A    between atoms: C3_3  and  N1_4 
REMARK    3  A    between atoms: N1_4  and  C4_6 
REMARK    4  A    between atoms: N3_11  and  C7_13 
REMARK    5  A    between atoms: C7_13  and  C8_14 
REMARK    6  A    between atoms: C8_14  and  N4_15 
ROOT
HETATM    1  C4  UNL     1      11.823  32.987  38.814  1.00  0.00     0.088 A 
HETATM    2  C5  UNL     1      13.068  33.281  39.127  1.00  0.00     0.122 A 
HETATM    3  N2  UNL     1      13.573  33.068  37.824  1.00  0.00    -0.348 N 
ATOM      4  H2  UNL     1      14.482  33.123  37.365  1.00  0.00     0.167 HD
HETATM    5  C6  UNL     1      12.249  32.745  37.448  1.00  0.00     0.129 A 
HETATM    6  N3  UNL     1      11.679  32.389  36.346  1.00  0.00    -0.373 N 
ATOM      7  H3  UNL     1      10.675  32.208  36.330  1.00  0.00     0.161 HD
ENDROOT
BRANCH   1   8
HETATM    8  N1  UNL     1      10.562  32.924  39.515  1.00  0.00    -0.386 N 
ATOM      9  H1  UNL     1      10.229  32.043  39.905  1.00  0.00     0.159 HD
BRANCH   8  10
HETATM   10  C3  UNL     1       9.773  34.139  39.655  1.00  0.00     0.119 C 
BRANCH  10  11
HETATM   11  C2  UNL     1       9.834  34.640  41.057  1.00  0.00     0.015 C 
HETATM   12  C1  UNL     1      10.967  35.632  41.187  1.00  0.00     0.006 C 
ENDBRANCH  10  11
ENDBRANCH   8  10
ENDBRANCH   1   8
BRANCH   6  13
HETATM   13  C7  UNL     1      12.447  32.247  35.144  1.00  0.00     0.148 C 
BRANCH  13  14
HETATM   14  C8  UNL     1      13.075  30.874  35.001  1.00  0.00     0.251 C 
BRANCH  14  15
HETATM   15  N4  UNL     1      12.082  29.924  35.515  1.00  0.00    -0.077 N 
HETATM   16  C9  UNL     1      12.640  29.095  36.545  1.00  0.00     0.267 C 
ATOM     17  H42 UNL     1      11.238  30.399  35.833  1.00  0.00     0.276 HD
ATOM     18  H41 UNL     1      11.675  29.366  34.765  1.00  0.00     0.276 HD
ENDBRANCH  14  15
ENDBRANCH  13  14
ENDBRANCH   6  13
TORSDOF 6
ENDMDL
MODEL 3
REMARK VINA RESULT: -5.959995704      2.148      6.114
REMARK  6 active torsions:
REMARK  status: ('A' for Active; 'I' for Inactive)
REMARK    1  A    between atoms: C2_2  and  C3_3 
REMARK    2  A    between atoms: C3_3  and  N1_4 
REMARK    3  A    between atoms: N1_4  and  C4_6 
REMARK    4  A    between atoms: N3_11  and  C7_13 
REMARK    5  A    between atoms: C7_13  and  C8_14 
REMARK    6  A    between atoms: C8_14  and  N4_15 
ROOT
HETATM    1  C4  UNL     1      14.135  31.280  35.407  1.00  0.00     0.088 A 
HETATM    2  C5  UNL     1      13.264  31.734  34.530  1.00  0.00     0.122 A 
HETATM    3  N2  UNL     1      12.477  32.416  35.485  1.00  0.00    -0.348 N 
ATOM      4  H2  UNL     1      11.632  32.987  35.475  1.00  0.00     0.167 HD
HETATM    5  C6  UNL     1      13.390  31.948  36.457  1.00  0.00     0.129 A 
HETATM    6  N3  UNL     1      13.498  32.074  37.737  1.00  0.00    -0.373 N 
ATOM      7  H3  UNL     1      14.272  31.626  38.227  1.00  0.00     0.161 HD
ENDROOT
BRANCH   1   8
HETATM    8  N1  UNL     1      15.327  30.464  35.362  1.00  0.00    -0.386 N 
ATOM      9  H1  UNL     1      16.084  30.688  34.717  1.00  0.00     0.159 HD
BRANCH   8  10
HETATM   10  C3  UNL     1      15.429  29.319  36.253  1.00  0.00     0.119 C 
BRANCH  10  11
HETATM   11  C2  UNL     1      14.278  28.395  36.047  1.00  0.00     0.015 C 
HETATM   12  C1  UNL     1      14.750  27.159  35.315  1.00  0.00     0.006 C 
ENDBRANCH  10  11
ENDBRANCH   8  10
ENDBRANCH   1   8
BRANCH   6  13
HETATM   13  C7  UNL     1      12.537  32.840  38.475  1.00  0.00     0.148 C 
BRANCH  13  14
HETATM   14  C8  UNL     1      13.130  34.087  39.103  1.00  0.00     0.251 C 
BRANCH  14  15
HETATM   15  N4  UNL     1      13.878  33.627  40.278  1.00  0.00    -0.077 N 
HETATM   16  C9  UNL     1      14.678  34.682  40.830  1.00  0.00     0.267 C 
ATOM     17  H42 UNL     1      13.261  33.218  40.980  1.00  0.00     0.276 HD
ATOM     18  H41 UNL     1      14.440  32.803  40.065  1.00  0.00     0.276 HD
ENDBRANCH  14  15
ENDBRANCH  13  14
ENDBRANCH   6  13
TORSDOF 6
ENDMDL
MODEL 4
REMARK VINA RESULT: -5.956263039      1.793      6.412
REMARK  6 active torsions:
REMARK  status: ('A' for Active; 'I' for Inactive)
REMARK    1  A    between atoms: C2_2  and  C3_3 
REMARK    2  A    between atoms: C3_3  and  N1_4 
REMARK    3  A    between atoms: N1_4  and  C4_6 
REMARK    4  A    between atoms: N3_11  and  C7_13 
REMARK    5  A    between atoms: C7_13  and  C8_14 
REMARK    6  A    between atoms: C8_14  and  N4_15 
ROOT
HETATM    1  C4  UNL     1      12.512  30.609  35.379  1.00  0.00     0.088 A 
HETATM    2  C5  UNL     1      12.772  31.478  34.425  1.00  0.00     0.122 A 
HETATM    3  N2  UNL     1      12.360  32.604  35.173  1.00  0.00    -0.348 N 
ATOM      4  H2  UNL     1      12.301  33.611  35.022  1.00  0.00     0.167 HD
HETATM    5  C6  UNL     1      12.069  31.704  36.223  1.00  0.00     0.129 A 
HETATM    6  N3  UNL     1      11.605  31.825  37.421  1.00  0.00    -0.373 N 
ATOM      7  H3  UNL     1      11.482  30.996  38.003  1.00  0.00     0.161 HD
ENDROOT
BRANCH   1   8
HETATM    8  N1  UNL     1      12.616  29.177  35.538  1.00  0.00    -0.386 N 
ATOM      9  H1  UNL     1      11.883  28.562  35.184  1.00  0.00     0.159 HD
BRANCH   8  10
HETATM   10  C3  UNL     1      13.782  28.626  36.212  1.00  0.00     0.119 C 
BRANCH  10  11
HETATM   11  C2  UNL     1      14.487  27.659  35.324  1.00  0.00     0.015 C 
HETATM   12  C1  UNL     1      15.392  26.779  36.157  1.00  0.00     0.006 C 
ENDBRANCH  10  11
ENDBRANCH   8  10
ENDBRANCH   1   8
BRANCH   6  13
HETATM   13  C7  UNL     1      11.261  33.115  37.940  1.00  0.00     0.148 C 
BRANCH  13  14
HETATM   14  C8  UNL     1      10.260  33.049  39.077  1.00  0.00     0.251 C 
BRANCH  14  15
HETATM   15  N4  UNL     1      10.943  33.612  40.247  1.00  0.00    -0.077 N 
HETATM   16  C9  UNL     1      10.049  34.406  41.039  1.00  0.00     0.267 C 
ATOM     17  H42 UNL     1      11.392  32.885  40.804  1.00  0.00     0.276 HD
ATOM     18  H41 UNL     1      11.774  34.138  39.978  1.00  0.00     0.276 HD
ENDBRANCH  14  15
ENDBRANCH  13  14
ENDBRANCH   6  13
TORSDOF 6
ENDMDL
MODEL 5
REMARK VINA RESULT: -5.955203968      1.625      6.232
REMARK  6 active torsions:
REMARK  status: ('A' for Active; 'I' for Inactive)
REMARK    1  A    between atoms: C2_2  and  C3_3 
REMARK    2  A    between atoms: C3_3  and  N1_4 
REMARK    3  A    between atoms: N1_4  and  C4_6 
REMARK    4  A    between atoms: N3_11  and  C7_13 
REMARK    5  A    between atoms: C7_13  and  C8_14 
REMARK    6  A    between atoms: C8_14  and  N4_15 
ROOT
HETATM    1  C4  UNL     1      14.179  31.271  35.342  1.00  0.00     0.088 A 
HETATM    2  C5  UNL     1      13.360  31.718  34.412  1.00  0.00     0.122 A 
HETATM    3  N2  UNL     1      12.534  32.428  35.311  1.00  0.00    -0.348 N 
ATOM      4  H2  UNL     1      11.698  33.010  35.247  1.00  0.00     0.167 HD
HETATM    5  C6  UNL     1      13.389  31.969  36.339  1.00  0.00     0.129 A 
HETATM    6  N3  UNL     1      13.433  32.120  37.620  1.00  0.00    -0.373 N 
ATOM      7  H3  UNL     1      14.175  31.673  38.158  1.00  0.00     0.161 HD
ENDROOT
BRANCH   1   8
HETATM    8  N1  UNL     1      15.360  30.440  35.375  1.00  0.00    -0.386 N 
ATOM      9  H1  UNL     1      16.167  30.663  34.794  1.00  0.00     0.159 HD
BRANCH   8  10
HETATM   10  C3  UNL     1      15.379  29.279  36.252  1.00  0.00     0.119 C 
BRANCH  10  11
HETATM   11  C2  UNL     1      14.406  28.253  35.779  1.00  0.00     0.015 C 
HETATM   12  C1  UNL     1      15.084  26.903  35.730  1.00  0.00     0.006 C 
ENDBRANCH  10  11
ENDBRANCH   8  10
ENDBRANCH   1   8
BRANCH   6  13
HETATM   13  C7  UNL     1      12.446  32.913  38.292  1.00  0.00     0.148 C 
BRANCH  13  14
HETATM   14  C8  UNL     1      11.176  32.142  38.598  1.00  0.00     0.251 C 
BRANCH  14  15
HETATM   15  N4  UNL     1      10.488  32.902  39.648  1.00  0.00    -0.077 N 
HETATM   16  C9  UNL     1       9.906  34.103  39.123  1.00  0.00     0.267 C 
ATOM     17  H42 UNL     1       9.796  32.331  40.132  1.00  0.00     0.276 HD
ATOM     18  H41 UNL     1      11.107  33.098  40.434  1.00  0.00     0.276 HD
ENDBRANCH  14  15
ENDBRANCH  13  14
ENDBRANCH   6  13
TORSDOF 6
ENDMDL
