MODEL 1
REMARK VINA RESULT: -7.929974111      0.000      0.000
REMARK  6 active torsions:
REMARK  status: ('A' for Active; 'I' for Inactive)
REMARK    1  A    between atoms: C3_3  and  C4_4 
REMARK    2  A    between atoms: C4_4  and  O2_6 
REMARK    3  A    between atoms: O2_6  and  C5_7 
REMARK    4  A    between atoms: C15_17  and  C16_18 
REMARK    5  A    between atoms: C19_24  and  C20_25 
REMARK    6  A    between atoms: C20_25  and  N2_26 
ROOT
HETATM    1  C1  UNL     1       4.940   3.307  18.467  1.00  0.00     0.011 C 
HETATM    2  C2  UNL     1       6.314   3.002  18.916  1.00  0.00     0.003 C 
HETATM    3  C3  UNL     1       6.439   1.490  19.038  1.00  0.00     0.089 C 
HETATM    4  C13 UNL     1       6.911   1.196  20.435  1.00  0.00     0.015 C 
HETATM    5  C14 UNL     1       6.400   2.412  21.184  1.00  0.00     0.010 C 
HETATM    6  C15 UNL     1       6.770   3.516  20.214  1.00  0.00     0.032 C 
ENDROOT
BRANCH   6   7
HETATM    7  C16 UNL     1       6.305   4.855  20.658  1.00  0.00     0.184 C 
HETATM    8  N1  UNL     1       5.201   4.766  21.599  1.00  0.00    -0.340 N 
HETATM    9  C17 UNL     1       4.641   5.998  22.038  1.00  0.00     0.221 C 
ATOM     10  H1  UNL     1       4.845   3.867  21.927  1.00  0.00     0.164 HD
HETATM   11  O3  UNL     1       3.507   6.071  22.583  1.00  0.00    -0.273 OA
HETATM   12  C18 UNL     1       5.469   7.215  21.818  1.00  0.00     0.129 C 
HETATM   13  C19 UNL     1       6.917   6.780  21.984  1.00  0.00     0.115 C 
HETATM   14  N3  UNL     1       7.313   5.799  21.016  1.00  0.00    -0.395 N 
ATOM     15  H3  UNL     1       8.249   5.778  20.613  1.00  0.00     0.155 HD
BRANCH  13  16
HETATM   16  C20 UNL     1       7.848   7.929  22.113  1.00  0.00     0.297 C 
BRANCH  16  17
HETATM   17  N2  UNL     1       8.654   7.875  23.288  1.00  0.00     0.094 N 
HETATM   18  C21 UNL     1       9.334   9.142  23.526  1.00  0.00     0.298 C 
HETATM   19  C22 UNL     1      10.504   8.858  24.435  1.00  0.00     0.198 C 
HETATM   20  O4  UNL     1      10.136   7.865  25.344  1.00  0.00    -0.388 OA
HETATM   21  C23 UNL     1       8.791   7.998  25.656  1.00  0.00     0.198 C 
HETATM   22  C24 UNL     1       7.957   7.460  24.489  1.00  0.00     0.298 C 
ENDBRANCH  16  17
ENDBRANCH  13  16
ENDBRANCH   6   7
BRANCH   3  23
HETATM   23  C4  UNL     1       7.379   1.011  17.999  1.00  0.00     0.263 C 
HETATM   24  O1  UNL     1       8.517   0.599  18.325  1.00  0.00    -0.265 OA
BRANCH  23  25
HETATM   25  O2  UNL     1       7.059   0.996  16.653  1.00  0.00    -0.316 OA
BRANCH  25  26
HETATM   26  C5  UNL     1       5.786   0.645  16.151  1.00  0.00     0.133 C 
HETATM   27  C6  UNL     1       5.916  -0.740  15.559  1.00  0.00     0.037 C 
HETATM   28  C7  UNL     1       5.002  -0.954  14.382  1.00  0.00    -0.011 C 
HETATM   29  C8  UNL     1       3.686  -0.241  14.724  1.00  0.00     0.014 C 
HETATM   30  C11 UNL     1       5.187   0.075  13.295  1.00  0.00     0.014 C 
HETATM   31  C9  UNL     1       4.339   1.010  14.152  1.00  0.00    -0.041 C 
HETATM   32  C10 UNL     1       3.450   1.942  13.426  1.00  0.00     0.015 C 
HETATM   33  C12 UNL     1       5.274   1.649  15.146  1.00  0.00     0.041 C 
ENDBRANCH  25  26
ENDBRANCH  23  25
ENDBRANCH   3  23
TORSDOF 6
ENDMDL
MODEL 2
REMARK VINA RESULT: -7.890701979      1.554      2.224
REMARK  6 active torsions:
REMARK  status: ('A' for Active; 'I' for Inactive)
REMARK    1  A    between atoms: C3_3  and  C4_4 
REMARK    2  A    between atoms: C4_4  and  O2_6 
REMARK    3  A    between atoms: O2_6  and  C5_7 
REMARK    4  A    between atoms: C15_17  and  C16_18 
REMARK    5  A    between atoms: C19_24  and  C20_25 
REMARK    6  A    between atoms: C20_25  and  N2_26 
ROOT
HETATM    1  C1  UNL     1       4.190   2.789  18.956  1.00  0.00     0.011 C 
HETATM    2  C2  UNL     1       5.649   2.854  18.737  1.00  0.00     0.003 C 
HETATM    3  C3  UNL     1       6.169   1.427  18.642  1.00  0.00     0.089 C 
HETATM    4  C13 UNL     1       7.264   1.286  19.663  1.00  0.00     0.015 C 
HETATM    5  C14 UNL     1       6.865   2.342  20.675  1.00  0.00     0.010 C 
HETATM    6  C15 UNL     1       6.495   3.489  19.756  1.00  0.00     0.032 C 
ENDROOT
BRANCH   6   7
HETATM    7  C16 UNL     1       5.973   4.670  20.488  1.00  0.00     0.184 C 
HETATM    8  N1  UNL     1       5.135   4.290  21.613  1.00  0.00    -0.340 N 
HETATM    9  C17 UNL     1       4.534   5.353  22.343  1.00  0.00     0.221 C 
ATOM     10  H1  UNL     1       4.986   3.313  21.867  1.00  0.00     0.164 HD
HETATM   11  O3  UNL     1       3.556   5.175  23.118  1.00  0.00    -0.273 OA
HETATM   12  C18 UNL     1       5.121   6.706  22.145  1.00  0.00     0.129 C 
HETATM   13  C19 UNL     1       6.613   6.496  21.935  1.00  0.00     0.115 C 
HETATM   14  N3  UNL     1       6.902   5.716  20.768  1.00  0.00    -0.395 N 
ATOM     15  H3  UNL     1       7.715   5.896  20.180  1.00  0.00     0.155 HD
BRANCH  13  16
HETATM   16  C20 UNL     1       7.389   7.756  22.042  1.00  0.00     0.297 C 
BRANCH  16  17
HETATM   17  N2  UNL     1       8.309   7.765  23.132  1.00  0.00     0.094 N 
HETATM   18  C21 UNL     1       9.010   9.039  23.227  1.00  0.00     0.298 C 
HETATM   19  C22 UNL     1      10.265   8.800  24.031  1.00  0.00     0.198 C 
HETATM   20  O4  UNL     1       9.989   7.863  25.027  1.00  0.00    -0.388 OA
HETATM   21  C23 UNL     1       8.681   8.022  25.464  1.00  0.00     0.198 C 
HETATM   22  C24 UNL     1       7.735   7.423  24.418  1.00  0.00     0.298 C 
ENDBRANCH  16  17
ENDBRANCH  13  16
ENDBRANCH   6   7
BRANCH   3  23
HETATM   23  C4  UNL     1       6.637   1.188  17.258  1.00  0.00     0.263 C 
HETATM   24  O1  UNL     1       7.708   0.570  17.056  1.00  0.00    -0.265 OA
BRANCH  23  25
HETATM   25  O2  UNL     1       5.935   1.625  16.148  1.00  0.00    -0.316 OA
BRANCH  25  26
HETATM   26  C5  UNL     1       6.376   2.662  15.296  1.00  0.00     0.133 C 
HETATM   27  C6  UNL     1       5.707   3.932  15.770  1.00  0.00     0.037 C 
HETATM   28  C7  UNL     1       5.425   4.892  14.645  1.00  0.00    -0.011 C 
HETATM   29  C8  UNL     1       6.630   4.808  13.697  1.00  0.00     0.014 C 
HETATM   30  C11 UNL     1       4.608   4.278  13.536  1.00  0.00     0.014 C 
HETATM   31  C9  UNL     1       5.904   3.637  13.049  1.00  0.00    -0.041 C 
HETATM   32  C10 UNL     1       6.059   3.496  11.585  1.00  0.00     0.015 C 
HETATM   33  C12 UNL     1       6.082   2.369  13.845  1.00  0.00     0.041 C 
ENDBRANCH  25  26
ENDBRANCH  23  25
ENDBRANCH   3  23
TORSDOF 6
ENDMDL
MODEL 3
REMARK VINA RESULT: -7.829099711      0.683      1.408
REMARK  6 active torsions:
REMARK  status: ('A' for Active; 'I' for Inactive)
REMARK    1  A    between atoms: C3_3  and  C4_4 
REMARK    2  A    between atoms: C4_4  and  O2_6 
REMARK    3  A    between atoms: O2_6  and  C5_7 
REMARK    4  A    between atoms: C15_17  and  C16_18 
REMARK    5  A    between atoms: C19_24  and  C20_25 
REMARK    6  A    between atoms: C20_25  and  N2_26 
ROOT
HETATM    1  C1  UNL     1       4.691   3.318  18.616  1.00  0.00     0.011 C 
HETATM    2  C2  UNL     1       6.114   3.060  18.915  1.00  0.00     0.003 C 
HETATM    3  C3  UNL     1       6.307   1.552  18.995  1.00  0.00     0.089 C 
HETATM    4  C13 UNL     1       6.933   1.256  20.330  1.00  0.00     0.015 C 
HETATM    5  C14 UNL     1       6.458   2.441  21.150  1.00  0.00     0.010 C 
HETATM    6  C15 UNL     1       6.684   3.573  20.168  1.00  0.00     0.032 C 
ENDROOT
BRANCH   6   7
HETATM    7  C16 UNL     1       6.219   4.885  20.683  1.00  0.00     0.184 C 
HETATM    8  N1  UNL     1       5.172   4.742  21.681  1.00  0.00    -0.340 N 
HETATM    9  C17 UNL     1       4.614   5.947  22.192  1.00  0.00     0.221 C 
ATOM     10  H1  UNL     1       4.853   3.826  21.998  1.00  0.00     0.164 HD
HETATM   11  O3  UNL     1       3.511   5.977  22.802  1.00  0.00    -0.273 OA
HETATM   12  C18 UNL     1       5.404   7.188  21.968  1.00  0.00     0.129 C 
HETATM   13  C19 UNL     1       6.867   6.779  22.037  1.00  0.00     0.115 C 
HETATM   14  N3  UNL     1       7.227   5.839  21.016  1.00  0.00    -0.395 N 
ATOM     15  H3  UNL     1       8.138   5.851  20.560  1.00  0.00     0.155 HD
BRANCH  13  16
HETATM   16  C20 UNL     1       7.781   7.942  22.152  1.00  0.00     0.297 C 
BRANCH  16  17
HETATM   17  N2  UNL     1       8.634   7.882  23.295  1.00  0.00     0.094 N 
HETATM   18  C21 UNL     1       9.292   9.160  23.536  1.00  0.00     0.298 C 
HETATM   19  C22 UNL     1      10.503   8.884  24.393  1.00  0.00     0.198 C 
HETATM   20  O4  UNL     1      10.194   7.862  25.292  1.00  0.00    -0.388 OA
HETATM   21  C23 UNL     1       8.859   7.953  25.658  1.00  0.00     0.198 C 
HETATM   22  C24 UNL     1       7.994   7.421  24.510  1.00  0.00     0.298 C 
ENDBRANCH  16  17
ENDBRANCH  13  16
ENDBRANCH   6   7
BRANCH   3  23
HETATM   23  C4  UNL     1       7.150   1.126  17.856  1.00  0.00     0.263 C 
HETATM   24  O1  UNL     1       8.110   0.342  18.045  1.00  0.00    -0.265 OA
BRANCH  23  25
HETATM   25  O2  UNL     1       6.929   1.560  16.561  1.00  0.00    -0.316 OA
BRANCH  25  26
HETATM   26  C5  UNL     1       5.943   1.018  15.707  1.00  0.00     0.133 C 
HETATM   27  C6  UNL     1       5.160   2.184  15.147  1.00  0.00     0.037 C 
HETATM   28  C7  UNL     1       3.717   1.843  14.888  1.00  0.00    -0.011 C 
HETATM   29  C8  UNL     1       3.706   0.407  14.344  1.00  0.00     0.014 C 
HETATM   30  C11 UNL     1       3.011   1.303  16.107  1.00  0.00     0.014 C 
HETATM   31  C9  UNL     1       3.682  -0.032  15.802  1.00  0.00    -0.041 C 
HETATM   32  C10 UNL     1       2.898  -1.248  16.109  1.00  0.00     0.015 C 
HETATM   33  C12 UNL     1       5.056   0.026  16.420  1.00  0.00     0.041 C 
ENDBRANCH  25  26
ENDBRANCH  23  25
ENDBRANCH   3  23
TORSDOF 6
ENDMDL
MODEL 4
REMARK VINA RESULT: -7.734378941      1.184      1.988
REMARK  6 active torsions:
REMARK  status: ('A' for Active; 'I' for Inactive)
REMARK    1  A    between atoms: C3_3  and  C4_4 
REMARK    2  A    between atoms: C4_4  and  O2_6 
REMARK    3  A    between atoms: O2_6  and  C5_7 
REMARK    4  A    between atoms: C15_17  and  C16_18 
REMARK    5  A    between atoms: C19_24  and  C20_25 
REMARK    6  A    between atoms: C20_25  and  N2_26 
ROOT
HETATM    1  C1  UNL     1       4.335   2.118  18.680  1.00  0.00     0.011 C 
HETATM    2  C2  UNL     1       5.785   2.389  18.604  1.00  0.00     0.003 C 
HETATM    3  C3  UNL     1       6.510   1.051  18.617  1.00  0.00     0.089 C 
HETATM    4  C13 UNL     1       7.503   1.096  19.746  1.00  0.00     0.015 C 
HETATM    5  C14 UNL     1       6.854   2.107  20.672  1.00  0.00     0.010 C 
HETATM    6  C15 UNL     1       6.422   3.165  19.677  1.00  0.00     0.032 C 
ENDROOT
BRANCH   6   7
HETATM    7  C16 UNL     1       5.663   4.275  20.307  1.00  0.00     0.184 C 
HETATM    8  N1  UNL     1       5.071   3.882  21.575  1.00  0.00    -0.340 N 
HETATM    9  C17 UNL     1       4.269   4.858  22.230  1.00  0.00     0.221 C 
ATOM     10  H1  UNL     1       5.222   2.955  21.975  1.00  0.00     0.164 HD
HETATM   11  O3  UNL     1       3.454   4.562  23.145  1.00  0.00    -0.273 OA
HETATM   12  C18 UNL     1       4.439   6.265  21.776  1.00  0.00     0.129 C 
HETATM   13  C19 UNL     1       5.904   6.416  21.399  1.00  0.00     0.115 C 
HETATM   14  N3  UNL     1       6.289   5.557  20.318  1.00  0.00    -0.395 N 
ATOM     15  H3  UNL     1       6.962   5.841  19.608  1.00  0.00     0.155 HD
BRANCH  13  16
HETATM   16  C20 UNL     1       6.308   7.835  21.231  1.00  0.00     0.297 C 
BRANCH  16  17
HETATM   17  N2  UNL     1       7.141   8.315  22.284  1.00  0.00     0.094 N 
HETATM   18  C21 UNL     1       7.219   7.358  23.381  1.00  0.00     0.298 C 
HETATM   19  C22 UNL     1       7.666   8.117  24.606  1.00  0.00     0.198 C 
HETATM   20  O4  UNL     1       8.580   9.097  24.219  1.00  0.00    -0.388 OA
HETATM   21  C23 UNL     1       9.330   8.635  23.148  1.00  0.00     0.198 C 
HETATM   22  C24 UNL     1       8.476   8.706  21.878  1.00  0.00     0.298 C 
ENDBRANCH  16  17
ENDBRANCH  13  16
ENDBRANCH   6   7
BRANCH   3  23
HETATM   23  C4  UNL     1       7.148   0.851  17.296  1.00  0.00     0.263 C 
HETATM   24  O1  UNL     1       8.158   0.116  17.193  1.00  0.00    -0.265 OA
BRANCH  23  25
HETATM   25  O2  UNL     1       6.675   1.449  16.141  1.00  0.00    -0.316 OA
BRANCH  25  26
HETATM   26  C5  UNL     1       5.768   0.833  15.250  1.00  0.00     0.133 C 
HETATM   27  C6  UNL     1       4.614   1.792  15.069  1.00  0.00     0.037 C 
HETATM   28  C7  UNL     1       3.306   1.085  14.836  1.00  0.00    -0.011 C 
HETATM   29  C8  UNL     1       3.622  -0.122  13.942  1.00  0.00     0.014 C 
HETATM   30  C11 UNL     1       2.968   0.094  15.922  1.00  0.00     0.014 C 
HETATM   31  C9  UNL     1       3.938  -0.862  15.235  1.00  0.00    -0.041 C 
HETATM   32  C10 UNL     1       3.585  -2.298  15.274  1.00  0.00     0.015 C 
HETATM   33  C12 UNL     1       5.314  -0.519  15.745  1.00  0.00     0.041 C 
ENDBRANCH  25  26
ENDBRANCH  23  25
ENDBRANCH   3  23
TORSDOF 6
ENDMDL
MODEL 5
REMARK VINA RESULT: -7.708397888      2.429      3.224
REMARK  6 active torsions:
REMARK  status: ('A' for Active; 'I' for Inactive)
REMARK    1  A    between atoms: C3_3  and  C4_4 
REMARK    2  A    between atoms: C4_4  and  O2_6 
REMARK    3  A    between atoms: O2_6  and  C5_7 
REMARK    4  A    between atoms: C15_17  and  C16_18 
REMARK    5  A    between atoms: C19_24  and  C20_25 
REMARK    6  A    between atoms: C20_25  and  N2_26 
ROOT
HETATM    1  C1  UNL     1       4.135   1.512  18.942  1.00  0.00     0.011 C 
HETATM    2  C2  UNL     1       5.448   2.088  18.586  1.00  0.00     0.003 C 
HETATM    3  C3  UNL     1       6.437   0.940  18.443  1.00  0.00     0.089 C 
HETATM    4  C13 UNL     1       7.594   1.236  19.356  1.00  0.00     0.015 C 
HETATM    5  C14 UNL     1       6.931   2.113  20.401  1.00  0.00     0.010 C 
HETATM    6  C15 UNL     1       6.095   3.019  19.520  1.00  0.00     0.032 C 
ENDROOT
BRANCH   6   7
HETATM    7  C16 UNL     1       5.248   3.959  20.298  1.00  0.00     0.184 C 
HETATM    8  N1  UNL     1       4.849   3.403  21.580  1.00  0.00    -0.340 N 
HETATM    9  C17 UNL     1       3.983   4.204  22.376  1.00  0.00     0.221 C 
ATOM     10  H1  UNL     1       5.174   2.488  21.894  1.00  0.00     0.164 HD
HETATM   11  O3  UNL     1       3.316   3.731  23.336  1.00  0.00    -0.273 OA
HETATM   12  C18 UNL     1       3.898   5.645  22.016  1.00  0.00     0.129 C 
HETATM   13  C19 UNL     1       5.280   6.042  21.521  1.00  0.00     0.115 C 
HETATM   14  N3  UNL     1       5.677   5.319  20.349  1.00  0.00    -0.395 N 
ATOM     15  H3  UNL     1       6.227   5.746  19.605  1.00  0.00     0.155 HD
BRANCH  13  16
HETATM   16  C20 UNL     1       5.453   7.513  21.425  1.00  0.00     0.297 C 
BRANCH  16  17
HETATM   17  N2  UNL     1       6.621   7.901  20.705  1.00  0.00     0.094 N 
HETATM   18  C21 UNL     1       6.545   9.291  20.274  1.00  0.00     0.298 C 
HETATM   19  C22 UNL     1       7.523   9.461  19.137  1.00  0.00     0.198 C 
HETATM   20  O4  UNL     1       8.646   8.671  19.389  1.00  0.00    -0.388 OA
HETATM   21  C23 UNL     1       8.883   8.624  20.755  1.00  0.00     0.198 C 
HETATM   22  C24 UNL     1       7.872   7.670  21.400  1.00  0.00     0.298 C 
ENDBRANCH  16  17
ENDBRANCH  13  16
ENDBRANCH   6   7
BRANCH   3  23
HETATM   23  C4  UNL     1       6.835   0.838  17.022  1.00  0.00     0.263 C 
HETATM   24  O1  UNL     1       7.900   0.255  16.709  1.00  0.00    -0.265 OA
BRANCH  23  25
HETATM   25  O2  UNL     1       6.075   1.367  15.994  1.00  0.00    -0.316 OA
BRANCH  25  26
HETATM   26  C5  UNL     1       6.472   2.473  15.210  1.00  0.00     0.133 C 
HETATM   27  C6  UNL     1       5.809   3.693  15.809  1.00  0.00     0.037 C 
HETATM   28  C7  UNL     1       5.474   4.735  14.776  1.00  0.00    -0.011 C 
HETATM   29  C8  UNL     1       6.641   4.743  13.778  1.00  0.00     0.014 C 
HETATM   30  C11 UNL     1       4.620   4.201  13.653  1.00  0.00     0.014 C 
HETATM   31  C9  UNL     1       5.901   3.617  13.068  1.00  0.00    -0.041 C 
HETATM   32  C10 UNL     1       6.000   3.593  11.592  1.00  0.00     0.015 C 
HETATM   33  C12 UNL     1       6.123   2.292  13.752  1.00  0.00     0.041 C 
ENDBRANCH  25  26
ENDBRANCH  23  25
ENDBRANCH   3  23
TORSDOF 6
ENDMDL
