MODEL 1
REMARK VINA RESULT: -7.855288167      0.000      0.000
REMARK  6 active torsions:
REMARK  status: ('A' for Active; 'I' for Inactive)
REMARK    1  A    between atoms: C2_2  and  C3_3 
REMARK    2  A    between atoms: C2_2  and  C10_19 
REMARK    3  A    between atoms: C3_3  and  O2_5 
REMARK    4  A    between atoms: O2_5  and  N1_6 
REMARK    5  A    between atoms: C11_20  and  C12_21 
REMARK       I    between atoms: C12_21  and  N4_23 
REMARK    6  A    between atoms: N4_23  and  C14_25 
ROOT
HETATM    1  C1  UNL     1       3.947   6.147  19.601  1.00  0.00     0.026 C 
HETATM    2  C2  UNL     1       5.038   5.034  19.436  1.00  0.00     0.120 C 
ENDROOT
BRANCH   2   3
HETATM    3  C3  UNL     1       6.062   5.364  20.498  1.00  0.00     0.289 C 
HETATM    4  O1  UNL     1       6.921   4.518  20.793  1.00  0.00    -0.262 OA
BRANCH   3   5
HETATM    5  O2  UNL     1       6.054   6.594  21.135  1.00  0.00    -0.197 OA
BRANCH   5   6
HETATM    6  N1  UNL     1       6.569   6.661  22.400  1.00  0.00    -0.243 N 
HETATM    7  C4  UNL     1       7.525   7.438  22.742  1.00  0.00     0.134 C 
HETATM    8  N2  UNL     1       8.037   7.484  24.067  1.00  0.00    -0.295 N 
HETATM    9  C6  UNL     1       8.300   8.407  21.979  1.00  0.00     0.095 C 
HETATM   10  C5  UNL     1       9.174   8.333  24.118  1.00  0.00     0.322 C 
ATOM     11  H2  UNL     1       7.644   6.983  24.864  1.00  0.00     0.172 HD
HETATM   12  O3  UNL     1       9.872   8.594  25.162  1.00  0.00    -0.247 OA
HETATM   13  N3  UNL     1       9.385   8.830  22.810  1.00  0.00    -0.326 N 
ATOM     14  H3  UNL     1      10.178   9.396  22.510  1.00  0.00     0.165 HD
HETATM   15  C7  UNL     1       8.761   8.016  20.598  1.00  0.00     0.039 C 
HETATM   16  C9  UNL     1       7.508   9.524  21.334  1.00  0.00     0.039 C 
HETATM   17  C8  UNL     1       8.479   9.462  20.170  1.00  0.00     0.006 C 
ATOM     18  H1  UNL     1       6.166   6.055  23.114  1.00  0.00     0.196 HD
ENDBRANCH   5   6
ENDBRANCH   3   5
ENDBRANCH   2   3
BRANCH   2  19
HETATM   19  C10 UNL     1       4.382   3.774  19.867  1.00  0.00     0.013 C 
HETATM   20  C11 UNL     1       4.408   2.645  19.198  1.00  0.00     0.021 C 
HETATM   21  C17 UNL     1       3.732   1.436  19.776  1.00  0.00     0.054 C 
HETATM   22  C18 UNL     1       3.293   1.544  21.190  1.00  0.00    -0.037 C 
HETATM   23  C19 UNL     1       2.243   0.463  21.447  1.00  0.00     0.015 C 
HETATM   24  C20 UNL     1       4.387   1.322  22.207  1.00  0.00     0.015 C 
HETATM   25  C21 UNL     1       2.637   2.860  21.481  1.00  0.00     0.092 C 
HETATM   26  C22 UNL     1       3.643   3.886  21.163  1.00  0.00     0.158 C 
HETATM   27  O5  UNL     1       3.892   4.846  21.946  1.00  0.00    -0.293 OA
BRANCH  20  28
HETATM   28  C12 UNL     1       5.107   2.496  17.923  1.00  0.00     0.250 C 
HETATM   29  O4  UNL     1       4.642   3.229  16.958  1.00  0.00    -0.268 OA
HETATM   30  N4  UNL     1       6.170   1.723  17.539  1.00  0.00    -0.349 N 
HETATM   31  C13 UNL     1       6.635   1.923  16.114  1.00  0.00     0.153 C 
BRANCH  30  32
HETATM   32  C14 UNL     1       6.919   0.727  18.191  1.00  0.00     0.079 C 
HETATM   33  C15 UNL     1       7.699   1.399  19.369  1.00  0.00     0.032 C 
HETATM   34  C16 UNL     1       8.087   0.313  17.242  1.00  0.00     0.032 C 
ENDBRANCH  30  32
ENDBRANCH  20  28
ENDBRANCH   2  19
TORSDOF 6
ENDMDL
MODEL 2
REMARK VINA RESULT: -7.710432118      2.071      3.857
REMARK  6 active torsions:
REMARK  status: ('A' for Active; 'I' for Inactive)
REMARK    1  A    between atoms: C2_2  and  C3_3 
REMARK    2  A    between atoms: C2_2  and  C10_19 
REMARK    3  A    between atoms: C3_3  and  O2_5 
REMARK    4  A    between atoms: O2_5  and  N1_6 
REMARK    5  A    between atoms: C11_20  and  C12_21 
REMARK       I    between atoms: C12_21  and  N4_23 
REMARK    6  A    between atoms: N4_23  and  C14_25 
ROOT
HETATM    1  C1  UNL     1       2.367   5.135  22.234  1.00  0.00     0.026 C 
HETATM    2  C2  UNL     1       3.541   5.933  21.571  1.00  0.00     0.120 C 
ENDROOT
BRANCH   2   3
HETATM    3  C3  UNL     1       4.392   6.373  22.740  1.00  0.00     0.289 C 
HETATM    4  O1  UNL     1       3.875   6.462  23.864  1.00  0.00    -0.262 OA
BRANCH   3   5
HETATM    5  O2  UNL     1       5.734   6.670  22.570  1.00  0.00    -0.197 OA
BRANCH   5   6
HETATM    6  N1  UNL     1       6.497   6.844  23.692  1.00  0.00    -0.243 N 
HETATM    7  C4  UNL     1       7.572   7.537  23.724  1.00  0.00     0.134 C 
HETATM    8  N2  UNL     1       8.342   7.699  24.907  1.00  0.00    -0.295 N 
HETATM    9  C6  UNL     1       8.264   8.290  22.687  1.00  0.00     0.095 C 
HETATM   10  C5  UNL     1       9.541   8.400  24.612  1.00  0.00     0.322 C 
ATOM     11  H2  UNL     1       8.073   7.362  25.831  1.00  0.00     0.172 HD
HETATM   12  O3  UNL     1      10.456   8.712  25.454  1.00  0.00    -0.247 OA
HETATM   13  N3  UNL     1       9.530   8.685  23.226  1.00  0.00    -0.326 N 
ATOM     14  H3  UNL     1      10.296   9.103  22.699  1.00  0.00     0.165 HD
HETATM   15  C7  UNL     1       8.399   7.662  21.324  1.00  0.00     0.039 C 
HETATM   16  C9  UNL     1       7.468   9.399  22.034  1.00  0.00     0.039 C 
HETATM   17  C8  UNL     1       8.174   9.060  20.734  1.00  0.00     0.006 C 
ATOM     18  H1  UNL     1       6.191   6.395  24.554  1.00  0.00     0.196 HD
ENDBRANCH   5   6
ENDBRANCH   3   5
ENDBRANCH   2   3
BRANCH   2  19
HETATM   19  C10 UNL     1       4.339   4.919  20.834  1.00  0.00     0.013 C 
HETATM   20  C11 UNL     1       4.887   5.103  19.656  1.00  0.00     0.021 C 
HETATM   21  C17 UNL     1       5.702   4.000  19.047  1.00  0.00     0.054 C 
HETATM   22  C18 UNL     1       6.035   2.862  19.940  1.00  0.00    -0.037 C 
HETATM   23  C19 UNL     1       6.423   1.669  19.067  1.00  0.00     0.015 C 
HETATM   24  C20 UNL     1       7.204   3.109  20.864  1.00  0.00     0.015 C 
HETATM   25  C21 UNL     1       4.862   2.427  20.767  1.00  0.00     0.092 C 
HETATM   26  C22 UNL     1       4.465   3.610  21.547  1.00  0.00     0.158 C 
HETATM   27  O5  UNL     1       4.231   3.546  22.787  1.00  0.00    -0.293 OA
BRANCH  20  28
HETATM   28  C12 UNL     1       4.777   6.361  18.920  1.00  0.00     0.250 C 
HETATM   29  O4  UNL     1       5.730   7.212  19.149  1.00  0.00    -0.268 OA
HETATM   30  N4  UNL     1       3.852   6.828  18.024  1.00  0.00    -0.349 N 
HETATM   31  C13 UNL     1       4.153   8.186  17.431  1.00  0.00     0.153 C 
BRANCH  30  32
HETATM   32  C14 UNL     1       2.628   6.318  17.553  1.00  0.00     0.079 C 
HETATM   33  C15 UNL     1       2.224   7.130  16.279  1.00  0.00     0.032 C 
HETATM   34  C16 UNL     1       1.516   6.748  18.560  1.00  0.00     0.032 C 
ENDBRANCH  30  32
ENDBRANCH  20  28
ENDBRANCH   2  19
TORSDOF 6
ENDMDL
MODEL 3
REMARK VINA RESULT: -7.417047634      1.119      1.522
REMARK  6 active torsions:
REMARK  status: ('A' for Active; 'I' for Inactive)
REMARK    1  A    between atoms: C2_2  and  C3_3 
REMARK    2  A    between atoms: C2_2  and  C10_19 
REMARK    3  A    between atoms: C3_3  and  O2_5 
REMARK    4  A    between atoms: O2_5  and  N1_6 
REMARK    5  A    between atoms: C11_20  and  C12_21 
REMARK       I    between atoms: C12_21  and  N4_23 
REMARK    6  A    between atoms: N4_23  and  C14_25 
ROOT
HETATM    1  C1  UNL     1       4.627   5.623  19.035  1.00  0.00     0.026 C 
HETATM    2  C2  UNL     1       5.580   4.423  19.361  1.00  0.00     0.120 C 
ENDROOT
BRANCH   2   3
HETATM    3  C3  UNL     1       6.503   4.967  20.428  1.00  0.00     0.289 C 
HETATM    4  O1  UNL     1       7.533   4.337  20.714  1.00  0.00    -0.262 OA
BRANCH   3   5
HETATM    5  O2  UNL     1       6.215   6.155  21.078  1.00  0.00    -0.197 OA
BRANCH   5   6
HETATM    6  N1  UNL     1       6.680   6.314  22.355  1.00  0.00    -0.243 N 
HETATM    7  C4  UNL     1       7.519   7.214  22.703  1.00  0.00     0.134 C 
HETATM    8  N2  UNL     1       7.981   7.353  24.039  1.00  0.00    -0.295 N 
HETATM    9  C6  UNL     1       8.184   8.259  21.937  1.00  0.00     0.095 C 
HETATM   10  C5  UNL     1       8.998   8.342  24.100  1.00  0.00     0.322 C 
ATOM     11  H2  UNL     1       7.634   6.821  24.837  1.00  0.00     0.172 HD
HETATM   12  O3  UNL     1       9.627   8.712  25.154  1.00  0.00    -0.247 OA
HETATM   13  N3  UNL     1       9.181   8.836  22.786  1.00  0.00    -0.326 N 
ATOM     14  H3  UNL     1       9.903   9.493  22.493  1.00  0.00     0.165 HD
HETATM   15  C7  UNL     1       8.731   7.903  20.579  1.00  0.00     0.039 C 
HETATM   16  C9  UNL     1       7.274   9.252  21.246  1.00  0.00     0.039 C 
HETATM   17  C8  UNL     1       8.278   9.292  20.109  1.00  0.00     0.006 C 
ATOM     18  H1  UNL     1       6.338   5.675  23.072  1.00  0.00     0.196 HD
ENDBRANCH   5   6
ENDBRANCH   3   5
ENDBRANCH   2   3
BRANCH   2  19
HETATM   19  C10 UNL     1       4.723   3.410  20.029  1.00  0.00     0.013 C 
HETATM   20  C11 UNL     1       4.950   2.118  20.032  1.00  0.00     0.021 C 
HETATM   21  C17 UNL     1       4.018   1.213  20.784  1.00  0.00     0.054 C 
HETATM   22  C18 UNL     1       3.041   1.879  21.682  1.00  0.00    -0.037 C 
HETATM   23  C19 UNL     1       1.911   0.893  21.972  1.00  0.00     0.015 C 
HETATM   24  C20 UNL     1       3.599   2.291  23.023  1.00  0.00     0.015 C 
HETATM   25  C21 UNL     1       2.411   3.081  21.043  1.00  0.00     0.092 C 
HETATM   26  C22 UNL     1       3.524   3.986  20.712  1.00  0.00     0.158 C 
HETATM   27  O5  UNL     1       3.489   5.219  20.987  1.00  0.00    -0.293 OA
BRANCH  20  28
HETATM   28  C12 UNL     1       6.102   1.514  19.366  1.00  0.00     0.250 C 
HETATM   29  O4  UNL     1       7.130   1.312  20.132  1.00  0.00    -0.268 OA
HETATM   30  N4  UNL     1       6.316   1.115  18.073  1.00  0.00    -0.349 N 
HETATM   31  C13 UNL     1       7.654   0.462  17.810  1.00  0.00     0.153 C 
BRANCH  30  32
HETATM   32  C14 UNL     1       5.553   1.221  16.896  1.00  0.00     0.079 C 
HETATM   33  C15 UNL     1       5.927   0.020  15.966  1.00  0.00     0.032 C 
HETATM   34  C16 UNL     1       6.106   2.430  16.078  1.00  0.00     0.032 C 
ENDBRANCH  30  32
ENDBRANCH  20  28
ENDBRANCH   2  19
TORSDOF 6
ENDMDL
MODEL 4
REMARK VINA RESULT: -7.323535674      2.260      3.188
REMARK  6 active torsions:
REMARK  status: ('A' for Active; 'I' for Inactive)
REMARK    1  A    between atoms: C2_2  and  C3_3 
REMARK    2  A    between atoms: C2_2  and  C10_19 
REMARK    3  A    between atoms: C3_3  and  O2_5 
REMARK    4  A    between atoms: O2_5  and  N1_6 
REMARK    5  A    between atoms: C11_20  and  C12_21 
REMARK       I    between atoms: C12_21  and  N4_23 
REMARK    6  A    between atoms: N4_23  and  C14_25 
ROOT
HETATM    1  C1  UNL     1       4.819   7.111  20.297  1.00  0.00     0.026 C 
HETATM    2  C2  UNL     1       4.771   6.008  21.409  1.00  0.00     0.120 C 
ENDROOT
BRANCH   2   3
HETATM    3  C3  UNL     1       4.805   6.789  22.703  1.00  0.00     0.289 C 
HETATM    4  O1  UNL     1       4.244   6.321  23.706  1.00  0.00    -0.262 OA
BRANCH   3   5
HETATM    5  O2  UNL     1       5.457   8.008  22.779  1.00  0.00    -0.197 OA
BRANCH   5   6
HETATM    6  N1  UNL     1       6.358   8.189  23.792  1.00  0.00    -0.243 N 
HETATM    7  C4  UNL     1       7.601   8.426  23.608  1.00  0.00     0.134 C 
HETATM    8  N2  UNL     1       8.512   8.610  24.683  1.00  0.00    -0.295 N 
HETATM    9  C6  UNL     1       8.384   8.570  22.388  1.00  0.00     0.095 C 
HETATM   10  C5  UNL     1       9.836   8.723  24.182  1.00  0.00     0.322 C 
ATOM     11  H2  UNL     1       8.253   8.654  25.668  1.00  0.00     0.172 HD
HETATM   12  O3  UNL     1      10.894   8.895  24.885  1.00  0.00    -0.247 OA
HETATM   13  N3  UNL     1       9.762   8.609  22.773  1.00  0.00    -0.326 N 
ATOM     14  H3  UNL     1      10.558   8.564  22.138  1.00  0.00     0.165 HD
HETATM   15  C7  UNL     1       8.135   7.595  21.267  1.00  0.00     0.039 C 
HETATM   16  C9  UNL     1       7.947   9.673  21.449  1.00  0.00     0.039 C 
HETATM   17  C8  UNL     1       8.337   8.766  20.297  1.00  0.00     0.006 C 
ATOM     18  H1  UNL     1       6.019   8.130  24.752  1.00  0.00     0.196 HD
ENDBRANCH   5   6
ENDBRANCH   3   5
ENDBRANCH   2   3
BRANCH   2  19
HETATM   19  C10 UNL     1       3.412   5.416  21.316  1.00  0.00     0.013 C 
HETATM   20  C11 UNL     1       3.129   4.148  21.501  1.00  0.00     0.021 C 
HETATM   21  C17 UNL     1       1.701   3.696  21.415  1.00  0.00     0.054 C 
HETATM   22  C18 UNL     1       0.676   4.768  21.370  1.00  0.00    -0.037 C 
HETATM   23  C19 UNL     1      -0.616   4.170  20.815  1.00  0.00     0.015 C 
HETATM   24  C20 UNL     1       0.325   5.360  22.714  1.00  0.00     0.015 C 
HETATM   25  C21 UNL     1       1.064   5.886  20.448  1.00  0.00     0.092 C 
HETATM   26  C22 UNL     1       2.343   6.401  20.963  1.00  0.00     0.158 C 
HETATM   27  O5  UNL     1       2.556   7.638  21.111  1.00  0.00    -0.293 OA
BRANCH  20  28
HETATM   28  C12 UNL     1       4.145   3.151  21.834  1.00  0.00     0.250 C 
HETATM   29  O4  UNL     1       4.047   2.650  23.027  1.00  0.00    -0.268 OA
HETATM   30  N4  UNL     1       5.197   2.634  21.126  1.00  0.00    -0.349 N 
HETATM   31  C13 UNL     1       5.980   1.549  21.829  1.00  0.00     0.153 C 
BRANCH  30  32
HETATM   32  C14 UNL     1       5.746   2.932  19.865  1.00  0.00     0.079 C 
HETATM   33  C15 UNL     1       6.079   1.581  19.150  1.00  0.00     0.032 C 
HETATM   34  C16 UNL     1       7.172   3.522  20.094  1.00  0.00     0.032 C 
ENDBRANCH  30  32
ENDBRANCH  20  28
ENDBRANCH   2  19
TORSDOF 6
ENDMDL
MODEL 5
REMARK VINA RESULT: -7.292909948      2.164      4.397
REMARK  6 active torsions:
REMARK  status: ('A' for Active; 'I' for Inactive)
REMARK    1  A    between atoms: C2_2  and  C3_3 
REMARK    2  A    between atoms: C2_2  and  C10_19 
REMARK    3  A    between atoms: C3_3  and  O2_5 
REMARK    4  A    between atoms: O2_5  and  N1_6 
REMARK    5  A    between atoms: C11_20  and  C12_21 
REMARK       I    between atoms: C12_21  and  N4_23 
REMARK    6  A    between atoms: N4_23  and  C14_25 
ROOT
HETATM    1  C1  UNL     1       6.440   2.138  21.679  1.00  0.00     0.026 C 
HETATM    2  C2  UNL     1       5.193   2.647  20.879  1.00  0.00     0.120 C 
ENDROOT
BRANCH   2   3
HETATM    3  C3  UNL     1       5.507   4.098  20.594  1.00  0.00     0.289 C 
HETATM    4  O1  UNL     1       4.954   4.660  19.636  1.00  0.00    -0.262 OA
BRANCH   3   5
HETATM    5  O2  UNL     1       6.396   4.802  21.389  1.00  0.00    -0.197 OA
BRANCH   5   6
HETATM    6  N1  UNL     1       7.330   5.584  20.766  1.00  0.00    -0.243 N 
HETATM    7  C4  UNL     1       7.472   6.836  20.983  1.00  0.00     0.134 C 
HETATM    8  N2  UNL     1       8.454   7.620  20.319  1.00  0.00    -0.295 N 
HETATM    9  C6  UNL     1       6.764   7.747  21.871  1.00  0.00     0.095 C 
HETATM   10  C5  UNL     1       8.290   8.989  20.657  1.00  0.00     0.322 C 
ATOM     11  H2  UNL     1       9.171   7.253  19.693  1.00  0.00     0.172 HD
HETATM   12  O3  UNL     1       9.010   9.961  20.231  1.00  0.00    -0.247 OA
HETATM   13  N3  UNL     1       7.191   9.073  21.545  1.00  0.00    -0.326 N 
ATOM     14  H3  UNL     1       6.774   9.935  21.895  1.00  0.00     0.165 HD
HETATM   15  C7  UNL     1       5.263   7.637  21.949  1.00  0.00     0.039 C 
HETATM   16  C9  UNL     1       6.807   7.400  23.344  1.00  0.00     0.039 C 
HETATM   17  C8  UNL     1       5.389   7.928  23.450  1.00  0.00     0.006 C 
ATOM     18  H1  UNL     1       7.950   5.141  20.089  1.00  0.00     0.196 HD
ENDBRANCH   5   6
ENDBRANCH   3   5
ENDBRANCH   2   3
BRANCH   2  19
HETATM   19  C10 UNL     1       5.251   1.944  19.572  1.00  0.00     0.013 C 
HETATM   20  C11 UNL     1       4.210   1.488  18.916  1.00  0.00     0.021 C 
HETATM   21  C17 UNL     1       4.414   0.831  17.583  1.00  0.00     0.054 C 
HETATM   22  C18 UNL     1       5.766   0.969  16.985  1.00  0.00    -0.037 C 
HETATM   23  C19 UNL     1       5.931  -0.117  15.923  1.00  0.00     0.015 C 
HETATM   24  C20 UNL     1       6.015   2.285  16.288  1.00  0.00     0.015 C 
HETATM   25  C21 UNL     1       6.856   0.755  17.993  1.00  0.00     0.092 C 
HETATM   26  C22 UNL     1       6.637   1.767  19.038  1.00  0.00     0.158 C 
HETATM   27  O5  UNL     1       7.579   2.479  19.489  1.00  0.00    -0.293 OA
BRANCH  20  28
HETATM   28  C12 UNL     1       2.841   1.628  19.408  1.00  0.00     0.250 C 
HETATM   29  O4  UNL     1       2.120   2.501  18.773  1.00  0.00    -0.268 OA
HETATM   30  N4  UNL     1       2.158   1.013  20.424  1.00  0.00    -0.349 N 
HETATM   31  C13 UNL     1       0.705   1.408  20.559  1.00  0.00     0.153 C 
BRANCH  30  32
HETATM   32  C14 UNL     1       2.539   0.097  21.421  1.00  0.00     0.079 C 
HETATM   33  C15 UNL     1       1.375  -0.933  21.603  1.00  0.00     0.032 C 
HETATM   34  C16 UNL     1       2.508   0.845  22.790  1.00  0.00     0.032 C 
ENDBRANCH  30  32
ENDBRANCH  20  28
ENDBRANCH   2  19
TORSDOF 6
ENDMDL
