MODEL 1
REMARK VINA RESULT: -6.734029771      0.000      0.000
REMARK  7 active torsions:
REMARK  status: ('A' for Active; 'I' for Inactive)
REMARK       I    between atoms: N1_2  and  C3_4 
REMARK    1  A    between atoms: C3_4  and  C4_6 
REMARK    2  A    between atoms: C4_6  and  C5_7 
REMARK    3  A    between atoms: C5_7  and  C6_8 
REMARK    4  A    between atoms: C6_8  and  O3_10 
REMARK    5  A    between atoms: O3_10  and  C7_11 
REMARK    6  A    between atoms: C17_21  and  O4_22 
REMARK    7  A    between atoms: C20_31  and  C21_32 
ROOT
HETATM    1  C7  UNL     1      15.340  -7.384  20.993  1.00  0.00     0.137 C 
HETATM    2  C8  UNL     1      15.990  -8.491  20.123  1.00  0.00     0.038 C 
HETATM    3  C9  UNL     1      14.890  -9.428  19.711  1.00  0.00    -0.004 C 
HETATM    4  C10 UNL     1      14.732 -10.664  20.566  1.00  0.00     0.013 C 
HETATM    5  C11 UNL     1      13.356 -10.707  21.128  1.00  0.00     0.024 C 
HETATM    6  C12 UNL     1      13.113 -10.333  22.522  1.00  0.00     0.015 C 
HETATM    7  C13 UNL     1      12.279  -9.039  22.550  1.00  0.00     0.020 C 
HETATM    8  C14 UNL     1      13.200  -7.815  22.388  1.00  0.00     0.015 C 
HETATM    9  C15 UNL     1      14.271  -8.264  21.545  1.00  0.00     0.023 C 
HETATM   10  C16 UNL     1      13.655  -8.644  20.183  1.00  0.00     0.034 C 
HETATM   11  C17 UNL     1      12.580  -9.637  20.334  1.00  0.00     0.094 C 
HETATM   12  C18 UNL     1      11.488  -9.281  21.304  1.00  0.00     0.098 C 
HETATM   13  N2  UNL     1      10.594 -10.384  21.400  1.00  0.00    -0.352 N 
ATOM     14  H2  UNL     1      10.629 -11.163  22.058  1.00  0.00     0.163 HD
HETATM   15  C19 UNL     1       9.627 -10.151  20.358  1.00  0.00     0.169 C 
HETATM   16  S1  UNL     1       8.542 -11.279  19.899  1.00  0.00    -0.041 SA
HETATM   17  N3  UNL     1       9.807  -8.835  19.857  1.00  0.00    -0.350 N 
ATOM     18  H3  UNL     1       9.444  -8.456  18.982  1.00  0.00     0.163 HD
HETATM   19  C20 UNL     1      10.619  -8.132  20.849  1.00  0.00     0.216 C 
ENDROOT
BRANCH   1  20
HETATM   20  O3  UNL     1      14.782  -6.371  20.225  1.00  0.00    -0.316 OA
BRANCH  20  21
HETATM   21  C6  UNL     1      14.988  -5.015  20.548  1.00  0.00     0.259 C 
HETATM   22  O2  UNL     1      16.074  -4.534  20.182  1.00  0.00    -0.265 OA
BRANCH  21  23
HETATM   23  C5  UNL     1      13.905  -4.352  21.271  1.00  0.00     0.120 C 
BRANCH  23  24
HETATM   24  C4  UNL     1      14.242  -3.810  22.611  1.00  0.00     0.112 C 
BRANCH  24  25
HETATM   25  C3  UNL     1      13.039  -3.794  23.473  1.00  0.00     0.219 C 
HETATM   26  N1  UNL     1      13.174  -3.718  24.901  1.00  0.00    -0.361 N 
HETATM   27  C1  UNL     1      14.506  -3.658  25.468  1.00  0.00     0.152 C 
HETATM   28  C2  UNL     1      12.001  -3.701  25.751  1.00  0.00     0.152 C 
HETATM   29  O1  UNL     1      11.912  -3.848  22.944  1.00  0.00    -0.273 OA
ENDBRANCH  24  25
ENDBRANCH  23  24
ENDBRANCH  21  23
ENDBRANCH  20  21
ENDBRANCH   1  20
BRANCH  11  30
HETATM   30  O4  UNL     1      12.138 -10.104  19.133  1.00  0.00    -0.386 OA
ATOM     31  H4  UNL     1      11.741  -9.421  18.606  1.00  0.00     0.210 HD
ENDBRANCH  11  30
BRANCH  19  32
HETATM   32  C21 UNL     1       9.693  -7.714  21.922  1.00  0.00     0.199 C 
HETATM   33  O5  UNL     1       9.757  -6.541  22.359  1.00  0.00    -0.646 OA
HETATM   34  O6  UNL     1       8.742  -8.534  22.494  1.00  0.00    -0.646 OA
ENDBRANCH  19  32
TORSDOF 7
ENDMDL
MODEL 2
REMARK VINA RESULT: -6.683371476      3.552      5.579
REMARK  7 active torsions:
REMARK  status: ('A' for Active; 'I' for Inactive)
REMARK       I    between atoms: N1_2  and  C3_4 
REMARK    1  A    between atoms: C3_4  and  C4_6 
REMARK    2  A    between atoms: C4_6  and  C5_7 
REMARK    3  A    between atoms: C5_7  and  C6_8 
REMARK    4  A    between atoms: C6_8  and  O3_10 
REMARK    5  A    between atoms: O3_10  and  C7_11 
REMARK    6  A    between atoms: C17_21  and  O4_22 
REMARK    7  A    between atoms: C20_31  and  C21_32 
ROOT
HETATM    1  C7  UNL     1      11.984  -7.532  21.125  1.00  0.00     0.137 C 
HETATM    2  C8  UNL     1      12.981  -7.787  22.285  1.00  0.00     0.038 C 
HETATM    3  C9  UNL     1      14.259  -7.083  21.929  1.00  0.00    -0.004 C 
HETATM    4  C10 UNL     1      15.319  -7.944  21.280  1.00  0.00     0.013 C 
HETATM    5  C11 UNL     1      15.672  -7.380  19.950  1.00  0.00     0.024 C 
HETATM    6  C12 UNL     1      15.151  -7.989  18.726  1.00  0.00     0.015 C 
HETATM    7  C13 UNL     1      14.180  -7.001  18.053  1.00  0.00     0.020 C 
HETATM    8  C14 UNL     1      12.784  -7.116  18.696  1.00  0.00     0.015 C 
HETATM    9  C15 UNL     1      13.033  -7.454  20.069  1.00  0.00     0.023 C 
HETATM   10  C16 UNL     1      13.809  -6.279  20.699  1.00  0.00     0.034 C 
HETATM   11  C17 UNL     1      15.036  -5.976  19.944  1.00  0.00     0.094 C 
HETATM   12  C18 UNL     1      14.858  -5.736  18.470  1.00  0.00     0.098 C 
HETATM   13  N2  UNL     1      16.144  -5.557  17.886  1.00  0.00    -0.352 N 
ATOM     14  H2  UNL     1      16.750  -6.268  17.479  1.00  0.00     0.163 HD
HETATM   15  C19 UNL     1      16.393  -4.142  18.000  1.00  0.00     0.169 C 
HETATM   16  S1  UNL     1      17.855  -3.482  17.702  1.00  0.00    -0.041 SA
HETATM   17  N3  UNL     1      15.191  -3.499  18.394  1.00  0.00    -0.350 N 
ATOM     18  H3  UNL     1      15.095  -2.557  18.773  1.00  0.00     0.163 HD
HETATM   19  C20 UNL     1      14.117  -4.459  18.145  1.00  0.00     0.216 C 
ENDROOT
BRANCH   1  20
HETATM   20  O3  UNL     1      11.333  -6.313  21.248  1.00  0.00    -0.316 OA
BRANCH  20  21
HETATM   21  C6  UNL     1      10.385  -6.095  22.269  1.00  0.00     0.259 C 
HETATM   22  O2  UNL     1       9.469  -6.932  22.339  1.00  0.00    -0.265 OA
BRANCH  21  23
HETATM   23  C5  UNL     1      10.598  -4.918  23.107  1.00  0.00     0.120 C 
BRANCH  23  24
HETATM   24  C4  UNL     1      11.961  -4.328  23.082  1.00  0.00     0.112 C 
BRANCH  24  25
HETATM   25  C3  UNL     1      12.460  -4.136  24.461  1.00  0.00     0.219 C 
HETATM   26  N1  UNL     1      13.813  -3.708  24.687  1.00  0.00    -0.361 N 
HETATM   27  C1  UNL     1      14.665  -3.474  23.539  1.00  0.00     0.152 C 
HETATM   28  C2  UNL     1      14.308  -3.516  26.035  1.00  0.00     0.152 C 
HETATM   29  O1  UNL     1      11.694  -4.349  25.420  1.00  0.00    -0.273 OA
ENDBRANCH  24  25
ENDBRANCH  23  24
ENDBRANCH  21  23
ENDBRANCH  20  21
ENDBRANCH   1  20
BRANCH  11  30
HETATM   30  O4  UNL     1      15.813  -5.053  20.577  1.00  0.00    -0.386 OA
ATOM     31  H4  UNL     1      15.785  -4.205  20.151  1.00  0.00     0.210 HD
ENDBRANCH  11  30
BRANCH  19  32
HETATM   32  C21 UNL     1      13.815  -4.380  16.701  1.00  0.00     0.199 C 
HETATM   33  O5  UNL     1      12.628  -4.212  16.336  1.00  0.00    -0.646 OA
HETATM   34  O6  UNL     1      14.759  -4.477  15.700  1.00  0.00    -0.646 OA
ENDBRANCH  19  32
TORSDOF 7
ENDMDL
MODEL 3
REMARK VINA RESULT: -6.619192384      2.817      3.625
REMARK  7 active torsions:
REMARK  status: ('A' for Active; 'I' for Inactive)
REMARK       I    between atoms: N1_2  and  C3_4 
REMARK    1  A    between atoms: C3_4  and  C4_6 
REMARK    2  A    between atoms: C4_6  and  C5_7 
REMARK    3  A    between atoms: C5_7  and  C6_8 
REMARK    4  A    between atoms: C6_8  and  O3_10 
REMARK    5  A    between atoms: O3_10  and  C7_11 
REMARK    6  A    between atoms: C17_21  and  O4_22 
REMARK    7  A    between atoms: C20_31  and  C21_32 
ROOT
HETATM    1  C7  UNL     1      13.951  -9.423  21.448  1.00  0.00     0.137 C 
HETATM    2  C8  UNL     1      14.676 -10.122  20.269  1.00  0.00     0.038 C 
HETATM    3  C9  UNL     1      14.091 -11.500  20.149  1.00  0.00    -0.004 C 
HETATM    4  C10 UNL     1      14.867 -12.601  20.836  1.00  0.00     0.013 C 
HETATM    5  C11 UNL     1      13.994 -13.276  21.833  1.00  0.00     0.024 C 
HETATM    6  C12 UNL     1      14.135 -12.984  23.259  1.00  0.00     0.015 C 
HETATM    7  C13 UNL     1      12.864 -12.264  23.747  1.00  0.00     0.020 C 
HETATM    8  C14 UNL     1      12.959 -10.758  23.434  1.00  0.00     0.015 C 
HETATM    9  C15 UNL     1      13.718 -10.677  22.219  1.00  0.00     0.023 C 
HETATM   10  C16 UNL     1      12.905 -11.393  21.120  1.00  0.00     0.034 C 
HETATM   11  C17 UNL     1      12.573 -12.774  21.507  1.00  0.00     0.094 C 
HETATM   12  C18 UNL     1      11.888 -12.938  22.835  1.00  0.00     0.098 C 
HETATM   13  N2  UNL     1      11.733 -14.329  23.093  1.00  0.00    -0.352 N 
ATOM     14  H2  UNL     1      12.373 -14.949  23.588  1.00  0.00     0.163 HD
HETATM   15  C19 UNL     1      10.466 -14.663  22.494  1.00  0.00     0.169 C 
HETATM   16  S1  UNL     1       9.965 -16.203  22.300  1.00  0.00    -0.041 SA
HETATM   17  N3  UNL     1       9.800 -13.461  22.138  1.00  0.00    -0.350 N 
ATOM     18  H3  UNL     1       9.008 -13.363  21.503  1.00  0.00     0.163 HD
HETATM   19  C20 UNL     1      10.480 -12.391  22.867  1.00  0.00     0.216 C 
ENDROOT
BRANCH   1  20
HETATM   20  O3  UNL     1      12.741  -8.862  21.063  1.00  0.00    -0.316 OA
BRANCH  20  21
HETATM   21  C6  UNL     1      12.365  -7.574  21.497  1.00  0.00     0.259 C 
HETATM   22  O2  UNL     1      11.473  -7.022  20.831  1.00  0.00    -0.265 OA
BRANCH  21  23
HETATM   23  C5  UNL     1      13.069  -7.057  22.668  1.00  0.00     0.120 C 
BRANCH  23  24
HETATM   24  C4  UNL     1      13.344  -5.598  22.680  1.00  0.00     0.112 C 
BRANCH  24  25
HETATM   25  C3  UNL     1      12.772  -4.980  23.897  1.00  0.00     0.219 C 
HETATM   26  N1  UNL     1      13.551  -4.052  24.670  1.00  0.00    -0.361 N 
HETATM   27  C1  UNL     1      14.895  -3.742  24.230  1.00  0.00     0.152 C 
HETATM   28  C2  UNL     1      12.997  -3.442  25.862  1.00  0.00     0.152 C 
HETATM   29  O1  UNL     1      11.612  -5.275  24.240  1.00  0.00    -0.273 OA
ENDBRANCH  24  25
ENDBRANCH  23  24
ENDBRANCH  21  23
ENDBRANCH  20  21
ENDBRANCH   1  20
BRANCH  11  30
HETATM   30  O4  UNL     1      12.000 -13.469  20.486  1.00  0.00    -0.386 OA
ATOM     31  H4  UNL     1      12.463 -13.352  19.665  1.00  0.00     0.210 HD
ENDBRANCH  11  30
BRANCH  19  32
HETATM   32  C21 UNL     1       9.937 -12.414  24.241  1.00  0.00     0.199 C 
HETATM   33  O5  UNL     1       8.915 -11.737  24.502  1.00  0.00    -0.646 OA
HETATM   34  O6  UNL     1      10.478 -13.140  25.282  1.00  0.00    -0.646 OA
ENDBRANCH  19  32
TORSDOF 7
ENDMDL
MODEL 4
REMARK VINA RESULT: -6.570887878      4.514      6.689
REMARK  7 active torsions:
REMARK  status: ('A' for Active; 'I' for Inactive)
REMARK       I    between atoms: N1_2  and  C3_4 
REMARK    1  A    between atoms: C3_4  and  C4_6 
REMARK    2  A    between atoms: C4_6  and  C5_7 
REMARK    3  A    between atoms: C5_7  and  C6_8 
REMARK    4  A    between atoms: C6_8  and  O3_10 
REMARK    5  A    between atoms: O3_10  and  C7_11 
REMARK    6  A    between atoms: C17_21  and  O4_22 
REMARK    7  A    between atoms: C20_31  and  C21_32 
ROOT
HETATM    1  C7  UNL     1      13.839  -7.255  19.314  1.00  0.00     0.137 C 
HETATM    2  C8  UNL     1      14.206  -8.446  18.391  1.00  0.00     0.038 C 
HETATM    3  C9  UNL     1      15.242  -7.949  17.424  1.00  0.00    -0.004 C 
HETATM    4  C10 UNL     1      14.718  -7.506  16.077  1.00  0.00     0.013 C 
HETATM    5  C11 UNL     1      15.091  -6.086  15.840  1.00  0.00     0.024 C 
HETATM    6  C12 UNL     1      14.101  -5.022  16.007  1.00  0.00     0.015 C 
HETATM    7  C13 UNL     1      14.508  -4.148  17.208  1.00  0.00     0.020 C 
HETATM    8  C14 UNL     1      14.022  -4.796  18.519  1.00  0.00     0.015 C 
HETATM    9  C15 UNL     1      14.082  -6.210  18.279  1.00  0.00     0.023 C 
HETATM   10  C16 UNL     1      15.560  -6.572  18.028  1.00  0.00     0.034 C 
HETATM   11  C17 UNL     1      16.133  -5.773  16.933  1.00  0.00     0.094 C 
HETATM   12  C18 UNL     1      15.990  -4.282  17.063  1.00  0.00     0.098 C 
HETATM   13  N2  UNL     1      16.505  -3.676  15.882  1.00  0.00    -0.352 N 
ATOM     14  H2  UNL     1      15.999  -3.435  15.030  1.00  0.00     0.163 HD
HETATM   15  C19 UNL     1      17.905  -3.481  16.164  1.00  0.00     0.169 C 
HETATM   16  S1  UNL     1      18.980  -3.050  15.016  1.00  0.00    -0.041 SA
HETATM   17  N3  UNL     1      18.128  -3.722  17.545  1.00  0.00    -0.350 N 
ATOM     18  H3  UNL     1      19.025  -3.887  18.002  1.00  0.00     0.163 HD
HETATM   19  C20 UNL     1      16.812  -3.685  18.181  1.00  0.00     0.216 C 
ENDROOT
BRANCH   1  20
HETATM   20  O3  UNL     1      14.733  -7.109  20.365  1.00  0.00    -0.316 OA
BRANCH  20  21
HETATM   21  C6  UNL     1      14.309  -6.623  21.619  1.00  0.00     0.259 C 
HETATM   22  O2  UNL     1      13.510  -7.350  22.235  1.00  0.00    -0.265 OA
BRANCH  21  23
HETATM   23  C5  UNL     1      14.859  -5.334  22.031  1.00  0.00     0.120 C 
BRANCH  23  24
HETATM   24  C4  UNL     1      13.875  -4.270  22.355  1.00  0.00     0.112 C 
BRANCH  24  25
HETATM   25  C3  UNL     1      14.124  -3.740  23.714  1.00  0.00     0.219 C 
HETATM   26  N1  UNL     1      13.138  -3.906  24.746  1.00  0.00    -0.361 N 
HETATM   27  C1  UNL     1      11.908  -4.599  24.423  1.00  0.00     0.152 C 
HETATM   28  C2  UNL     1      13.376  -3.391  26.078  1.00  0.00     0.152 C 
HETATM   29  O1  UNL     1      15.195  -3.150  23.948  1.00  0.00    -0.273 OA
ENDBRANCH  24  25
ENDBRANCH  23  24
ENDBRANCH  21  23
ENDBRANCH  20  21
ENDBRANCH   1  20
BRANCH  11  30
HETATM   30  O4  UNL     1      17.383  -6.192  16.591  1.00  0.00    -0.386 OA
ATOM     31  H4  UNL     1      17.436  -7.137  16.505  1.00  0.00     0.210 HD
ENDBRANCH  11  30
BRANCH  19  32
HETATM   32  C21 UNL     1      16.484  -2.257  18.372  1.00  0.00     0.199 C 
HETATM   33  O5  UNL     1      17.130  -1.591  19.214  1.00  0.00    -0.646 OA
HETATM   34  O6  UNL     1      15.498  -1.584  17.679  1.00  0.00    -0.646 OA
ENDBRANCH  19  32
TORSDOF 7
ENDMDL
MODEL 5
REMARK VINA RESULT: -6.543280709      2.374      4.879
REMARK  7 active torsions:
REMARK  status: ('A' for Active; 'I' for Inactive)
REMARK       I    between atoms: N1_2  and  C3_4 
REMARK    1  A    between atoms: C3_4  and  C4_6 
REMARK    2  A    between atoms: C4_6  and  C5_7 
REMARK    3  A    between atoms: C5_7  and  C6_8 
REMARK    4  A    between atoms: C6_8  and  O3_10 
REMARK    5  A    between atoms: O3_10  and  C7_11 
REMARK    6  A    between atoms: C17_21  and  O4_22 
REMARK    7  A    between atoms: C20_31  and  C21_32 
ROOT
HETATM    1  C7  UNL     1      14.195  -3.699  21.582  1.00  0.00     0.137 C 
HETATM    2  C8  UNL     1      14.390  -3.753  23.120  1.00  0.00     0.038 C 
HETATM    3  C9  UNL     1      13.705  -4.999  23.605  1.00  0.00    -0.004 C 
HETATM    4  C10 UNL     1      12.300  -4.808  24.130  1.00  0.00     0.013 C 
HETATM    5  C11 UNL     1      11.359  -5.654  23.350  1.00  0.00     0.024 C 
HETATM    6  C12 UNL     1      10.508  -5.061  22.319  1.00  0.00     0.015 C 
HETATM    7  C13 UNL     1      10.949  -5.594  20.943  1.00  0.00     0.020 C 
HETATM    8  C14 UNL     1      12.145  -4.774  20.420  1.00  0.00     0.015 C 
HETATM    9  C15 UNL     1      12.875  -4.390  21.595  1.00  0.00     0.023 C 
HETATM   10  C16 UNL     1      13.376  -5.683  22.269  1.00  0.00     0.034 C 
HETATM   11  C17 UNL     1      12.268  -6.610  22.552  1.00  0.00     0.094 C 
HETATM   12  C18 UNL     1      11.385  -6.954  21.384  1.00  0.00     0.098 C 
HETATM   13  N2  UNL     1      10.319  -7.772  21.853  1.00  0.00    -0.352 N 
ATOM     14  H2  UNL     1       9.402  -7.475  22.184  1.00  0.00     0.163 HD
HETATM   15  C19 UNL     1      10.831  -9.116  21.754  1.00  0.00     0.169 C 
HETATM   16  S1  UNL     1      10.069 -10.396  22.418  1.00  0.00    -0.041 SA
HETATM   17  N3  UNL     1      12.041  -9.088  21.012  1.00  0.00    -0.350 N 
ATOM     18  H3  UNL     1      12.748  -9.821  20.965  1.00  0.00     0.163 HD
HETATM   19  C20 UNL     1      12.069  -7.795  20.331  1.00  0.00     0.216 C 
ENDROOT
BRANCH   1  20
HETATM   20  O3  UNL     1      15.134  -4.464  20.905  1.00  0.00    -0.316 OA
BRANCH  20  21
HETATM   21  C6  UNL     1      15.673  -4.035  19.675  1.00  0.00     0.259 C 
HETATM   22  O2  UNL     1      15.969  -2.830  19.609  1.00  0.00    -0.265 OA
BRANCH  21  23
HETATM   23  C5  UNL     1      15.812  -5.056  18.640  1.00  0.00     0.120 C 
BRANCH  23  24
HETATM   24  C4  UNL     1      15.038  -6.308  18.840  1.00  0.00     0.112 C 
BRANCH  24  25
HETATM   25  C3  UNL     1      15.898  -7.486  18.591  1.00  0.00     0.219 C 
HETATM   26  N1  UNL     1      16.285  -8.340  19.680  1.00  0.00    -0.361 N 
HETATM   27  C1  UNL     1      15.816  -8.019  21.012  1.00  0.00     0.152 C 
HETATM   28  C2  UNL     1      17.126  -9.496  19.444  1.00  0.00     0.152 C 
HETATM   29  O1  UNL     1      16.280  -7.725  17.431  1.00  0.00    -0.273 OA
ENDBRANCH  24  25
ENDBRANCH  23  24
ENDBRANCH  21  23
ENDBRANCH  20  21
ENDBRANCH   1  20
BRANCH  11  30
HETATM   30  O4  UNL     1      12.670  -7.680  23.291  1.00  0.00    -0.386 OA
ATOM     31  H4  UNL     1      12.279  -8.493  22.992  1.00  0.00     0.210 HD
ENDBRANCH  11  30
BRANCH  19  32
HETATM   32  C21 UNL     1      11.212  -7.938  19.135  1.00  0.00     0.199 C 
HETATM   33  O5  UNL     1      11.666  -7.599  18.017  1.00  0.00    -0.646 OA
HETATM   34  O6  UNL     1       9.922  -8.427  19.153  1.00  0.00    -0.646 OA
ENDBRANCH  19  32
TORSDOF 7
ENDMDL
