MODEL 1
REMARK VINA RESULT: -6.985810030      0.000      0.000
REMARK  3 active torsions:
REMARK  status: ('A' for Active; 'I' for Inactive)
REMARK    1  A    between atoms: C1_2  and  C2_3 
REMARK       I    between atoms: C1_2  and  N2_10 
REMARK    2  A    between atoms: C2_3  and  N1_4 
REMARK    3  A    between atoms: N2_10  and  C7_12 
ROOT
HETATM    1  O1  UNL     1      37.669  59.634  86.187  1.00  0.00    -0.272 OA
HETATM    2  C1  UNL     1      38.069  58.809  85.348  1.00  0.00     0.235 C 
HETATM    3  N2  UNL     1      37.642  58.872  84.008  1.00  0.00    -0.355 N 
ATOM      4  H2  UNL     1      38.036  58.145  83.411  1.00  0.00     0.162 HD
ENDROOT
BRANCH   3   5
HETATM    5  C7  UNL     1      36.772  59.751  83.345  1.00  0.00     0.089 C 
HETATM    6  C8  UNL     1      35.313  59.402  83.301  1.00  0.00     0.030 C 
HETATM    7  C9  UNL     1      34.581  60.544  82.621  1.00  0.00    -0.012 C 
HETATM    8  C10 UNL     1      34.260  60.276  81.170  1.00  0.00     0.009 C 
HETATM    9  C14 UNL     1      35.388  61.820  82.668  1.00  0.00     0.010 C 
HETATM   10  C11 UNL     1      35.469  60.384  80.268  1.00  0.00    -0.013 C 
HETATM   11  C12 UNL     1      36.149  61.722  80.382  1.00  0.00     0.010 C 
HETATM   12  C16 UNL     1      36.536  59.455  80.842  1.00  0.00     0.011 C 
HETATM   13  C13 UNL     1      36.636  61.663  81.819  1.00  0.00    -0.008 C 
HETATM   14  C15 UNL     1      37.155  60.225  81.971  1.00  0.00     0.013 C 
ENDBRANCH   3   5
BRANCH   2  15
HETATM   15  C2  UNL     1      39.018  57.762  85.839  1.00  0.00     0.219 C 
BRANCH  15  16
HETATM   16  N1  UNL     1      38.395  56.525  86.110  1.00  0.00    -0.400 N 
HETATM   17  C3  UNL     1      38.447  56.023  87.428  1.00  0.00     0.143 C 
HETATM   18  C4  UNL     1      38.399  54.514  87.445  1.00  0.00     0.187 C 
HETATM   19  O2  UNL     1      37.408  53.994  86.647  1.00  0.00    -0.388 OA
HETATM   20  C5  UNL     1      37.353  54.488  85.374  1.00  0.00     0.187 C 
HETATM   21  C6  UNL     1      38.366  55.560  85.070  1.00  0.00     0.143 C 
ENDBRANCH  15  16
ENDBRANCH   2  15
TORSDOF 3
ENDMDL
MODEL 2
REMARK VINA RESULT: -6.884960495      1.586      2.076
REMARK  3 active torsions:
REMARK  status: ('A' for Active; 'I' for Inactive)
REMARK    1  A    between atoms: C1_2  and  C2_3 
REMARK       I    between atoms: C1_2  and  N2_10 
REMARK    2  A    between atoms: C2_3  and  N1_4 
REMARK    3  A    between atoms: N2_10  and  C7_12 
ROOT
HETATM    1  O1  UNL     1      36.915  59.848  84.654  1.00  0.00    -0.272 OA
HETATM    2  C1  UNL     1      37.821  59.075  84.298  1.00  0.00     0.235 C 
HETATM    3  N2  UNL     1      38.083  58.843  82.935  1.00  0.00    -0.355 N 
ATOM      4  H2  UNL     1      38.849  58.192  82.763  1.00  0.00     0.162 HD
ENDROOT
BRANCH   3   5
HETATM    5  C7  UNL     1      37.481  59.343  81.769  1.00  0.00     0.089 C 
HETATM    6  C8  UNL     1      36.404  58.522  81.123  1.00  0.00     0.030 C 
HETATM    7  C9  UNL     1      35.854  59.315  79.952  1.00  0.00    -0.012 C 
HETATM    8  C10 UNL     1      36.407  58.878  78.616  1.00  0.00     0.009 C 
HETATM    9  C14 UNL     1      36.154  60.788  80.095  1.00  0.00     0.010 C 
HETATM   10  C11 UNL     1      37.829  59.338  78.387  1.00  0.00    -0.013 C 
HETATM   11  C12 UNL     1      37.975  60.831  78.514  1.00  0.00     0.010 C 
HETATM   12  C16 UNL     1      38.651  58.853  79.578  1.00  0.00     0.011 C 
HETATM   13  C13 UNL     1      37.651  61.015  79.986  1.00  0.00    -0.008 C 
HETATM   14  C15 UNL     1      38.375  59.845  80.670  1.00  0.00     0.013 C 
ENDBRANCH   3   5
BRANCH   2  15
HETATM   15  C2  UNL     1      38.606  58.418  85.389  1.00  0.00     0.219 C 
BRANCH  15  16
HETATM   16  N1  UNL     1      37.981  57.266  85.912  1.00  0.00    -0.400 N 
HETATM   17  C3  UNL     1      38.431  56.762  87.150  1.00  0.00     0.143 C 
HETATM   18  C4  UNL     1      38.220  55.270  87.248  1.00  0.00     0.187 C 
HETATM   19  O2  UNL     1      36.962  54.873  86.865  1.00  0.00    -0.388 OA
HETATM   20  C5  UNL     1      36.523  55.369  85.670  1.00  0.00     0.187 C 
HETATM   21  C6  UNL     1      37.482  56.310  84.988  1.00  0.00     0.143 C 
ENDBRANCH  15  16
ENDBRANCH   2  15
TORSDOF 3
ENDMDL
MODEL 3
REMARK VINA RESULT: -6.845238500      1.360      2.080
REMARK  3 active torsions:
REMARK  status: ('A' for Active; 'I' for Inactive)
REMARK    1  A    between atoms: C1_2  and  C2_3 
REMARK       I    between atoms: C1_2  and  N2_10 
REMARK    2  A    between atoms: C2_3  and  N1_4 
REMARK    3  A    between atoms: N2_10  and  C7_12 
ROOT
HETATM    1  O1  UNL     1      37.485  59.709  86.035  1.00  0.00    -0.272 OA
HETATM    2  C1  UNL     1      37.796  58.717  85.354  1.00  0.00     0.235 C 
HETATM    3  N2  UNL     1      36.956  58.251  84.325  1.00  0.00    -0.355 N 
ATOM      4  H2  UNL     1      37.315  57.431  83.834  1.00  0.00     0.162 HD
ENDROOT
BRANCH   3   5
HETATM    5  C7  UNL     1      35.716  58.707  83.851  1.00  0.00     0.089 C 
HETATM    6  C8  UNL     1      34.485  57.944  84.245  1.00  0.00     0.030 C 
HETATM    7  C9  UNL     1      33.282  58.686  83.694  1.00  0.00    -0.012 C 
HETATM    8  C10 UNL     1      32.737  58.087  82.419  1.00  0.00     0.009 C 
HETATM    9  C14 UNL     1      33.612  60.130  83.399  1.00  0.00     0.010 C 
HETATM   10  C11 UNL     1      33.597  58.385  81.212  1.00  0.00    -0.013 C 
HETATM   11  C12 UNL     1      33.807  59.862  81.010  1.00  0.00     0.010 C 
HETATM   12  C16 UNL     1      35.013  57.924  81.549  1.00  0.00     0.011 C 
HETATM   13  C13 UNL     1      34.608  60.199  82.255  1.00  0.00    -0.008 C 
HETATM   14  C15 UNL     1      35.590  59.026  82.388  1.00  0.00     0.013 C 
ENDBRANCH   3   5
BRANCH   2  15
HETATM   15  C2  UNL     1      39.096  58.058  85.689  1.00  0.00     0.219 C 
BRANCH  15  16
HETATM   16  N1  UNL     1      38.966  56.686  85.994  1.00  0.00    -0.400 N 
HETATM   17  C3  UNL     1      38.792  55.776  84.929  1.00  0.00     0.143 C 
HETATM   18  C4  UNL     1      38.009  54.561  85.366  1.00  0.00     0.187 C 
HETATM   19  O2  UNL     1      38.461  54.019  86.545  1.00  0.00    -0.388 OA
HETATM   20  C5  UNL     1      38.639  54.903  87.573  1.00  0.00     0.187 C 
HETATM   21  C6  UNL     1      38.350  56.339  87.224  1.00  0.00     0.143 C 
ENDBRANCH  15  16
ENDBRANCH   2  15
TORSDOF 3
ENDMDL
MODEL 4
REMARK VINA RESULT: -6.729103483      2.271      3.397
REMARK  3 active torsions:
REMARK  status: ('A' for Active; 'I' for Inactive)
REMARK    1  A    between atoms: C1_2  and  C2_3 
REMARK       I    between atoms: C1_2  and  N2_10 
REMARK    2  A    between atoms: C2_3  and  N1_4 
REMARK    3  A    between atoms: N2_10  and  C7_12 
ROOT
HETATM    1  O1  UNL     1      36.382  60.621  83.560  1.00  0.00    -0.272 OA
HETATM    2  C1  UNL     1      36.302  59.385  83.663  1.00  0.00     0.235 C 
HETATM    3  N2  UNL     1      36.541  58.548  82.557  1.00  0.00    -0.355 N 
ATOM      4  H2  UNL     1      36.448  57.553  82.760  1.00  0.00     0.162 HD
ENDROOT
BRANCH   3   5
HETATM    5  C7  UNL     1      36.885  58.832  81.227  1.00  0.00     0.089 C 
HETATM    6  C8  UNL     1      35.816  58.711  80.180  1.00  0.00     0.030 C 
HETATM    7  C9  UNL     1      36.407  59.160  78.856  1.00  0.00    -0.012 C 
HETATM    8  C10 UNL     1      36.826  58.016  77.964  1.00  0.00     0.009 C 
HETATM    9  C14 UNL     1      37.625  60.029  79.064  1.00  0.00     0.010 C 
HETATM   10  C11 UNL     1      38.104  57.348  78.420  1.00  0.00    -0.013 C 
HETATM   11  C12 UNL     1      39.246  58.321  78.540  1.00  0.00     0.010 C 
HETATM   12  C16 UNL     1      37.898  56.945  79.878  1.00  0.00     0.011 C 
HETATM   13  C13 UNL     1      38.742  59.200  79.671  1.00  0.00    -0.008 C 
HETATM   14  C15 UNL     1      38.128  58.202  80.665  1.00  0.00     0.013 C 
ENDBRANCH   3   5
BRANCH   2  15
HETATM   15  C2  UNL     1      35.941  58.849  85.012  1.00  0.00     0.219 C 
BRANCH  15  16
HETATM   16  N1  UNL     1      36.985  58.123  85.624  1.00  0.00    -0.400 N 
HETATM   17  C3  UNL     1      38.259  58.725  85.711  1.00  0.00     0.143 C 
HETATM   18  C4  UNL     1      39.358  57.689  85.715  1.00  0.00     0.187 C 
HETATM   19  O2  UNL     1      39.127  56.655  86.589  1.00  0.00    -0.388 OA
HETATM   20  C5  UNL     1      37.889  56.080  86.511  1.00  0.00     0.187 C 
HETATM   21  C6  UNL     1      36.965  56.709  85.502  1.00  0.00     0.143 C 
ENDBRANCH  15  16
ENDBRANCH   2  15
TORSDOF 3
ENDMDL
MODEL 5
REMARK VINA RESULT: -6.694579504      1.494      2.211
REMARK  3 active torsions:
REMARK  status: ('A' for Active; 'I' for Inactive)
REMARK    1  A    between atoms: C1_2  and  C2_3 
REMARK       I    between atoms: C1_2  and  N2_10 
REMARK    2  A    between atoms: C2_3  and  N1_4 
REMARK    3  A    between atoms: N2_10  and  C7_12 
ROOT
HETATM    1  O1  UNL     1      36.645  58.931  84.688  1.00  0.00    -0.272 OA
HETATM    2  C1  UNL     1      37.835  58.831  84.343  1.00  0.00     0.235 C 
HETATM    3  N2  UNL     1      38.229  59.090  83.017  1.00  0.00    -0.355 N 
ATOM      4  H2  UNL     1      39.229  58.978  82.850  1.00  0.00     0.162 HD
ENDROOT
BRANCH   3   5
HETATM    5  C7  UNL     1      37.498  59.475  81.882  1.00  0.00     0.089 C 
HETATM    6  C8  UNL     1      36.525  58.491  81.302  1.00  0.00     0.030 C 
HETATM    7  C9  UNL     1      35.800  59.173  80.156  1.00  0.00    -0.012 C 
HETATM    8  C10 UNL     1      36.341  58.804  78.796  1.00  0.00     0.009 C 
HETATM    9  C14 UNL     1      35.879  60.677  80.272  1.00  0.00     0.010 C 
HETATM   10  C11 UNL     1      37.663  59.470  78.485  1.00  0.00    -0.013 C 
HETATM   11  C12 UNL     1      37.587  60.969  78.594  1.00  0.00     0.010 C 
HETATM   12  C16 UNL     1      38.610  59.133  79.634  1.00  0.00     0.011 C 
HETATM   13  C13 UNL     1      37.317  61.125  80.079  1.00  0.00    -0.008 C 
HETATM   14  C15 UNL     1      38.245  60.089  80.731  1.00  0.00     0.013 C 
ENDBRANCH   3   5
BRANCH   2  15
HETATM   15  C2  UNL     1      38.807  58.426  85.404  1.00  0.00     0.219 C 
BRANCH  15  16
HETATM   16  N1  UNL     1      38.750  57.052  85.720  1.00  0.00    -0.400 N 
HETATM   17  C3  UNL     1      38.569  56.128  84.669  1.00  0.00     0.143 C 
HETATM   18  C4  UNL     1      37.859  54.884  85.145  1.00  0.00     0.187 C 
HETATM   19  O2  UNL     1      38.384  54.369  86.306  1.00  0.00    -0.388 OA
HETATM   20  C5  UNL     1      38.569  55.266  87.320  1.00  0.00     0.187 C 
HETATM   21  C6  UNL     1      38.203  56.687  86.978  1.00  0.00     0.143 C 
ENDBRANCH  15  16
ENDBRANCH   2  15
TORSDOF 3
ENDMDL
