MODEL 1
REMARK VINA RESULT: -6.037455722      0.000      0.000
REMARK  6 active torsions:
REMARK  status: ('A' for Active; 'I' for Inactive)
REMARK    1  A    between atoms: C5_9  and  C6_10 
REMARK    2  A    between atoms: C6_10  and  N2_11 
REMARK    3  A    between atoms: N2_11  and  C7_14 
REMARK    4  A    between atoms: C7_14  and  C8_15 
REMARK    5  A    between atoms: C8_15  and  N3_16 
REMARK    6  A    between atoms: N3_16  and  S1_18 
ROOT
HETATM    1  O1  UNL     1      -7.000 -19.550  15.581  1.00  0.00    -0.267 OA
HETATM    2  C1  UNL     1      -7.307 -20.247  16.594  1.00  0.00     0.260 A 
HETATM    3  N1  UNL     1      -6.459 -20.613  17.671  1.00  0.00    -0.289 N 
ATOM      4  H1  UNL     1      -5.477 -20.357  17.771  1.00  0.00     0.172 HD
HETATM    5  C2  UNL     1      -7.214 -21.397  18.585  1.00  0.00     0.259 A 
HETATM    6  O2  UNL     1      -6.869 -21.925  19.663  1.00  0.00    -0.267 OA
HETATM    7  C3  UNL     1      -8.583 -21.517  18.044  1.00  0.00     0.051 A 
HETATM    8  C4  UNL     1      -9.709 -22.163  18.525  1.00  0.00     0.044 A 
HETATM    9  C5  UNL     1     -10.901 -22.134  17.830  1.00  0.00     0.035 A 
HETATM   10  N4  UNL     1     -10.909 -21.451  16.671  1.00  0.00    -0.367 N 
ATOM     11  H4  UNL     1     -11.779 -21.415  16.139  1.00  0.00     0.165 HD
HETATM   12  C9  UNL     1      -9.836 -20.811  16.174  1.00  0.00     0.106 A 
HETATM   13  C10 UNL     1      -8.622 -20.823  16.852  1.00  0.00     0.063 A 
ENDROOT
BRANCH   9  14
HETATM   14  C6  UNL     1     -12.126 -22.829  18.338  1.00  0.00     0.289 C 
BRANCH  14  15
HETATM   15  N2  UNL     1     -13.297 -21.962  18.202  1.00  0.00    -0.068 N 
ATOM     16  H22 UNL     1     -13.602 -21.544  19.081  1.00  0.00     0.277 HD
ATOM     17  H21 UNL     1     -13.105 -21.087  17.713  1.00  0.00     0.277 HD
BRANCH  15  18
HETATM   18  C7  UNL     1     -14.322 -22.789  17.553  1.00  0.00     0.253 C 
BRANCH  18  19
HETATM   19  C8  UNL     1     -14.936 -21.988  16.414  1.00  0.00     0.162 C 
BRANCH  19  20
HETATM   20  N3  UNL     1     -14.921 -22.857  15.251  1.00  0.00    -0.299 N 
ATOM     21  H3  UNL     1     -15.638 -23.535  14.997  1.00  0.00     0.174 HD
BRANCH  20  22
HETATM   22  S1  UNL     1     -13.468 -22.531  14.377  1.00  0.00     0.204 S 
HETATM   23  O3  UNL     1     -13.063 -21.109  14.669  1.00  0.00    -0.578 OA
HETATM   24  O4  UNL     1     -13.733 -22.711  12.908  1.00  0.00    -0.578 OA
HETATM   25  O5  UNL     1     -12.250 -23.562  14.907  1.00  0.00    -0.578 OA
ENDBRANCH  20  22
ENDBRANCH  19  20
ENDBRANCH  18  19
ENDBRANCH  15  18
ENDBRANCH  14  15
ENDBRANCH   9  14
TORSDOF 6
ENDMDL
MODEL 2
REMARK VINA RESULT: -5.899917658      0.811      1.167
REMARK  6 active torsions:
REMARK  status: ('A' for Active; 'I' for Inactive)
REMARK    1  A    between atoms: C5_9  and  C6_10 
REMARK    2  A    between atoms: C6_10  and  N2_11 
REMARK    3  A    between atoms: N2_11  and  C7_14 
REMARK    4  A    between atoms: C7_14  and  C8_15 
REMARK    5  A    between atoms: C8_15  and  N3_16 
REMARK    6  A    between atoms: N3_16  and  S1_18 
ROOT
HETATM    1  O1  UNL     1      -7.047 -19.525  15.564  1.00  0.00    -0.267 OA
HETATM    2  C1  UNL     1      -7.349 -20.222  16.578  1.00  0.00     0.260 A 
HETATM    3  N1  UNL     1      -6.504 -20.561  17.665  1.00  0.00    -0.289 N 
ATOM      4  H1  UNL     1      -5.529 -20.283  17.774  1.00  0.00     0.172 HD
HETATM    5  C2  UNL     1      -7.250 -21.355  18.579  1.00  0.00     0.259 A 
HETATM    6  O2  UNL     1      -6.904 -21.868  19.663  1.00  0.00    -0.267 OA
HETATM    7  C3  UNL     1      -8.610 -21.510  18.025  1.00  0.00     0.051 A 
HETATM    8  C4  UNL     1      -9.727 -22.177  18.500  1.00  0.00     0.044 A 
HETATM    9  C5  UNL     1     -10.913 -22.179  17.793  1.00  0.00     0.035 A 
HETATM   10  N4  UNL     1     -10.924 -21.504  16.629  1.00  0.00    -0.367 N 
ATOM     11  H4  UNL     1     -11.789 -21.491  16.088  1.00  0.00     0.165 HD
HETATM   12  C9  UNL     1      -9.860 -20.844  16.138  1.00  0.00     0.106 A 
HETATM   13  C10 UNL     1      -8.654 -20.825  16.828  1.00  0.00     0.063 A 
ENDROOT
BRANCH   9  14
HETATM   14  C6  UNL     1     -12.126 -22.896  18.294  1.00  0.00     0.289 C 
BRANCH  14  15
HETATM   15  N2  UNL     1     -13.312 -22.050  18.157  1.00  0.00    -0.068 N 
ATOM     16  H22 UNL     1     -13.328 -21.259  18.800  1.00  0.00     0.277 HD
ATOM     17  H21 UNL     1     -13.329 -21.504  17.295  1.00  0.00     0.277 HD
BRANCH  15  18
HETATM   18  C7  UNL     1     -14.458 -22.955  18.306  1.00  0.00     0.253 C 
BRANCH  18  19
HETATM   19  C8  UNL     1     -15.221 -22.986  16.989  1.00  0.00     0.162 C 
BRANCH  19  20
HETATM   20  N3  UNL     1     -15.060 -21.672  16.393  1.00  0.00    -0.299 N 
ATOM     21  H3  UNL     1     -15.307 -20.782  16.823  1.00  0.00     0.174 HD
BRANCH  20  22
HETATM   22  S1  UNL     1     -14.376 -21.893  14.824  1.00  0.00     0.204 S 
HETATM   23  O3  UNL     1     -13.100 -22.678  14.983  1.00  0.00    -0.578 OA
HETATM   24  O4  UNL     1     -14.091 -20.544  14.222  1.00  0.00    -0.578 OA
HETATM   25  O5  UNL     1     -15.439 -22.774  13.865  1.00  0.00    -0.578 OA
ENDBRANCH  20  22
ENDBRANCH  19  20
ENDBRANCH  18  19
ENDBRANCH  15  18
ENDBRANCH  14  15
ENDBRANCH   9  14
TORSDOF 6
ENDMDL
MODEL 3
REMARK VINA RESULT: -5.700895572      2.556      6.230
REMARK  6 active torsions:
REMARK  status: ('A' for Active; 'I' for Inactive)
REMARK    1  A    between atoms: C5_9  and  C6_10 
REMARK    2  A    between atoms: C6_10  and  N2_11 
REMARK    3  A    between atoms: N2_11  and  C7_14 
REMARK    4  A    between atoms: C7_14  and  C8_15 
REMARK    5  A    between atoms: C8_15  and  N3_16 
REMARK    6  A    between atoms: N3_16  and  S1_18 
ROOT
HETATM    1  O1  UNL     1     -14.646 -20.872  13.945  1.00  0.00    -0.267 OA
HETATM    2  C1  UNL     1     -14.482 -21.389  15.090  1.00  0.00     0.260 A 
HETATM    3  N1  UNL     1     -15.436 -21.474  16.136  1.00  0.00    -0.289 N 
ATOM      4  H1  UNL     1     -16.394 -21.125  16.102  1.00  0.00     0.172 HD
HETATM    5  C2  UNL     1     -14.828 -22.130  17.241  1.00  0.00     0.259 A 
HETATM    6  O2  UNL     1     -15.299 -22.415  18.362  1.00  0.00    -0.267 OA
HETATM    7  C3  UNL     1     -13.442 -22.460  16.855  1.00  0.00     0.051 A 
HETATM    8  C4  UNL     1     -12.420 -23.094  17.542  1.00  0.00     0.044 A 
HETATM    9  C5  UNL     1     -11.185 -23.295  16.961  1.00  0.00     0.035 A 
HETATM   10  N4  UNL     1     -11.027 -22.845  15.703  1.00  0.00    -0.367 N 
ATOM     11  H4  UNL     1     -10.122 -22.981  15.253  1.00  0.00     0.165 HD
HETATM   12  C9  UNL     1     -11.996 -22.226  15.005  1.00  0.00     0.106 A 
HETATM   13  C10 UNL     1     -13.250 -22.011  15.564  1.00  0.00     0.063 A 
ENDROOT
BRANCH   9  14
HETATM   14  C6  UNL     1     -10.072 -23.977  17.694  1.00  0.00     0.289 C 
BRANCH  14  15
HETATM   15  N2  UNL     1      -8.779 -23.601  17.122  1.00  0.00    -0.068 N 
ATOM     16  H22 UNL     1      -8.382 -24.310  16.506  1.00  0.00     0.277 HD
ATOM     17  H21 UNL     1      -8.839 -22.857  16.426  1.00  0.00     0.277 HD
BRANCH  15  18
HETATM   18  C7  UNL     1      -7.926 -23.270  18.269  1.00  0.00     0.253 C 
BRANCH  18  19
HETATM   19  C8  UNL     1      -7.146 -22.004  17.940  1.00  0.00     0.162 C 
BRANCH  19  20
HETATM   20  N3  UNL     1      -7.846 -20.913  18.593  1.00  0.00    -0.299 N 
ATOM     21  H3  UNL     1      -8.025 -20.825  19.593  1.00  0.00     0.174 HD
BRANCH  20  22
HETATM   22  S1  UNL     1      -8.320 -19.792  17.369  1.00  0.00     0.204 S 
HETATM   23  O3  UNL     1      -7.081 -19.081  16.889  1.00  0.00    -0.578 OA
HETATM   24  O4  UNL     1      -9.294 -18.809  17.958  1.00  0.00    -0.578 OA
HETATM   25  O5  UNL     1      -9.002 -20.624  16.077  1.00  0.00    -0.578 OA
ENDBRANCH  20  22
ENDBRANCH  19  20
ENDBRANCH  18  19
ENDBRANCH  15  18
ENDBRANCH  14  15
ENDBRANCH   9  14
TORSDOF 6
ENDMDL
MODEL 4
REMARK VINA RESULT: -5.662588076      2.327      3.300
REMARK  6 active torsions:
REMARK  status: ('A' for Active; 'I' for Inactive)
REMARK    1  A    between atoms: C5_9  and  C6_10 
REMARK    2  A    between atoms: C6_10  and  N2_11 
REMARK    3  A    between atoms: N2_11  and  C7_14 
REMARK    4  A    between atoms: C7_14  and  C8_15 
REMARK    5  A    between atoms: C8_15  and  N3_16 
REMARK    6  A    between atoms: N3_16  and  S1_18 
ROOT
HETATM    1  O1  UNL     1      -7.231 -21.766  19.723  1.00  0.00    -0.267 OA
HETATM    2  C1  UNL     1      -7.567 -21.331  18.581  1.00  0.00     0.260 A 
HETATM    3  N1  UNL     1      -6.841 -20.431  17.760  1.00  0.00    -0.289 N 
ATOM      4  H1  UNL     1      -5.940 -20.010  17.985  1.00  0.00     0.172 HD
HETATM    5  C2  UNL     1      -7.587 -20.216  16.568  1.00  0.00     0.259 A 
HETATM    6  O2  UNL     1      -7.325 -19.503  15.577  1.00  0.00    -0.267 OA
HETATM    7  C3  UNL     1      -8.822 -21.019  16.665  1.00  0.00     0.051 A 
HETATM    8  C4  UNL     1      -9.887 -21.179  15.794  1.00  0.00     0.044 A 
HETATM    9  C5  UNL     1     -10.950 -22.001  16.108  1.00  0.00     0.035 A 
HETATM   10  N4  UNL     1     -10.896 -22.633  17.295  1.00  0.00    -0.367 N 
ATOM     11  H4  UNL     1     -11.671 -23.245  17.550  1.00  0.00     0.165 HD
HETATM   12  C9  UNL     1      -9.879 -22.502  18.164  1.00  0.00     0.106 A 
HETATM   13  C10 UNL     1      -8.795 -21.682  17.875  1.00  0.00     0.063 A 
ENDROOT
BRANCH   9  14
HETATM   14  C6  UNL     1     -12.107 -22.181  15.177  1.00  0.00     0.289 C 
BRANCH  14  15
HETATM   15  N2  UNL     1     -12.590 -20.883  14.706  1.00  0.00    -0.068 N 
ATOM     16  H22 UNL     1     -12.422 -20.121  15.362  1.00  0.00     0.277 HD
ATOM     17  H21 UNL     1     -12.046 -20.498  13.933  1.00  0.00     0.277 HD
BRANCH  15  18
HETATM   18  C7  UNL     1     -14.008 -21.085  14.386  1.00  0.00     0.253 C 
BRANCH  18  19
HETATM   19  C8  UNL     1     -14.574 -22.125  15.343  1.00  0.00     0.162 C 
BRANCH  19  20
HETATM   20  N3  UNL     1     -15.483 -21.416  16.225  1.00  0.00    -0.299 N 
ATOM     21  H3  UNL     1     -16.091 -20.640  15.966  1.00  0.00     0.174 HD
BRANCH  20  22
HETATM   22  S1  UNL     1     -15.347 -22.126  17.793  1.00  0.00     0.204 S 
HETATM   23  O3  UNL     1     -15.816 -23.555  17.694  1.00  0.00    -0.578 OA
HETATM   24  O4  UNL     1     -16.210 -21.355  18.754  1.00  0.00    -0.578 OA
HETATM   25  O5  UNL     1     -13.737 -22.116  18.278  1.00  0.00    -0.578 OA
ENDBRANCH  20  22
ENDBRANCH  19  20
ENDBRANCH  18  19
ENDBRANCH  15  18
ENDBRANCH  14  15
ENDBRANCH   9  14
TORSDOF 6
ENDMDL
MODEL 5
REMARK VINA RESULT: -5.513651536      2.813      6.797
REMARK  6 active torsions:
REMARK  status: ('A' for Active; 'I' for Inactive)
REMARK    1  A    between atoms: C5_9  and  C6_10 
REMARK    2  A    between atoms: C6_10  and  N2_11 
REMARK    3  A    between atoms: N2_11  and  C7_14 
REMARK    4  A    between atoms: C7_14  and  C8_15 
REMARK    5  A    between atoms: C8_15  and  N3_16 
REMARK    6  A    between atoms: N3_16  and  S1_18 
ROOT
HETATM    1  O1  UNL     1     -16.309 -24.516  14.686  1.00  0.00    -0.267 OA
HETATM    2  C1  UNL     1     -15.381 -23.653  14.692  1.00  0.00     0.260 A 
HETATM    3  N1  UNL     1     -15.479 -22.287  14.323  1.00  0.00    -0.289 N 
ATOM      4  H1  UNL     1     -16.324 -21.814  14.001  1.00  0.00     0.172 HD
HETATM    5  C2  UNL     1     -14.198 -21.690  14.481  1.00  0.00     0.259 A 
HETATM    6  O2  UNL     1     -13.831 -20.515  14.272  1.00  0.00    -0.267 OA
HETATM    7  C3  UNL     1     -13.277 -22.736  14.965  1.00  0.00     0.051 A 
HETATM    8  C4  UNL     1     -11.929 -22.702  15.281  1.00  0.00     0.044 A 
HETATM    9  C5  UNL     1     -11.269 -23.830  15.724  1.00  0.00     0.035 A 
HETATM   10  N4  UNL     1     -11.999 -24.954  15.832  1.00  0.00    -0.367 N 
ATOM     11  H4  UNL     1     -11.533 -25.802  16.158  1.00  0.00     0.165 HD
HETATM   12  C9  UNL     1     -13.309 -25.025  15.536  1.00  0.00     0.106 A 
HETATM   13  C10 UNL     1     -13.999 -23.905  15.087  1.00  0.00     0.063 A 
ENDROOT
BRANCH   9  14
HETATM   14  C6  UNL     1      -9.813 -23.806  16.068  1.00  0.00     0.289 C 
BRANCH  14  15
HETATM   15  N2  UNL     1      -9.603 -23.143  17.356  1.00  0.00    -0.068 N 
ATOM     16  H22 UNL     1      -9.828 -22.149  17.346  1.00  0.00     0.277 HD
ATOM     17  H21 UNL     1     -10.281 -23.412  18.070  1.00  0.00     0.277 HD
BRANCH  15  18
HETATM   18  C7  UNL     1      -8.212 -23.432  17.723  1.00  0.00     0.253 C 
BRANCH  18  19
HETATM   19  C8  UNL     1      -7.404 -22.148  17.597  1.00  0.00     0.162 C 
BRANCH  19  20
HETATM   20  N3  UNL     1      -8.114 -21.143  18.367  1.00  0.00    -0.299 N 
ATOM     21  H3  UNL     1      -8.371 -21.208  19.351  1.00  0.00     0.174 HD
BRANCH  20  22
HETATM   22  S1  UNL     1      -8.443 -19.816  17.313  1.00  0.00     0.204 S 
HETATM   23  O3  UNL     1      -7.128 -19.168  16.961  1.00  0.00    -0.578 OA
HETATM   24  O4  UNL     1      -9.337 -18.838  18.024  1.00  0.00    -0.578 OA
HETATM   25  O5  UNL     1      -9.162 -20.382  15.902  1.00  0.00    -0.578 OA
ENDBRANCH  20  22
ENDBRANCH  19  20
ENDBRANCH  18  19
ENDBRANCH  15  18
ENDBRANCH  14  15
ENDBRANCH   9  14
TORSDOF 6
ENDMDL
