MODEL 1
REMARK VINA RESULT: -6.646831233      0.000      0.000
REMARK  10 active torsions:
REMARK  status: ('A' for Active; 'I' for Inactive)
REMARK    1  A    between atoms: O1_2  and  C2_3 
REMARK    2  A    between atoms: C3_6  and  N2_7 
REMARK    3  A    between atoms: N2_7  and  C4_9 
REMARK    4  A    between atoms: C4_9  and  C5_10 
REMARK    5  A    between atoms: C5_10  and  N3_11 
REMARK    6  A    between atoms: C7_20  and  N6_21 
REMARK    7  A    between atoms: C8_26  and  N8_27 
REMARK    8  A    between atoms: N8_27  and  C9_29 
REMARK    9  A    between atoms: C9_29  and  C10_30 
REMARK   10  A    between atoms: C10_30  and  O2_31 
ROOT
HETATM    1  C2  UNL     1      25.809  18.409  63.229  1.00  0.00     0.175 A 
HETATM    2  N1  UNL     1      25.201  18.837  64.350  1.00  0.00    -0.170 N 
ATOM      3  H1  UNL     1      25.602  19.631  64.851  1.00  0.00     0.186 HD
HETATM    4  C3  UNL     1      24.087  18.263  64.837  1.00  0.00     0.681 A 
HETATM    5  N4  UNL     1      23.577  17.222  64.165  1.00  0.00    -0.175 N 
ATOM      6  H4  UNL     1      22.732  16.772  64.518  1.00  0.00     0.186 HD
HETATM    7  C6  UNL     1      24.147  16.748  63.030  1.00  0.00     0.154 A 
HETATM    8  N5  UNL     1      23.619  15.697  62.365  1.00  0.00    -0.175 N 
ATOM      9  H5  UNL     1      22.774  15.258  62.733  1.00  0.00     0.186 HD
HETATM   10  C7  UNL     1      24.166  15.204  61.232  1.00  0.00     0.679 A 
HETATM   11  N7  UNL     1      25.286  15.798  60.762  1.00  0.00    -0.176 N 
ATOM     12  H7  UNL     1      25.710  15.436  59.908  1.00  0.00     0.186 HD
HETATM   13  C8  UNL     1      25.864  16.848  61.374  1.00  0.00     0.135 A 
HETATM   14  C11 UNL     1      25.290  17.346  62.539  1.00  0.00     0.105 A 
ENDROOT
BRANCH   4  15
HETATM   15  N2  UNL     1      23.575  18.734  65.909  1.00  0.00    -0.224 N 
ATOM     16  H2  UNL     1      22.750  19.324  65.792  1.00  0.00     0.177 HD
BRANCH  15  17
HETATM   17  C4  UNL     1      24.019  18.534  67.242  1.00  0.00     0.165 C 
BRANCH  17  18
HETATM   18  C5  UNL     1      22.900  18.322  68.232  1.00  0.00     0.249 C 
BRANCH  18  19
HETATM   19  N3  UNL     1      22.867  16.922  68.617  1.00  0.00    -0.078 N 
ATOM     20  H33 UNL     1      23.513  16.354  68.070  1.00  0.00     0.274 HD
ATOM     21  H32 UNL     1      23.280  16.763  69.536  1.00  0.00     0.274 HD
ATOM     22  H31 UNL     1      21.907  16.583  68.559  1.00  0.00     0.274 HD
ENDBRANCH  18  19
ENDBRANCH  17  18
ENDBRANCH  15  17
ENDBRANCH   4  15
BRANCH   1  23
HETATM   23  O1  UNL     1      26.963  19.002  62.722  1.00  0.00    -0.340 OA
HETATM   24  C1  UNL     1      27.886  19.715  63.490  1.00  0.00     0.211 C 
ENDBRANCH   1  23
BRANCH  13  25
HETATM   25  N8  UNL     1      26.935  17.420  60.929  1.00  0.00    -0.373 N 
ATOM     26  H8  UNL     1      27.639  17.773  61.577  1.00  0.00     0.161 HD
BRANCH  25  27
HETATM   27  C9  UNL     1      27.122  17.553  59.513  1.00  0.00     0.147 C 
BRANCH  27  28
HETATM   28  C10 UNL     1      27.794  18.878  59.200  1.00  0.00     0.183 C 
BRANCH  28  29
HETATM   29  O2  UNL     1      27.368  19.877  60.074  1.00  0.00    -0.399 OA
ATOM     30  H2  UNL     1      26.475  20.142  59.883  1.00  0.00     0.209 HD
ENDBRANCH  28  29
ENDBRANCH  27  28
ENDBRANCH  25  27
ENDBRANCH  13  25
BRANCH  10  31
HETATM   31  N6  UNL     1      23.612  14.194  60.640  1.00  0.00    -0.234 N 
ATOM     32  H62 UNL     1      23.533  14.128  59.626  1.00  0.00     0.174 HD
ATOM     33  H61 UNL     1      23.236  13.427  61.198  1.00  0.00     0.174 HD
ENDBRANCH  10  31
TORSDOF 10
ENDMDL
MODEL 2
REMARK VINA RESULT: -6.422343390      2.773      5.019
REMARK  10 active torsions:
REMARK  status: ('A' for Active; 'I' for Inactive)
REMARK    1  A    between atoms: O1_2  and  C2_3 
REMARK    2  A    between atoms: C3_6  and  N2_7 
REMARK    3  A    between atoms: N2_7  and  C4_9 
REMARK    4  A    between atoms: C4_9  and  C5_10 
REMARK    5  A    between atoms: C5_10  and  N3_11 
REMARK    6  A    between atoms: C7_20  and  N6_21 
REMARK    7  A    between atoms: C8_26  and  N8_27 
REMARK    8  A    between atoms: N8_27  and  C9_29 
REMARK    9  A    between atoms: C9_29  and  C10_30 
REMARK   10  A    between atoms: C10_30  and  O2_31 
ROOT
HETATM    1  C2  UNL     1      26.787  18.383  63.123  1.00  0.00     0.175 A 
HETATM    2  N1  UNL     1      27.640  19.328  63.558  1.00  0.00    -0.170 N 
ATOM      3  H1  UNL     1      27.663  19.544  64.555  1.00  0.00     0.186 HD
HETATM    4  C3  UNL     1      28.462  20.001  62.733  1.00  0.00     0.681 A 
HETATM    5  N4  UNL     1      28.415  19.703  61.427  1.00  0.00    -0.175 N 
ATOM      6  H4  UNL     1      29.031  20.202  60.784  1.00  0.00     0.186 HD
HETATM    7  C6  UNL     1      27.576  18.760  60.933  1.00  0.00     0.154 A 
HETATM    8  N5  UNL     1      27.543  18.473  59.613  1.00  0.00    -0.175 N 
ATOM      9  H5  UNL     1      28.164  18.982  58.984  1.00  0.00     0.186 HD
HETATM   10  C7  UNL     1      26.717  17.538  59.093  1.00  0.00     0.679 A 
HETATM   11  N7  UNL     1      25.899  16.876  59.942  1.00  0.00    -0.176 N 
ATOM     12  H7  UNL     1      25.270  16.168  59.563  1.00  0.00     0.186 HD
HETATM   13  C8  UNL     1      25.882  17.112  61.266  1.00  0.00     0.135 A 
HETATM   14  C11 UNL     1      26.738  18.076  61.789  1.00  0.00     0.105 A 
ENDROOT
BRANCH   4  15
HETATM   15  N2  UNL     1      29.240  20.883  63.231  1.00  0.00    -0.224 N 
ATOM     16  H2  UNL     1      29.447  21.687  62.639  1.00  0.00     0.177 HD
BRANCH  15  17
HETATM   17  C4  UNL     1      29.850  20.874  64.513  1.00  0.00     0.165 C 
BRANCH  17  18
HETATM   18  C5  UNL     1      29.074  21.632  65.562  1.00  0.00     0.249 C 
BRANCH  18  19
HETATM   19  N3  UNL     1      29.895  22.720  66.065  1.00  0.00    -0.078 N 
ATOM     20  H33 UNL     1      30.626  22.394  66.697  1.00  0.00     0.274 HD
ATOM     21  H32 UNL     1      30.496  23.118  65.344  1.00  0.00     0.274 HD
ATOM     22  H31 UNL     1      29.291  23.420  66.497  1.00  0.00     0.274 HD
ENDBRANCH  18  19
ENDBRANCH  17  18
ENDBRANCH  15  17
ENDBRANCH   4  15
BRANCH   1  23
HETATM   23  O1  UNL     1      25.935  17.685  63.974  1.00  0.00    -0.340 OA
HETATM   24  C1  UNL     1      25.150  18.280  64.965  1.00  0.00     0.211 C 
ENDBRANCH   1  23
BRANCH  13  25
HETATM   25  N8  UNL     1      25.102  16.481  62.084  1.00  0.00    -0.373 N 
ATOM     26  H8  UNL     1      25.390  16.319  63.049  1.00  0.00     0.161 HD
BRANCH  25  27
HETATM   27  C9  UNL     1      23.830  16.011  61.617  1.00  0.00     0.147 C 
BRANCH  27  28
HETATM   28  C10 UNL     1      23.847  14.498  61.498  1.00  0.00     0.183 C 
BRANCH  28  29
HETATM   29  O2  UNL     1      24.588  14.088  60.391  1.00  0.00    -0.399 OA
ATOM     30  H2  UNL     1      24.158  13.372  59.936  1.00  0.00     0.209 HD
ENDBRANCH  28  29
ENDBRANCH  27  28
ENDBRANCH  25  27
ENDBRANCH  13  25
BRANCH  10  31
HETATM   31  N6  UNL     1      26.731  17.309  57.818  1.00  0.00    -0.234 N 
ATOM     32  H62 UNL     1      27.560  16.972  57.330  1.00  0.00     0.174 HD
ATOM     33  H61 UNL     1      25.886  17.467  57.268  1.00  0.00     0.174 HD
ENDBRANCH  10  31
TORSDOF 10
ENDMDL
MODEL 3
REMARK VINA RESULT: -6.360747376      2.851      5.735
REMARK  10 active torsions:
REMARK  status: ('A' for Active; 'I' for Inactive)
REMARK    1  A    between atoms: O1_2  and  C2_3 
REMARK    2  A    between atoms: C3_6  and  N2_7 
REMARK    3  A    between atoms: N2_7  and  C4_9 
REMARK    4  A    between atoms: C4_9  and  C5_10 
REMARK    5  A    between atoms: C5_10  and  N3_11 
REMARK    6  A    between atoms: C7_20  and  N6_21 
REMARK    7  A    between atoms: C8_26  and  N8_27 
REMARK    8  A    between atoms: N8_27  and  C9_29 
REMARK    9  A    between atoms: C9_29  and  C10_30 
REMARK   10  A    between atoms: C10_30  and  O2_31 
ROOT
HETATM    1  C2  UNL     1      26.557  19.030  62.835  1.00  0.00     0.175 A 
HETATM    2  N1  UNL     1      25.626  18.366  62.125  1.00  0.00    -0.170 N 
ATOM      3  H1  UNL     1      24.651  18.656  62.206  1.00  0.00     0.186 HD
HETATM    4  C3  UNL     1      25.929  17.337  61.314  1.00  0.00     0.681 A 
HETATM    5  N4  UNL     1      27.215  16.973  61.222  1.00  0.00    -0.175 N 
ATOM      6  H4  UNL     1      27.466  16.194  60.611  1.00  0.00     0.186 HD
HETATM    7  C6  UNL     1      28.195  17.606  61.914  1.00  0.00     0.154 A 
HETATM    8  N5  UNL     1      29.486  17.223  61.808  1.00  0.00    -0.175 N 
ATOM      9  H5  UNL     1      29.719  16.443  61.195  1.00  0.00     0.186 HD
HETATM   10  C7  UNL     1      30.482  17.836  62.486  1.00  0.00     0.679 A 
HETATM   11  N7  UNL     1      30.154  18.868  63.296  1.00  0.00    -0.176 N 
ATOM     12  H7  UNL     1      30.895  19.339  63.814  1.00  0.00     0.186 HD
HETATM   13  C8  UNL     1      28.888  19.299  63.446  1.00  0.00     0.135 A 
HETATM   14  C11 UNL     1      27.872  18.660  62.742  1.00  0.00     0.105 A 
ENDROOT
BRANCH   4  15
HETATM   15  N2  UNL     1      24.982  16.763  60.676  1.00  0.00    -0.224 N 
ATOM     16  H2  UNL     1      25.058  16.765  59.659  1.00  0.00     0.177 HD
BRANCH  15  17
HETATM   17  C4  UNL     1      23.837  16.123  61.218  1.00  0.00     0.165 C 
BRANCH  17  18
HETATM   18  C5  UNL     1      24.019  14.643  61.450  1.00  0.00     0.249 C 
BRANCH  18  19
HETATM   19  N3  UNL     1      24.916  14.112  60.438  1.00  0.00    -0.078 N 
ATOM     20  H33 UNL     1      24.460  13.427  59.837  1.00  0.00     0.274 HD
ATOM     21  H32 UNL     1      25.144  14.801  59.722  1.00  0.00     0.274 HD
ATOM     22  H31 UNL     1      25.747  13.737  60.895  1.00  0.00     0.274 HD
ENDBRANCH  18  19
ENDBRANCH  17  18
ENDBRANCH  15  17
ENDBRANCH   4  15
BRANCH   1  23
HETATM   23  O1  UNL     1      26.247  20.096  63.676  1.00  0.00    -0.340 OA
HETATM   24  C1  UNL     1      25.214  20.084  64.616  1.00  0.00     0.211 C 
ENDBRANCH   1  23
BRANCH  13  25
HETATM   25  N8  UNL     1      28.568  20.285  64.219  1.00  0.00    -0.373 N 
ATOM     26  H8  UNL     1      27.617  20.656  64.215  1.00  0.00     0.161 HD
BRANCH  25  27
HETATM   27  C9  UNL     1      29.564  20.853  65.081  1.00  0.00     0.147 C 
BRANCH  27  28
HETATM   28  C10 UNL     1      28.904  21.730  66.130  1.00  0.00     0.183 C 
BRANCH  28  29
HETATM   29  O2  UNL     1      28.646  23.006  65.630  1.00  0.00    -0.399 OA
ATOM     30  H2  UNL     1      29.430  23.392  65.257  1.00  0.00     0.209 HD
ENDBRANCH  28  29
ENDBRANCH  27  28
ENDBRANCH  25  27
ENDBRANCH  13  25
BRANCH  10  31
HETATM   31  N6  UNL     1      31.702  17.423  62.343  1.00  0.00    -0.234 N 
ATOM     32  H62 UNL     1      31.942  16.435  62.268  1.00  0.00     0.174 HD
ATOM     33  H61 UNL     1      32.462  18.103  62.302  1.00  0.00     0.174 HD
ENDBRANCH  10  31
TORSDOF 10
ENDMDL
MODEL 4
REMARK VINA RESULT: -6.292360874      0.920      1.321
REMARK  10 active torsions:
REMARK  status: ('A' for Active; 'I' for Inactive)
REMARK    1  A    between atoms: O1_2  and  C2_3 
REMARK    2  A    between atoms: C3_6  and  N2_7 
REMARK    3  A    between atoms: N2_7  and  C4_9 
REMARK    4  A    between atoms: C4_9  and  C5_10 
REMARK    5  A    between atoms: C5_10  and  N3_11 
REMARK    6  A    between atoms: C7_20  and  N6_21 
REMARK    7  A    between atoms: C8_26  and  N8_27 
REMARK    8  A    between atoms: N8_27  and  C9_29 
REMARK    9  A    between atoms: C9_29  and  C10_30 
REMARK   10  A    between atoms: C10_30  and  O2_31 
ROOT
HETATM    1  C2  UNL     1      25.872  18.328  63.223  1.00  0.00     0.175 A 
HETATM    2  N1  UNL     1      25.288  18.770  64.352  1.00  0.00    -0.170 N 
ATOM      3  H1  UNL     1      25.715  19.550  64.851  1.00  0.00     0.186 HD
HETATM    4  C3  UNL     1      24.163  18.224  64.849  1.00  0.00     0.681 A 
HETATM    5  N4  UNL     1      23.618  17.199  64.179  1.00  0.00    -0.175 N 
ATOM      6  H4  UNL     1      22.765  16.771  64.539  1.00  0.00     0.186 HD
HETATM    7  C6  UNL     1      24.164  16.713  63.037  1.00  0.00     0.154 A 
HETATM    8  N5  UNL     1      23.600  15.679  62.375  1.00  0.00    -0.175 N 
ATOM      9  H5  UNL     1      22.748  15.262  62.750  1.00  0.00     0.186 HD
HETATM   10  C7  UNL     1      24.122  15.175  61.235  1.00  0.00     0.679 A 
HETATM   11  N7  UNL     1      25.253  15.740  60.755  1.00  0.00    -0.176 N 
ATOM     12  H7  UNL     1      25.659  15.369  59.896  1.00  0.00     0.186 HD
HETATM   13  C8  UNL     1      25.865  16.771  61.364  1.00  0.00     0.135 A 
HETATM   14  C11 UNL     1      25.317  17.282  62.536  1.00  0.00     0.105 A 
ENDROOT
BRANCH   4  15
HETATM   15  N2  UNL     1      23.675  18.706  65.927  1.00  0.00    -0.224 N 
ATOM     16  H2  UNL     1      22.674  18.904  65.919  1.00  0.00     0.177 HD
BRANCH  15  17
HETATM   17  C4  UNL     1      24.363  18.998  67.134  1.00  0.00     0.165 C 
BRANCH  17  18
HETATM   18  C5  UNL     1      24.228  20.434  67.579  1.00  0.00     0.249 C 
BRANCH  18  19
HETATM   19  N3  UNL     1      25.265  21.227  66.940  1.00  0.00    -0.078 N 
ATOM     20  H33 UNL     1      26.198  20.984  67.271  1.00  0.00     0.274 HD
ATOM     21  H32 UNL     1      25.393  20.980  65.959  1.00  0.00     0.274 HD
ATOM     22  H31 UNL     1      25.052  22.216  67.067  1.00  0.00     0.274 HD
ENDBRANCH  18  19
ENDBRANCH  17  18
ENDBRANCH  15  17
ENDBRANCH   4  15
BRANCH   1  23
HETATM   23  O1  UNL     1      27.036  18.891  62.706  1.00  0.00    -0.340 OA
HETATM   24  C1  UNL     1      27.873  19.760  63.411  1.00  0.00     0.211 C 
ENDBRANCH   1  23
BRANCH  13  25
HETATM   25  N8  UNL     1      26.947  17.316  60.909  1.00  0.00    -0.373 N 
ATOM     26  H8  UNL     1      27.690  17.599  61.548  1.00  0.00     0.161 HD
BRANCH  25  27
HETATM   27  C9  UNL     1      27.090  17.518  59.496  1.00  0.00     0.147 C 
BRANCH  27  28
HETATM   28  C10 UNL     1      27.780  18.843  59.229  1.00  0.00     0.183 C 
BRANCH  28  29
HETATM   29  O2  UNL     1      28.730  19.123  60.209  1.00  0.00    -0.399 OA
ATOM     30  H2  UNL     1      29.568  18.725  60.000  1.00  0.00     0.209 HD
ENDBRANCH  28  29
ENDBRANCH  27  28
ENDBRANCH  25  27
ENDBRANCH  13  25
BRANCH  10  31
HETATM   31  N6  UNL     1      23.535  14.181  60.646  1.00  0.00    -0.234 N 
ATOM     32  H62 UNL     1      22.636  14.276  60.176  1.00  0.00     0.174 HD
ATOM     33  H61 UNL     1      23.979  13.263  60.645  1.00  0.00     0.174 HD
ENDBRANCH  10  31
TORSDOF 10
ENDMDL
MODEL 5
REMARK VINA RESULT: -6.252281887      2.873      4.954
REMARK  10 active torsions:
REMARK  status: ('A' for Active; 'I' for Inactive)
REMARK    1  A    between atoms: O1_2  and  C2_3 
REMARK    2  A    between atoms: C3_6  and  N2_7 
REMARK    3  A    between atoms: N2_7  and  C4_9 
REMARK    4  A    between atoms: C4_9  and  C5_10 
REMARK    5  A    between atoms: C5_10  and  N3_11 
REMARK    6  A    between atoms: C7_20  and  N6_21 
REMARK    7  A    between atoms: C8_26  and  N8_27 
REMARK    8  A    between atoms: N8_27  and  C9_29 
REMARK    9  A    between atoms: C9_29  and  C10_30 
REMARK   10  A    between atoms: C10_30  and  O2_31 
ROOT
HETATM    1  C2  UNL     1      26.717  18.170  62.791  1.00  0.00     0.175 A 
HETATM    2  N1  UNL     1      27.540  19.142  63.226  1.00  0.00    -0.170 N 
ATOM      3  H1  UNL     1      27.573  19.344  64.225  1.00  0.00     0.186 HD
HETATM    4  C3  UNL     1      28.321  19.857  62.397  1.00  0.00     0.681 A 
HETATM    5  N4  UNL     1      28.263  19.576  61.088  1.00  0.00    -0.175 N 
ATOM      6  H4  UNL     1      28.848  20.108  60.442  1.00  0.00     0.186 HD
HETATM    7  C6  UNL     1      27.452  18.608  60.594  1.00  0.00     0.154 A 
HETATM    8  N5  UNL     1      27.407  18.340  59.270  1.00  0.00    -0.175 N 
ATOM      9  H5  UNL     1      27.997  18.881  58.639  1.00  0.00     0.186 HD
HETATM   10  C7  UNL     1      26.609  17.381  58.751  1.00  0.00     0.679 A 
HETATM   11  N7  UNL     1      25.832  16.676  59.604  1.00  0.00    -0.176 N 
ATOM     12  H7  UNL     1      25.224  15.949  59.225  1.00  0.00     0.186 HD
HETATM   13  C8  UNL     1      25.829  16.892  60.932  1.00  0.00     0.135 A 
HETATM   14  C11 UNL     1      26.656  17.881  61.454  1.00  0.00     0.105 A 
ENDROOT
BRANCH   4  15
HETATM   15  N2  UNL     1      29.074  20.762  62.895  1.00  0.00    -0.224 N 
ATOM     16  H2  UNL     1      29.189  21.609  62.338  1.00  0.00     0.177 HD
BRANCH  15  17
HETATM   17  C4  UNL     1      29.767  20.726  64.133  1.00  0.00     0.165 C 
BRANCH  17  18
HETATM   18  C5  UNL     1      29.039  21.419  65.259  1.00  0.00     0.249 C 
BRANCH  18  19
HETATM   19  N3  UNL     1      29.947  22.350  65.907  1.00  0.00    -0.078 N 
ATOM     20  H33 UNL     1      29.497  22.871  66.659  1.00  0.00     0.274 HD
ATOM     21  H32 UNL     1      30.655  21.875  66.467  1.00  0.00     0.274 HD
ATOM     22  H31 UNL     1      30.355  22.961  65.201  1.00  0.00     0.274 HD
ENDBRANCH  18  19
ENDBRANCH  17  18
ENDBRANCH  15  17
ENDBRANCH   4  15
BRANCH   1  23
HETATM   23  O1  UNL     1      25.907  17.428  63.647  1.00  0.00    -0.340 OA
HETATM   24  C1  UNL     1      24.998  17.983  64.551  1.00  0.00     0.211 C 
ENDBRANCH   1  23
BRANCH  13  25
HETATM   25  N8  UNL     1      25.089  16.219  61.752  1.00  0.00    -0.373 N 
ATOM     26  H8  UNL     1      24.647  16.683  62.546  1.00  0.00     0.161 HD
BRANCH  25  27
HETATM   27  C9  UNL     1      24.896  14.815  61.534  1.00  0.00     0.147 C 
BRANCH  27  28
HETATM   28  C10 UNL     1      26.167  14.058  61.876  1.00  0.00     0.183 C 
BRANCH  28  29
HETATM   29  O2  UNL     1      26.822  14.637  62.962  1.00  0.00    -0.399 OA
ATOM     30  H2  UNL     1      27.459  15.282  62.674  1.00  0.00     0.209 HD
ENDBRANCH  28  29
ENDBRANCH  27  28
ENDBRANCH  25  27
ENDBRANCH  13  25
BRANCH  10  31
HETATM   31  N6  UNL     1      26.609  17.170  57.472  1.00  0.00    -0.234 N 
ATOM     32  H62 UNL     1      26.789  16.252  57.068  1.00  0.00     0.174 HD
ATOM     33  H61 UNL     1      26.424  17.944  56.834  1.00  0.00     0.174 HD
ENDBRANCH  10  31
TORSDOF 10
ENDMDL
