MODEL 1
REMARK VINA RESULT: -7.625053493      0.000      0.000
REMARK  6 active torsions:
REMARK  status: ('A' for Active; 'I' for Inactive)
REMARK    1  A    between atoms: N1_1  and  C1_5 
REMARK    2  A    between atoms: C1_5  and  C2_6 
REMARK    3  A    between atoms: C4_11  and  C5_12 
REMARK    4  A    between atoms: C5_12  and  C6_13 
REMARK    5  A    between atoms: C6_13  and  C7_14 
REMARK    6  A    between atoms: C7_14  and  N3_15 
ROOT
HETATM    1  C2  UNL     1      25.146  15.041  61.784  1.00  0.00     0.202 C 
HETATM    2  N2  UNL     1      26.155  15.060  62.769  1.00  0.00    -0.344 N 
ATOM      3  H2  UNL     1      26.082  14.328  63.476  1.00  0.00     0.163 HD
HETATM    4  C3  UNL     1      27.252  15.939  62.927  1.00  0.00     0.241 C 
HETATM    5  O1  UNL     1      27.497  16.462  64.054  1.00  0.00    -0.271 OA
HETATM    6  C4  UNL     1      28.218  16.348  61.859  1.00  0.00     0.176 C 
HETATM    7  N6  UNL     1      27.884  17.633  61.285  1.00  0.00    -0.346 N 
ATOM      8  H6  UNL     1      27.949  18.485  61.840  1.00  0.00     0.163 HD
HETATM    9  C9  UNL     1      27.463  17.680  59.937  1.00  0.00     0.236 C 
HETATM   10  O2  UNL     1      27.804  18.658  59.187  1.00  0.00    -0.272 OA
HETATM   11  C10 UNL     1      26.623  16.569  59.428  1.00  0.00     0.225 C 
HETATM   12  N7  UNL     1      25.283  16.839  59.962  1.00  0.00    -0.350 N 
ATOM     13  H7  UNL     1      24.680  17.468  59.433  1.00  0.00     0.163 HD
HETATM   14  C11 UNL     1      24.777  16.297  61.138  1.00  0.00     0.242 C 
HETATM   15  O3  UNL     1      23.882  16.955  61.744  1.00  0.00    -0.271 OA
ENDROOT
BRANCH   6  16
HETATM   16  C5  UNL     1      29.622  16.556  62.467  1.00  0.00     0.036 C 
BRANCH  16  17
HETATM   17  C6  UNL     1      29.957  18.018  62.190  1.00  0.00     0.022 C 
BRANCH  17  18
HETATM   18  C7  UNL     1      30.284  18.743  63.484  1.00  0.00     0.122 C 
BRANCH  18  19
HETATM   19  N3  UNL     1      29.119  18.916  64.315  1.00  0.00    -0.367 N 
HETATM   20  C8  UNL     1      28.513  20.064  64.264  1.00  0.00     0.196 C 
HETATM   21  N4  UNL     1      27.361  20.305  65.053  1.00  0.00    -0.067 NA
HETATM   22  N5  UNL     1      28.959  21.128  63.426  1.00  0.00    -0.067 NA
ATOM     23  H3  UNL     1      28.784  18.167  64.921  1.00  0.00     0.161 HD
ENDBRANCH  18  19
ENDBRANCH  17  18
ENDBRANCH  16  17
ENDBRANCH   6  16
BRANCH   1  24
HETATM   24  C1  UNL     1      23.865  14.377  62.278  1.00  0.00     0.264 C 
BRANCH  24  25
HETATM   25  N1  UNL     1      23.967  12.938  62.246  1.00  0.00    -0.077 N 
ATOM     26  H13 UNL     1      23.059  12.503  62.079  1.00  0.00     0.274 HD
ATOM     27  H12 UNL     1      24.452  12.616  61.408  1.00  0.00     0.274 HD
ATOM     28  H11 UNL     1      24.404  12.574  63.092  1.00  0.00     0.274 HD
ENDBRANCH  24  25
ENDBRANCH   1  24
TORSDOF 6
ENDMDL
MODEL 2
REMARK VINA RESULT: -7.523025574      2.510      3.494
REMARK  6 active torsions:
REMARK  status: ('A' for Active; 'I' for Inactive)
REMARK    1  A    between atoms: N1_1  and  C1_5 
REMARK    2  A    between atoms: C1_5  and  C2_6 
REMARK    3  A    between atoms: C4_11  and  C5_12 
REMARK    4  A    between atoms: C5_12  and  C6_13 
REMARK    5  A    between atoms: C6_13  and  C7_14 
REMARK    6  A    between atoms: C7_14  and  N3_15 
ROOT
HETATM    1  C2  UNL     1      25.633  16.550  61.595  1.00  0.00     0.202 C 
HETATM    2  N2  UNL     1      25.502  17.810  62.213  1.00  0.00    -0.344 N 
ATOM      3  H2  UNL     1      24.549  18.070  62.466  1.00  0.00     0.163 HD
HETATM    4  C3  UNL     1      26.491  18.770  62.536  1.00  0.00     0.241 C 
HETATM    5  O1  UNL     1      26.327  19.987  62.229  1.00  0.00    -0.271 OA
HETATM    6  C4  UNL     1      27.785  18.504  63.239  1.00  0.00     0.176 C 
HETATM    7  N6  UNL     1      28.891  18.374  62.316  1.00  0.00    -0.346 N 
ATOM      8  H6  UNL     1      29.212  19.174  61.772  1.00  0.00     0.163 HD
HETATM    9  C9  UNL     1      29.516  17.114  62.186  1.00  0.00     0.236 C 
HETATM   10  O2  UNL     1      30.780  17.034  62.007  1.00  0.00    -0.272 OA
HETATM   11  C10 UNL     1      28.666  15.901  62.263  1.00  0.00     0.225 C 
HETATM   12  N7  UNL     1      28.006  15.823  60.955  1.00  0.00    -0.350 N 
ATOM     13  H7  UNL     1      28.509  15.360  60.198  1.00  0.00     0.163 HD
HETATM   14  C11 UNL     1      26.745  16.336  60.674  1.00  0.00     0.242 C 
HETATM   15  O3  UNL     1      26.504  16.665  59.477  1.00  0.00    -0.271 OA
ENDROOT
BRANCH   6  16
HETATM   16  C5  UNL     1      28.165  19.712  64.123  1.00  0.00     0.036 C 
BRANCH  16  17
HETATM   17  C6  UNL     1      27.763  19.305  65.537  1.00  0.00     0.022 C 
BRANCH  17  18
HETATM   18  C7  UNL     1      26.509  20.047  65.966  1.00  0.00     0.122 C 
BRANCH  18  19
HETATM   19  N3  UNL     1      25.330  19.224  65.856  1.00  0.00    -0.367 N 
HETATM   20  C8  UNL     1      24.333  19.696  65.170  1.00  0.00     0.196 C 
HETATM   21  N4  UNL     1      23.143  18.943  65.019  1.00  0.00    -0.067 NA
HETATM   22  N5  UNL     1      24.375  20.975  64.540  1.00  0.00    -0.067 NA
ATOM     23  H3  UNL     1      25.281  18.307  66.299  1.00  0.00     0.161 HD
ENDBRANCH  18  19
ENDBRANCH  17  18
ENDBRANCH  16  17
ENDBRANCH   6  16
BRANCH   1  24
HETATM   24  C1  UNL     1      24.353  16.113  60.890  1.00  0.00     0.264 C 
BRANCH  24  25
HETATM   25  N1  UNL     1      24.372  14.704  60.580  1.00  0.00    -0.077 N 
ATOM     26  H13 UNL     1      24.876  14.520  59.712  1.00  0.00     0.274 HD
ATOM     27  H12 UNL     1      24.973  14.188  61.223  1.00  0.00     0.274 HD
ATOM     28  H11 UNL     1      23.431  14.313  60.555  1.00  0.00     0.274 HD
ENDBRANCH  24  25
ENDBRANCH   1  24
TORSDOF 6
ENDMDL
MODEL 3
REMARK VINA RESULT: -7.401597375      2.638      3.600
REMARK  6 active torsions:
REMARK  status: ('A' for Active; 'I' for Inactive)
REMARK    1  A    between atoms: N1_1  and  C1_5 
REMARK    2  A    between atoms: C1_5  and  C2_6 
REMARK    3  A    between atoms: C4_11  and  C5_12 
REMARK    4  A    between atoms: C5_12  and  C6_13 
REMARK    5  A    between atoms: C6_13  and  C7_14 
REMARK    6  A    between atoms: C7_14  and  N3_15 
ROOT
HETATM    1  C2  UNL     1      24.742  18.075  64.963  1.00  0.00     0.202 C 
HETATM    2  N2  UNL     1      25.746  18.872  64.376  1.00  0.00    -0.344 N 
ATOM      3  H2  UNL     1      26.225  19.505  65.018  1.00  0.00     0.163 HD
HETATM    4  C3  UNL     1      26.191  18.931  63.034  1.00  0.00     0.241 C 
HETATM    5  O1  UNL     1      26.324  20.046  62.451  1.00  0.00    -0.271 OA
HETATM    6  C4  UNL     1      26.544  17.761  62.168  1.00  0.00     0.176 C 
HETATM    7  N6  UNL     1      25.457  17.384  61.292  1.00  0.00    -0.346 N 
ATOM      8  H6  UNL     1      25.154  18.003  60.541  1.00  0.00     0.163 HD
HETATM    9  C9  UNL     1      24.825  16.137  61.501  1.00  0.00     0.236 C 
HETATM   10  O2  UNL     1      24.421  15.443  60.506  1.00  0.00    -0.272 OA
HETATM   11  C10 UNL     1      24.648  15.669  62.897  1.00  0.00     0.225 C 
HETATM   12  N7  UNL     1      23.515  16.445  63.411  1.00  0.00    -0.350 N 
ATOM     13  H7  UNL     1      22.576  16.092  63.228  1.00  0.00     0.163 HD
HETATM   14  C11 UNL     1      23.629  17.630  64.130  1.00  0.00     0.242 C 
HETATM   15  O3  UNL     1      22.660  18.440  64.074  1.00  0.00    -0.271 OA
ENDROOT
BRANCH   6  16
HETATM   16  C5  UNL     1      27.693  18.142  61.209  1.00  0.00     0.036 C 
BRANCH  16  17
HETATM   17  C6  UNL     1      28.937  17.499  61.814  1.00  0.00     0.022 C 
BRANCH  17  18
HETATM   18  C7  UNL     1      30.007  18.547  62.065  1.00  0.00     0.122 C 
BRANCH  18  19
HETATM   19  N3  UNL     1      29.445  19.803  62.492  1.00  0.00    -0.367 N 
HETATM   20  C8  UNL     1      29.581  20.125  63.743  1.00  0.00     0.196 C 
HETATM   21  N4  UNL     1      29.054  21.345  64.234  1.00  0.00    -0.067 NA
HETATM   22  N5  UNL     1      30.256  19.288  64.680  1.00  0.00    -0.067 NA
ATOM     23  H3  UNL     1      28.958  20.416  61.837  1.00  0.00     0.161 HD
ENDBRANCH  18  19
ENDBRANCH  17  18
ENDBRANCH  16  17
ENDBRANCH   6  16
BRANCH   1  24
HETATM   24  C1  UNL     1      24.159  18.708  66.221  1.00  0.00     0.264 C 
BRANCH  24  25
HETATM   25  N1  UNL     1      23.593  17.715  67.102  1.00  0.00    -0.077 N 
ATOM     26  H13 UNL     1      23.925  16.779  66.871  1.00  0.00     0.274 HD
ATOM     27  H12 UNL     1      23.976  17.790  68.045  1.00  0.00     0.274 HD
ATOM     28  H11 UNL     1      22.574  17.758  67.109  1.00  0.00     0.274 HD
ENDBRANCH  24  25
ENDBRANCH   1  24
TORSDOF 6
ENDMDL
MODEL 4
REMARK VINA RESULT: -7.189809526      3.533      4.362
REMARK  6 active torsions:
REMARK  status: ('A' for Active; 'I' for Inactive)
REMARK    1  A    between atoms: N1_1  and  C1_5 
REMARK    2  A    between atoms: C1_5  and  C2_6 
REMARK    3  A    between atoms: C4_11  and  C5_12 
REMARK    4  A    between atoms: C5_12  and  C6_13 
REMARK    5  A    between atoms: C6_13  and  C7_14 
REMARK    6  A    between atoms: C7_14  and  N3_15 
ROOT
HETATM    1  C2  UNL     1      24.484  15.581  62.309  1.00  0.00     0.202 C 
HETATM    2  N2  UNL     1      23.948  16.225  63.443  1.00  0.00    -0.344 N 
ATOM      3  H2  UNL     1      23.365  15.636  64.038  1.00  0.00     0.163 HD
HETATM    4  C3  UNL     1      24.093  17.562  63.883  1.00  0.00     0.241 C 
HETATM    5  O1  UNL     1      23.080  18.238  64.224  1.00  0.00    -0.271 OA
HETATM    6  C4  UNL     1      25.380  18.318  64.001  1.00  0.00     0.176 C 
HETATM    7  N6  UNL     1      25.619  19.169  62.856  1.00  0.00    -0.346 N 
ATOM      8  H6  UNL     1      25.022  19.975  62.672  1.00  0.00     0.163 HD
HETATM    9  C9  UNL     1      26.698  18.860  61.998  1.00  0.00     0.236 C 
HETATM   10  O2  UNL     1      27.388  19.794  61.463  1.00  0.00    -0.272 OA
HETATM   11  C10 UNL     1      27.000  17.430  61.744  1.00  0.00     0.225 C 
HETATM   12  N7  UNL     1      25.979  16.998  60.783  1.00  0.00    -0.350 N 
ATOM     13  H7  UNL     1      26.162  17.159  59.793  1.00  0.00     0.163 HD
HETATM   14  C11 UNL     1      24.780  16.383  61.126  1.00  0.00     0.242 C 
HETATM   15  O3  UNL     1      23.807  16.521  60.329  1.00  0.00    -0.271 OA
ENDROOT
BRANCH   6  16
HETATM   16  C5  UNL     1      25.312  19.294  65.195  1.00  0.00     0.036 C 
BRANCH  16  17
HETATM   17  C6  UNL     1      25.965  18.544  66.352  1.00  0.00     0.022 C 
BRANCH  17  18
HETATM   18  C7  UNL     1      25.182  18.762  67.635  1.00  0.00     0.122 C 
BRANCH  18  19
HETATM   19  N3  UNL     1      24.242  17.698  67.883  1.00  0.00    -0.367 N 
HETATM   20  C8  UNL     1      22.978  17.991  67.825  1.00  0.00     0.196 C 
HETATM   21  N4  UNL     1      21.997  16.996  68.057  1.00  0.00    -0.067 NA
HETATM   22  N5  UNL     1      22.510  19.306  67.530  1.00  0.00    -0.067 NA
ATOM     23  H3  UNL     1      24.557  16.751  68.095  1.00  0.00     0.161 HD
ENDBRANCH  18  19
ENDBRANCH  17  18
ENDBRANCH  16  17
ENDBRANCH   6  16
BRANCH   1  24
HETATM   24  C1  UNL     1      23.643  14.389  61.865  1.00  0.00     0.264 C 
BRANCH  24  25
HETATM   25  N1  UNL     1      24.264  13.138  62.226  1.00  0.00    -0.077 N 
ATOM     26  H13 UNL     1      24.138  12.435  61.498  1.00  0.00     0.274 HD
ATOM     27  H12 UNL     1      25.281  13.206  62.205  1.00  0.00     0.274 HD
ATOM     28  H11 UNL     1      23.931  12.801  63.130  1.00  0.00     0.274 HD
ENDBRANCH  24  25
ENDBRANCH   1  24
TORSDOF 6
ENDMDL
MODEL 5
REMARK VINA RESULT: -7.187264527      1.769      2.488
REMARK  6 active torsions:
REMARK  status: ('A' for Active; 'I' for Inactive)
REMARK    1  A    between atoms: N1_1  and  C1_5 
REMARK    2  A    between atoms: C1_5  and  C2_6 
REMARK    3  A    between atoms: C4_11  and  C5_12 
REMARK    4  A    between atoms: C5_12  and  C6_13 
REMARK    5  A    between atoms: C6_13  and  C7_14 
REMARK    6  A    between atoms: C7_14  and  N3_15 
ROOT
HETATM    1  C2  UNL     1      24.973  15.559  62.248  1.00  0.00     0.202 C 
HETATM    2  N2  UNL     1      25.068  16.430  63.352  1.00  0.00    -0.344 N 
ATOM      3  H2  UNL     1      24.713  16.052  64.231  1.00  0.00     0.163 HD
HETATM    4  C3  UNL     1      25.580  17.746  63.429  1.00  0.00     0.241 C 
HETATM    5  O1  UNL     1      24.918  18.660  64.003  1.00  0.00    -0.271 OA
HETATM    6  C4  UNL     1      26.892  18.219  62.881  1.00  0.00     0.176 C 
HETATM    7  N6  UNL     1      26.745  18.860  61.593  1.00  0.00    -0.346 N 
ATOM      8  H6  UNL     1      26.251  19.748  61.506  1.00  0.00     0.163 HD
HETATM    9  C9  UNL     1      27.301  18.229  60.458  1.00  0.00     0.236 C 
HETATM   10  O2  UNL     1      27.827  18.925  59.524  1.00  0.00    -0.272 OA
HETATM   11  C10 UNL     1      27.253  16.748  60.390  1.00  0.00     0.225 C 
HETATM   12  N7  UNL     1      25.871  16.435  60.012  1.00  0.00    -0.350 N 
ATOM     13  H7  UNL     1      25.638  16.438  59.019  1.00  0.00     0.163 HD
HETATM   14  C11 UNL     1      24.854  16.136  60.912  1.00  0.00     0.242 C 
HETATM   15  O3  UNL     1      23.667  16.385  60.553  1.00  0.00    -0.271 OA
ENDROOT
BRANCH   6  16
HETATM   16  C5  UNL     1      27.480  19.319  63.791  1.00  0.00     0.036 C 
BRANCH  16  17
HETATM   17  C6  UNL     1      28.298  20.204  62.856  1.00  0.00     0.022 C 
BRANCH  17  18
HETATM   18  C7  UNL     1      29.783  20.020  63.115  1.00  0.00     0.122 C 
BRANCH  18  19
HETATM   19  N3  UNL     1      30.365  19.030  62.245  1.00  0.00    -0.367 N 
HETATM   20  C8  UNL     1      30.811  17.940  62.792  1.00  0.00     0.196 C 
HETATM   21  N4  UNL     1      31.396  16.923  61.999  1.00  0.00    -0.067 NA
HETATM   22  N5  UNL     1      30.740  17.705  64.198  1.00  0.00    -0.067 NA
ATOM     23  H3  UNL     1      30.425  19.180  61.237  1.00  0.00     0.161 HD
ENDBRANCH  18  19
ENDBRANCH  17  18
ENDBRANCH  16  17
ENDBRANCH   6  16
BRANCH   1  24
HETATM   24  C1  UNL     1      23.859  14.531  62.412  1.00  0.00     0.264 C 
BRANCH  24  25
HETATM   25  N1  UNL     1      24.355  13.183  62.275  1.00  0.00    -0.077 N 
ATOM     26  H13 UNL     1      24.259  12.846  61.318  1.00  0.00     0.274 HD
ATOM     27  H12 UNL     1      25.372  13.150  62.353  1.00  0.00     0.274 HD
ATOM     28  H11 UNL     1      23.910  12.551  62.940  1.00  0.00     0.274 HD
ENDBRANCH  24  25
ENDBRANCH   1  24
TORSDOF 6
ENDMDL
