MODEL 1
REMARK VINA RESULT: -7.080174869      0.000      0.000
REMARK  19 active torsions:
REMARK  status: ('A' for Active; 'I' for Inactive)
REMARK    1  A    between atoms: C2_3  and  O1_4 
REMARK    2  A    between atoms: C4_7  and  O2_8 
REMARK    3  A    between atoms: C4_7  and  N2_10 
REMARK    4  A    between atoms: N2_10  and  C5_12 
REMARK    5  A    between atoms: N3_14  and  C7_15 
REMARK    6  A    between atoms: C7_15  and  O3_16 
REMARK    7  A    between atoms: C7_15  and  O4_18 
REMARK    8  A    between atoms: O4_18  and  C8_19 
REMARK    9  A    between atoms: C8_19  and  C9_20 
REMARK   10  A    between atoms: C9_20  and  O5_21 
REMARK   11  A    between atoms: C9_20  and  C10_23 
REMARK   12  A    between atoms: C10_23  and  O6_24 
REMARK   13  A    between atoms: C11_28  and  O7_29 
REMARK   14  A    between atoms: N5_33  and  O9_34 
REMARK   15  A    between atoms: C13_36  and  C14_37 
REMARK   16  A    between atoms: C14_37  and  N6_38 
REMARK   17  A    between atoms: C14_37  and  C16_43 
REMARK       I    between atoms: N6_38  and  C15_40 
REMARK   18  A    between atoms: C16_43  and  O12_44 
REMARK   19  A    between atoms: C16_43  and  O13_46 
ROOT
HETATM    1  N1  UNL     1      23.158   3.772  11.411  1.00  0.00    -0.097 NA
HETATM    2  C1  UNL     1      24.528   3.798  11.017  1.00  0.00     0.112 A 
HETATM    3  C2  UNL     1      25.154   2.578  11.277  1.00  0.00     0.112 A 
HETATM    4  C3  UNL     1      26.427   2.398  10.809  1.00  0.00     0.120 A 
HETATM    5  C4  UNL     1      27.062   1.246  11.036  1.00  0.00     0.159 C 
HETATM    6  C12 UNL     1      26.991   3.423  10.124  1.00  0.00     0.289 A 
HETATM    7  O8  UNL     1      28.142   3.289   9.686  1.00  0.00    -0.265 OA
HETATM    8  N5  UNL     1      26.347   4.613   9.888  1.00  0.00    -0.183 N 
HETATM    9  C13 UNL     1      25.083   4.844  10.333  1.00  0.00     0.121 A 
ENDROOT
BRANCH   5  10
HETATM   10  O2  UNL     1      28.347   1.107  10.545  1.00  0.00    -0.345 OA
ATOM     11  H2  UNL     1      28.486   0.504   9.824  1.00  0.00     0.219 HD
ENDBRANCH   5  10
BRANCH   5  12
HETATM   12  N2  UNL     1      26.504   0.159  11.744  1.00  0.00    -0.332 N 
ATOM     13  H2  UNL     1      25.630  -0.241  11.402  1.00  0.00     0.168 HD
BRANCH  12  14
HETATM   14  C5  UNL     1      27.090  -0.404  12.903  1.00  0.00     0.104 A 
HETATM   15  C6  UNL     1      28.227  -0.047  13.589  1.00  0.00     0.149 A 
HETATM   16  N3  UNL     1      28.419  -0.864  14.651  1.00  0.00    -0.246 N 
HETATM   17  N4  UNL     1      27.417  -1.710  14.616  1.00  0.00    -0.272 N 
HETATM   18  C11 UNL     1      26.585  -1.483  13.587  1.00  0.00     0.184 A 
ATOM     19  H4  UNL     1      27.284  -2.457  15.297  1.00  0.00     0.189 HD
BRANCH  16  20
HETATM   20  C7  UNL     1      29.546  -0.764  15.599  1.00  0.00     0.390 C 
BRANCH  20  21
HETATM   21  O3  UNL     1      29.209  -1.650  16.689  1.00  0.00    -0.353 OA
ATOM     22  H3  UNL     1      29.577  -1.245  17.465  1.00  0.00     0.214 HD
ENDBRANCH  20  21
BRANCH  20  23
HETATM   23  O4  UNL     1      29.750   0.460  15.996  1.00  0.00    -0.340 OA
BRANCH  23  24
HETATM   24  C8  UNL     1      30.363   1.068  16.947  1.00  0.00     0.206 C 
BRANCH  24  25
HETATM   25  C9  UNL     1      30.066   2.428  17.482  1.00  0.00     0.165 C 
BRANCH  25  26
HETATM   26  O5  UNL     1      30.009   2.199  18.937  1.00  0.00    -0.391 OA
ATOM     27  H5  UNL     1      29.086   2.026  19.086  1.00  0.00     0.210 HD
ENDBRANCH  25  26
BRANCH  25  28
HETATM   28  C10 UNL     1      31.096   3.486  17.367  1.00  0.00     0.198 C 
BRANCH  28  29
HETATM   29  O6  UNL     1      30.727   4.501  16.546  1.00  0.00    -0.398 OA
ATOM     30  H6  UNL     1      31.346   4.655  15.842  1.00  0.00     0.209 HD
ENDBRANCH  28  29
ENDBRANCH  25  28
ENDBRANCH  24  25
ENDBRANCH  23  24
ENDBRANCH  20  23
ENDBRANCH  16  20
BRANCH  18  31
HETATM   31  O7  UNL     1      25.418  -2.198  13.256  1.00  0.00    -0.343 OA
ATOM     32  H7  UNL     1      25.324  -2.802  12.530  1.00  0.00     0.219 HD
ENDBRANCH  18  31
ENDBRANCH  12  14
ENDBRANCH   5  12
BRANCH   3  33
HETATM   33  O1  UNL     1      24.542   1.559  11.978  1.00  0.00    -0.358 OA
ATOM     34  H1  UNL     1      24.999   1.033  12.624  1.00  0.00     0.217 HD
ENDBRANCH   3  33
BRANCH   8  35
HETATM   35  O9  UNL     1      27.065   5.534   9.196  1.00  0.00    -0.279 OA
ATOM     36  H9  UNL     1      26.812   6.438   9.341  1.00  0.00     0.245 HD
ENDBRANCH   8  35
BRANCH   9  37
HETATM   37  C14 UNL     1      24.509   6.056  10.256  1.00  0.00     0.101 C 
BRANCH  37  38
HETATM   38  N6  UNL     1      23.270   6.252   9.596  1.00  0.00    -0.298 N 
HETATM   39  C15 UNL     1      22.067   6.776  10.103  1.00  0.00     0.288 C 
HETATM   40  O10 UNL     1      21.809   7.170  11.227  1.00  0.00    -0.629 OA
HETATM   41  O11 UNL     1      20.954   6.882   9.206  1.00  0.00    -0.629 OA
ATOM     42  H6  UNL     1      23.247   5.974   8.615  1.00  0.00     0.172 HD
ENDBRANCH  37  38
BRANCH  37  43
HETATM   43  C16 UNL     1      25.236   7.293  10.698  1.00  0.00     0.307 C 
BRANCH  43  44
HETATM   44  O12 UNL     1      24.471   7.938  11.641  1.00  0.00    -0.366 OA
ATOM     45  H12 UNL     1      23.554   7.822  11.419  1.00  0.00     0.213 HD
ENDBRANCH  43  44
BRANCH  43  46
HETATM   46  O13 UNL     1      25.330   8.088   9.488  1.00  0.00    -0.366 OA
ATOM     47  H13 UNL     1      25.322   8.984   9.805  1.00  0.00     0.213 HD
ENDBRANCH  43  46
ENDBRANCH  37  43
ENDBRANCH   9  37
TORSDOF 19
ENDMDL
MODEL 2
REMARK VINA RESULT: -7.011650909      1.443      2.723
REMARK  19 active torsions:
REMARK  status: ('A' for Active; 'I' for Inactive)
REMARK    1  A    between atoms: C2_3  and  O1_4 
REMARK    2  A    between atoms: C4_7  and  O2_8 
REMARK    3  A    between atoms: C4_7  and  N2_10 
REMARK    4  A    between atoms: N2_10  and  C5_12 
REMARK    5  A    between atoms: N3_14  and  C7_15 
REMARK    6  A    between atoms: C7_15  and  O3_16 
REMARK    7  A    between atoms: C7_15  and  O4_18 
REMARK    8  A    between atoms: O4_18  and  C8_19 
REMARK    9  A    between atoms: C8_19  and  C9_20 
REMARK   10  A    between atoms: C9_20  and  O5_21 
REMARK   11  A    between atoms: C9_20  and  C10_23 
REMARK   12  A    between atoms: C10_23  and  O6_24 
REMARK   13  A    between atoms: C11_28  and  O7_29 
REMARK   14  A    between atoms: N5_33  and  O9_34 
REMARK   15  A    between atoms: C13_36  and  C14_37 
REMARK   16  A    between atoms: C14_37  and  N6_38 
REMARK   17  A    between atoms: C14_37  and  C16_43 
REMARK       I    between atoms: N6_38  and  C15_40 
REMARK   18  A    between atoms: C16_43  and  O12_44 
REMARK   19  A    between atoms: C16_43  and  O13_46 
ROOT
HETATM    1  N1  UNL     1      28.233   3.382   9.856  1.00  0.00    -0.097 NA
HETATM    2  C1  UNL     1      26.926   2.913  10.181  1.00  0.00     0.112 A 
HETATM    3  C2  UNL     1      26.978   1.687  10.848  1.00  0.00     0.112 A 
HETATM    4  C3  UNL     1      25.814   1.188  11.364  1.00  0.00     0.120 A 
HETATM    5  C4  UNL     1      25.820   0.019  12.008  1.00  0.00     0.159 C 
HETATM    6  C12 UNL     1      24.688   1.924  11.189  1.00  0.00     0.289 A 
HETATM    7  O8  UNL     1      23.618   1.499  11.647  1.00  0.00    -0.265 OA
HETATM    8  N5  UNL     1      24.672   3.126  10.526  1.00  0.00    -0.183 N 
HETATM    9  C13 UNL     1      25.800   3.665   9.992  1.00  0.00     0.121 A 
ENDROOT
BRANCH   5  10
HETATM   10  O2  UNL     1      24.620  -0.448  12.513  1.00  0.00    -0.345 OA
ATOM     11  H2  UNL     1      24.115   0.133  13.070  1.00  0.00     0.219 HD
ENDBRANCH   5  10
BRANCH   5  12
HETATM   12  N2  UNL     1      26.973  -0.770  12.206  1.00  0.00    -0.332 N 
ATOM     13  H2  UNL     1      27.434  -1.164  11.386  1.00  0.00     0.168 HD
BRANCH  12  14
HETATM   14  C5  UNL     1      27.524  -1.045  13.482  1.00  0.00     0.104 A 
HETATM   15  C6  UNL     1      28.676  -0.583  14.072  1.00  0.00     0.149 A 
HETATM   16  N3  UNL     1      28.819  -1.108  15.312  1.00  0.00    -0.246 N 
HETATM   17  N4  UNL     1      27.773  -1.880  15.479  1.00  0.00    -0.272 N 
HETATM   18  C11 UNL     1      26.958  -1.884  14.412  1.00  0.00     0.184 A 
ATOM     19  H4  UNL     1      27.597  -2.418  16.326  1.00  0.00     0.189 HD
BRANCH  16  20
HETATM   20  C7  UNL     1      29.946  -0.824  16.222  1.00  0.00     0.390 C 
BRANCH  20  21
HETATM   21  O3  UNL     1      29.915  -1.879  17.209  1.00  0.00    -0.353 OA
ATOM     22  H3  UNL     1      30.763  -2.303  17.150  1.00  0.00     0.214 HD
ENDBRANCH  20  21
BRANCH  20  23
HETATM   23  O4  UNL     1      29.865   0.361  16.755  1.00  0.00    -0.340 OA
BRANCH  23  24
HETATM   24  C8  UNL     1      30.455   1.498  16.655  1.00  0.00     0.206 C 
BRANCH  24  25
HETATM   25  C9  UNL     1      30.025   2.788  17.268  1.00  0.00     0.165 C 
BRANCH  25  26
HETATM   26  O5  UNL     1      29.838   2.427  18.685  1.00  0.00    -0.391 OA
ATOM     27  H5  UNL     1      30.607   2.803  19.099  1.00  0.00     0.210 HD
ENDBRANCH  25  26
BRANCH  25  28
HETATM   28  C10 UNL     1      30.997   3.904  17.349  1.00  0.00     0.198 C 
BRANCH  28  29
HETATM   29  O6  UNL     1      30.504   5.075  16.874  1.00  0.00    -0.398 OA
ATOM     30  H6  UNL     1      31.099   5.805  16.993  1.00  0.00     0.209 HD
ENDBRANCH  28  29
ENDBRANCH  25  28
ENDBRANCH  24  25
ENDBRANCH  23  24
ENDBRANCH  20  23
ENDBRANCH  16  20
BRANCH  18  31
HETATM   31  O7  UNL     1      25.755  -2.597  14.255  1.00  0.00    -0.343 OA
ATOM     32  H7  UNL     1      25.175  -2.871  14.956  1.00  0.00     0.219 HD
ENDBRANCH  18  31
ENDBRANCH  12  14
ENDBRANCH   5  12
BRANCH   3  33
HETATM   33  O1  UNL     1      28.147   0.972  11.003  1.00  0.00    -0.358 OA
ATOM     34  H1  UNL     1      28.179   0.023  10.962  1.00  0.00     0.217 HD
ENDBRANCH   3  33
BRANCH   8  35
HETATM   35  O9  UNL     1      23.455   3.722  10.434  1.00  0.00    -0.279 OA
ATOM     36  H9  UNL     1      22.766   3.184  10.062  1.00  0.00     0.245 HD
ENDBRANCH   8  35
BRANCH   9  37
HETATM   37  C14 UNL     1      25.768   4.750   9.200  1.00  0.00     0.101 C 
BRANCH  37  38
HETATM   38  N6  UNL     1      25.904   6.059   9.726  1.00  0.00    -0.298 N 
HETATM   39  C15 UNL     1      24.938   6.871  10.349  1.00  0.00     0.288 C 
HETATM   40  O10 UNL     1      23.763   6.642  10.569  1.00  0.00    -0.629 OA
HETATM   41  O11 UNL     1      25.350   8.164  10.809  1.00  0.00    -0.629 OA
ATOM     42  H6  UNL     1      26.834   6.471   9.641  1.00  0.00     0.172 HD
ENDBRANCH  37  38
BRANCH  37  43
HETATM   43  C16 UNL     1      25.400   4.645   7.748  1.00  0.00     0.307 C 
BRANCH  43  44
HETATM   44  O12 UNL     1      26.112   5.589   7.046  1.00  0.00    -0.366 OA
ATOM     45  H12 UNL     1      26.865   5.167   6.648  1.00  0.00     0.213 HD
ENDBRANCH  43  44
BRANCH  43  46
HETATM   46  O13 UNL     1      23.983   4.958   7.729  1.00  0.00    -0.366 OA
ATOM     47  H13 UNL     1      23.750   4.890   6.811  1.00  0.00     0.213 HD
ENDBRANCH  43  46
ENDBRANCH  37  43
ENDBRANCH   9  37
TORSDOF 19
ENDMDL
MODEL 3
REMARK VINA RESULT: -6.988800907      1.042      2.164
REMARK  19 active torsions:
REMARK  status: ('A' for Active; 'I' for Inactive)
REMARK    1  A    between atoms: C2_3  and  O1_4 
REMARK    2  A    between atoms: C4_7  and  O2_8 
REMARK    3  A    between atoms: C4_7  and  N2_10 
REMARK    4  A    between atoms: N2_10  and  C5_12 
REMARK    5  A    between atoms: N3_14  and  C7_15 
REMARK    6  A    between atoms: C7_15  and  O3_16 
REMARK    7  A    between atoms: C7_15  and  O4_18 
REMARK    8  A    between atoms: O4_18  and  C8_19 
REMARK    9  A    between atoms: C8_19  and  C9_20 
REMARK   10  A    between atoms: C9_20  and  O5_21 
REMARK   11  A    between atoms: C9_20  and  C10_23 
REMARK   12  A    between atoms: C10_23  and  O6_24 
REMARK   13  A    between atoms: C11_28  and  O7_29 
REMARK   14  A    between atoms: N5_33  and  O9_34 
REMARK   15  A    between atoms: C13_36  and  C14_37 
REMARK   16  A    between atoms: C14_37  and  N6_38 
REMARK   17  A    between atoms: C14_37  and  C16_43 
REMARK       I    between atoms: N6_38  and  C15_40 
REMARK   18  A    between atoms: C16_43  and  O12_44 
REMARK   19  A    between atoms: C16_43  and  O13_46 
ROOT
HETATM    1  N1  UNL     1      26.986   4.635   9.951  1.00  0.00    -0.097 NA
HETATM    2  C1  UNL     1      25.747   4.091  10.398  1.00  0.00     0.112 A 
HETATM    3  C2  UNL     1      25.898   2.770  10.825  1.00  0.00     0.112 A 
HETATM    4  C3  UNL     1      24.830   2.165  11.429  1.00  0.00     0.120 A 
HETATM    5  C4  UNL     1      24.932   0.903  11.852  1.00  0.00     0.159 C 
HETATM    6  C12 UNL     1      23.696   2.896  11.569  1.00  0.00     0.289 A 
HETATM    7  O8  UNL     1      22.712   2.376  12.114  1.00  0.00    -0.265 OA
HETATM    8  N5  UNL     1      23.581   4.194  11.135  1.00  0.00    -0.183 N 
HETATM    9  C13 UNL     1      24.611   4.840  10.527  1.00  0.00     0.121 A 
ENDROOT
BRANCH   5  10
HETATM   10  O2  UNL     1      23.828   0.331  12.456  1.00  0.00    -0.345 OA
ATOM     11  H2  UNL     1      23.886  -0.580  12.718  1.00  0.00     0.219 HD
ENDBRANCH   5  10
BRANCH   5  12
HETATM   12  N2  UNL     1      26.096   0.116  11.721  1.00  0.00    -0.332 N 
ATOM     13  H2  UNL     1      26.476  -0.032  10.786  1.00  0.00     0.168 HD
BRANCH  12  14
HETATM   14  C5  UNL     1      26.766  -0.480  12.818  1.00  0.00     0.104 A 
HETATM   15  C6  UNL     1      27.937  -0.125  13.445  1.00  0.00     0.149 A 
HETATM   16  N3  UNL     1      28.211  -0.980  14.459  1.00  0.00    -0.246 N 
HETATM   17  N4  UNL     1      27.225  -1.845  14.453  1.00  0.00    -0.272 N 
HETATM   18  C11 UNL     1      26.326  -1.596  13.488  1.00  0.00     0.184 A 
ATOM     19  H4  UNL     1      27.150  -2.621  15.109  1.00  0.00     0.189 HD
BRANCH  16  20
HETATM   20  C7  UNL     1      29.393  -0.892  15.338  1.00  0.00     0.390 C 
BRANCH  20  21
HETATM   21  O3  UNL     1      29.135  -1.815  16.419  1.00  0.00    -0.353 OA
ATOM     22  H3  UNL     1      29.567  -1.441  17.177  1.00  0.00     0.214 HD
ENDBRANCH  20  21
BRANCH  20  23
HETATM   23  O4  UNL     1      29.608   0.321  15.759  1.00  0.00    -0.340 OA
BRANCH  23  24
HETATM   24  C8  UNL     1      30.188   0.904  16.747  1.00  0.00     0.206 C 
BRANCH  24  25
HETATM   25  C9  UNL     1      29.995   2.312  17.196  1.00  0.00     0.165 C 
BRANCH  25  26
HETATM   26  O5  UNL     1      29.835   2.168  18.655  1.00  0.00    -0.391 OA
ATOM     27  H5  UNL     1      30.665   2.489  18.989  1.00  0.00     0.210 HD
ENDBRANCH  25  26
BRANCH  25  28
HETATM   28  C10 UNL     1      31.129   3.261  17.093  1.00  0.00     0.198 C 
BRANCH  28  29
HETATM   29  O6  UNL     1      30.772   4.463  16.577  1.00  0.00    -0.398 OA
ATOM     30  H6  UNL     1      31.476   5.100  16.593  1.00  0.00     0.209 HD
ENDBRANCH  28  29
ENDBRANCH  25  28
ENDBRANCH  24  25
ENDBRANCH  23  24
ENDBRANCH  20  23
ENDBRANCH  16  20
BRANCH  18  31
HETATM   31  O7  UNL     1      25.154  -2.322  13.202  1.00  0.00    -0.343 OA
ATOM     32  H7  UNL     1      24.290  -2.143  13.552  1.00  0.00     0.219 HD
ENDBRANCH  18  31
ENDBRANCH  12  14
ENDBRANCH   5  12
BRANCH   3  33
HETATM   33  O1  UNL     1      27.071   2.063  10.663  1.00  0.00    -0.358 OA
ATOM     34  H1  UNL     1      27.092   1.164  10.357  1.00  0.00     0.217 HD
ENDBRANCH   3  33
BRANCH   8  35
HETATM   35  O9  UNL     1      22.370   4.771  11.346  1.00  0.00    -0.279 OA
ATOM     36  H9  UNL     1      22.303   5.297  12.134  1.00  0.00     0.245 HD
ENDBRANCH   8  35
BRANCH   9  37
HETATM   37  C14 UNL     1      24.458   6.043   9.950  1.00  0.00     0.101 C 
BRANCH  37  38
HETATM   38  N6  UNL     1      23.802   6.192   8.701  1.00  0.00    -0.298 N 
HETATM   39  C15 UNL     1      22.462   6.529   8.437  1.00  0.00     0.288 C 
HETATM   40  O10 UNL     1      21.555   6.758   9.217  1.00  0.00    -0.629 OA
HETATM   41  O11 UNL     1      22.057   6.630   7.066  1.00  0.00    -0.629 OA
ATOM     42  H6  UNL     1      24.384   6.033   7.879  1.00  0.00     0.172 HD
ENDBRANCH  37  38
BRANCH  37  43
HETATM   43  C16 UNL     1      25.135   7.265  10.501  1.00  0.00     0.307 C 
BRANCH  43  44
HETATM   44  O12 UNL     1      24.325   7.818  11.466  1.00  0.00    -0.366 OA
ATOM     45  H12 UNL     1      24.792   8.532  11.882  1.00  0.00     0.213 HD
ENDBRANCH  43  44
BRANCH  43  46
HETATM   46  O13 UNL     1      25.236   8.149   9.354  1.00  0.00    -0.366 OA
ATOM     47  H13 UNL     1      24.930   8.985   9.687  1.00  0.00     0.213 HD
ENDBRANCH  43  46
ENDBRANCH  37  43
ENDBRANCH   9  37
TORSDOF 19
ENDMDL
MODEL 4
REMARK VINA RESULT: -6.714357201      1.347      2.367
REMARK  19 active torsions:
REMARK  status: ('A' for Active; 'I' for Inactive)
REMARK    1  A    between atoms: C2_3  and  O1_4 
REMARK    2  A    between atoms: C4_7  and  O2_8 
REMARK    3  A    between atoms: C4_7  and  N2_10 
REMARK    4  A    between atoms: N2_10  and  C5_12 
REMARK    5  A    between atoms: N3_14  and  C7_15 
REMARK    6  A    between atoms: C7_15  and  O3_16 
REMARK    7  A    between atoms: C7_15  and  O4_18 
REMARK    8  A    between atoms: O4_18  and  C8_19 
REMARK    9  A    between atoms: C8_19  and  C9_20 
REMARK   10  A    between atoms: C9_20  and  O5_21 
REMARK   11  A    between atoms: C9_20  and  C10_23 
REMARK   12  A    between atoms: C10_23  and  O6_24 
REMARK   13  A    between atoms: C11_28  and  O7_29 
REMARK   14  A    between atoms: N5_33  and  O9_34 
REMARK   15  A    between atoms: C13_36  and  C14_37 
REMARK   16  A    between atoms: C14_37  and  N6_38 
REMARK   17  A    between atoms: C14_37  and  C16_43 
REMARK       I    between atoms: N6_38  and  C15_40 
REMARK   18  A    between atoms: C16_43  and  O12_44 
REMARK   19  A    between atoms: C16_43  and  O13_46 
ROOT
HETATM    1  N1  UNL     1      26.723   4.704   9.890  1.00  0.00    -0.097 NA
HETATM    2  C1  UNL     1      25.658   3.997  10.521  1.00  0.00     0.112 A 
HETATM    3  C2  UNL     1      25.999   2.661  10.746  1.00  0.00     0.112 A 
HETATM    4  C3  UNL     1      25.141   1.896  11.486  1.00  0.00     0.120 A 
HETATM    5  C4  UNL     1      25.429   0.615  11.724  1.00  0.00     0.159 C 
HETATM    6  C12 UNL     1      24.014   2.493  11.949  1.00  0.00     0.289 A 
HETATM    7  O8  UNL     1      23.218   1.825  12.624  1.00  0.00    -0.265 OA
HETATM    8  N5  UNL     1      23.708   3.809  11.707  1.00  0.00    -0.183 N 
HETATM    9  C13 UNL     1      24.526   4.612  10.976  1.00  0.00     0.121 A 
ENDROOT
BRANCH   5  10
HETATM   10  O2  UNL     1      24.532  -0.122  12.476  1.00  0.00    -0.345 OA
ATOM     11  H2  UNL     1      24.881  -0.689  13.153  1.00  0.00     0.219 HD
ENDBRANCH   5  10
BRANCH   5  12
HETATM   12  N2  UNL     1      26.591  -0.036  11.257  1.00  0.00    -0.332 N 
ATOM     13  H2  UNL     1      26.764  -0.052  10.251  1.00  0.00     0.168 HD
BRANCH  12  14
HETATM   14  C5  UNL     1      27.530  -0.669  12.107  1.00  0.00     0.104 A 
HETATM   15  C6  UNL     1      27.768  -0.501  13.451  1.00  0.00     0.149 A 
HETATM   16  N3  UNL     1      28.767  -1.317  13.863  1.00  0.00    -0.246 N 
HETATM   17  N4  UNL     1      29.136  -1.973  12.790  1.00  0.00    -0.272 N 
HETATM   18  C11 UNL     1      28.429  -1.625  11.703  1.00  0.00     0.184 A 
ATOM     19  H4  UNL     1      29.878  -2.672  12.781  1.00  0.00     0.189 HD
BRANCH  16  20
HETATM   20  C7  UNL     1      29.278  -1.392  15.245  1.00  0.00     0.390 C 
BRANCH  20  21
HETATM   21  O3  UNL     1      28.328  -2.212  15.960  1.00  0.00    -0.353 OA
ATOM     22  H3  UNL     1      28.823  -2.616  16.663  1.00  0.00     0.214 HD
ENDBRANCH  20  21
BRANCH  20  23
HETATM   23  O4  UNL     1      29.424  -0.215  15.783  1.00  0.00    -0.340 OA
BRANCH  23  24
HETATM   24  C8  UNL     1      30.353   0.660  15.933  1.00  0.00     0.206 C 
BRANCH  24  25
HETATM   25  C9  UNL     1      30.529   1.592  17.084  1.00  0.00     0.165 C 
BRANCH  25  26
HETATM   26  O5  UNL     1      31.930   2.028  16.936  1.00  0.00    -0.391 OA
ATOM     27  H5  UNL     1      31.941   2.857  17.401  1.00  0.00     0.210 HD
ENDBRANCH  25  26
BRANCH  25  28
HETATM   28  C10 UNL     1      29.795   2.879  17.085  1.00  0.00     0.198 C 
BRANCH  28  29
HETATM   29  O6  UNL     1      30.556   3.927  16.680  1.00  0.00    -0.398 OA
ATOM     30  H6  UNL     1      30.556   4.045  15.737  1.00  0.00     0.209 HD
ENDBRANCH  28  29
ENDBRANCH  25  28
ENDBRANCH  24  25
ENDBRANCH  23  24
ENDBRANCH  20  23
ENDBRANCH  16  20
BRANCH  18  31
HETATM   31  O7  UNL     1      28.565  -2.130  10.395  1.00  0.00    -0.343 OA
ATOM     32  H7  UNL     1      29.380  -2.232   9.920  1.00  0.00     0.219 HD
ENDBRANCH  18  31
ENDBRANCH  12  14
ENDBRANCH   5  12
BRANCH   3  33
HETATM   33  O1  UNL     1      27.158   2.095  10.256  1.00  0.00    -0.358 OA
ATOM     34  H1  UNL     1      27.190   1.618   9.434  1.00  0.00     0.217 HD
ENDBRANCH   3  33
BRANCH   8  35
HETATM   35  O9  UNL     1      22.534   4.239  12.237  1.00  0.00    -0.279 OA
ATOM     36  H9  UNL     1      22.014   4.799  11.672  1.00  0.00     0.245 HD
ENDBRANCH   8  35
BRANCH   9  37
HETATM   37  C14 UNL     1      24.159   5.846  10.592  1.00  0.00     0.101 C 
BRANCH  37  38
HETATM   38  N6  UNL     1      22.975   6.072   9.846  1.00  0.00    -0.298 N 
HETATM   39  C15 UNL     1      21.755   6.634  10.264  1.00  0.00     0.288 C 
HETATM   40  O10 UNL     1      21.430   7.045  11.363  1.00  0.00    -0.629 OA
HETATM   41  O11 UNL     1      20.711   6.764   9.289  1.00  0.00    -0.629 OA
ATOM     42  H6  UNL     1      23.013   5.786   8.867  1.00  0.00     0.172 HD
ENDBRANCH  37  38
BRANCH  37  43
HETATM   43  C16 UNL     1      25.074   7.024  10.770  1.00  0.00     0.307 C 
BRANCH  43  44
HETATM   44  O12 UNL     1      24.424   7.974  11.524  1.00  0.00    -0.366 OA
ATOM     45  H12 UNL     1      24.146   7.575  12.340  1.00  0.00     0.213 HD
ENDBRANCH  43  44
BRANCH  43  46
HETATM   46  O13 UNL     1      25.284   7.503   9.417  1.00  0.00    -0.366 OA
ATOM     47  H13 UNL     1      24.490   7.247   8.962  1.00  0.00     0.213 HD
ENDBRANCH  43  46
ENDBRANCH  37  43
ENDBRANCH   9  37
TORSDOF 19
ENDMDL
MODEL 5
REMARK VINA RESULT: -6.625227318      1.179      1.540
REMARK  19 active torsions:
REMARK  status: ('A' for Active; 'I' for Inactive)
REMARK    1  A    between atoms: C2_3  and  O1_4 
REMARK    2  A    between atoms: C4_7  and  O2_8 
REMARK    3  A    between atoms: C4_7  and  N2_10 
REMARK    4  A    between atoms: N2_10  and  C5_12 
REMARK    5  A    between atoms: N3_14  and  C7_15 
REMARK    6  A    between atoms: C7_15  and  O3_16 
REMARK    7  A    between atoms: C7_15  and  O4_18 
REMARK    8  A    between atoms: O4_18  and  C8_19 
REMARK    9  A    between atoms: C8_19  and  C9_20 
REMARK   10  A    between atoms: C9_20  and  O5_21 
REMARK   11  A    between atoms: C9_20  and  C10_23 
REMARK   12  A    between atoms: C10_23  and  O6_24 
REMARK   13  A    between atoms: C11_28  and  O7_29 
REMARK   14  A    between atoms: N5_33  and  O9_34 
REMARK   15  A    between atoms: C13_36  and  C14_37 
REMARK   16  A    between atoms: C14_37  and  N6_38 
REMARK   17  A    between atoms: C14_37  and  C16_43 
REMARK       I    between atoms: N6_38  and  C15_40 
REMARK   18  A    between atoms: C16_43  and  O12_44 
REMARK   19  A    between atoms: C16_43  and  O13_46 
ROOT
HETATM    1  N1  UNL     1      22.962   3.914  10.641  1.00  0.00    -0.097 NA
HETATM    2  C1  UNL     1      24.382   3.983  10.527  1.00  0.00     0.112 A 
HETATM    3  C2  UNL     1      24.973   2.745  10.787  1.00  0.00     0.112 A 
HETATM    4  C3  UNL     1      26.316   2.616  10.563  1.00  0.00     0.120 A 
HETATM    5  C4  UNL     1      26.920   1.450  10.798  1.00  0.00     0.159 C 
HETATM    6  C12 UNL     1      26.979   3.706  10.104  1.00  0.00     0.289 A 
HETATM    7  O8  UNL     1      28.197   3.620   9.889  1.00  0.00    -0.265 OA
HETATM    8  N5  UNL     1      26.367   4.911   9.861  1.00  0.00    -0.183 N 
HETATM    9  C13 UNL     1      25.036   5.093  10.069  1.00  0.00     0.121 A 
ENDROOT
BRANCH   5  10
HETATM   10  O2  UNL     1      28.279   1.364  10.558  1.00  0.00    -0.345 OA
ATOM     11  H2  UNL     1      28.564   0.939   9.758  1.00  0.00     0.219 HD
ENDBRANCH   5  10
BRANCH   5  12
HETATM   12  N2  UNL     1      26.259   0.297  11.276  1.00  0.00    -0.332 N 
ATOM     13  H2  UNL     1      25.417  -0.012  10.790  1.00  0.00     0.168 HD
BRANCH  12  14
HETATM   14  C5  UNL     1      26.701  -0.453  12.393  1.00  0.00     0.104 A 
HETATM   15  C6  UNL     1      27.875  -0.381  13.105  1.00  0.00     0.149 A 
HETATM   16  N3  UNL     1      27.881  -1.293  14.106  1.00  0.00    -0.246 N 
HETATM   17  N4  UNL     1      26.730  -1.915  14.008  1.00  0.00    -0.272 N 
HETATM   18  C11 UNL     1      25.978  -1.454  12.996  1.00  0.00     0.184 A 
ATOM     19  H4  UNL     1      26.439  -2.666  14.633  1.00  0.00     0.189 HD
BRANCH  16  20
HETATM   20  C7  UNL     1      28.988  -1.488  15.062  1.00  0.00     0.390 C 
BRANCH  20  21
HETATM   21  O3  UNL     1      28.430  -2.270  16.140  1.00  0.00    -0.353 OA
ATOM     22  H3  UNL     1      28.937  -2.037  16.908  1.00  0.00     0.214 HD
ENDBRANCH  20  21
BRANCH  20  23
HETATM   23  O4  UNL     1      29.491  -0.359  15.473  1.00  0.00    -0.340 OA
BRANCH  23  24
HETATM   24  C8  UNL     1      30.625   0.245  15.461  1.00  0.00     0.206 C 
BRANCH  24  25
HETATM   25  C9  UNL     1      31.404   0.713  16.643  1.00  0.00     0.165 C 
BRANCH  25  26
HETATM   26  O5  UNL     1      31.360   2.180  16.500  1.00  0.00    -0.391 OA
ATOM     27  H5  UNL     1      32.102   2.358  15.933  1.00  0.00     0.210 HD
ENDBRANCH  25  26
BRANCH  25  28
HETATM   28  C10 UNL     1      30.844   0.509  17.999  1.00  0.00     0.198 C 
BRANCH  28  29
HETATM   29  O6  UNL     1      30.352  -0.741  18.189  1.00  0.00    -0.398 OA
ATOM     30  H6  UNL     1      29.406  -0.785  18.115  1.00  0.00     0.209 HD
ENDBRANCH  28  29
ENDBRANCH  25  28
ENDBRANCH  24  25
ENDBRANCH  23  24
ENDBRANCH  20  23
ENDBRANCH  16  20
BRANCH  18  31
HETATM   31  O7  UNL     1      24.698  -1.893  12.611  1.00  0.00    -0.343 OA
ATOM     32  H7  UNL     1      24.485  -2.351  11.807  1.00  0.00     0.219 HD
ENDBRANCH  18  31
ENDBRANCH  12  14
ENDBRANCH   5  12
BRANCH   3  33
HETATM   33  O1  UNL     1      24.258   1.661  11.253  1.00  0.00    -0.358 OA
ATOM     34  H1  UNL     1      24.676   0.872  11.581  1.00  0.00     0.217 HD
ENDBRANCH   3  33
BRANCH   8  35
HETATM   35  O9  UNL     1      27.185   5.899   9.415  1.00  0.00    -0.279 OA
ATOM     36  H9  UNL     1      27.098   6.732   9.863  1.00  0.00     0.245 HD
ENDBRANCH   8  35
BRANCH   9  37
HETATM   37  C14 UNL     1      24.460   6.305   9.998  1.00  0.00     0.101 C 
BRANCH  37  38
HETATM   38  N6  UNL     1      23.826   6.759   8.814  1.00  0.00    -0.298 N 
HETATM   39  C15 UNL     1      22.455   6.933   8.552  1.00  0.00     0.288 C 
HETATM   40  O10 UNL     1      21.498   6.724   9.276  1.00  0.00    -0.629 OA
HETATM   41  O11 UNL     1      22.080   7.428   7.260  1.00  0.00    -0.629 OA
ATOM     42  H6  UNL     1      24.452   6.992   8.043  1.00  0.00     0.172 HD
ENDBRANCH  37  38
BRANCH  37  43
HETATM   43  C16 UNL     1      24.622   7.312  11.101  1.00  0.00     0.307 C 
BRANCH  43  44
HETATM   44  O12 UNL     1      23.408   7.919  11.321  1.00  0.00    -0.366 OA
ATOM     45  H12 UNL     1      23.018   8.131  10.481  1.00  0.00     0.213 HD
ENDBRANCH  43  44
BRANCH  43  46
HETATM   46  O13 UNL     1      25.577   8.262  10.560  1.00  0.00    -0.366 OA
ATOM     47  H13 UNL     1      25.032   8.979  10.256  1.00  0.00     0.213 HD
ENDBRANCH  43  46
ENDBRANCH  37  43
ENDBRANCH   9  37
TORSDOF 19
ENDMDL
