MODEL 1
REMARK VINA RESULT: -8.038390575      0.000      0.000
REMARK  6 active torsions:
REMARK  status: ('A' for Active; 'I' for Inactive)
REMARK    1  A    between atoms: C2_2  and  C3_3 
REMARK    2  A    between atoms: C3_3  and  C4_4 
REMARK    3  A    between atoms: C4_4  and  C5_5 
REMARK    4  A    between atoms: C5_5  and  C6_6 
REMARK    5  A    between atoms: C6_6  and  N1_7 
REMARK    6  A    between atoms: N1_7  and  C7_9 
ROOT
HETATM    1  C7  UNL     1      13.433  30.012  49.500  1.00  0.00     0.115 A 
HETATM    2  N2  UNL     1      13.262  29.256  50.595  1.00  0.00    -0.341 N 
ATOM      3  H2  UNL     1      12.802  29.684  51.398  1.00  0.00     0.167 HD
HETATM    4  C8  UNL     1      13.653  27.973  50.709  1.00  0.00     0.044 A 
HETATM    5  C9  UNL     1      13.432  27.276  51.878  1.00  0.00     0.030 A 
HETATM    6  C10 UNL     1      13.843  25.967  51.963  1.00  0.00     0.002 A 
HETATM    7  C11 UNL     1      14.466  25.317  50.934  1.00  0.00     0.001 A 
HETATM    8  C12 UNL     1      14.679  26.045  49.756  1.00  0.00     0.014 A 
HETATM    9  C13 UNL     1      14.286  27.361  49.620  1.00  0.00     0.002 A 
HETATM   10  C14 UNL     1      14.494  28.078  48.466  1.00  0.00    -0.007 A 
HETATM   11  C15 UNL     1      15.113  27.492  47.392  1.00  0.00     0.014 A 
HETATM   12  C16 UNL     1      15.300  28.256  46.254  1.00  0.00     0.015 A 
HETATM   13  C17 UNL     1      14.877  29.563  46.199  1.00  0.00     0.001 A 
HETATM   14  C18 UNL     1      14.924  30.540  45.233  1.00  0.00     0.039 A 
HETATM   15  C19 UNL     1      14.331  31.659  45.776  1.00  0.00     0.143 A 
HETATM   16  O1  UNL     1      13.947  31.378  47.005  1.00  0.00    -0.321 OA
HETATM   17  C20 UNL     1      14.257  30.122  47.302  1.00  0.00     0.100 A 
HETATM   18  C21 UNL     1      14.060  29.394  48.435  1.00  0.00     0.053 A 
ENDROOT
BRANCH   1  19
HETATM   19  N1  UNL     1      13.040  31.248  49.434  1.00  0.00    -0.376 N 
ATOM     20  H1  UNL     1      12.303  31.535  48.789  1.00  0.00     0.161 HD
BRANCH  19  21
HETATM   21  C6  UNL     1      13.677  32.193  50.299  1.00  0.00     0.121 C 
BRANCH  21  22
HETATM   22  C5  UNL     1      15.170  32.181  50.214  1.00  0.00     0.020 C 
BRANCH  22  23
HETATM   23  C4  UNL     1      15.845  31.919  51.523  1.00  0.00     0.002 C 
BRANCH  23  24
HETATM   24  C3  UNL     1      16.372  30.520  51.656  1.00  0.00    -0.000 C 
BRANCH  24  25
HETATM   25  C2  UNL     1      16.033  29.866  52.956  1.00  0.00    -0.005 C 
HETATM   26  C1  UNL     1      14.700  30.439  53.420  1.00  0.00     0.005 C 
ENDBRANCH  24  25
ENDBRANCH  23  24
ENDBRANCH  22  23
ENDBRANCH  21  22
ENDBRANCH  19  21
ENDBRANCH   1  19
TORSDOF 6
ENDMDL
MODEL 2
REMARK VINA RESULT: -7.863914741      1.916      4.863
REMARK  6 active torsions:
REMARK  status: ('A' for Active; 'I' for Inactive)
REMARK    1  A    between atoms: C2_2  and  C3_3 
REMARK    2  A    between atoms: C3_3  and  C4_4 
REMARK    3  A    between atoms: C4_4  and  C5_5 
REMARK    4  A    between atoms: C5_5  and  C6_6 
REMARK    5  A    between atoms: C6_6  and  N1_7 
REMARK    6  A    between atoms: N1_7  and  C7_9 
ROOT
HETATM    1  C7  UNL     1      15.089  29.514  49.762  1.00  0.00     0.115 A 
HETATM    2  N2  UNL     1      15.328  30.470  48.852  1.00  0.00    -0.341 N 
ATOM      3  H2  UNL     1      15.953  31.231  49.118  1.00  0.00     0.167 HD
HETATM    4  C8  UNL     1      14.801  30.499  47.613  1.00  0.00     0.044 A 
HETATM    5  C9  UNL     1      15.107  31.527  46.747  1.00  0.00     0.030 A 
HETATM    6  C10 UNL     1      14.553  31.527  45.489  1.00  0.00     0.002 A 
HETATM    7  C11 UNL     1      13.705  30.547  45.052  1.00  0.00     0.001 A 
HETATM    8  C12 UNL     1      13.409  29.513  45.949  1.00  0.00     0.014 A 
HETATM    9  C13 UNL     1      13.939  29.467  47.222  1.00  0.00     0.002 A 
HETATM   10  C14 UNL     1      13.650  28.454  48.106  1.00  0.00    -0.007 A 
HETATM   11  C15 UNL     1      12.808  27.437  47.737  1.00  0.00     0.014 A 
HETATM   12  C16 UNL     1      12.549  26.441  48.662  1.00  0.00     0.015 A 
HETATM   13  C17 UNL     1      13.118  26.468  49.913  1.00  0.00     0.001 A 
HETATM   14  C18 UNL     1      13.049  25.643  51.011  1.00  0.00     0.039 A 
HETATM   15  C19 UNL     1      13.851  26.206  51.978  1.00  0.00     0.143 A 
HETATM   16  O1  UNL     1      14.379  27.313  51.496  1.00  0.00    -0.321 OA
HETATM   17  C20 UNL     1      13.963  27.510  50.251  1.00  0.00     0.100 A 
HETATM   18  C21 UNL     1      14.235  28.504  49.361  1.00  0.00     0.053 A 
ENDROOT
BRANCH   1  19
HETATM   19  N1  UNL     1      15.619  29.527  50.947  1.00  0.00    -0.376 N 
ATOM     20  H1  UNL     1      15.898  28.662  51.411  1.00  0.00     0.161 HD
BRANCH  19  21
HETATM   21  C6  UNL     1      15.798  30.798  51.579  1.00  0.00     0.121 C 
BRANCH  21  22
HETATM   22  C5  UNL     1      15.338  30.838  53.001  1.00  0.00     0.020 C 
BRANCH  22  23
HETATM   23  C4  UNL     1      14.130  29.996  53.267  1.00  0.00     0.002 C 
BRANCH  23  24
HETATM   24  C3  UNL     1      12.834  30.714  53.027  1.00  0.00    -0.000 C 
BRANCH  24  25
HETATM   25  C2  UNL     1      12.137  30.300  51.772  1.00  0.00    -0.005 C 
HETATM   26  C1  UNL     1      12.379  31.388  50.735  1.00  0.00     0.005 C 
ENDBRANCH  24  25
ENDBRANCH  23  24
ENDBRANCH  22  23
ENDBRANCH  21  22
ENDBRANCH  19  21
ENDBRANCH   1  19
TORSDOF 6
ENDMDL
MODEL 3
REMARK VINA RESULT: -7.840237564      2.072      4.613
REMARK  6 active torsions:
REMARK  status: ('A' for Active; 'I' for Inactive)
REMARK    1  A    between atoms: C2_2  and  C3_3 
REMARK    2  A    between atoms: C3_3  and  C4_4 
REMARK    3  A    between atoms: C4_4  and  C5_5 
REMARK    4  A    between atoms: C5_5  and  C6_6 
REMARK    5  A    between atoms: C6_6  and  N1_7 
REMARK    6  A    between atoms: N1_7  and  C7_9 
ROOT
HETATM    1  C7  UNL     1      13.700  28.278  47.792  1.00  0.00     0.115 A 
HETATM    2  N2  UNL     1      13.243  27.194  48.437  1.00  0.00    -0.341 N 
ATOM      3  H2  UNL     1      12.791  26.469  47.880  1.00  0.00     0.167 HD
HETATM    4  C8  UNL     1      13.337  26.996  49.765  1.00  0.00     0.044 A 
HETATM    5  C9  UNL     1      12.835  25.846  50.337  1.00  0.00     0.030 A 
HETATM    6  C10 UNL     1      12.946  25.673  51.696  1.00  0.00     0.002 A 
HETATM    7  C11 UNL     1      13.537  26.596  52.515  1.00  0.00     0.001 A 
HETATM    8  C12 UNL     1      14.040  27.755  51.911  1.00  0.00     0.014 A 
HETATM    9  C13 UNL     1      13.953  27.976  50.552  1.00  0.00     0.002 A 
HETATM   10  C14 UNL     1      14.444  29.114  49.956  1.00  0.00    -0.007 A 
HETATM   11  C15 UNL     1      15.049  30.083  50.715  1.00  0.00     0.014 A 
HETATM   12  C16 UNL     1      15.528  31.208  50.068  1.00  0.00     0.015 A 
HETATM   13  C17 UNL     1      15.401  31.353  48.707  1.00  0.00     0.001 A 
HETATM   14  C18 UNL     1      15.769  32.331  47.813  1.00  0.00     0.039 A 
HETATM   15  C19 UNL     1      15.365  31.899  46.569  1.00  0.00     0.143 A 
HETATM   16  O1  UNL     1      14.785  30.724  46.698  1.00  0.00    -0.321 OA
HETATM   17  C20 UNL     1      14.785  30.355  47.974  1.00  0.00     0.100 A 
HETATM   18  C21 UNL     1      14.305  29.237  48.583  1.00  0.00     0.053 A 
ENDROOT
BRANCH   1  19
HETATM   19  N1  UNL     1      13.588  28.428  46.507  1.00  0.00    -0.376 N 
ATOM     20  H1  UNL     1      13.022  29.179  46.110  1.00  0.00     0.161 HD
BRANCH  19  21
HETATM   21  C6  UNL     1      14.285  27.503  45.668  1.00  0.00     0.121 C 
BRANCH  21  22
HETATM   22  C5  UNL     1      15.350  28.131  44.827  1.00  0.00     0.020 C 
BRANCH  22  23
HETATM   23  C4  UNL     1      16.740  27.760  45.239  1.00  0.00     0.002 C 
BRANCH  23  24
HETATM   24  C3  UNL     1      17.490  26.991  44.190  1.00  0.00    -0.000 C 
BRANCH  24  25
HETATM   25  C2  UNL     1      18.651  26.216  44.723  1.00  0.00    -0.005 C 
HETATM   26  C1  UNL     1      18.553  26.235  46.242  1.00  0.00     0.005 C 
ENDBRANCH  24  25
ENDBRANCH  23  24
ENDBRANCH  22  23
ENDBRANCH  21  22
ENDBRANCH  19  21
ENDBRANCH   1  19
TORSDOF 6
ENDMDL
MODEL 4
REMARK VINA RESULT: -7.792889464      2.796      5.557
REMARK  6 active torsions:
REMARK  status: ('A' for Active; 'I' for Inactive)
REMARK    1  A    between atoms: C2_2  and  C3_3 
REMARK    2  A    between atoms: C3_3  and  C4_4 
REMARK    3  A    between atoms: C4_4  and  C5_5 
REMARK    4  A    between atoms: C5_5  and  C6_6 
REMARK    5  A    between atoms: C6_6  and  N1_7 
REMARK    6  A    between atoms: N1_7  and  C7_9 
ROOT
HETATM    1  C7  UNL     1      15.194  27.864  47.503  1.00  0.00     0.115 A 
HETATM    2  N2  UNL     1      15.107  26.914  48.446  1.00  0.00    -0.341 N 
ATOM      3  H2  UNL     1      15.492  25.995  48.228  1.00  0.00     0.167 HD
HETATM    4  C8  UNL     1      14.548  27.086  49.658  1.00  0.00     0.044 A 
HETATM    5  C9  UNL     1      14.506  26.046  50.563  1.00  0.00     0.030 A 
HETATM    6  C10 UNL     1      13.928  26.254  51.793  1.00  0.00     0.002 A 
HETATM    7  C11 UNL     1      13.389  27.454  52.165  1.00  0.00     0.001 A 
HETATM    8  C12 UNL     1      13.444  28.496  51.230  1.00  0.00     0.014 A 
HETATM    9  C13 UNL     1      14.012  28.338  49.983  1.00  0.00     0.002 A 
HETATM   10  C14 UNL     1      14.067  29.358  49.062  1.00  0.00    -0.007 A 
HETATM   11  C15 UNL     1      13.546  30.589  49.366  1.00  0.00     0.014 A 
HETATM   12  C16 UNL     1      13.626  31.583  48.407  1.00  0.00     0.015 A 
HETATM   13  C17 UNL     1      14.211  31.344  47.185  1.00  0.00     0.001 A 
HETATM   14  C18 UNL     1      14.429  32.113  46.066  1.00  0.00     0.039 A 
HETATM   15  C19 UNL     1      15.068  31.304  45.152  1.00  0.00     0.143 A 
HETATM   16  O1  UNL     1      15.229  30.110  45.685  1.00  0.00    -0.321 OA
HETATM   17  C20 UNL     1      14.725  30.090  46.913  1.00  0.00     0.100 A 
HETATM   18  C21 UNL     1      14.660  29.093  47.838  1.00  0.00     0.053 A 
ENDROOT
BRANCH   1  19
HETATM   19  N1  UNL     1      15.743  27.653  46.345  1.00  0.00    -0.376 N 
ATOM     20  H1  UNL     1      15.199  27.713  45.484  1.00  0.00     0.161 HD
BRANCH  19  21
HETATM   21  C6  UNL     1      17.137  27.334  46.321  1.00  0.00     0.121 C 
BRANCH  21  22
HETATM   22  C5  UNL     1      17.675  27.073  44.950  1.00  0.00     0.020 C 
BRANCH  22  23
HETATM   23  C4  UNL     1      18.796  26.083  44.921  1.00  0.00     0.002 C 
BRANCH  23  24
HETATM   24  C3  UNL     1      19.145  25.612  43.539  1.00  0.00    -0.000 C 
BRANCH  24  25
HETATM   25  C2  UNL     1      17.986  25.598  42.595  1.00  0.00    -0.005 C 
HETATM   26  C1  UNL     1      18.067  24.307  41.793  1.00  0.00     0.005 C 
ENDBRANCH  24  25
ENDBRANCH  23  24
ENDBRANCH  22  23
ENDBRANCH  21  22
ENDBRANCH  19  21
ENDBRANCH   1  19
TORSDOF 6
ENDMDL
MODEL 5
REMARK VINA RESULT: -7.743801794      1.423      4.346
REMARK  6 active torsions:
REMARK  status: ('A' for Active; 'I' for Inactive)
REMARK    1  A    between atoms: C2_2  and  C3_3 
REMARK    2  A    between atoms: C3_3  and  C4_4 
REMARK    3  A    between atoms: C4_4  and  C5_5 
REMARK    4  A    between atoms: C5_5  and  C6_6 
REMARK    5  A    between atoms: C6_6  and  N1_7 
REMARK    6  A    between atoms: N1_7  and  C7_9 
ROOT
HETATM    1  C7  UNL     1      13.486  29.910  49.008  1.00  0.00     0.115 A 
HETATM    2  N2  UNL     1      13.645  30.434  47.783  1.00  0.00    -0.341 N 
ATOM      3  H2  UNL     1      13.245  31.355  47.606  1.00  0.00     0.167 HD
HETATM    4  C8  UNL     1      14.295  29.831  46.770  1.00  0.00     0.044 A 
HETATM    5  C9  UNL     1      14.407  30.450  45.543  1.00  0.00     0.030 A 
HETATM    6  C10 UNL     1      15.077  29.808  44.529  1.00  0.00     0.002 A 
HETATM    7  C11 UNL     1      15.644  28.572  44.681  1.00  0.00     0.001 A 
HETATM    8  C12 UNL     1      15.518  27.963  45.937  1.00  0.00     0.014 A 
HETATM    9  C13 UNL     1      14.856  28.565  46.986  1.00  0.00     0.002 A 
HETATM   10  C14 UNL     1      14.729  27.969  48.219  1.00  0.00    -0.007 A 
HETATM   11  C15 UNL     1      15.272  26.731  48.444  1.00  0.00     0.014 A 
HETATM   12  C16 UNL     1      15.118  26.174  49.701  1.00  0.00     0.015 A 
HETATM   13  C17 UNL     1      14.443  26.841  50.696  1.00  0.00     0.001 A 
HETATM   14  C18 UNL     1      14.139  26.549  52.005  1.00  0.00     0.039 A 
HETATM   15  C19 UNL     1      13.432  27.625  52.494  1.00  0.00     0.143 A 
HETATM   16  O1  UNL     1      13.311  28.522  51.537  1.00  0.00    -0.321 OA
HETATM   17  C20 UNL     1      13.908  28.089  50.432  1.00  0.00     0.100 A 
HETATM   18  C21 UNL     1      14.044  28.661  49.204  1.00  0.00     0.053 A 
ENDROOT
BRANCH   1  19
HETATM   19  N1  UNL     1      12.850  30.529  49.956  1.00  0.00    -0.376 N 
ATOM     20  H1  UNL     1      12.197  30.034  50.565  1.00  0.00     0.161 HD
BRANCH  19  21
HETATM   21  C6  UNL     1      13.099  31.929  50.118  1.00  0.00     0.121 C 
BRANCH  21  22
HETATM   22  C5  UNL     1      14.195  32.241  51.085  1.00  0.00     0.020 C 
BRANCH  22  23
HETATM   23  C4  UNL     1      15.548  31.797  50.627  1.00  0.00     0.002 C 
BRANCH  23  24
HETATM   24  C3  UNL     1      16.196  30.802  51.546  1.00  0.00    -0.000 C 
BRANCH  24  25
HETATM   25  C2  UNL     1      15.539  30.699  52.884  1.00  0.00    -0.005 C 
HETATM   26  C1  UNL     1      16.163  29.514  53.608  1.00  0.00     0.005 C 
ENDBRANCH  24  25
ENDBRANCH  23  24
ENDBRANCH  22  23
ENDBRANCH  21  22
ENDBRANCH  19  21
ENDBRANCH   1  19
TORSDOF 6
ENDMDL
