MODEL 1
REMARK VINA RESULT: -10.418593089      0.000      0.000
REMARK  5 active torsions:
REMARK  status: ('A' for Active; 'I' for Inactive)
REMARK    1  A    between atoms: C2_2  and  C3_3 
REMARK    2  A    between atoms: C3_3  and  C4_4 
REMARK    3  A    between atoms: C4_4  and  C5_5 
REMARK    4  A    between atoms: C5_5  and  C6_6 
REMARK    5  A    between atoms: C10_12  and  C11_13 
ROOT
HETATM    1  C6  UNL     1      12.957  30.314  50.526  1.00  0.00    -0.057 A 
HETATM    2  C7  UNL     1      13.273  31.497  49.844  1.00  0.00     0.009 A 
HETATM    3  C8  UNL     1      14.030  31.468  48.714  1.00  0.00     0.031 A 
HETATM    4  C9  UNL     1      14.532  30.306  48.165  1.00  0.00     0.043 A 
HETATM    5  N1  UNL     1      15.283  30.003  47.090  1.00  0.00    -0.355 N 
ATOM      6  H1  UNL     1      15.646  30.687  46.426  1.00  0.00     0.166 HD
HETATM    7  C10 UNL     1      15.493  28.672  47.010  1.00  0.00     0.045 A 
HETATM    8  C20 UNL     1      14.834  28.134  48.093  1.00  0.00     0.044 A 
HETATM    9  C21 UNL     1      14.217  29.136  48.841  1.00  0.00    -0.007 A 
HETATM   10  C22 UNL     1      13.455  29.150  49.984  1.00  0.00     0.021 A 
ENDROOT
BRANCH   7  11
HETATM   11  C11 UNL     1      16.261  27.983  45.978  1.00  0.00     0.007 A 
HETATM   12  C12 UNL     1      15.978  28.163  44.642  1.00  0.00     0.102 A 
HETATM   13  N2  UNL     1      16.682  27.531  43.672  1.00  0.00    -0.364 N 
HETATM   14  C13 UNL     1      17.693  26.694  43.968  1.00  0.00     0.042 A 
ATOM     15  H2  UNL     1      16.440  27.693  42.695  1.00  0.00     0.165 HD
HETATM   16  C14 UNL     1      18.366  26.084  42.919  1.00  0.00     0.030 A 
HETATM   17  C18 UNL     1      18.026  26.469  45.276  1.00  0.00    -0.009 A 
HETATM   18  C15 UNL     1      19.385  25.241  43.275  1.00  0.00     0.002 A 
HETATM   19  C16 UNL     1      19.745  24.994  44.574  1.00  0.00     0.001 A 
HETATM   20  C17 UNL     1      19.053  25.618  45.584  1.00  0.00     0.014 A 
HETATM   21  C19 UNL     1      17.296  27.126  46.274  1.00  0.00     0.029 A 
ENDBRANCH   7  11
BRANCH   1  22
HETATM   22  C5  UNL     1      12.140  30.359  51.745  1.00  0.00     0.038 C 
BRANCH  22  23
HETATM   23  C4  UNL     1      12.922  30.624  52.976  1.00  0.00     0.005 C 
BRANCH  23  24
HETATM   24  C3  UNL     1      14.148  29.749  53.071  1.00  0.00    -0.000 C 
BRANCH  24  25
HETATM   25  C2  UNL     1      15.368  30.667  53.249  1.00  0.00    -0.005 C 
HETATM   26  C1  UNL     1      16.282  30.416  52.090  1.00  0.00     0.005 C 
ENDBRANCH  24  25
ENDBRANCH  23  24
ENDBRANCH  22  23
ENDBRANCH   1  22
TORSDOF 5
ENDMDL
MODEL 2
REMARK VINA RESULT: -9.432332199      0.667      1.031
REMARK  5 active torsions:
REMARK  status: ('A' for Active; 'I' for Inactive)
REMARK    1  A    between atoms: C2_2  and  C3_3 
REMARK    2  A    between atoms: C3_3  and  C4_4 
REMARK    3  A    between atoms: C4_4  and  C5_5 
REMARK    4  A    between atoms: C5_5  and  C6_6 
REMARK    5  A    between atoms: C10_12  and  C11_13 
ROOT
HETATM    1  C6  UNL     1      13.062  30.431  50.449  1.00  0.00    -0.057 A 
HETATM    2  C7  UNL     1      13.522  31.607  49.839  1.00  0.00     0.009 A 
HETATM    3  C8  UNL     1      14.321  31.554  48.739  1.00  0.00     0.031 A 
HETATM    4  C9  UNL     1      14.730  30.373  48.154  1.00  0.00     0.043 A 
HETATM    5  N1  UNL     1      15.495  30.045  47.096  1.00  0.00    -0.355 N 
ATOM      6  H1  UNL     1      15.952  30.719  46.481  1.00  0.00     0.166 HD
HETATM    7  C10 UNL     1      15.577  28.705  46.959  1.00  0.00     0.045 A 
HETATM    8  C20 UNL     1      14.821  28.187  47.987  1.00  0.00     0.044 A 
HETATM    9  C21 UNL     1      14.274  29.211  48.759  1.00  0.00    -0.007 A 
HETATM   10  C22 UNL     1      13.468  29.249  49.870  1.00  0.00     0.021 A 
ENDROOT
BRANCH   7  11
HETATM   11  C11 UNL     1      16.319  27.991  45.925  1.00  0.00     0.007 A 
HETATM   12  C12 UNL     1      16.011  28.148  44.592  1.00  0.00     0.102 A 
HETATM   13  N2  UNL     1      16.691  27.492  43.620  1.00  0.00    -0.364 N 
HETATM   14  C13 UNL     1      17.700  26.652  43.911  1.00  0.00     0.042 A 
ATOM     15  H2  UNL     1      16.431  27.638  42.645  1.00  0.00     0.165 HD
HETATM   16  C14 UNL     1      18.347  26.016  42.862  1.00  0.00     0.030 A 
HETATM   17  C18 UNL     1      18.057  26.448  45.217  1.00  0.00    -0.009 A 
HETATM   18  C15 UNL     1      19.366  25.171  43.213  1.00  0.00     0.002 A 
HETATM   19  C16 UNL     1      19.749  24.946  44.509  1.00  0.00     0.001 A 
HETATM   20  C17 UNL     1      19.083  25.595  45.520  1.00  0.00     0.014 A 
HETATM   21  C19 UNL     1      17.352  27.130  46.217  1.00  0.00     0.029 A 
ENDBRANCH   7  11
BRANCH   1  22
HETATM   22  C5  UNL     1      12.201  30.502  51.635  1.00  0.00     0.038 C 
BRANCH  22  23
HETATM   23  C4  UNL     1      12.950  30.532  52.915  1.00  0.00     0.005 C 
BRANCH  23  24
HETATM   24  C3  UNL     1      14.073  29.524  52.940  1.00  0.00    -0.000 C 
BRANCH  24  25
HETATM   25  C2  UNL     1      13.479  28.170  53.358  1.00  0.00    -0.005 C 
HETATM   26  C1  UNL     1      14.351  27.105  52.770  1.00  0.00     0.005 C 
ENDBRANCH  24  25
ENDBRANCH  23  24
ENDBRANCH  22  23
ENDBRANCH   1  22
TORSDOF 5
ENDMDL
MODEL 3
REMARK VINA RESULT: -8.744674203      1.276      2.089
REMARK  5 active torsions:
REMARK  status: ('A' for Active; 'I' for Inactive)
REMARK    1  A    between atoms: C2_2  and  C3_3 
REMARK    2  A    between atoms: C3_3  and  C4_4 
REMARK    3  A    between atoms: C4_4  and  C5_5 
REMARK    4  A    between atoms: C5_5  and  C6_6 
REMARK    5  A    between atoms: C10_12  and  C11_13 
ROOT
HETATM    1  C6  UNL     1      13.550  31.111  48.759  1.00  0.00    -0.057 A 
HETATM    2  C7  UNL     1      13.342  31.662  47.487  1.00  0.00     0.009 A 
HETATM    3  C8  UNL     1      13.962  31.142  46.393  1.00  0.00     0.031 A 
HETATM    4  C9  UNL     1      14.820  30.062  46.448  1.00  0.00     0.043 A 
HETATM    5  N1  UNL     1      15.543  29.369  45.549  1.00  0.00    -0.355 N 
ATOM      6  H1  UNL     1      15.568  29.568  44.549  1.00  0.00     0.166 HD
HETATM    7  C10 UNL     1      16.231  28.375  46.149  1.00  0.00     0.045 A 
HETATM    8  C20 UNL     1      15.911  28.466  47.486  1.00  0.00     0.044 A 
HETATM    9  C21 UNL     1      15.024  29.518  47.708  1.00  0.00    -0.007 A 
HETATM   10  C22 UNL     1      14.406  30.034  48.821  1.00  0.00     0.021 A 
ENDROOT
BRANCH   7  11
HETATM   11  C11 UNL     1      17.118  27.423  45.488  1.00  0.00     0.007 A 
HETATM   12  C12 UNL     1      18.232  26.928  46.127  1.00  0.00     0.102 A 
HETATM   13  N2  UNL     1      19.065  26.043  45.528  1.00  0.00    -0.364 N 
HETATM   14  C13 UNL     1      18.844  25.605  44.275  1.00  0.00     0.042 A 
ATOM     15  H2  UNL     1      19.879  25.701  46.038  1.00  0.00     0.165 HD
HETATM   16  C14 UNL     1      19.742  24.700  43.730  1.00  0.00     0.030 A 
HETATM   17  C18 UNL     1      17.754  26.057  43.581  1.00  0.00    -0.009 A 
HETATM   18  C15 UNL     1      19.470  24.287  42.452  1.00  0.00     0.002 A 
HETATM   19  C16 UNL     1      18.389  24.719  41.731  1.00  0.00     0.001 A 
HETATM   20  C17 UNL     1      17.523  25.617  42.307  1.00  0.00     0.014 A 
HETATM   21  C19 UNL     1      16.896  26.971  44.207  1.00  0.00     0.029 A 
ENDBRANCH   7  11
BRANCH   1  22
HETATM   22  C5  UNL     1      12.876  31.682  49.931  1.00  0.00     0.038 C 
BRANCH  22  23
HETATM   23  C4  UNL     1      12.676  30.712  51.035  1.00  0.00     0.005 C 
BRANCH  23  24
HETATM   24  C3  UNL     1      13.456  31.088  52.271  1.00  0.00    -0.000 C 
BRANCH  24  25
HETATM   25  C2  UNL     1      14.368  29.904  52.628  1.00  0.00    -0.005 C 
HETATM   26  C1  UNL     1      15.781  30.375  52.478  1.00  0.00     0.005 C 
ENDBRANCH  24  25
ENDBRANCH  23  24
ENDBRANCH  22  23
ENDBRANCH   1  22
TORSDOF 5
ENDMDL
MODEL 4
REMARK VINA RESULT: -8.314713591      2.083      9.419
REMARK  5 active torsions:
REMARK  status: ('A' for Active; 'I' for Inactive)
REMARK    1  A    between atoms: C2_2  and  C3_3 
REMARK    2  A    between atoms: C3_3  and  C4_4 
REMARK    3  A    between atoms: C4_4  and  C5_5 
REMARK    4  A    between atoms: C5_5  and  C6_6 
REMARK    5  A    between atoms: C10_12  and  C11_13 
ROOT
HETATM    1  C6  UNL     1      18.565  25.209  43.048  1.00  0.00    -0.057 A 
HETATM    2  C7  UNL     1      19.427  25.162  44.151  1.00  0.00     0.009 A 
HETATM    3  C8  UNL     1      19.170  25.896  45.268  1.00  0.00     0.031 A 
HETATM    4  C9  UNL     1      18.071  26.721  45.398  1.00  0.00     0.043 A 
HETATM    5  N1  UNL     1      17.593  27.531  46.361  1.00  0.00    -0.355 N 
ATOM      6  H1  UNL     1      18.036  27.676  47.268  1.00  0.00     0.166 HD
HETATM    7  C10 UNL     1      16.448  28.125  45.964  1.00  0.00     0.045 A 
HETATM    8  C20 UNL     1      16.215  27.653  44.691  1.00  0.00     0.044 A 
HETATM    9  C21 UNL     1      17.218  26.766  44.304  1.00  0.00    -0.007 A 
HETATM   10  C22 UNL     1      17.467  26.031  43.171  1.00  0.00     0.021 A 
ENDROOT
BRANCH   7  11
HETATM   11  C11 UNL     1      15.652  29.066  46.745  1.00  0.00     0.007 A 
HETATM   12  C12 UNL     1      15.402  30.340  46.286  1.00  0.00     0.102 A 
HETATM   13  N2  UNL     1      14.664  31.224  47.000  1.00  0.00    -0.364 N 
HETATM   14  C13 UNL     1      14.139  30.900  48.195  1.00  0.00     0.042 A 
ATOM     15  H2  UNL     1      14.503  32.158  46.622  1.00  0.00     0.165 HD
HETATM   16  C14 UNL     1      13.396  31.860  48.866  1.00  0.00     0.030 A 
HETATM   17  C18 UNL     1      14.349  29.650  48.712  1.00  0.00    -0.009 A 
HETATM   18  C15 UNL     1      12.884  31.478  50.078  1.00  0.00     0.002 A 
HETATM   19  C16 UNL     1      13.075  30.236  50.623  1.00  0.00     0.001 A 
HETATM   20  C17 UNL     1      13.818  29.313  49.927  1.00  0.00     0.014 A 
HETATM   21  C19 UNL     1      15.111  28.740  47.969  1.00  0.00     0.029 A 
ENDBRANCH   7  11
BRANCH   1  22
HETATM   22  C5  UNL     1      18.854  24.413  41.849  1.00  0.00     0.038 C 
BRANCH  22  23
HETATM   23  C4  UNL     1      17.744  24.393  40.865  1.00  0.00     0.005 C 
BRANCH  23  24
HETATM   24  C3  UNL     1      18.167  23.802  39.543  1.00  0.00    -0.000 C 
BRANCH  24  25
HETATM   25  C2  UNL     1      17.709  24.760  38.432  1.00  0.00    -0.005 C 
HETATM   26  C1  UNL     1      18.395  24.333  37.172  1.00  0.00     0.005 C 
ENDBRANCH  24  25
ENDBRANCH  23  24
ENDBRANCH  22  23
ENDBRANCH   1  22
TORSDOF 5
ENDMDL
MODEL 5
REMARK VINA RESULT: -8.264904264      0.949      1.475
REMARK  5 active torsions:
REMARK  status: ('A' for Active; 'I' for Inactive)
REMARK    1  A    between atoms: C2_2  and  C3_3 
REMARK    2  A    between atoms: C3_3  and  C4_4 
REMARK    3  A    between atoms: C4_4  and  C5_5 
REMARK    4  A    between atoms: C5_5  and  C6_6 
REMARK    5  A    between atoms: C10_12  and  C11_13 
ROOT
HETATM    1  C6  UNL     1      12.925  29.789  50.848  1.00  0.00    -0.057 A 
HETATM    2  C7  UNL     1      12.766  28.416  51.079  1.00  0.00     0.009 A 
HETATM    3  C8  UNL     1      13.341  27.501  50.252  1.00  0.00     0.031 A 
HETATM    4  C9  UNL     1      14.104  27.842  49.154  1.00  0.00     0.043 A 
HETATM    5  N1  UNL     1      14.767  27.160  48.201  1.00  0.00    -0.355 N 
ATOM      6  H1  UNL     1      14.810  26.143  48.141  1.00  0.00     0.166 HD
HETATM    7  C10 UNL     1      15.368  28.004  47.337  1.00  0.00     0.045 A 
HETATM    8  C20 UNL     1      15.055  29.269  47.785  1.00  0.00     0.044 A 
HETATM    9  C21 UNL     1      14.261  29.202  48.928  1.00  0.00    -0.007 A 
HETATM   10  C22 UNL     1      13.685  30.137  49.753  1.00  0.00     0.021 A 
ENDROOT
BRANCH   7  11
HETATM   11  C11 UNL     1      16.172  27.622  46.180  1.00  0.00     0.007 A 
HETATM   12  C12 UNL     1      15.880  28.099  44.922  1.00  0.00     0.102 A 
HETATM   13  N2  UNL     1      16.617  27.753  43.839  1.00  0.00    -0.364 N 
HETATM   14  C13 UNL     1      17.672  26.925  43.940  1.00  0.00     0.042 A 
ATOM     15  H2  UNL     1      16.367  28.130  42.925  1.00  0.00     0.165 HD
HETATM   16  C14 UNL     1      18.377  26.618  42.786  1.00  0.00     0.030 A 
HETATM   17  C18 UNL     1      18.018  26.413  45.162  1.00  0.00    -0.009 A 
HETATM   18  C15 UNL     1      19.442  25.770  42.945  1.00  0.00     0.002 A 
HETATM   19  C16 UNL     1      19.814  25.241  44.152  1.00  0.00     0.001 A 
HETATM   20  C17 UNL     1      19.089  25.570  45.273  1.00  0.00     0.014 A 
HETATM   21  C19 UNL     1      17.253  26.775  46.278  1.00  0.00     0.029 A 
ENDBRANCH   7  11
BRANCH   1  22
HETATM   22  C5  UNL     1      12.299  30.767  51.747  1.00  0.00     0.038 C 
BRANCH  22  23
HETATM   23  C4  UNL     1      13.082  31.031  52.978  1.00  0.00     0.005 C 
BRANCH  23  24
HETATM   24  C3  UNL     1      14.137  29.979  53.218  1.00  0.00    -0.000 C 
BRANCH  24  25
HETATM   25  C2  UNL     1      15.488  30.696  53.372  1.00  0.00    -0.005 C 
HETATM   26  C1  UNL     1      16.286  30.402  52.141  1.00  0.00     0.005 C 
ENDBRANCH  24  25
ENDBRANCH  23  24
ENDBRANCH  22  23
ENDBRANCH   1  22
TORSDOF 5
ENDMDL
