MODEL 1
REMARK VINA RESULT: -8.401996289      0.000      0.000
REMARK  5 active torsions:
REMARK  status: ('A' for Active; 'I' for Inactive)
REMARK    1  A    between atoms: C3_3  and  C4_4 
REMARK    2  A    between atoms: C4_4  and  O2_6 
REMARK    3  A    between atoms: O2_6  and  C5_7 
REMARK    4  A    between atoms: N1_16  and  C15_18 
REMARK    5  A    between atoms: C15_18  and  C16_19 
ROOT
HETATM    1  C1  UNL     1      41.603  13.704  83.218  1.00  0.00     0.013 C 
HETATM    2  C2  UNL     1      42.387  14.980  82.991  1.00  0.00     0.031 C 
HETATM    3  C3  UNL     1      42.123  15.859  84.208  1.00  0.00     0.092 C 
HETATM    4  C10 UNL     1      43.504  15.902  84.919  1.00  0.00     0.022 C 
HETATM    5  C11 UNL     1      44.300  16.023  83.735  1.00  0.00     0.024 C 
HETATM    6  C12 UNL     1      45.742  15.783  83.639  1.00  0.00     0.035 C 
HETATM    7  C13 UNL     1      45.818  15.733  82.112  1.00  0.00     0.238 C 
HETATM    8  N1  UNL     1      44.514  15.212  81.642  1.00  0.00    -0.061 N 
HETATM    9  C14 UNL     1      43.872  16.267  80.921  1.00  0.00     0.273 C 
HETATM   10  C22 UNL     1      43.829  14.852  82.855  1.00  0.00     0.133 C 
HETATM   11  C23 UNL     1      44.298  13.540  83.419  1.00  0.00     0.048 C 
ENDROOT
BRANCH   3  12
HETATM   12  C4  UNL     1      41.044  15.467  85.076  1.00  0.00     0.263 C 
HETATM   13  O1  UNL     1      41.235  14.540  85.938  1.00  0.00    -0.265 OA
BRANCH  12  14
HETATM   14  O2  UNL     1      39.763  15.989  85.096  1.00  0.00    -0.316 OA
BRANCH  14  15
HETATM   15  C5  UNL     1      38.954  16.064  86.243  1.00  0.00     0.132 C 
HETATM   16  C6  UNL     1      37.949  14.943  86.206  1.00  0.00     0.032 C 
HETATM   17  C7  UNL     1      36.934  15.391  87.240  1.00  0.00     0.002 C 
HETATM   18  C8  UNL     1      37.036  16.898  87.296  1.00  0.00     0.002 C 
HETATM   19  C9  UNL     1      38.073  17.289  86.263  1.00  0.00     0.032 C 
ENDBRANCH  14  15
ENDBRANCH  12  14
ENDBRANCH   3  12
BRANCH   8  20
HETATM   20  C15 UNL     1      44.830  14.113  80.795  1.00  0.00     0.242 C 
BRANCH  20  21
HETATM   21  C16 UNL     1      44.188  13.913  79.501  1.00  0.00     0.012 C 
HETATM   22  C17 UNL     1      42.776  14.533  79.641  1.00  0.00     0.006 C 
HETATM   23  C18 UNL     1      41.698  13.529  79.777  1.00  0.00     0.000 C 
HETATM   24  C19 UNL     1      42.061  12.262  80.475  1.00  0.00     0.000 C 
HETATM   25  C20 UNL     1      43.248  11.573  79.835  1.00  0.00     0.000 C 
HETATM   26  C21 UNL     1      43.948  12.560  78.963  1.00  0.00     0.006 C 
ENDBRANCH  20  21
ENDBRANCH   8  20
TORSDOF 5
ENDMDL
MODEL 2
REMARK VINA RESULT: -8.000505677      0.901      1.054
REMARK  5 active torsions:
REMARK  status: ('A' for Active; 'I' for Inactive)
REMARK    1  A    between atoms: C3_3  and  C4_4 
REMARK    2  A    between atoms: C4_4  and  O2_6 
REMARK    3  A    between atoms: O2_6  and  C5_7 
REMARK    4  A    between atoms: N1_16  and  C15_18 
REMARK    5  A    between atoms: C15_18  and  C16_19 
ROOT
HETATM    1  C1  UNL     1      42.205  14.043  83.508  1.00  0.00     0.013 C 
HETATM    2  C2  UNL     1      42.887  15.203  82.812  1.00  0.00     0.031 C 
HETATM    3  C3  UNL     1      42.863  16.362  83.802  1.00  0.00     0.092 C 
HETATM    4  C10 UNL     1      44.361  16.543  84.171  1.00  0.00     0.022 C 
HETATM    5  C11 UNL     1      44.885  16.347  82.853  1.00  0.00     0.024 C 
HETATM    6  C12 UNL     1      46.280  16.054  82.516  1.00  0.00     0.035 C 
HETATM    7  C13 UNL     1      46.033  15.626  81.069  1.00  0.00     0.238 C 
HETATM    8  N1  UNL     1      44.674  15.039  81.029  1.00  0.00    -0.061 N 
HETATM    9  C14 UNL     1      43.865  15.900  80.223  1.00  0.00     0.273 C 
HETATM   10  C22 UNL     1      44.271  15.008  82.410  1.00  0.00     0.133 C 
HETATM   11  C23 UNL     1      44.885  13.864  83.168  1.00  0.00     0.048 C 
ENDROOT
BRANCH   3  12
HETATM   12  C4  UNL     1      42.003  16.224  84.948  1.00  0.00     0.263 C 
HETATM   13  O1  UNL     1      42.482  15.767  86.043  1.00  0.00    -0.265 OA
BRANCH  12  14
HETATM   14  O2  UNL     1      40.657  16.538  85.018  1.00  0.00    -0.316 OA
BRANCH  14  15
HETATM   15  C5  UNL     1      39.728  15.871  85.836  1.00  0.00     0.132 C 
HETATM   16  C6  UNL     1      39.200  14.671  85.096  1.00  0.00     0.032 C 
HETATM   17  C7  UNL     1      37.963  14.320  85.902  1.00  0.00     0.002 C 
HETATM   18  C8  UNL     1      37.517  15.606  86.559  1.00  0.00     0.002 C 
HETATM   19  C9  UNL     1      38.477  16.678  86.084  1.00  0.00     0.032 C 
ENDBRANCH  14  15
ENDBRANCH  12  14
ENDBRANCH   3  12
BRANCH   8  20
HETATM   20  C15 UNL     1      44.834  13.757  80.432  1.00  0.00     0.242 C 
BRANCH  20  21
HETATM   21  C16 UNL     1      43.963  13.277  79.364  1.00  0.00     0.012 C 
HETATM   22  C17 UNL     1      42.662  14.106  79.490  1.00  0.00     0.006 C 
HETATM   23  C18 UNL     1      41.532  13.352  80.077  1.00  0.00     0.000 C 
HETATM   24  C19 UNL     1      41.888  12.309  81.083  1.00  0.00     0.000 C 
HETATM   25  C20 UNL     1      42.878  11.299  80.539  1.00  0.00     0.000 C 
HETATM   26  C21 UNL     1      43.508  11.874  79.316  1.00  0.00     0.006 C 
ENDBRANCH  20  21
ENDBRANCH   8  20
TORSDOF 5
ENDMDL
MODEL 3
REMARK VINA RESULT: -7.761924526      1.397      3.639
REMARK  5 active torsions:
REMARK  status: ('A' for Active; 'I' for Inactive)
REMARK    1  A    between atoms: C3_3  and  C4_4 
REMARK    2  A    between atoms: C4_4  and  O2_6 
REMARK    3  A    between atoms: O2_6  and  C5_7 
REMARK    4  A    between atoms: N1_16  and  C15_18 
REMARK    5  A    between atoms: C15_18  and  C16_19 
ROOT
HETATM    1  C1  UNL     1      41.901  15.065  83.799  1.00  0.00     0.013 C 
HETATM    2  C2  UNL     1      42.580  13.760  83.438  1.00  0.00     0.031 C 
HETATM    3  C3  UNL     1      41.657  12.653  83.933  1.00  0.00     0.092 C 
HETATM    4  C10 UNL     1      41.146  12.005  82.617  1.00  0.00     0.022 C 
HETATM    5  C11 UNL     1      42.391  12.046  81.913  1.00  0.00     0.024 C 
HETATM    6  C12 UNL     1      42.569  11.890  80.467  1.00  0.00     0.035 C 
HETATM    7  C13 UNL     1      44.011  12.395  80.404  1.00  0.00     0.238 C 
HETATM    8  N1  UNL     1      44.160  13.380  81.500  1.00  0.00    -0.061 N 
HETATM    9  C14 UNL     1      45.087  12.829  82.439  1.00  0.00     0.273 C 
HETATM   10  C22 UNL     1      42.828  13.517  82.026  1.00  0.00     0.133 C 
HETATM   11  C23 UNL     1      41.956  14.397  81.177  1.00  0.00     0.048 C 
ENDROOT
BRANCH   3  12
HETATM   12  C4  UNL     1      40.599  13.037  84.831  1.00  0.00     0.263 C 
HETATM   13  O1  UNL     1      40.632  12.641  86.047  1.00  0.00    -0.265 OA
BRANCH  12  14
HETATM   14  O2  UNL     1      39.497  13.817  84.530  1.00  0.00    -0.316 OA
BRANCH  14  15
HETATM   15  C5  UNL     1      38.734  14.514  85.483  1.00  0.00     0.132 C 
HETATM   16  C6  UNL     1      37.397  14.858  84.880  1.00  0.00     0.032 C 
HETATM   17  C7  UNL     1      36.882  15.920  85.834  1.00  0.00     0.002 C 
HETATM   18  C8  UNL     1      38.109  16.552  86.452  1.00  0.00     0.002 C 
HETATM   19  C9  UNL     1      39.302  15.874  85.810  1.00  0.00     0.032 C 
ENDBRANCH  14  15
ENDBRANCH  12  14
ENDBRANCH   3  12
BRANCH   8  20
HETATM   20  C15 UNL     1      44.674  14.556  80.883  1.00  0.00     0.242 C 
BRANCH  20  21
HETATM   21  C16 UNL     1      45.778  15.320  81.453  1.00  0.00     0.012 C 
HETATM   22  C17 UNL     1      45.716  15.059  82.977  1.00  0.00     0.006 C 
HETATM   23  C18 UNL     1      45.177  16.197  83.754  1.00  0.00     0.000 C 
HETATM   24  C19 UNL     1      44.150  17.035  83.068  1.00  0.00     0.000 C 
HETATM   25  C20 UNL     1      44.644  17.578  81.743  1.00  0.00     0.000 C 
HETATM   26  C21 UNL     1      45.839  16.789  81.330  1.00  0.00     0.006 C 
ENDBRANCH  20  21
ENDBRANCH   8  20
TORSDOF 5
ENDMDL
MODEL 4
REMARK VINA RESULT: -7.108864199      0.939      1.462
REMARK  5 active torsions:
REMARK  status: ('A' for Active; 'I' for Inactive)
REMARK    1  A    between atoms: C3_3  and  C4_4 
REMARK    2  A    between atoms: C4_4  and  O2_6 
REMARK    3  A    between atoms: O2_6  and  C5_7 
REMARK    4  A    between atoms: N1_16  and  C15_18 
REMARK    5  A    between atoms: C15_18  and  C16_19 
ROOT
HETATM    1  C1  UNL     1      41.697  14.118  84.082  1.00  0.00     0.013 C 
HETATM    2  C2  UNL     1      42.411  15.194  83.289  1.00  0.00     0.031 C 
HETATM    3  C3  UNL     1      42.281  16.475  84.104  1.00  0.00     0.092 C 
HETATM    4  C10 UNL     1      43.739  16.752  84.562  1.00  0.00     0.022 C 
HETATM    5  C11 UNL     1      44.375  16.394  83.331  1.00  0.00     0.024 C 
HETATM    6  C12 UNL     1      45.799  16.102  83.150  1.00  0.00     0.035 C 
HETATM    7  C13 UNL     1      45.682  15.473  81.761  1.00  0.00     0.238 C 
HETATM    8  N1  UNL     1      44.343  14.844  81.694  1.00  0.00    -0.061 N 
HETATM    9  C14 UNL     1      43.587  15.561  80.715  1.00  0.00     0.273 C 
HETATM   10  C22 UNL     1      43.827  14.989  83.030  1.00  0.00     0.133 C 
HETATM   11  C23 UNL     1      44.398  13.979  83.985  1.00  0.00     0.048 C 
ENDROOT
BRANCH   3  12
HETATM   12  C4  UNL     1      41.331  16.468  85.186  1.00  0.00     0.263 C 
HETATM   13  O1  UNL     1      41.699  16.857  86.348  1.00  0.00    -0.265 OA
BRANCH  12  14
HETATM   14  O2  UNL     1      40.007  16.074  85.125  1.00  0.00    -0.316 OA
BRANCH  14  15
HETATM   15  C5  UNL     1      39.068  16.285  86.149  1.00  0.00     0.132 C 
HETATM   16  C6  UNL     1      38.301  15.009  86.379  1.00  0.00     0.032 C 
HETATM   17  C7  UNL     1      37.105  15.496  87.175  1.00  0.00     0.002 C 
HETATM   18  C8  UNL     1      36.916  16.948  86.795  1.00  0.00     0.002 C 
HETATM   19  C9  UNL     1      37.977  17.253  85.758  1.00  0.00     0.032 C 
ENDBRANCH  14  15
ENDBRANCH  12  14
ENDBRANCH   3  12
BRANCH   8  20
HETATM   20  C15 UNL     1      44.577  13.499  81.296  1.00  0.00     0.242 C 
BRANCH  20  21
HETATM   21  C16 UNL     1      43.619  12.428  81.549  1.00  0.00     0.012 C 
HETATM   22  C17 UNL     1      43.879  11.373  80.447  1.00  0.00     0.006 C 
HETATM   23  C18 UNL     1      42.856  11.366  79.378  1.00  0.00     0.000 C 
HETATM   24  C19 UNL     1      42.227  12.681  79.060  1.00  0.00     0.000 C 
HETATM   25  C20 UNL     1      41.608  13.332  80.279  1.00  0.00     0.000 C 
HETATM   26  C21 UNL     1      42.164  12.671  81.495  1.00  0.00     0.006 C 
ENDBRANCH  20  21
ENDBRANCH   8  20
TORSDOF 5
ENDMDL
MODEL 5
REMARK VINA RESULT: -7.076375874      1.764      2.894
REMARK  5 active torsions:
REMARK  status: ('A' for Active; 'I' for Inactive)
REMARK    1  A    between atoms: C3_3  and  C4_4 
REMARK    2  A    between atoms: C4_4  and  O2_6 
REMARK    3  A    between atoms: O2_6  and  C5_7 
REMARK    4  A    between atoms: N1_16  and  C15_18 
REMARK    5  A    between atoms: C15_18  and  C16_19 
ROOT
HETATM    1  C1  UNL     1      38.923  12.918  84.962  1.00  0.00     0.013 C 
HETATM    2  C2  UNL     1      39.645  14.065  84.284  1.00  0.00     0.031 C 
HETATM    3  C3  UNL     1      39.150  15.336  84.965  1.00  0.00     0.092 C 
HETATM    4  C10 UNL     1      40.408  15.843  85.723  1.00  0.00     0.022 C 
HETATM    5  C11 UNL     1      41.356  15.549  84.692  1.00  0.00     0.024 C 
HETATM    6  C12 UNL     1      42.810  15.470  84.856  1.00  0.00     0.035 C 
HETATM    7  C13 UNL     1      43.109  14.790  83.519  1.00  0.00     0.238 C 
HETATM    8  N1  UNL     1      41.924  13.964  83.192  1.00  0.00    -0.061 N 
HETATM    9  C14 UNL     1      41.324  14.530  82.024  1.00  0.00     0.273 C 
HETATM   10  C22 UNL     1      41.096  14.069  84.365  1.00  0.00     0.133 C 
HETATM   11  C23 UNL     1      41.566  13.186  85.486  1.00  0.00     0.048 C 
ENDROOT
BRANCH   3  12
HETATM   12  C4  UNL     1      37.986  15.217  85.803  1.00  0.00     0.263 C 
HETATM   13  O1  UNL     1      36.852  14.952  85.271  1.00  0.00    -0.265 OA
BRANCH  12  14
HETATM   14  O2  UNL     1      37.934  15.362  87.178  1.00  0.00    -0.316 OA
BRANCH  14  15
HETATM   15  C5  UNL     1      37.160  16.326  87.846  1.00  0.00     0.132 C 
HETATM   16  C6  UNL     1      35.760  15.796  88.015  1.00  0.00     0.032 C 
HETATM   17  C7  UNL     1      34.982  17.054  88.354  1.00  0.00     0.002 C 
HETATM   18  C8  UNL     1      35.757  18.199  87.740  1.00  0.00     0.002 C 
HETATM   19  C9  UNL     1      36.937  17.574  87.025  1.00  0.00     0.032 C 
ENDBRANCH  14  15
ENDBRANCH  12  14
ENDBRANCH   3  12
BRANCH   8  20
HETATM   20  C15 UNL     1      42.431  12.659  82.943  1.00  0.00     0.242 C 
BRANCH  20  21
HETATM   21  C16 UNL     1      43.620  12.423  82.130  1.00  0.00     0.012 C 
HETATM   22  C17 UNL     1      43.820  13.719  81.309  1.00  0.00     0.006 C 
HETATM   23  C18 UNL     1      43.427  13.589  79.888  1.00  0.00     0.000 C 
HETATM   24  C19 UNL     1      42.300  12.655  79.600  1.00  0.00     0.000 C 
HETATM   25  C20 UNL     1      42.559  11.260  80.131  1.00  0.00     0.000 C 
HETATM   26  C21 UNL     1      43.663  11.338  81.130  1.00  0.00     0.006 C 
ENDBRANCH  20  21
ENDBRANCH   8  20
TORSDOF 5
ENDMDL
