MODEL 1
REMARK VINA RESULT: -6.966016935      0.000      0.000
REMARK  13 active torsions:
REMARK  status: ('A' for Active; 'I' for Inactive)
REMARK    1  A    between atoms: C4_4  and  C5_5 
REMARK    2  A    between atoms: C5_5  and  C6_6 
REMARK    3  A    between atoms: C6_6  and  C7_7 
REMARK    4  A    between atoms: C7_7  and  C8_8 
REMARK    5  A    between atoms: C8_8  and  C9_9 
REMARK    6  A    between atoms: C9_9  and  C10_10 
REMARK    7  A    between atoms: C10_10  and  C11_11 
REMARK    8  A    between atoms: C11_11  and  C12_12 
REMARK    9  A    between atoms: C12_12  and  C13_13 
REMARK   10  A    between atoms: C13_13  and  C14_14 
REMARK   11  A    between atoms: C14_14  and  C15_15 
REMARK   12  A    between atoms: C15_15  and  N1_16 
REMARK   13  A    between atoms: N1_16  and  C16_19 
ROOT
HETATM    1  C11 UNL     1       1.114   9.199   0.773  1.00  0.00     0.000 C 
ENDROOT
BRANCH   1   2
HETATM    2  C10 UNL     1       0.779   9.049   2.223  1.00  0.00     0.000 C 
BRANCH   2   3
HETATM    3  C9  UNL     1       0.019  10.206   2.783  1.00  0.00     0.000 C 
BRANCH   3   4
HETATM    4  C8  UNL     1       0.420  10.586   4.165  1.00  0.00     0.000 C 
BRANCH   4   5
HETATM    5  C7  UNL     1       1.826  10.264   4.541  1.00  0.00     0.000 C 
BRANCH   5   6
HETATM    6  C6  UNL     1       2.788  11.398   4.463  1.00  0.00     0.005 C 
BRANCH   6   7
HETATM    7  C5  UNL     1       4.068  10.955   3.797  1.00  0.00     0.038 C 
BRANCH   7   8
HETATM    8  C4  UNL     1       3.910  11.230   2.330  1.00  0.00    -0.058 A 
HETATM    9  C3  UNL     1       3.039  12.217   1.961  1.00  0.00     0.007 A 
HETATM   10  C2  UNL     1       2.819  12.544   0.643  1.00  0.00     0.001 A 
HETATM   11  C1  UNL     1       3.536  11.813  -0.296  1.00  0.00     0.000 A 
HETATM   12  C23 UNL     1       4.418  10.814   0.060  1.00  0.00     0.001 A 
HETATM   13  C22 UNL     1       4.618  10.508   1.390  1.00  0.00     0.007 A 
ENDBRANCH   7   8
ENDBRANCH   6   7
ENDBRANCH   5   6
ENDBRANCH   4   5
ENDBRANCH   3   4
ENDBRANCH   2   3
ENDBRANCH   1   2
BRANCH   1  14
HETATM   14  C12 UNL     1       2.050   8.150   0.243  1.00  0.00     0.000 C 
BRANCH  14  15
HETATM   15  C13 UNL     1       1.690   6.850   0.920  1.00  0.00     0.002 C 
BRANCH  15  16
HETATM   16  C14 UNL     1       1.502   5.715  -0.082  1.00  0.00     0.027 C 
BRANCH  16  17
HETATM   17  C15 UNL     1       2.706   5.653  -1.016  1.00  0.00     0.232 C 
BRANCH  17  18
HETATM   18  N1  UNL     1       3.846   5.008  -0.419  1.00  0.00    -0.071 N 
ATOM     19  H12 UNL     1       3.714   4.859   0.581  1.00  0.00     0.277 HD
ATOM     20  H11 UNL     1       3.925   4.034  -0.711  1.00  0.00     0.277 HD
BRANCH  18  21
HETATM   21  C16 UNL     1       5.041   5.737  -0.689  1.00  0.00     0.185 C 
HETATM   22  C17 UNL     1       5.422   6.583   0.533  1.00  0.00     0.033 C 
HETATM   23  C18 UNL     1       6.716   7.291   0.328  1.00  0.00     0.002 C 
HETATM   24  C19 UNL     1       6.753   8.107  -0.942  1.00  0.00     0.000 C 
HETATM   25  C20 UNL     1       6.189   7.347  -2.117  1.00  0.00     0.002 C 
HETATM   26  C21 UNL     1       4.835   6.762  -1.815  1.00  0.00     0.033 C 
ENDBRANCH  18  21
ENDBRANCH  17  18
ENDBRANCH  16  17
ENDBRANCH  15  16
ENDBRANCH  14  15
ENDBRANCH   1  14
TORSDOF 13
ENDMDL
MODEL 2
REMARK VINA RESULT: -6.938201454      0.845      3.049
REMARK  13 active torsions:
REMARK  status: ('A' for Active; 'I' for Inactive)
REMARK    1  A    between atoms: C4_4  and  C5_5 
REMARK    2  A    between atoms: C5_5  and  C6_6 
REMARK    3  A    between atoms: C6_6  and  C7_7 
REMARK    4  A    between atoms: C7_7  and  C8_8 
REMARK    5  A    between atoms: C8_8  and  C9_9 
REMARK    6  A    between atoms: C9_9  and  C10_10 
REMARK    7  A    between atoms: C10_10  and  C11_11 
REMARK    8  A    between atoms: C11_11  and  C12_12 
REMARK    9  A    between atoms: C12_12  and  C13_13 
REMARK   10  A    between atoms: C13_13  and  C14_14 
REMARK   11  A    between atoms: C14_14  and  C15_15 
REMARK   12  A    between atoms: C15_15  and  N1_16 
REMARK   13  A    between atoms: N1_16  and  C16_19 
ROOT
HETATM    1  C11 UNL     1       2.338   8.814   0.338  1.00  0.00     0.000 C 
ENDROOT
BRANCH   1   2
HETATM    2  C10 UNL     1       3.456   8.906   1.326  1.00  0.00     0.000 C 
BRANCH   2   3
HETATM    3  C9  UNL     1       4.390  10.043   1.068  1.00  0.00     0.000 C 
BRANCH   3   4
HETATM    4  C8  UNL     1       3.992  10.910  -0.074  1.00  0.00     0.000 C 
BRANCH   4   5
HETATM    5  C7  UNL     1       3.648  12.318   0.273  1.00  0.00     0.000 C 
BRANCH   5   6
HETATM    6  C6  UNL     1       2.234  12.553   0.677  1.00  0.00     0.005 C 
BRANCH   6   7
HETATM    7  C5  UNL     1       2.166  12.991   2.118  1.00  0.00     0.038 C 
BRANCH   7   8
HETATM    8  C4  UNL     1       1.742  11.791   2.915  1.00  0.00    -0.058 A 
HETATM    9  C3  UNL     1       0.603  11.143   2.526  1.00  0.00     0.007 A 
HETATM   10  C2  UNL     1       0.128  10.037   3.191  1.00  0.00     0.001 A 
HETATM   11  C1  UNL     1       0.874   9.613   4.283  1.00  0.00     0.000 A 
HETATM   12  C23 UNL     1       2.025  10.256   4.689  1.00  0.00     0.001 A 
HETATM   13  C22 UNL     1       2.478  11.363   4.003  1.00  0.00     0.007 A 
ENDBRANCH   7   8
ENDBRANCH   6   7
ENDBRANCH   5   6
ENDBRANCH   4   5
ENDBRANCH   3   4
ENDBRANCH   2   3
ENDBRANCH   1   2
BRANCH   1  14
HETATM   14  C12 UNL     1       1.289   7.796   0.683  1.00  0.00     0.000 C 
BRANCH  14  15
HETATM   15  C13 UNL     1       1.990   6.466   0.821  1.00  0.00     0.002 C 
BRANCH  15  16
HETATM   16  C14 UNL     1       1.763   5.571  -0.394  1.00  0.00     0.027 C 
BRANCH  16  17
HETATM   17  C15 UNL     1       3.052   5.471  -1.203  1.00  0.00     0.232 C 
BRANCH  17  18
HETATM   18  N1  UNL     1       4.177   5.040  -0.414  1.00  0.00    -0.071 N 
ATOM     19  H12 UNL     1       3.962   5.044   0.583  1.00  0.00     0.277 HD
ATOM     20  H11 UNL     1       4.359   4.043  -0.529  1.00  0.00     0.277 HD
BRANCH  18  21
HETATM   21  C16 UNL     1       5.332   5.823  -0.706  1.00  0.00     0.185 C 
HETATM   22  C17 UNL     1       5.911   6.401   0.592  1.00  0.00     0.033 C 
HETATM   23  C18 UNL     1       7.173   7.151   0.343  1.00  0.00     0.002 C 
HETATM   24  C19 UNL     1       7.034   8.213  -0.721  1.00  0.00     0.000 C 
HETATM   25  C20 UNL     1       6.283   7.707  -1.929  1.00  0.00     0.002 C 
HETATM   26  C21 UNL     1       4.978   7.057  -1.551  1.00  0.00     0.033 C 
ENDBRANCH  18  21
ENDBRANCH  17  18
ENDBRANCH  16  17
ENDBRANCH  15  16
ENDBRANCH  14  15
ENDBRANCH   1  14
TORSDOF 13
ENDMDL
MODEL 3
REMARK VINA RESULT: -6.889511795      0.902      3.087
REMARK  13 active torsions:
REMARK  status: ('A' for Active; 'I' for Inactive)
REMARK    1  A    between atoms: C4_4  and  C5_5 
REMARK    2  A    between atoms: C5_5  and  C6_6 
REMARK    3  A    between atoms: C6_6  and  C7_7 
REMARK    4  A    between atoms: C7_7  and  C8_8 
REMARK    5  A    between atoms: C8_8  and  C9_9 
REMARK    6  A    between atoms: C9_9  and  C10_10 
REMARK    7  A    between atoms: C10_10  and  C11_11 
REMARK    8  A    between atoms: C11_11  and  C12_12 
REMARK    9  A    between atoms: C12_12  and  C13_13 
REMARK   10  A    between atoms: C13_13  and  C14_14 
REMARK   11  A    between atoms: C14_14  and  C15_15 
REMARK   12  A    between atoms: C15_15  and  N1_16 
REMARK   13  A    between atoms: N1_16  and  C16_19 
ROOT
HETATM    1  C11 UNL     1       3.174   8.842   1.156  1.00  0.00     0.000 C 
ENDROOT
BRANCH   1   2
HETATM    2  C10 UNL     1       3.869   9.982   0.483  1.00  0.00     0.000 C 
BRANCH   2   3
HETATM    3  C9  UNL     1       2.944  11.069   0.043  1.00  0.00     0.000 C 
BRANCH   3   4
HETATM    4  C8  UNL     1       3.075  12.331   0.820  1.00  0.00     0.000 C 
BRANCH   4   5
HETATM    5  C7  UNL     1       3.930  12.254   2.038  1.00  0.00     0.000 C 
BRANCH   5   6
HETATM    6  C6  UNL     1       3.199  12.164   3.332  1.00  0.00     0.005 C 
BRANCH   6   7
HETATM    7  C5  UNL     1       1.719  12.354   3.113  1.00  0.00     0.038 C 
BRANCH   7   8
HETATM    8  C4  UNL     1       1.075  11.014   3.319  1.00  0.00    -0.058 A 
HETATM    9  C3  UNL     1       1.502  10.263   4.378  1.00  0.00     0.007 A 
HETATM   10  C2  UNL     1       0.979   9.020   4.652  1.00  0.00     0.001 A 
HETATM   11  C1  UNL     1      -0.012   8.570   3.789  1.00  0.00     0.000 A 
HETATM   12  C23 UNL     1      -0.454   9.315   2.716  1.00  0.00     0.001 A 
HETATM   13  C22 UNL     1       0.089  10.559   2.466  1.00  0.00     0.007 A 
ENDBRANCH   7   8
ENDBRANCH   6   7
ENDBRANCH   5   6
ENDBRANCH   4   5
ENDBRANCH   3   4
ENDBRANCH   2   3
ENDBRANCH   1   2
BRANCH   1  14
HETATM   14  C12 UNL     1       2.095   8.201   0.330  1.00  0.00     0.000 C 
BRANCH  14  15
HETATM   15  C13 UNL     1       1.775   6.872   0.970  1.00  0.00     0.002 C 
BRANCH  15  16
HETATM   16  C14 UNL     1       1.512   5.785  -0.068  1.00  0.00     0.027 C 
BRANCH  16  17
HETATM   17  C15 UNL     1       2.685   5.712  -1.041  1.00  0.00     0.232 C 
BRANCH  17  18
HETATM   18  N1  UNL     1       3.804   4.974  -0.515  1.00  0.00    -0.071 N 
ATOM     19  H12 UNL     1       3.678   4.751   0.472  1.00  0.00     0.277 HD
ATOM     20  H11 UNL     1       3.836   4.024  -0.886  1.00  0.00     0.277 HD
BRANCH  18  21
HETATM   21  C16 UNL     1       5.026   5.671  -0.746  1.00  0.00     0.185 C 
HETATM   22  C17 UNL     1       5.545   6.260   0.571  1.00  0.00     0.033 C 
HETATM   23  C18 UNL     1       6.868   6.920   0.392  1.00  0.00     0.002 C 
HETATM   24  C19 UNL     1       6.877   7.947  -0.714  1.00  0.00     0.000 C 
HETATM   25  C20 UNL     1       6.184   7.444  -1.957  1.00  0.00     0.002 C 
HETATM   26  C21 UNL     1       4.816   6.892  -1.657  1.00  0.00     0.033 C 
ENDBRANCH  18  21
ENDBRANCH  17  18
ENDBRANCH  16  17
ENDBRANCH  15  16
ENDBRANCH  14  15
ENDBRANCH   1  14
TORSDOF 13
ENDMDL
MODEL 4
REMARK VINA RESULT: -6.871486053      2.071      6.457
REMARK  13 active torsions:
REMARK  status: ('A' for Active; 'I' for Inactive)
REMARK    1  A    between atoms: C4_4  and  C5_5 
REMARK    2  A    between atoms: C5_5  and  C6_6 
REMARK    3  A    between atoms: C6_6  and  C7_7 
REMARK    4  A    between atoms: C7_7  and  C8_8 
REMARK    5  A    between atoms: C8_8  and  C9_9 
REMARK    6  A    between atoms: C9_9  and  C10_10 
REMARK    7  A    between atoms: C10_10  and  C11_11 
REMARK    8  A    between atoms: C11_11  and  C12_12 
REMARK    9  A    between atoms: C12_12  and  C13_13 
REMARK   10  A    between atoms: C13_13  and  C14_14 
REMARK   11  A    between atoms: C14_14  and  C15_15 
REMARK   12  A    between atoms: C15_15  and  N1_16 
REMARK   13  A    between atoms: N1_16  and  C16_19 
ROOT
HETATM    1  C11 UNL     1       3.737   8.632   1.069  1.00  0.00     0.000 C 
ENDROOT
BRANCH   1   2
HETATM    2  C10 UNL     1       2.640   7.725   0.614  1.00  0.00     0.000 C 
BRANCH   2   3
HETATM    3  C9  UNL     1       3.057   6.295   0.498  1.00  0.00     0.000 C 
BRANCH   3   4
HETATM    4  C8  UNL     1       2.765   5.682  -0.827  1.00  0.00     0.000 C 
BRANCH   4   5
HETATM    5  C7  UNL     1       3.646   6.115  -1.948  1.00  0.00     0.000 C 
BRANCH   5   6
HETATM    6  C6  UNL     1       5.107   6.097  -1.661  1.00  0.00     0.005 C 
BRANCH   6   7
HETATM    7  C5  UNL     1       5.771   7.322  -2.238  1.00  0.00     0.038 C 
BRANCH   7   8
HETATM    8  C4  UNL     1       6.672   7.870  -1.170  1.00  0.00    -0.058 A 
HETATM    9  C3  UNL     1       6.845   7.119  -0.041  1.00  0.00     0.007 A 
HETATM   10  C2  UNL     1       7.647   7.533   0.997  1.00  0.00     0.001 A 
HETATM   11  C1  UNL     1       8.274   8.761   0.833  1.00  0.00     0.000 A 
HETATM   12  C23 UNL     1       8.110   9.531  -0.299  1.00  0.00     0.001 A 
HETATM   13  C22 UNL     1       7.300   9.090  -1.325  1.00  0.00     0.007 A 
ENDBRANCH   7   8
ENDBRANCH   6   7
ENDBRANCH   5   6
ENDBRANCH   4   5
ENDBRANCH   3   4
ENDBRANCH   2   3
ENDBRANCH   1   2
BRANCH   1  14
HETATM   14  C12 UNL     1       3.970   9.818   0.176  1.00  0.00     0.000 C 
BRANCH  14  15
HETATM   15  C13 UNL     1       4.834  10.789   0.943  1.00  0.00     0.002 C 
BRANCH  15  16
HETATM   16  C14 UNL     1       4.412  12.237   0.711  1.00  0.00     0.027 C 
BRANCH  16  17
HETATM   17  C15 UNL     1       2.904  12.367   0.903  1.00  0.00     0.232 C 
BRANCH  17  18
HETATM   18  N1  UNL     1       2.544  12.810   2.225  1.00  0.00    -0.071 N 
ATOM     19  H12 UNL     1       3.367  12.994   2.798  1.00  0.00     0.277 HD
ATOM     20  H11 UNL     1       2.150  13.751   2.214  1.00  0.00     0.277 HD
BRANCH  18  21
HETATM   21  C16 UNL     1       1.664  11.879   2.850  1.00  0.00     0.185 C 
HETATM   22  C17 UNL     1       2.463  10.946   3.769  1.00  0.00     0.033 C 
HETATM   23  C18 UNL     1       1.570  10.014   4.514  1.00  0.00     0.002 C 
HETATM   24  C19 UNL     1       0.636   9.239   3.616  1.00  0.00     0.000 C 
HETATM   25  C20 UNL     1      -0.004  10.121   2.572  1.00  0.00     0.002 C 
HETATM   26  C21 UNL     1       1.013  10.939   1.822  1.00  0.00     0.033 C 
ENDBRANCH  18  21
ENDBRANCH  17  18
ENDBRANCH  16  17
ENDBRANCH  15  16
ENDBRANCH  14  15
ENDBRANCH   1  14
TORSDOF 13
ENDMDL
MODEL 5
REMARK VINA RESULT: -6.811503240      2.689      5.698
REMARK  13 active torsions:
REMARK  status: ('A' for Active; 'I' for Inactive)
REMARK    1  A    between atoms: C4_4  and  C5_5 
REMARK    2  A    between atoms: C5_5  and  C6_6 
REMARK    3  A    between atoms: C6_6  and  C7_7 
REMARK    4  A    between atoms: C7_7  and  C8_8 
REMARK    5  A    between atoms: C8_8  and  C9_9 
REMARK    6  A    between atoms: C9_9  and  C10_10 
REMARK    7  A    between atoms: C10_10  and  C11_11 
REMARK    8  A    between atoms: C11_11  and  C12_12 
REMARK    9  A    between atoms: C12_12  and  C13_13 
REMARK   10  A    between atoms: C13_13  and  C14_14 
REMARK   11  A    between atoms: C14_14  and  C15_15 
REMARK   12  A    between atoms: C15_15  and  N1_16 
REMARK   13  A    between atoms: N1_16  and  C16_19 
ROOT
HETATM    1  C11 UNL     1       2.887   9.385   0.360  1.00  0.00     0.000 C 
ENDROOT
BRANCH   1   2
HETATM    2  C10 UNL     1       1.595   8.633   0.330  1.00  0.00     0.000 C 
BRANCH   2   3
HETATM    3  C9  UNL     1       1.457   7.637   1.434  1.00  0.00     0.000 C 
BRANCH   3   4
HETATM    4  C8  UNL     1       1.949   6.275   1.090  1.00  0.00     0.000 C 
BRANCH   4   5
HETATM    5  C7  UNL     1       1.796   5.874  -0.337  1.00  0.00     0.000 C 
BRANCH   5   6
HETATM    6  C6  UNL     1       3.007   5.282  -0.972  1.00  0.00     0.005 C 
BRANCH   6   7
HETATM    7  C5  UNL     1       3.677   6.293  -1.868  1.00  0.00     0.038 C 
BRANCH   7   8
HETATM    8  C4  UNL     1       4.949   6.702  -1.185  1.00  0.00    -0.058 A 
HETATM    9  C3  UNL     1       5.599   7.805  -1.665  1.00  0.00     0.007 A 
HETATM   10  C2  UNL     1       6.774   8.259  -1.111  1.00  0.00     0.001 A 
HETATM   11  C1  UNL     1       7.264   7.533  -0.034  1.00  0.00     0.000 A 
HETATM   12  C23 UNL     1       6.620   6.418   0.462  1.00  0.00     0.001 A 
HETATM   13  C22 UNL     1       5.443   5.985  -0.113  1.00  0.00     0.007 A 
ENDBRANCH   7   8
ENDBRANCH   6   7
ENDBRANCH   5   6
ENDBRANCH   4   5
ENDBRANCH   3   4
ENDBRANCH   2   3
ENDBRANCH   1   2
BRANCH   1  14
HETATM   14  C12 UNL     1       3.327   9.803   1.735  1.00  0.00     0.000 C 
BRANCH  14  15
HETATM   15  C13 UNL     1       4.819   9.589   1.808  1.00  0.00     0.002 C 
BRANCH  15  16
HETATM   16  C14 UNL     1       5.595  10.880   1.568  1.00  0.00     0.027 C 
BRANCH  16  17
HETATM   17  C15 UNL     1       7.056  10.678   1.956  1.00  0.00     0.232 C 
BRANCH  17  18
HETATM   18  N1  UNL     1       7.240  10.502   3.374  1.00  0.00    -0.071 N 
ATOM     19  H12 UNL     1       7.521  11.371   3.828  1.00  0.00     0.277 HD
ATOM     20  H11 UNL     1       6.351  10.357   3.854  1.00  0.00     0.277 HD
BRANCH  18  21
HETATM   21  C16 UNL     1       8.160   9.447   3.640  1.00  0.00     0.185 C 
HETATM   22  C17 UNL     1       9.088   9.250   2.434  1.00  0.00     0.033 C 
HETATM   23  C18 UNL     1      10.126   8.217   2.704  1.00  0.00     0.002 C 
HETATM   24  C19 UNL     1       9.551   6.904   3.179  1.00  0.00     0.000 C 
HETATM   25  C20 UNL     1       8.485   7.102   4.229  1.00  0.00     0.002 C 
HETATM   26  C21 UNL     1       7.441   8.097   3.795  1.00  0.00     0.033 C 
ENDBRANCH  18  21
ENDBRANCH  17  18
ENDBRANCH  16  17
ENDBRANCH  15  16
ENDBRANCH  14  15
ENDBRANCH   1  14
TORSDOF 13
ENDMDL
