MODEL 1
REMARK VINA RESULT: -7.141355966      0.000      0.000
REMARK  6 active torsions:
REMARK  status: ('A' for Active; 'I' for Inactive)
REMARK    1  A    between atoms: C2_2  and  C3_3 
REMARK    2  A    between atoms: C3_3  and  C4_4 
REMARK    3  A    between atoms: C4_4  and  C5_5 
REMARK    4  A    between atoms: C5_5  and  C6_6 
REMARK    5  A    between atoms: C6_6  and  N1_7 
REMARK    6  A    between atoms: C20_22  and  O1_23 
ROOT
HETATM    1  N1  UNL     1      62.624  -0.965 -30.457  1.00  0.00    -0.370 N 
ATOM      2  H1  UNL     1      62.134  -1.364 -29.657  1.00  0.00     0.164 HD
HETATM    3  C7  UNL     1      63.902  -1.351 -30.614  1.00  0.00     0.040 C 
HETATM    4  C8  UNL     1      65.146  -0.602 -30.333  1.00  0.00    -0.058 C 
HETATM    5  C9  UNL     1      65.120   0.770 -29.823  1.00  0.00     0.045 C 
HETATM    6  C10 UNL     1      66.107  -0.849 -31.498  1.00  0.00     0.041 C 
HETATM    7  C11 UNL     1      66.039  -2.315 -31.812  1.00  0.00     0.001 C 
HETATM    8  C12 UNL     1      67.483  -2.763 -32.056  1.00  0.00    -0.006 C 
HETATM    9  C13 UNL     1      67.932  -2.684 -33.506  1.00  0.00     0.006 C 
HETATM   10  C14 UNL     1      68.386  -4.138 -33.412  1.00  0.00     0.005 C 
HETATM   11  C15 UNL     1      67.607  -4.245 -32.145  1.00  0.00    -0.010 C 
HETATM   12  C16 UNL     1      66.270  -4.914 -32.401  1.00  0.00     0.010 C 
HETATM   13  C17 UNL     1      65.263  -4.569 -31.363  1.00  0.00    -0.011 C 
HETATM   14  C18 UNL     1      65.234  -5.570 -30.224  1.00  0.00     0.010 C 
HETATM   15  C19 UNL     1      65.506  -3.198 -30.745  1.00  0.00     0.029 C 
HETATM   16  C20 UNL     1      64.207  -2.797 -30.123  1.00  0.00     0.172 C 
ENDROOT
BRANCH   1  17
HETATM   17  C6  UNL     1      61.890  -0.099 -31.240  1.00  0.00     0.061 C 
BRANCH  17  18
HETATM   18  C5  UNL     1      60.973   0.924 -30.707  1.00  0.00     0.044 C 
BRANCH  18  19
HETATM   19  C4  UNL     1      61.035   0.948 -29.162  1.00  0.00     0.005 C 
BRANCH  19  20
HETATM   20  C3  UNL     1      59.981   1.826 -28.619  1.00  0.00     0.000 C 
BRANCH  20  21
HETATM   21  C2  UNL     1      60.270   3.251 -29.145  1.00  0.00    -0.005 C 
HETATM   22  C1  UNL     1      58.945   3.980 -29.102  1.00  0.00     0.005 C 
ENDBRANCH  20  21
ENDBRANCH  19  20
ENDBRANCH  18  19
ENDBRANCH  17  18
ENDBRANCH   1  17
BRANCH  16  23
HETATM   23  O1  UNL     1      63.147  -3.627 -30.374  1.00  0.00    -0.389 OA
ATOM     24  H1  UNL     1      63.412  -4.352 -30.928  1.00  0.00     0.210 HD
ENDBRANCH  16  23
TORSDOF 6
ENDMDL
MODEL 2
REMARK VINA RESULT: -6.178932536      5.940      9.685
REMARK  6 active torsions:
REMARK  status: ('A' for Active; 'I' for Inactive)
REMARK    1  A    between atoms: C2_2  and  C3_3 
REMARK    2  A    between atoms: C3_3  and  C4_4 
REMARK    3  A    between atoms: C4_4  and  C5_5 
REMARK    4  A    between atoms: C5_5  and  C6_6 
REMARK    5  A    between atoms: C6_6  and  N1_7 
REMARK    6  A    between atoms: C20_22  and  O1_23 
ROOT
HETATM    1  N1  UNL     1      71.213  -4.900 -34.137  1.00  0.00    -0.370 N 
ATOM      2  H1  UNL     1      71.776  -4.154 -33.730  1.00  0.00     0.164 HD
HETATM    3  C7  UNL     1      71.735  -6.136 -34.059  1.00  0.00     0.040 C 
HETATM    4  C8  UNL     1      72.368  -6.952 -35.119  1.00  0.00    -0.058 C 
HETATM    5  C9  UNL     1      72.492  -6.465 -36.494  1.00  0.00     0.045 C 
HETATM    6  C10 UNL     1      71.844  -8.383 -34.976  1.00  0.00     0.041 C 
HETATM    7  C11 UNL     1      71.869  -8.708 -33.510  1.00  0.00     0.001 C 
HETATM    8  C12 UNL     1      72.403 -10.139 -33.404  1.00  0.00    -0.006 C 
HETATM    9  C13 UNL     1      71.332 -11.216 -33.414  1.00  0.00     0.006 C 
HETATM   10  C14 UNL     1      71.940 -11.790 -32.138  1.00  0.00     0.005 C 
HETATM   11  C15 UNL     1      72.713 -10.523 -31.997  1.00  0.00    -0.010 C 
HETATM   12  C16 UNL     1      72.042  -9.603 -30.996  1.00  0.00     0.010 C 
HETATM   13  C17 UNL     1      72.413  -8.178 -31.207  1.00  0.00    -0.011 C 
HETATM   14  C18 UNL     1      73.610  -7.760 -30.375  1.00  0.00     0.010 C 
HETATM   15  C19 UNL     1      72.752  -7.872 -32.660  1.00  0.00     0.029 C 
HETATM   16  C20 UNL     1      72.620  -6.389 -32.803  1.00  0.00     0.172 C 
ENDROOT
BRANCH   1  17
HETATM   17  C6  UNL     1      70.014  -4.512 -34.695  1.00  0.00     0.061 C 
BRANCH  17  18
HETATM   18  C5  UNL     1      68.884  -3.958 -33.928  1.00  0.00     0.044 C 
BRANCH  18  19
HETATM   19  C4  UNL     1      69.300  -3.713 -32.459  1.00  0.00     0.005 C 
BRANCH  19  20
HETATM   20  C3  UNL     1      68.421  -4.465 -31.543  1.00  0.00     0.000 C 
BRANCH  20  21
HETATM   21  C2  UNL     1      67.116  -4.761 -32.316  1.00  0.00    -0.005 C 
HETATM   22  C1  UNL     1      65.997  -4.591 -31.313  1.00  0.00     0.005 C 
ENDBRANCH  20  21
ENDBRANCH  19  20
ENDBRANCH  18  19
ENDBRANCH  17  18
ENDBRANCH   1  17
BRANCH  16  23
HETATM   23  O1  UNL     1      72.113  -5.730 -31.715  1.00  0.00    -0.389 OA
ATOM     24  H1  UNL     1      72.685  -5.834 -30.963  1.00  0.00     0.210 HD
ENDBRANCH  16  23
TORSDOF 6
ENDMDL
MODEL 3
REMARK VINA RESULT: -6.060939620      2.852      5.310
REMARK  6 active torsions:
REMARK  status: ('A' for Active; 'I' for Inactive)
REMARK    1  A    between atoms: C2_2  and  C3_3 
REMARK    2  A    between atoms: C3_3  and  C4_4 
REMARK    3  A    between atoms: C4_4  and  C5_5 
REMARK    4  A    between atoms: C5_5  and  C6_6 
REMARK    5  A    between atoms: C6_6  and  N1_7 
REMARK    6  A    between atoms: C20_22  and  O1_23 
ROOT
HETATM    1  N1  UNL     1      66.746  -2.406 -32.340  1.00  0.00    -0.370 N 
ATOM      2  H1  UNL     1      66.036  -2.256 -33.056  1.00  0.00     0.164 HD
HETATM    3  C7  UNL     1      67.585  -3.434 -32.555  1.00  0.00     0.040 C 
HETATM    4  C8  UNL     1      67.616  -4.766 -31.910  1.00  0.00    -0.058 C 
HETATM    5  C9  UNL     1      66.661  -5.137 -30.864  1.00  0.00     0.045 C 
HETATM    6  C10 UNL     1      69.079  -5.099 -31.609  1.00  0.00     0.041 C 
HETATM    7  C11 UNL     1      69.870  -4.714 -32.825  1.00  0.00     0.001 C 
HETATM    8  C12 UNL     1      70.877  -5.845 -33.050  1.00  0.00    -0.006 C 
HETATM    9  C13 UNL     1      72.219  -5.642 -32.368  1.00  0.00     0.006 C 
HETATM   10  C14 UNL     1      72.905  -5.899 -33.706  1.00  0.00     0.005 C 
HETATM   11  C15 UNL     1      71.576  -5.726 -34.361  1.00  0.00    -0.010 C 
HETATM   12  C16 UNL     1      71.453  -4.333 -34.947  1.00  0.00     0.010 C 
HETATM   13  C17 UNL     1      70.035  -3.916 -35.110  1.00  0.00    -0.011 C 
HETATM   14  C18 UNL     1      69.487  -4.245 -36.485  1.00  0.00     0.010 C 
HETATM   15  C19 UNL     1      69.112  -4.575 -34.093  1.00  0.00     0.029 C 
HETATM   16  C20 UNL     1      67.881  -3.729 -34.055  1.00  0.00     0.172 C 
ENDROOT
BRANCH   1  17
HETATM   17  C6  UNL     1      66.722  -1.529 -31.277  1.00  0.00     0.061 C 
BRANCH  17  18
HETATM   18  C5  UNL     1      65.511  -0.836 -30.802  1.00  0.00     0.044 C 
BRANCH  18  19
HETATM   19  C4  UNL     1      64.493  -1.858 -30.243  1.00  0.00     0.005 C 
BRANCH  19  20
HETATM   20  C3  UNL     1      63.139  -1.272 -30.216  1.00  0.00     0.000 C 
BRANCH  20  21
HETATM   21  C2  UNL     1      62.958  -0.626 -28.824  1.00  0.00    -0.005 C 
HETATM   22  C1  UNL     1      61.601   0.044 -28.856  1.00  0.00     0.005 C 
ENDBRANCH  20  21
ENDBRANCH  19  20
ENDBRANCH  18  19
ENDBRANCH  17  18
ENDBRANCH   1  17
BRANCH  16  23
HETATM   23  O1  UNL     1      67.937  -2.564 -34.774  1.00  0.00    -0.389 OA
ATOM     24  H1  UNL     1      67.085  -2.352 -35.137  1.00  0.00     0.210 HD
ENDBRANCH  16  23
TORSDOF 6
ENDMDL
MODEL 4
REMARK VINA RESULT: -6.035223660      5.125      8.531
REMARK  6 active torsions:
REMARK  status: ('A' for Active; 'I' for Inactive)
REMARK    1  A    between atoms: C2_2  and  C3_3 
REMARK    2  A    between atoms: C3_3  and  C4_4 
REMARK    3  A    between atoms: C4_4  and  C5_5 
REMARK    4  A    between atoms: C5_5  and  C6_6 
REMARK    5  A    between atoms: C6_6  and  N1_7 
REMARK    6  A    between atoms: C20_22  and  O1_23 
ROOT
HETATM    1  N1  UNL     1      70.248  -4.209 -32.737  1.00  0.00    -0.370 N 
ATOM      2  H1  UNL     1      70.906  -3.686 -32.159  1.00  0.00     0.164 HD
HETATM    3  C7  UNL     1      70.790  -5.131 -33.552  1.00  0.00     0.040 C 
HETATM    4  C8  UNL     1      70.995  -5.078 -35.016  1.00  0.00    -0.058 C 
HETATM    5  C9  UNL     1      70.580  -3.921 -35.810  1.00  0.00     0.045 C 
HETATM    6  C10 UNL     1      70.597  -6.442 -35.587  1.00  0.00     0.041 C 
HETATM    7  C11 UNL     1      71.180  -7.480 -34.674  1.00  0.00     0.001 C 
HETATM    8  C12 UNL     1      71.748  -8.573 -35.583  1.00  0.00    -0.006 C 
HETATM    9  C13 UNL     1      70.777  -9.697 -35.904  1.00  0.00     0.006 C 
HETATM   10  C14 UNL     1      71.834 -10.699 -35.451  1.00  0.00     0.005 C 
HETATM   11  C15 UNL     1      72.574  -9.561 -34.833  1.00  0.00    -0.010 C 
HETATM   12  C16 UNL     1      72.308  -9.506 -33.340  1.00  0.00     0.010 C 
HETATM   13  C17 UNL     1      72.539  -8.149 -32.779  1.00  0.00    -0.011 C 
HETATM   14  C18 UNL     1      73.952  -7.968 -32.256  1.00  0.00     0.010 C 
HETATM   15  C19 UNL     1      72.298  -7.045 -33.801  1.00  0.00     0.029 C 
HETATM   16  C20 UNL     1      72.088  -5.796 -33.007  1.00  0.00     0.172 C 
ENDROOT
BRANCH   1  17
HETATM   17  C6  UNL     1      68.918  -3.881 -32.581  1.00  0.00     0.061 C 
BRANCH  17  18
HETATM   18  C5  UNL     1      67.937  -4.715 -31.864  1.00  0.00     0.044 C 
BRANCH  18  19
HETATM   19  C4  UNL     1      66.547  -4.604 -32.534  1.00  0.00     0.005 C 
BRANCH  19  20
HETATM   20  C3  UNL     1      65.480  -4.701 -31.520  1.00  0.00     0.000 C 
BRANCH  20  21
HETATM   21  C2  UNL     1      65.931  -3.852 -30.311  1.00  0.00    -0.005 C 
HETATM   22  C1  UNL     1      65.327  -2.481 -30.523  1.00  0.00     0.005 C 
ENDBRANCH  20  21
ENDBRANCH  19  20
ENDBRANCH  18  19
ENDBRANCH  17  18
ENDBRANCH   1  17
BRANCH  16  23
HETATM   23  O1  UNL     1      72.014  -5.960 -31.649  1.00  0.00    -0.389 OA
ATOM     24  H1  UNL     1      72.874  -6.132 -31.284  1.00  0.00     0.210 HD
ENDBRANCH  16  23
TORSDOF 6
ENDMDL
MODEL 5
REMARK VINA RESULT: -5.939979973      1.721      8.237
REMARK  6 active torsions:
REMARK  status: ('A' for Active; 'I' for Inactive)
REMARK    1  A    between atoms: C2_2  and  C3_3 
REMARK    2  A    between atoms: C3_3  and  C4_4 
REMARK    3  A    between atoms: C4_4  and  C5_5 
REMARK    4  A    between atoms: C5_5  and  C6_6 
REMARK    5  A    between atoms: C6_6  and  N1_7 
REMARK    6  A    between atoms: C20_22  and  O1_23 
ROOT
HETATM    1  N1  UNL     1      62.043  -1.679 -29.670  1.00  0.00    -0.370 N 
ATOM      2  H1  UNL     1      61.569  -2.558 -29.875  1.00  0.00     0.164 HD
HETATM    3  C7  UNL     1      61.329  -0.562 -29.896  1.00  0.00     0.040 C 
HETATM    4  C8  UNL     1      61.443   0.412 -31.003  1.00  0.00    -0.058 C 
HETATM    5  C9  UNL     1      62.444   0.262 -32.061  1.00  0.00     0.045 C 
HETATM    6  C10 UNL     1      61.334   1.814 -30.398  1.00  0.00     0.041 C 
HETATM    7  C11 UNL     1      60.211   1.770 -29.403  1.00  0.00     0.001 C 
HETATM    8  C12 UNL     1      59.420   3.066 -29.601  1.00  0.00    -0.006 C 
HETATM    9  C13 UNL     1      59.874   4.223 -28.727  1.00  0.00     0.006 C 
HETATM   10  C14 UNL     1      58.431   4.402 -28.266  1.00  0.00     0.005 C 
HETATM   11  C15 UNL     1      58.133   3.062 -28.850  1.00  0.00    -0.010 C 
HETATM   12  C16 UNL     1      58.112   2.005 -27.762  1.00  0.00     0.010 C 
HETATM   13  C17 UNL     1      58.368   0.642 -28.300  1.00  0.00    -0.011 C 
HETATM   14  C18 UNL     1      57.090  -0.092 -28.656  1.00  0.00     0.010 C 
HETATM   15  C19 UNL     1      59.235   0.662 -29.552  1.00  0.00     0.029 C 
HETATM   16  C20 UNL     1      59.795  -0.718 -29.679  1.00  0.00     0.172 C 
ENDROOT
BRANCH   1  17
HETATM   17  C6  UNL     1      63.333  -1.788 -29.197  1.00  0.00     0.061 C 
BRANCH  17  18
HETATM   18  C5  UNL     1      64.385  -2.596 -29.840  1.00  0.00     0.044 C 
BRANCH  18  19
HETATM   19  C4  UNL     1      65.312  -1.694 -30.689  1.00  0.00     0.005 C 
BRANCH  19  20
HETATM   20  C3  UNL     1      66.311  -2.511 -31.403  1.00  0.00     0.000 C 
BRANCH  20  21
HETATM   21  C2  UNL     1      65.968  -3.991 -31.117  1.00  0.00    -0.005 C 
HETATM   22  C1  UNL     1      66.207  -4.726 -32.417  1.00  0.00     0.005 C 
ENDBRANCH  20  21
ENDBRANCH  19  20
ENDBRANCH  18  19
ENDBRANCH  17  18
ENDBRANCH   1  17
BRANCH  16  23
HETATM   23  O1  UNL     1      59.538  -1.563 -28.632  1.00  0.00    -0.389 OA
ATOM     24  H1  UNL     1      59.064  -2.331 -28.929  1.00  0.00     0.210 HD
ENDBRANCH  16  23
TORSDOF 6
ENDMDL
