MODEL 1
REMARK VINA RESULT: -6.690312381      0.000      0.000
REMARK  4 active torsions:
REMARK  status: ('A' for Active; 'I' for Inactive)
REMARK    1  A    between atoms: C2_2  and  C3_3 
REMARK    2  A    between atoms: C7_7  and  N1_8 
REMARK    3  A    between atoms: N1_8  and  C8_10 
REMARK    4  A    between atoms: C13_18  and  O1_19 
ROOT
HETATM    1  C3  UNL     1      27.711  22.913  42.612  1.00  0.00    -0.027 C 
HETATM    2  C4  UNL     1      28.935  23.290  41.802  1.00  0.00     0.019 C 
HETATM    3  C5  UNL     1      27.684  23.557  43.966  1.00  0.00     0.017 C 
HETATM    4  C6  UNL     1      27.491  25.030  43.946  1.00  0.00     0.055 C 
HETATM    5  C7  UNL     1      26.015  25.430  43.820  1.00  0.00     0.111 C 
HETATM    6  N2  UNL     1      25.791  26.546  44.635  1.00  0.00    -0.376 N 
ATOM      7  H2  UNL     1      25.969  26.473  45.636  1.00  0.00     0.161 HD
HETATM    8  C9  UNL     1      25.334  27.749  44.114  1.00  0.00     0.063 C 
HETATM    9  C10 UNL     1      24.739  27.730  42.747  1.00  0.00     0.029 C 
HETATM   10  C11 UNL     1      24.512  29.129  42.254  1.00  0.00     0.013 C 
HETATM   11  C12 UNL     1      24.327  29.180  40.742  1.00  0.00     0.032 C 
HETATM   12  C13 UNL     1      25.583  28.580  40.143  1.00  0.00     0.118 C 
HETATM   13  C14 UNL     1      25.501  27.084  40.440  1.00  0.00     0.038 C 
HETATM   14  C15 UNL     1      25.678  26.930  41.905  1.00  0.00     0.009 C 
HETATM   15  C16 UNL     1      25.589  25.505  42.400  1.00  0.00     0.004 C 
HETATM   16  C17 UNL     1      24.122  25.076  42.267  1.00  0.00     0.020 C 
HETATM   17  C18 UNL     1      26.375  24.647  41.459  1.00  0.00     0.015 C 
HETATM   18  C19 UNL     1      26.460  23.216  41.814  1.00  0.00     0.014 C 
ENDROOT
BRANCH   5  19
HETATM   19  N1  UNL     1      25.281  24.305  44.432  1.00  0.00    -0.363 N 
ATOM     20  H1  UNL     1      25.267  23.403  43.957  1.00  0.00     0.162 HD
BRANCH  19  21
HETATM   21  C8  UNL     1      24.667  24.435  45.536  1.00  0.00     0.167 C 
HETATM   22  S1  UNL     1      24.448  24.810  47.107  1.00  0.00    -0.075 SA
ENDBRANCH  19  21
ENDBRANCH   5  19
BRANCH   1  23
HETATM   23  C2  UNL     1      27.751  21.435  42.792  1.00  0.00    -0.028 C 
HETATM   24  C1  UNL     1      27.751  20.613  41.746  1.00  0.00     0.007 C 
ENDBRANCH   1  23
BRANCH  12  25
HETATM   25  O1  UNL     1      25.728  28.842  38.802  1.00  0.00    -0.396 OA
ATOM     26  H1  UNL     1      26.483  28.415  38.413  1.00  0.00     0.210 HD
ENDBRANCH  12  25
TORSDOF 4
ENDMDL
MODEL 2
REMARK VINA RESULT: -5.744954581      2.372      5.380
REMARK  4 active torsions:
REMARK  status: ('A' for Active; 'I' for Inactive)
REMARK    1  A    between atoms: C2_2  and  C3_3 
REMARK    2  A    between atoms: C7_7  and  N1_8 
REMARK    3  A    between atoms: N1_8  and  C8_10 
REMARK    4  A    between atoms: C13_18  and  O1_19 
ROOT
HETATM    1  C3  UNL     1      25.147  28.676  41.385  1.00  0.00    -0.027 C 
HETATM    2  C4  UNL     1      24.098  29.144  40.398  1.00  0.00     0.019 C 
HETATM    3  C5  UNL     1      24.558  28.111  42.643  1.00  0.00     0.017 C 
HETATM    4  C6  UNL     1      23.834  26.826  42.463  1.00  0.00     0.055 C 
HETATM    5  C7  UNL     1      24.776  25.614  42.462  1.00  0.00     0.111 C 
HETATM    6  N2  UNL     1      24.150  24.571  43.152  1.00  0.00    -0.376 N 
ATOM      7  H2  UNL     1      23.886  24.709  44.128  1.00  0.00     0.161 HD
HETATM    8  C9  UNL     1      23.878  23.353  42.543  1.00  0.00     0.063 C 
HETATM    9  C10 UNL     1      24.586  23.043  41.268  1.00  0.00     0.029 C 
HETATM   10  C11 UNL     1      24.012  21.810  40.635  1.00  0.00     0.013 C 
HETATM   11  C12 UNL     1      24.381  21.699  39.160  1.00  0.00     0.032 C 
HETATM   12  C13 UNL     1      23.852  22.955  38.498  1.00  0.00     0.118 C 
HETATM   13  C14 UNL     1      24.759  24.084  38.985  1.00  0.00     0.038 C 
HETATM   14  C15 UNL     1      24.467  24.273  40.428  1.00  0.00     0.009 C 
HETATM   15  C16 UNL     1      25.303  25.335  41.102  1.00  0.00     0.004 C 
HETATM   16  C17 UNL     1      26.733  24.786  41.195  1.00  0.00     0.020 C 
HETATM   17  C18 UNL     1      25.356  26.520  40.189  1.00  0.00     0.015 C 
HETATM   18  C19 UNL     1      26.083  27.697  40.706  1.00  0.00     0.014 C 
ENDROOT
BRANCH   5  19
HETATM   19  N1  UNL     1      25.920  26.043  43.289  1.00  0.00    -0.363 N 
ATOM     20  H1  UNL     1      26.648  26.622  42.870  1.00  0.00     0.162 HD
BRANCH  19  21
HETATM   21  C8  UNL     1      26.019  25.707  44.509  1.00  0.00     0.167 C 
HETATM   22  S1  UNL     1      25.995  25.881  46.130  1.00  0.00    -0.075 SA
ENDBRANCH  19  21
ENDBRANCH   5  19
BRANCH   1  23
HETATM   23  C2  UNL     1      25.967  29.868  41.740  1.00  0.00    -0.028 C 
HETATM   24  C1  UNL     1      26.021  30.931  40.942  1.00  0.00     0.007 C 
ENDBRANCH   1  23
BRANCH  12  25
HETATM   25  O1  UNL     1      23.807  22.873  37.128  1.00  0.00    -0.396 OA
ATOM     26  H1  UNL     1      22.924  22.860  36.778  1.00  0.00     0.210 HD
ENDBRANCH  12  25
TORSDOF 4
ENDMDL
MODEL 3
REMARK VINA RESULT: -5.654646968      2.944      4.969
REMARK  4 active torsions:
REMARK  status: ('A' for Active; 'I' for Inactive)
REMARK    1  A    between atoms: C2_2  and  C3_3 
REMARK    2  A    between atoms: C7_7  and  N1_8 
REMARK    3  A    between atoms: N1_8  and  C8_10 
REMARK    4  A    between atoms: C13_18  and  O1_19 
ROOT
HETATM    1  C3  UNL     1      24.761  26.146  40.372  1.00  0.00    -0.027 C 
HETATM    2  C4  UNL     1      25.176  27.581  40.120  1.00  0.00     0.019 C 
HETATM    3  C5  UNL     1      25.922  25.197  40.404  1.00  0.00     0.017 C 
HETATM    4  C6  UNL     1      26.830  25.372  41.566  1.00  0.00     0.055 C 
HETATM    5  C7  UNL     1      26.322  24.657  42.825  1.00  0.00     0.111 C 
HETATM    6  N2  UNL     1      27.420  24.098  43.487  1.00  0.00    -0.376 N 
ATOM      7  H2  UNL     1      27.998  23.412  43.000  1.00  0.00     0.161 HD
HETATM    8  C9  UNL     1      27.745  24.452  44.790  1.00  0.00     0.063 C 
HETATM    9  C10 UNL     1      26.705  25.153  45.596  1.00  0.00     0.029 C 
HETATM   10  C11 UNL     1      27.290  25.661  46.881  1.00  0.00     0.013 C 
HETATM   11  C12 UNL     1      26.418  26.734  47.522  1.00  0.00     0.032 C 
HETATM   12  C13 UNL     1      26.292  27.843  46.497  1.00  0.00     0.118 C 
HETATM   13  C14 UNL     1      25.383  27.283  45.403  1.00  0.00     0.038 C 
HETATM   14  C15 UNL     1      26.154  26.222  44.710  1.00  0.00     0.009 C 
HETATM   15  C16 UNL     1      25.399  25.518  43.607  1.00  0.00     0.004 C 
HETATM   16  C17 UNL     1      24.321  24.659  44.281  1.00  0.00     0.020 C 
HETATM   17  C18 UNL     1      24.682  26.562  42.809  1.00  0.00     0.015 C 
HETATM   18  C19 UNL     1      23.931  26.070  41.636  1.00  0.00     0.014 C 
ENDROOT
BRANCH   5  19
HETATM   19  N1  UNL     1      25.523  23.530  42.305  1.00  0.00    -0.363 N 
ATOM     20  H1  UNL     1      24.516  23.515  42.470  1.00  0.00     0.162 HD
BRANCH  19  21
HETATM   21  C8  UNL     1      26.059  22.580  41.655  1.00  0.00     0.167 C 
HETATM   22  S1  UNL     1      26.141  21.252  40.714  1.00  0.00    -0.075 SA
ENDBRANCH  19  21
ENDBRANCH   5  19
BRANCH   1  23
HETATM   23  C2  UNL     1      23.861  25.754  39.251  1.00  0.00    -0.028 C 
HETATM   24  C1  UNL     1      23.966  24.564  38.666  1.00  0.00     0.007 C 
ENDBRANCH   1  23
BRANCH  12  25
HETATM   25  O1  UNL     1      25.817  29.020  47.021  1.00  0.00    -0.396 OA
ATOM     26  H1  UNL     1      25.459  29.608  46.367  1.00  0.00     0.210 HD
ENDBRANCH  12  25
TORSDOF 4
ENDMDL
MODEL 4
REMARK VINA RESULT: -5.276654076      3.292      5.019
REMARK  4 active torsions:
REMARK  status: ('A' for Active; 'I' for Inactive)
REMARK    1  A    between atoms: C2_2  and  C3_3 
REMARK    2  A    between atoms: C7_7  and  N1_8 
REMARK    3  A    between atoms: N1_8  and  C8_10 
REMARK    4  A    between atoms: C13_18  and  O1_19 
ROOT
HETATM    1  C3  UNL     1      24.498  22.112  39.846  1.00  0.00    -0.027 C 
HETATM    2  C4  UNL     1      24.831  20.680  40.209  1.00  0.00     0.019 C 
HETATM    3  C5  UNL     1      23.473  22.723  40.754  1.00  0.00     0.017 C 
HETATM    4  C6  UNL     1      23.937  22.950  42.147  1.00  0.00     0.055 C 
HETATM    5  C7  UNL     1      24.727  24.257  42.300  1.00  0.00     0.111 C 
HETATM    6  N2  UNL     1      24.375  24.843  43.521  1.00  0.00    -0.376 N 
ATOM      7  H2  UNL     1      23.401  25.093  43.689  1.00  0.00     0.161 HD
HETATM    8  C9  UNL     1      25.318  25.092  44.509  1.00  0.00     0.063 C 
HETATM    9  C10 UNL     1      26.756  25.067  44.116  1.00  0.00     0.029 C 
HETATM   10  C11 UNL     1      27.634  25.126  45.331  1.00  0.00     0.013 C 
HETATM   11  C12 UNL     1      29.057  24.671  45.032  1.00  0.00     0.032 C 
HETATM   12  C13 UNL     1      28.945  23.256  44.500  1.00  0.00     0.118 C 
HETATM   13  C14 UNL     1      28.337  23.393  43.105  1.00  0.00     0.038 C 
HETATM   14  C15 UNL     1      26.932  23.832  43.294  1.00  0.00     0.009 C 
HETATM   15  C16 UNL     1      26.170  24.060  42.010  1.00  0.00     0.004 C 
HETATM   16  C17 UNL     1      26.753  25.322  41.361  1.00  0.00     0.020 C 
HETATM   17  C18 UNL     1      26.479  22.921  41.089  1.00  0.00     0.015 C 
HETATM   18  C19 UNL     1      25.770  22.932  39.793  1.00  0.00     0.014 C 
ENDROOT
BRANCH   5  19
HETATM   19  N1  UNL     1      24.190  25.132  41.240  1.00  0.00    -0.363 N 
ATOM     20  H1  UNL     1      24.093  24.765  40.293  1.00  0.00     0.162 HD
BRANCH  19  21
HETATM   21  C8  UNL     1      23.844  26.330  41.480  1.00  0.00     0.167 C 
HETATM   22  S1  UNL     1      23.912  27.958  41.440  1.00  0.00    -0.075 SA
ENDBRANCH  19  21
ENDBRANCH   5  19
BRANCH   1  23
HETATM   23  C2  UNL     1      23.951  22.090  38.461  1.00  0.00    -0.028 C 
HETATM   24  C1  UNL     1      22.692  21.732  38.223  1.00  0.00     0.007 C 
ENDBRANCH   1  23
BRANCH  12  25
HETATM   25  O1  UNL     1      30.140  22.580  44.487  1.00  0.00    -0.396 OA
ATOM     26  H1  UNL     1      30.893  23.145  44.360  1.00  0.00     0.210 HD
ENDBRANCH  12  25
TORSDOF 4
ENDMDL
MODEL 5
REMARK VINA RESULT: -4.737116207      2.930      5.379
REMARK  4 active torsions:
REMARK  status: ('A' for Active; 'I' for Inactive)
REMARK    1  A    between atoms: C2_2  and  C3_3 
REMARK    2  A    between atoms: C7_7  and  N1_8 
REMARK    3  A    between atoms: N1_8  and  C8_10 
REMARK    4  A    between atoms: C13_18  and  O1_19 
ROOT
HETATM    1  C3  UNL     1      25.470  25.673  44.993  1.00  0.00    -0.027 C 
HETATM    2  C4  UNL     1      24.088  25.302  45.487  1.00  0.00     0.019 C 
HETATM    3  C5  UNL     1      26.493  24.609  45.258  1.00  0.00     0.017 C 
HETATM    4  C6  UNL     1      26.305  23.362  44.473  1.00  0.00     0.055 C 
HETATM    5  C7  UNL     1      26.897  23.459  43.060  1.00  0.00     0.111 C 
HETATM    6  N2  UNL     1      27.486  22.229  42.745  1.00  0.00    -0.376 N 
ATOM      7  H2  UNL     1      28.241  21.876  43.333  1.00  0.00     0.161 HD
HETATM    8  C9  UNL     1      27.069  21.479  41.654  1.00  0.00     0.063 C 
HETATM    9  C10 UNL     1      26.245  22.164  40.617  1.00  0.00     0.029 C 
HETATM   10  C11 UNL     1      25.695  21.166  39.641  1.00  0.00     0.013 C 
HETATM   11  C12 UNL     1      24.523  21.730  38.846  1.00  0.00     0.032 C 
HETATM   12  C13 UNL     1      23.479  22.139  39.866  1.00  0.00     0.118 C 
HETATM   13  C14 UNL     1      24.045  23.380  40.553  1.00  0.00     0.038 C 
HETATM   14  C15 UNL     1      25.202  22.928  41.365  1.00  0.00     0.009 C 
HETATM   15  C16 UNL     1      25.923  24.034  42.099  1.00  0.00     0.004 C 
HETATM   16  C17 UNL     1      26.658  24.867  41.040  1.00  0.00     0.020 C 
HETATM   17  C18 UNL     1      24.887  24.927  42.707  1.00  0.00     0.015 C 
HETATM   18  C19 UNL     1      25.403  26.043  43.525  1.00  0.00     0.014 C 
ENDROOT
BRANCH   5  19
HETATM   19  N1  UNL     1      27.997  24.433  43.194  1.00  0.00    -0.363 N 
ATOM     20  H1  UNL     1      27.804  25.425  43.054  1.00  0.00     0.162 HD
BRANCH  19  21
HETATM   21  C8  UNL     1      29.179  24.066  43.481  1.00  0.00     0.167 C 
HETATM   22  S1  UNL     1      30.467  23.722  44.418  1.00  0.00    -0.075 SA
ENDBRANCH  19  21
ENDBRANCH   5  19
BRANCH   1  23
HETATM   23  C2  UNL     1      25.872  26.908  45.722  1.00  0.00    -0.028 C 
HETATM   24  C1  UNL     1      25.894  28.092  45.115  1.00  0.00     0.007 C 
ENDBRANCH   1  23
BRANCH  12  25
HETATM   25  O1  UNL     1      22.239  22.362  39.319  1.00  0.00    -0.396 OA
ATOM     26  H1  UNL     1      21.523  22.146  39.905  1.00  0.00     0.210 HD
ENDBRANCH  12  25
TORSDOF 4
ENDMDL
