MODEL 1
REMARK VINA RESULT: -6.640076117      0.000      0.000
REMARK  3 active torsions:
REMARK  status: ('A' for Active; 'I' for Inactive)
REMARK    1  A    between atoms: N1_4  and  C4_5 
REMARK       I    between atoms: N3_9  and  C6_11 
REMARK       I    between atoms: C6_11  and  N4_13 
REMARK    2  A    between atoms: N4_13  and  N5_15 
REMARK    3  A    between atoms: N8_23  and  N9_25 
ROOT
HETATM    1  C4  UNL     1      35.132  43.750  28.974  1.00  0.00     0.710 C 
HETATM    2  N2  UNL     1      34.561  42.862  28.235  1.00  0.00    -0.020 N 
ATOM      3  H2  UNL     1      33.608  42.641  28.524  1.00  0.00     0.203 HD
HETATM    4  C5  UNL     1      34.995  42.128  27.098  1.00  0.00     0.715 C 
HETATM    5  N3  UNL     1      34.273  41.098  26.751  1.00  0.00    -0.138 N 
ATOM      6  H3  UNL     1      33.447  40.878  27.308  1.00  0.00     0.189 HD
HETATM    7  C6  UNL     1      34.568  40.280  25.661  1.00  0.00     0.352 C 
HETATM    8  O1  UNL     1      35.126  39.174  25.841  1.00  0.00    -0.245 OA
HETATM    9  N4  UNL     1      34.237  40.693  24.350  1.00  0.00    -0.258 N 
ATOM     10  H4  UNL     1      33.782  41.598  24.229  1.00  0.00     0.191 HD
HETATM   11  N6  UNL     1      36.146  42.434  26.318  1.00  0.00    -0.117 N 
ATOM     12  H6  UNL     1      36.263  41.879  25.470  1.00  0.00     0.206 HD
HETATM   13  N7  UNL     1      37.154  43.404  26.559  1.00  0.00    -0.116 N 
ATOM     14  H7  UNL     1      37.845  43.519  25.817  1.00  0.00     0.206 HD
HETATM   15  C7  UNL     1      37.326  44.235  27.699  1.00  0.00     0.726 C 
HETATM   16  N8  UNL     1      38.333  45.036  27.763  1.00  0.00    -0.137 N 
ATOM     17  H8  UNL     1      38.452  45.630  28.584  1.00  0.00     0.205 HD
HETATM   18  N10 UNL     1      36.466  44.277  28.831  1.00  0.00    -0.019 N 
ATOM     19  H10 UNL     1      36.845  44.744  29.654  1.00  0.00     0.203 HD
ENDROOT
BRANCH   1  20
HETATM   20  N1  UNL     1      34.391  44.293  30.060  1.00  0.00    -0.209 N 
HETATM   21  C2  UNL     1      33.028  44.585  30.570  1.00  0.00     0.116 A 
HETATM   22  C1  UNL     1      32.213  43.406  31.004  1.00  0.00     0.034 C 
HETATM   23  C3  UNL     1      34.241  44.918  31.364  1.00  0.00     0.167 A 
ENDBRANCH   1  20
BRANCH   9  24
HETATM   24  N5  UNL     1      34.502  39.923  23.208  1.00  0.00    -0.341 N 
ATOM     25  H52 UNL     1      33.965  39.065  23.088  1.00  0.00     0.177 HD
ATOM     26  H51 UNL     1      35.196  40.181  22.506  1.00  0.00     0.177 HD
ENDBRANCH   9  24
BRANCH  16  27
HETATM   27  N9  UNL     1      39.254  45.101  26.735  1.00  0.00    -0.331 N 
ATOM     28  H92 UNL     1      39.692  44.236  26.416  1.00  0.00     0.177 HD
ATOM     29  H91 UNL     1      39.493  45.993  26.301  1.00  0.00     0.177 HD
ENDBRANCH  16  27
TORSDOF 3
ENDMDL
MODEL 2
REMARK VINA RESULT: -6.633473537      2.570      5.604
REMARK  3 active torsions:
REMARK  status: ('A' for Active; 'I' for Inactive)
REMARK    1  A    between atoms: N1_4  and  C4_5 
REMARK       I    between atoms: N3_9  and  C6_11 
REMARK       I    between atoms: C6_11  and  N4_13 
REMARK    2  A    between atoms: N4_13  and  N5_15 
REMARK    3  A    between atoms: N8_23  and  N9_25 
ROOT
HETATM    1  C4  UNL     1      36.834  42.264  26.968  1.00  0.00     0.710 C 
HETATM    2  N2  UNL     1      35.703  42.450  27.558  1.00  0.00    -0.020 N 
ATOM      3  H2  UNL     1      34.999  41.751  27.321  1.00  0.00     0.203 HD
HETATM    4  C5  UNL     1      35.241  43.435  28.473  1.00  0.00     0.715 C 
HETATM    5  N3  UNL     1      33.951  43.501  28.665  1.00  0.00    -0.138 N 
ATOM      6  H3  UNL     1      33.354  42.851  28.155  1.00  0.00     0.189 HD
HETATM    7  C6  UNL     1      33.345  44.412  29.530  1.00  0.00     0.352 C 
HETATM    8  O1  UNL     1      32.808  45.446  29.072  1.00  0.00    -0.245 OA
HETATM    9  N4  UNL     1      33.334  44.172  30.922  1.00  0.00    -0.258 N 
ATOM     10  H4  UNL     1      33.778  43.322  31.270  1.00  0.00     0.191 HD
HETATM   11  N6  UNL     1      36.073  44.342  29.187  1.00  0.00    -0.117 N 
ATOM     12  H6  UNL     1      35.601  44.915  29.887  1.00  0.00     0.206 HD
HETATM   13  N7  UNL     1      37.470  44.561  29.058  1.00  0.00    -0.116 N 
ATOM     14  H7  UNL     1      37.884  45.198  29.739  1.00  0.00     0.206 HD
HETATM   15  C7  UNL     1      38.366  44.008  28.103  1.00  0.00     0.726 C 
HETATM   16  N8  UNL     1      39.607  44.355  28.112  1.00  0.00    -0.137 N 
ATOM     17  H8  UNL     1      40.246  43.956  27.425  1.00  0.00     0.205 HD
HETATM   18  N10 UNL     1      38.024  43.070  27.091  1.00  0.00    -0.019 N 
ATOM     19  H10 UNL     1      38.714  42.950  26.351  1.00  0.00     0.203 HD
ENDROOT
BRANCH   1  20
HETATM   20  N1  UNL     1      36.957  41.150  26.093  1.00  0.00    -0.209 N 
HETATM   21  C2  UNL     1      37.018  40.730  24.671  1.00  0.00     0.116 A 
HETATM   22  C1  UNL     1      38.281  41.057  23.934  1.00  0.00     0.034 C 
HETATM   23  C3  UNL     1      37.100  39.739  25.777  1.00  0.00     0.167 A 
ENDBRANCH   1  20
BRANCH   9  24
HETATM   24  N5  UNL     1      32.743  45.043  31.850  1.00  0.00    -0.341 N 
ATOM     25  H52 UNL     1      33.341  45.752  32.273  1.00  0.00     0.177 HD
ATOM     26  H51 UNL     1      31.758  44.998  32.114  1.00  0.00     0.177 HD
ENDBRANCH   9  24
BRANCH  16  27
HETATM   27  N9  UNL     1      40.084  45.261  29.041  1.00  0.00    -0.331 N 
ATOM     28  H92 UNL     1      39.996  46.258  28.839  1.00  0.00     0.177 HD
ATOM     29  H91 UNL     1      40.514  44.944  29.909  1.00  0.00     0.177 HD
ENDBRANCH  16  27
TORSDOF 3
ENDMDL
MODEL 3
REMARK VINA RESULT: -6.625840102      2.593      5.465
REMARK  3 active torsions:
REMARK  status: ('A' for Active; 'I' for Inactive)
REMARK    1  A    between atoms: N1_4  and  C4_5 
REMARK       I    between atoms: N3_9  and  C6_11 
REMARK       I    between atoms: C6_11  and  N4_13 
REMARK    2  A    between atoms: N4_13  and  N5_15 
REMARK    3  A    between atoms: N8_23  and  N9_25 
ROOT
HETATM    1  C4  UNL     1      36.040  42.212  27.579  1.00  0.00     0.710 C 
HETATM    2  N2  UNL     1      35.044  42.650  28.270  1.00  0.00    -0.020 N 
ATOM      3  H2  UNL     1      34.235  42.029  28.259  1.00  0.00     0.203 HD
HETATM    4  C5  UNL     1      34.848  43.825  29.044  1.00  0.00     0.715 C 
HETATM    5  N3  UNL     1      33.620  44.105  29.390  1.00  0.00    -0.138 N 
ATOM      6  H3  UNL     1      32.879  43.472  29.090  1.00  0.00     0.189 HD
HETATM    7  C6  UNL     1      33.266  45.220  30.148  1.00  0.00     0.352 C 
HETATM    8  O1  UNL     1      32.789  46.232  29.586  1.00  0.00    -0.245 OA
HETATM    9  N4  UNL     1      33.443  45.214  31.550  1.00  0.00    -0.258 N 
ATOM     10  H4  UNL     1      33.833  44.377  31.985  1.00  0.00     0.191 HD
HETATM   11  N6  UNL     1      35.881  44.709  29.465  1.00  0.00    -0.117 N 
ATOM     12  H6  UNL     1      35.593  45.449  30.106  1.00  0.00     0.206 HD
HETATM   13  N7  UNL     1      37.257  44.703  29.116  1.00  0.00    -0.116 N 
ATOM     14  H7  UNL     1      37.843  45.377  29.609  1.00  0.00     0.206 HD
HETATM   15  C7  UNL     1      37.923  43.881  28.167  1.00  0.00     0.726 C 
HETATM   16  N8  UNL     1      39.182  44.046  27.948  1.00  0.00    -0.137 N 
ATOM     17  H8  UNL     1      39.656  43.453  27.266  1.00  0.00     0.205 HD
HETATM   18  N10 UNL     1      37.321  42.850  27.396  1.00  0.00    -0.019 N 
ATOM     19  H10 UNL     1      37.869  42.514  26.604  1.00  0.00     0.203 HD
ENDROOT
BRANCH   1  20
HETATM   20  N1  UNL     1      35.895  40.965  26.912  1.00  0.00    -0.209 N 
HETATM   21  C2  UNL     1      35.273  39.619  26.982  1.00  0.00     0.116 A 
HETATM   22  C1  UNL     1      33.792  39.559  26.765  1.00  0.00     0.034 C 
HETATM   23  C3  UNL     1      36.126  40.020  25.832  1.00  0.00     0.167 A 
ENDBRANCH   1  20
BRANCH   9  24
HETATM   24  N5  UNL     1      33.108  46.299  32.375  1.00  0.00    -0.341 N 
ATOM     25  H52 UNL     1      32.229  46.242  32.887  1.00  0.00     0.177 HD
ATOM     26  H51 UNL     1      33.698  47.125  32.482  1.00  0.00     0.177 HD
ENDBRANCH   9  24
BRANCH  16  27
HETATM   27  N9  UNL     1      39.900  45.013  28.626  1.00  0.00    -0.331 N 
ATOM     28  H92 UNL     1      40.252  44.795  29.558  1.00  0.00     0.177 HD
ATOM     29  H91 UNL     1      40.075  45.926  28.205  1.00  0.00     0.177 HD
ENDBRANCH  16  27
TORSDOF 3
ENDMDL
MODEL 4
REMARK VINA RESULT: -6.583015973      2.603      5.073
REMARK  3 active torsions:
REMARK  status: ('A' for Active; 'I' for Inactive)
REMARK    1  A    between atoms: N1_4  and  C4_5 
REMARK       I    between atoms: N3_9  and  C6_11 
REMARK       I    between atoms: C6_11  and  N4_13 
REMARK    2  A    between atoms: N4_13  and  N5_15 
REMARK    3  A    between atoms: N8_23  and  N9_25 
ROOT
HETATM    1  C4  UNL     1      35.321  42.861  28.121  1.00  0.00     0.710 C 
HETATM    2  N2  UNL     1      36.237  43.764  28.201  1.00  0.00    -0.020 N 
ATOM      3  H2  UNL     1      35.968  44.571  28.764  1.00  0.00     0.203 HD
HETATM    4  C5  UNL     1      37.548  43.860  27.661  1.00  0.00     0.715 C 
HETATM    5  N3  UNL     1      38.116  45.035  27.699  1.00  0.00    -0.138 N 
ATOM      6  H3  UNL     1      37.594  45.810  28.108  1.00  0.00     0.189 HD
HETATM    7  C6  UNL     1      39.397  45.290  27.210  1.00  0.00     0.352 C 
HETATM    8  O1  UNL     1      39.543  45.829  26.089  1.00  0.00    -0.245 OA
HETATM    9  N4  UNL     1      40.533  44.944  27.975  1.00  0.00    -0.258 N 
ATOM     10  H4  UNL     1      40.388  44.507  28.886  1.00  0.00     0.191 HD
HETATM   11  N6  UNL     1      38.279  42.780  27.091  1.00  0.00    -0.117 N 
ATOM     12  H6  UNL     1      39.248  42.984  26.846  1.00  0.00     0.206 HD
HETATM   13  N7  UNL     1      37.844  41.457  26.814  1.00  0.00    -0.116 N 
ATOM     14  H7  UNL     1      38.564  40.813  26.487  1.00  0.00     0.206 HD
HETATM   15  C7  UNL     1      36.536  40.914  26.933  1.00  0.00     0.726 C 
HETATM   16  N8  UNL     1      36.316  39.691  26.595  1.00  0.00    -0.137 N 
ATOM     17  H8  UNL     1      35.375  39.306  26.682  1.00  0.00     0.205 HD
HETATM   18  N10 UNL     1      35.390  41.610  27.407  1.00  0.00    -0.019 N 
ATOM     19  H10 UNL     1      34.494  41.164  27.215  1.00  0.00     0.203 HD
ENDROOT
BRANCH   1  20
HETATM   20  N1  UNL     1      34.093  43.091  28.802  1.00  0.00    -0.209 N 
HETATM   21  C2  UNL     1      33.454  43.799  29.938  1.00  0.00     0.116 A 
HETATM   22  C1  UNL     1      33.297  45.282  29.794  1.00  0.00     0.034 C 
HETATM   23  C3  UNL     1      32.666  42.929  29.025  1.00  0.00     0.167 A 
ENDBRANCH   1  20
BRANCH   9  24
HETATM   24  N5  UNL     1      41.850  45.171  27.548  1.00  0.00    -0.341 N 
ATOM     25  H52 UNL     1      41.983  45.462  26.580  1.00  0.00     0.177 HD
ATOM     26  H51 UNL     1      42.664  45.060  28.154  1.00  0.00     0.177 HD
ENDBRANCH   9  24
BRANCH  16  27
HETATM   27  N9  UNL     1      37.337  38.892  26.115  1.00  0.00    -0.331 N 
ATOM     28  H92 UNL     1      38.296  39.236  26.181  1.00  0.00     0.177 HD
ATOM     29  H91 UNL     1      37.140  37.979  25.705  1.00  0.00     0.177 HD
ENDBRANCH  16  27
TORSDOF 3
ENDMDL
MODEL 5
REMARK VINA RESULT: -6.580483475      1.279      1.298
REMARK  3 active torsions:
REMARK  status: ('A' for Active; 'I' for Inactive)
REMARK    1  A    between atoms: N1_4  and  C4_5 
REMARK       I    between atoms: N3_9  and  C6_11 
REMARK       I    between atoms: C6_11  and  N4_13 
REMARK    2  A    between atoms: N4_13  and  N5_15 
REMARK    3  A    between atoms: N8_23  and  N9_25 
ROOT
HETATM    1  C4  UNL     1      35.481  43.616  28.562  1.00  0.00     0.710 C 
HETATM    2  N2  UNL     1      35.194  42.695  27.708  1.00  0.00    -0.020 N 
ATOM      3  H2  UNL     1      34.195  42.510  27.626  1.00  0.00     0.203 HD
HETATM    4  C5  UNL     1      35.994  41.885  26.856  1.00  0.00     0.715 C 
HETATM    5  N3  UNL     1      35.414  40.848  26.314  1.00  0.00    -0.138 N 
ATOM      6  H3  UNL     1      34.431  40.679  26.529  1.00  0.00     0.189 HD
HETATM    7  C6  UNL     1      36.063  39.959  25.459  1.00  0.00     0.352 C 
HETATM    8  O1  UNL     1      36.467  38.856  25.892  1.00  0.00    -0.245 OA
HETATM    9  N4  UNL     1      36.266  40.297  24.102  1.00  0.00    -0.258 N 
ATOM     10  H4  UNL     1      35.926  41.202  23.772  1.00  0.00     0.191 HD
HETATM   11  N6  UNL     1      37.365  42.120  26.555  1.00  0.00    -0.117 N 
ATOM     12  H6  UNL     1      37.769  41.512  25.842  1.00  0.00     0.206 HD
HETATM   13  N7  UNL     1      38.247  43.083  27.109  1.00  0.00    -0.116 N 
ATOM     14  H7  UNL     1      39.170  43.140  26.678  1.00  0.00     0.206 HD
HETATM   15  C7  UNL     1      38.012  43.980  28.187  1.00  0.00     0.726 C 
HETATM   16  N8  UNL     1      38.953  44.764  28.586  1.00  0.00    -0.137 N 
ATOM     17  H8  UNL     1      38.779  45.405  29.361  1.00  0.00     0.205 HD
HETATM   18  N10 UNL     1      36.792  44.108  28.907  1.00  0.00    -0.019 N 
ATOM     19  H10 UNL     1      36.853  44.617  29.788  1.00  0.00     0.203 HD
ENDROOT
BRANCH   1  20
HETATM   20  N1  UNL     1      34.409  44.238  29.260  1.00  0.00    -0.209 N 
HETATM   21  C2  UNL     1      32.961  44.158  29.574  1.00  0.00     0.116 A 
HETATM   22  C1  UNL     1      32.546  43.077  30.524  1.00  0.00     0.034 C 
HETATM   23  C3  UNL     1      33.810  45.258  30.105  1.00  0.00     0.167 A 
ENDBRANCH   1  20
BRANCH   9  24
HETATM   24  N5  UNL     1      36.909  39.453  23.184  1.00  0.00    -0.341 N 
ATOM     25  H52 UNL     1      37.558  38.763  23.560  1.00  0.00     0.177 HD
ATOM     26  H51 UNL     1      36.757  39.501  22.176  1.00  0.00     0.177 HD
ENDBRANCH   9  24
BRANCH  16  27
HETATM   27  N9  UNL     1      40.195  44.749  27.980  1.00  0.00    -0.331 N 
ATOM     28  H92 UNL     1      40.382  45.421  27.236  1.00  0.00     0.177 HD
ATOM     29  H91 UNL     1      40.910  44.080  28.267  1.00  0.00     0.177 HD
ENDBRANCH  16  27
TORSDOF 3
ENDMDL
