MODEL 1
REMARK VINA RESULT: -8.027305484      0.000      0.000
REMARK  9 active torsions:
REMARK  status: ('A' for Active; 'I' for Inactive)
REMARK    1  A    between atoms: C4_4  and  C6_6 
REMARK       I    between atoms: C6_6  and  N1_8 
REMARK    2  A    between atoms: N1_8  and  C7_10 
REMARK    3  A    between atoms: C7_10  and  C8_11 
REMARK    4  A    between atoms: C7_10  and  C14_20 
REMARK    5  A    between atoms: C8_11  and  O2_12 
REMARK    6  A    between atoms: O2_12  and  C9_13 
REMARK    7  A    between atoms: C9_13  and  O4_15 
REMARK    8  A    between atoms: O4_15  and  C10_16 
REMARK    9  A    between atoms: C18_26  and  C19_27 
ROOT
HETATM    1  C6  UNL     1      75.627  -6.783  24.601  1.00  0.00     0.246 C 
HETATM    2  O1  UNL     1      75.945  -6.912  23.398  1.00  0.00    -0.271 OA
HETATM    3  N1  UNL     1      76.370  -5.931  25.417  1.00  0.00    -0.351 N 
ATOM      4  H1  UNL     1      76.084  -5.848  26.393  1.00  0.00     0.163 HD
ENDROOT
BRANCH   3   5
HETATM    5  C7  UNL     1      77.514  -5.153  24.992  1.00  0.00     0.116 C 
BRANCH   5   6
HETATM    6  C8  UNL     1      78.682  -5.281  25.901  1.00  0.00     0.207 C 
BRANCH   6   7
HETATM    7  O2  UNL     1      78.539  -6.126  27.005  1.00  0.00    -0.296 OA
BRANCH   7   8
HETATM    8  C9  UNL     1      78.491  -5.688  28.304  1.00  0.00     0.407 C 
HETATM    9  O3  UNL     1      77.565  -4.922  28.631  1.00  0.00    -0.229 OA
BRANCH   8  10
HETATM   10  O4  UNL     1      79.411  -6.045  29.282  1.00  0.00    -0.288 OA
BRANCH  10  11
HETATM   11  C10 UNL     1      80.705  -5.472  29.230  1.00  0.00     0.062 C 
HETATM   12  C11 UNL     1      81.136  -5.271  30.681  1.00  0.00     0.046 C 
HETATM   13  C12 UNL     1      81.707  -6.402  28.592  1.00  0.00     0.046 C 
HETATM   14  C13 UNL     1      80.734  -4.131  28.564  1.00  0.00     0.046 C 
ENDBRANCH  10  11
ENDBRANCH   8  10
ENDBRANCH   7   8
ENDBRANCH   6   7
ENDBRANCH   5   6
BRANCH   5  15
HETATM   15  C14 UNL     1      77.183  -3.687  24.845  1.00  0.00    -0.029 C 
HETATM   16  C15 UNL     1      76.533  -3.386  23.506  1.00  0.00     0.016 C 
HETATM   17  C16 UNL     1      78.469  -2.889  24.868  1.00  0.00     0.016 C 
HETATM   18  C17 UNL     1      76.286  -3.169  25.914  1.00  0.00     0.016 C 
ENDBRANCH   5  15
ENDBRANCH   3   5
BRANCH   1  19
HETATM   19  C4  UNL     1      74.463  -7.556  25.087  1.00  0.00     0.111 C 
HETATM   20  C3  UNL     1      74.879  -8.973  25.338  1.00  0.00     0.072 C 
HETATM   21  C2  UNL     1      73.890 -10.015  24.957  1.00  0.00     0.129 C 
HETATM   22  C1  UNL     1      74.335 -10.824  23.748  1.00  0.00     0.040 C 
HETATM   23  O5  UNL     1      72.580  -9.486  24.747  1.00  0.00    -0.327 OA
HETATM   24  C18 UNL     1      72.444  -8.311  24.030  1.00  0.00     0.225 C 
HETATM   25  N2  UNL     1      73.330  -7.418  24.197  1.00  0.00    -0.349 N 
ATOM     26  H2  UNL     1      73.237  -6.549  23.671  1.00  0.00     0.162 HD
HETATM   27  C5  UNL     1      73.971  -7.014  26.437  1.00  0.00     0.049 C 
BRANCH  24  28
HETATM   28  C19 UNL     1      71.278  -8.140  23.098  1.00  0.00     0.455 C 
HETATM   29  F1  UNL     1      71.632  -7.264  22.063  1.00  0.00    -0.163 F 
HETATM   30  F2  UNL     1      70.273  -7.519  23.811  1.00  0.00    -0.163 F 
HETATM   31  F3  UNL     1      70.882  -9.323  22.560  1.00  0.00    -0.163 F 
ENDBRANCH  24  28
ENDBRANCH   1  19
TORSDOF 9
ENDMDL
MODEL 2
REMARK VINA RESULT: -7.993871849      0.068      1.060
REMARK  9 active torsions:
REMARK  status: ('A' for Active; 'I' for Inactive)
REMARK    1  A    between atoms: C4_4  and  C6_6 
REMARK       I    between atoms: C6_6  and  N1_8 
REMARK    2  A    between atoms: N1_8  and  C7_10 
REMARK    3  A    between atoms: C7_10  and  C8_11 
REMARK    4  A    between atoms: C7_10  and  C14_20 
REMARK    5  A    between atoms: C8_11  and  O2_12 
REMARK    6  A    between atoms: O2_12  and  C9_13 
REMARK    7  A    between atoms: C9_13  and  O4_15 
REMARK    8  A    between atoms: O4_15  and  C10_16 
REMARK    9  A    between atoms: C18_26  and  C19_27 
ROOT
HETATM    1  C6  UNL     1      75.650  -6.766  24.634  1.00  0.00     0.246 C 
HETATM    2  O1  UNL     1      75.986  -6.924  23.439  1.00  0.00    -0.271 OA
HETATM    3  N1  UNL     1      76.376  -5.887  25.438  1.00  0.00    -0.351 N 
ATOM      4  H1  UNL     1      76.076  -5.781  26.407  1.00  0.00     0.163 HD
ENDROOT
BRANCH   3   5
HETATM    5  C7  UNL     1      77.520  -5.113  25.008  1.00  0.00     0.116 C 
BRANCH   5   6
HETATM    6  C8  UNL     1      78.695  -5.251  25.907  1.00  0.00     0.207 C 
BRANCH   6   7
HETATM    7  O2  UNL     1      78.555  -6.099  27.010  1.00  0.00    -0.296 OA
BRANCH   7   8
HETATM    8  C9  UNL     1      78.493  -5.662  28.309  1.00  0.00     0.407 C 
HETATM    9  O3  UNL     1      77.565  -4.896  28.627  1.00  0.00    -0.229 OA
BRANCH   8  10
HETATM   10  O4  UNL     1      79.403  -6.022  29.295  1.00  0.00    -0.288 OA
BRANCH  10  11
HETATM   11  C10 UNL     1      80.704  -5.466  29.245  1.00  0.00     0.062 C 
HETATM   12  C11 UNL     1      81.142  -5.283  30.697  1.00  0.00     0.046 C 
HETATM   13  C12 UNL     1      81.692  -6.404  28.597  1.00  0.00     0.046 C 
HETATM   14  C13 UNL     1      80.750  -4.120  28.591  1.00  0.00     0.046 C 
ENDBRANCH  10  11
ENDBRANCH   8  10
ENDBRANCH   7   8
ENDBRANCH   6   7
ENDBRANCH   5   6
BRANCH   5  15
HETATM   15  C14 UNL     1      77.195  -3.644  24.874  1.00  0.00    -0.029 C 
HETATM   16  C15 UNL     1      76.238  -3.176  25.956  1.00  0.00     0.016 C 
HETATM   17  C16 UNL     1      76.474  -3.420  23.560  1.00  0.00     0.016 C 
HETATM   18  C17 UNL     1      78.393  -2.762  24.911  1.00  0.00     0.016 C 
ENDBRANCH   5  15
ENDBRANCH   3   5
BRANCH   1  19
HETATM   19  C4  UNL     1      74.484  -7.534  25.124  1.00  0.00     0.111 C 
HETATM   20  C3  UNL     1      74.896  -8.954  25.370  1.00  0.00     0.072 C 
HETATM   21  C2  UNL     1      73.900  -9.991  24.991  1.00  0.00     0.129 C 
HETATM   22  C1  UNL     1      74.335 -10.799  23.778  1.00  0.00     0.040 C 
HETATM   23  O5  UNL     1      72.591  -9.455  24.788  1.00  0.00    -0.327 OA
HETATM   24  C18 UNL     1      72.458  -8.277  24.074  1.00  0.00     0.225 C 
HETATM   25  N2  UNL     1      73.348  -7.389  24.239  1.00  0.00    -0.349 N 
ATOM     26  H2  UNL     1      73.257  -6.519  23.715  1.00  0.00     0.162 HD
HETATM   27  C5  UNL     1      74.002  -6.993  26.477  1.00  0.00     0.049 C 
BRANCH  24  28
HETATM   28  C19 UNL     1      71.288  -8.099  23.148  1.00  0.00     0.455 C 
HETATM   29  F1  UNL     1      70.224  -7.515  23.847  1.00  0.00    -0.163 F 
HETATM   30  F2  UNL     1      70.868  -9.358  22.773  1.00  0.00    -0.163 F 
HETATM   31  F3  UNL     1      71.601  -7.314  22.083  1.00  0.00    -0.163 F 
ENDBRANCH  24  28
ENDBRANCH   1  19
TORSDOF 9
ENDMDL
MODEL 3
REMARK VINA RESULT: -7.951016142      4.412      6.714
REMARK  9 active torsions:
REMARK  status: ('A' for Active; 'I' for Inactive)
REMARK    1  A    between atoms: C4_4  and  C6_6 
REMARK       I    between atoms: C6_6  and  N1_8 
REMARK    2  A    between atoms: N1_8  and  C7_10 
REMARK    3  A    between atoms: C7_10  and  C8_11 
REMARK    4  A    between atoms: C7_10  and  C14_20 
REMARK    5  A    between atoms: C8_11  and  O2_12 
REMARK    6  A    between atoms: O2_12  and  C9_13 
REMARK    7  A    between atoms: C9_13  and  O4_15 
REMARK    8  A    between atoms: O4_15  and  C10_16 
REMARK    9  A    between atoms: C18_26  and  C19_27 
ROOT
HETATM    1  C6  UNL     1      76.621  -3.758  25.742  1.00  0.00     0.246 C 
HETATM    2  O1  UNL     1      76.007  -3.024  26.547  1.00  0.00    -0.271 OA
HETATM    3  N1  UNL     1      76.473  -5.142  25.829  1.00  0.00    -0.351 N 
ATOM      4  H1  UNL     1      76.987  -5.713  25.157  1.00  0.00     0.163 HD
ENDROOT
BRANCH   3   5
HETATM    5  C7  UNL     1      75.647  -5.835  26.795  1.00  0.00     0.116 C 
BRANCH   5   6
HETATM    6  C8  UNL     1      76.406  -6.318  27.977  1.00  0.00     0.207 C 
BRANCH   6   7
HETATM    7  O2  UNL     1      77.496  -5.546  28.392  1.00  0.00    -0.296 OA
BRANCH   7   8
HETATM    8  C9  UNL     1      78.803  -5.947  28.283  1.00  0.00     0.407 C 
HETATM    9  O3  UNL     1      79.262  -6.152  27.143  1.00  0.00    -0.229 OA
BRANCH   8  10
HETATM   10  O4  UNL     1      79.652  -6.139  29.366  1.00  0.00    -0.288 OA
BRANCH  10  11
HETATM   11  C10 UNL     1      80.773  -5.285  29.502  1.00  0.00     0.062 C 
HETATM   12  C11 UNL     1      81.198  -5.374  30.966  1.00  0.00     0.046 C 
HETATM   13  C12 UNL     1      81.941  -5.753  28.670  1.00  0.00     0.046 C 
HETATM   14  C13 UNL     1      80.463  -3.848  29.212  1.00  0.00     0.046 C 
ENDBRANCH  10  11
ENDBRANCH   8  10
ENDBRANCH   7   8
ENDBRANCH   6   7
ENDBRANCH   5   6
BRANCH   5  15
HETATM   15  C14 UNL     1      74.921  -7.010  26.183  1.00  0.00    -0.029 C 
HETATM   16  C15 UNL     1      73.425  -6.942  26.434  1.00  0.00     0.016 C 
HETATM   17  C16 UNL     1      75.395  -8.282  26.854  1.00  0.00     0.016 C 
HETATM   18  C17 UNL     1      75.133  -7.144  24.716  1.00  0.00     0.016 C 
ENDBRANCH   5  15
ENDBRANCH   3   5
BRANCH   1  19
HETATM   19  C4  UNL     1      77.479  -3.100  24.732  1.00  0.00     0.111 C 
HETATM   20  C3  UNL     1      78.842  -3.721  24.759  1.00  0.00     0.072 C 
HETATM   21  C2  UNL     1      79.984  -2.785  24.585  1.00  0.00     0.129 C 
HETATM   22  C1  UNL     1      80.792  -2.611  25.862  1.00  0.00     0.040 C 
HETATM   23  O5  UNL     1      79.584  -1.513  24.071  1.00  0.00    -0.327 OA
HETATM   24  C18 UNL     1      78.453  -0.910  24.593  1.00  0.00     0.225 C 
HETATM   25  N2  UNL     1      77.478  -1.661  24.898  1.00  0.00    -0.349 N 
ATOM     26  H2  UNL     1      76.641  -1.225  25.284  1.00  0.00     0.162 HD
HETATM   27  C5  UNL     1      76.935  -3.334  23.316  1.00  0.00     0.049 C 
BRANCH  24  28
HETATM   28  C19 UNL     1      78.424   0.581  24.775  1.00  0.00     0.455 C 
HETATM   29  F1  UNL     1      78.132   1.196  23.551  1.00  0.00    -0.163 F 
HETATM   30  F2  UNL     1      79.700   0.975  25.118  1.00  0.00    -0.163 F 
HETATM   31  F3  UNL     1      77.496   0.960  25.693  1.00  0.00    -0.163 F 
ENDBRANCH  24  28
ENDBRANCH   1  19
TORSDOF 9
ENDMDL
MODEL 4
REMARK VINA RESULT: -7.430315003      2.396      3.074
REMARK  9 active torsions:
REMARK  status: ('A' for Active; 'I' for Inactive)
REMARK    1  A    between atoms: C4_4  and  C6_6 
REMARK       I    between atoms: C6_6  and  N1_8 
REMARK    2  A    between atoms: N1_8  and  C7_10 
REMARK    3  A    between atoms: C7_10  and  C8_11 
REMARK    4  A    between atoms: C7_10  and  C14_20 
REMARK    5  A    between atoms: C8_11  and  O2_12 
REMARK    6  A    between atoms: O2_12  and  C9_13 
REMARK    7  A    between atoms: C9_13  and  O4_15 
REMARK    8  A    between atoms: O4_15  and  C10_16 
REMARK    9  A    between atoms: C18_26  and  C19_27 
ROOT
HETATM    1  C6  UNL     1      75.832  -6.938  24.820  1.00  0.00     0.246 C 
HETATM    2  O1  UNL     1      76.228  -7.451  25.890  1.00  0.00    -0.271 OA
HETATM    3  N1  UNL     1      76.231  -5.641  24.495  1.00  0.00    -0.351 N 
ATOM      4  H1  UNL     1      75.891  -5.253  23.615  1.00  0.00     0.163 HD
ENDROOT
BRANCH   3   5
HETATM    5  C7  UNL     1      77.088  -4.803  25.304  1.00  0.00     0.116 C 
BRANCH   5   6
HETATM    6  C8  UNL     1      76.638  -4.690  26.715  1.00  0.00     0.207 C 
BRANCH   6   7
HETATM    7  O2  UNL     1      77.631  -4.574  27.692  1.00  0.00    -0.296 OA
BRANCH   7   8
HETATM    8  C9  UNL     1      78.550  -5.554  27.969  1.00  0.00     0.407 C 
HETATM    9  O3  UNL     1      78.329  -6.311  28.933  1.00  0.00    -0.229 OA
BRANCH   8  10
HETATM   10  O4  UNL     1      79.715  -5.758  27.241  1.00  0.00    -0.288 OA
BRANCH  10  11
HETATM   11  C10 UNL     1      80.918  -5.184  27.720  1.00  0.00     0.062 C 
HETATM   12  C11 UNL     1      81.486  -4.365  26.563  1.00  0.00     0.046 C 
HETATM   13  C12 UNL     1      80.669  -4.229  28.862  1.00  0.00     0.046 C 
HETATM   14  C13 UNL     1      81.950  -6.199  28.100  1.00  0.00     0.046 C 
ENDBRANCH  10  11
ENDBRANCH   8  10
ENDBRANCH   7   8
ENDBRANCH   6   7
ENDBRANCH   5   6
BRANCH   5  15
HETATM   15  C14 UNL     1      77.223  -3.410  24.735  1.00  0.00    -0.029 C 
HETATM   16  C15 UNL     1      76.331  -2.416  25.457  1.00  0.00     0.016 C 
HETATM   17  C16 UNL     1      76.749  -3.421  23.296  1.00  0.00     0.016 C 
HETATM   18  C17 UNL     1      78.614  -2.884  24.769  1.00  0.00     0.016 C 
ENDBRANCH   5  15
ENDBRANCH   3   5
BRANCH   1  19
HETATM   19  C4  UNL     1      74.953  -7.754  23.954  1.00  0.00     0.111 C 
HETATM   20  C3  UNL     1      74.037  -8.573  24.812  1.00  0.00     0.072 C 
HETATM   21  C2  UNL     1      73.773  -9.957  24.339  1.00  0.00     0.129 C 
HETATM   22  C1  UNL     1      74.421 -11.008  25.228  1.00  0.00     0.040 C 
HETATM   23  O5  UNL     1      74.148 -10.159  22.975  1.00  0.00    -0.327 OA
HETATM   24  C18 UNL     1      75.357  -9.648  22.536  1.00  0.00     0.225 C 
HETATM   25  N2  UNL     1      75.722  -8.526  23.000  1.00  0.00    -0.349 N 
ATOM     26  H2  UNL     1      76.612  -8.143  22.682  1.00  0.00     0.162 HD
HETATM   27  C5  UNL     1      74.046  -6.860  23.098  1.00  0.00     0.049 C 
BRANCH  24  28
HETATM   28  C19 UNL     1      76.176 -10.427  21.546  1.00  0.00     0.455 C 
HETATM   29  F1  UNL     1      77.530 -10.105  21.704  1.00  0.00    -0.163 F 
HETATM   30  F2  UNL     1      75.814  -9.994  20.287  1.00  0.00    -0.163 F 
HETATM   31  F3  UNL     1      76.019 -11.768  21.702  1.00  0.00    -0.163 F 
ENDBRANCH  24  28
ENDBRANCH   1  19
TORSDOF 9
ENDMDL
MODEL 5
REMARK VINA RESULT: -7.403739751      2.394      2.911
REMARK  9 active torsions:
REMARK  status: ('A' for Active; 'I' for Inactive)
REMARK    1  A    between atoms: C4_4  and  C6_6 
REMARK       I    between atoms: C6_6  and  N1_8 
REMARK    2  A    between atoms: N1_8  and  C7_10 
REMARK    3  A    between atoms: C7_10  and  C8_11 
REMARK    4  A    between atoms: C7_10  and  C14_20 
REMARK    5  A    between atoms: C8_11  and  O2_12 
REMARK    6  A    between atoms: O2_12  and  C9_13 
REMARK    7  A    between atoms: C9_13  and  O4_15 
REMARK    8  A    between atoms: O4_15  and  C10_16 
REMARK    9  A    between atoms: C18_26  and  C19_27 
ROOT
HETATM    1  C6  UNL     1      75.804  -6.973  24.858  1.00  0.00     0.246 C 
HETATM    2  O1  UNL     1      76.204  -7.474  25.933  1.00  0.00    -0.271 OA
HETATM    3  N1  UNL     1      76.193  -5.677  24.522  1.00  0.00    -0.351 N 
ATOM      4  H1  UNL     1      75.849  -5.298  23.640  1.00  0.00     0.163 HD
ENDROOT
BRANCH   3   5
HETATM    5  C7  UNL     1      77.045  -4.825  25.324  1.00  0.00     0.116 C 
BRANCH   5   6
HETATM    6  C8  UNL     1      76.589  -4.696  26.732  1.00  0.00     0.207 C 
BRANCH   6   7
HETATM    7  O2  UNL     1      77.579  -4.586  27.713  1.00  0.00    -0.296 OA
BRANCH   7   8
HETATM    8  C9  UNL     1      78.501  -5.565  27.984  1.00  0.00     0.407 C 
HETATM    9  O3  UNL     1      78.290  -6.318  28.953  1.00  0.00    -0.229 OA
BRANCH   8  10
HETATM   10  O4  UNL     1      79.658  -5.771  27.243  1.00  0.00    -0.288 OA
BRANCH  10  11
HETATM   11  C10 UNL     1      80.853  -5.143  27.673  1.00  0.00     0.062 C 
HETATM   12  C11 UNL     1      81.781  -6.266  28.128  1.00  0.00     0.046 C 
HETATM   13  C12 UNL     1      81.546  -4.422  26.543  1.00  0.00     0.046 C 
HETATM   14  C13 UNL     1      80.654  -4.224  28.839  1.00  0.00     0.046 C 
ENDBRANCH  10  11
ENDBRANCH   8  10
ENDBRANCH   7   8
ENDBRANCH   6   7
ENDBRANCH   5   6
BRANCH   5  15
HETATM   15  C14 UNL     1      77.178  -3.440  24.737  1.00  0.00    -0.029 C 
HETATM   16  C15 UNL     1      76.800  -3.411  23.267  1.00  0.00     0.016 C 
HETATM   17  C16 UNL     1      78.632  -3.019  24.798  1.00  0.00     0.016 C 
HETATM   18  C17 UNL     1      76.360  -2.414  25.439  1.00  0.00     0.016 C 
ENDBRANCH   5  15
ENDBRANCH   3   5
BRANCH   1  19
HETATM   19  C4  UNL     1      74.930  -7.803  24.001  1.00  0.00     0.111 C 
HETATM   20  C3  UNL     1      74.054  -8.657  24.867  1.00  0.00     0.072 C 
HETATM   21  C2  UNL     1      73.818 -10.042  24.381  1.00  0.00     0.129 C 
HETATM   22  C1  UNL     1      74.513 -11.085  25.244  1.00  0.00     0.040 C 
HETATM   23  O5  UNL     1      74.171 -10.217  23.008  1.00  0.00    -0.327 OA
HETATM   24  C18 UNL     1      75.356  -9.668  22.551  1.00  0.00     0.225 C 
HETATM   25  N2  UNL     1      75.700  -8.542  23.022  1.00  0.00    -0.349 N 
ATOM     26  H2  UNL     1      76.572  -8.131  22.691  1.00  0.00     0.162 HD
HETATM   27  C5  UNL     1      73.981  -6.924  23.174  1.00  0.00     0.049 C 
BRANCH  24  28
HETATM   28  C19 UNL     1      76.176 -10.412  21.535  1.00  0.00     0.455 C 
HETATM   29  F1  UNL     1      75.773 -10.040  20.246  1.00  0.00    -0.163 F 
HETATM   30  F2  UNL     1      75.874 -11.752  21.669  1.00  0.00    -0.163 F 
HETATM   31  F3  UNL     1      77.504 -10.160  21.673  1.00  0.00    -0.163 F 
ENDBRANCH  24  28
ENDBRANCH   1  19
TORSDOF 9
ENDMDL
