MODEL 1
REMARK VINA RESULT: -6.666900291      0.000      0.000
REMARK  9 active torsions:
REMARK  status: ('A' for Active; 'I' for Inactive)
REMARK    1  A    between atoms: O1_2  and  C2_3 
REMARK    2  A    between atoms: C2_3  and  C3_4 
REMARK    3  A    between atoms: C3_4  and  N1_5 
REMARK    4  A    between atoms: N1_5  and  S1_7 
REMARK    5  A    between atoms: S1_7  and  N2_10 
REMARK    6  A    between atoms: N2_10  and  C4_12 
REMARK    7  A    between atoms: C8_16  and  O4_17 
REMARK    8  A    between atoms: O4_17  and  C9_18 
REMARK    9  A    between atoms: C9_18  and  C10_19 
ROOT
HETATM    1  C4  UNL     1      42.922   6.992  13.188  1.00  0.00     0.123 C 
HETATM    2  C5  UNL     1      41.635   7.771  12.915  1.00  0.00     0.028 C 
HETATM    3  C6  UNL     1      41.588   7.765  11.417  1.00  0.00     0.005 C 
HETATM    4  C7  UNL     1      42.987   7.525  10.916  1.00  0.00     0.034 C 
HETATM    5  C8  UNL     1      43.845   7.642  12.176  1.00  0.00     0.145 C 
ENDROOT
BRANCH   1   6
HETATM    6  N2  UNL     1      42.661   5.622  12.845  1.00  0.00    -0.296 N 
ATOM      7  H2  UNL     1      41.969   5.310  12.165  1.00  0.00     0.174 HD
BRANCH   6   8
HETATM    8  S1  UNL     1      43.699   4.582  13.759  1.00  0.00     0.315 S 
HETATM    9  O2  UNL     1      44.502   3.720  12.817  1.00  0.00    -0.183 OA
HETATM   10  O3  UNL     1      42.807   3.646  14.541  1.00  0.00    -0.183 OA
BRANCH   8  11
HETATM   11  N1  UNL     1      44.702   5.509  14.797  1.00  0.00    -0.301 N 
ATOM     12  H1  UNL     1      44.368   6.276  15.382  1.00  0.00     0.173 HD
BRANCH  11  13
HETATM   13  C3  UNL     1      46.087   5.068  14.742  1.00  0.00     0.160 C 
BRANCH  13  14
HETATM   14  C2  UNL     1      46.917   6.303  14.495  1.00  0.00     0.187 C 
BRANCH  14  15
HETATM   15  O1  UNL     1      47.648   6.672  15.595  1.00  0.00    -0.394 OA
HETATM   16  C1  UNL     1      48.975   6.302  15.483  1.00  0.00     0.201 C 
ENDBRANCH  14  15
ENDBRANCH  13  14
ENDBRANCH  11  13
ENDBRANCH   8  11
ENDBRANCH   6   8
ENDBRANCH   1   6
BRANCH   5  17
HETATM   17  O4  UNL     1      44.039   8.950  12.547  1.00  0.00    -0.379 OA
BRANCH  17  18
HETATM   18  C9  UNL     1      44.635   9.728  11.560  1.00  0.00     0.206 C 
BRANCH  18  19
HETATM   19  C10 UNL     1      46.103   9.502  11.613  1.00  0.00    -0.035 A 
HETATM   20  C11 UNL     1      46.765   9.700  12.807  1.00  0.00     0.009 A 
HETATM   21  C12 UNL     1      48.143   9.499  12.899  1.00  0.00     0.001 A 
HETATM   22  C13 UNL     1      48.837   9.098  11.779  1.00  0.00     0.000 A 
HETATM   23  C14 UNL     1      48.199   8.892  10.570  1.00  0.00     0.001 A 
HETATM   24  C15 UNL     1      46.839   9.102  10.522  1.00  0.00     0.009 A 
ENDBRANCH  18  19
ENDBRANCH  17  18
ENDBRANCH   5  17
TORSDOF 9
ENDMDL
MODEL 2
REMARK VINA RESULT: -6.666866204      0.041      1.017
REMARK  9 active torsions:
REMARK  status: ('A' for Active; 'I' for Inactive)
REMARK    1  A    between atoms: O1_2  and  C2_3 
REMARK    2  A    between atoms: C2_3  and  C3_4 
REMARK    3  A    between atoms: C3_4  and  N1_5 
REMARK    4  A    between atoms: N1_5  and  S1_7 
REMARK    5  A    between atoms: S1_7  and  N2_10 
REMARK    6  A    between atoms: N2_10  and  C4_12 
REMARK    7  A    between atoms: C8_16  and  O4_17 
REMARK    8  A    between atoms: O4_17  and  C9_18 
REMARK    9  A    between atoms: C9_18  and  C10_19 
ROOT
HETATM    1  C4  UNL     1      42.910   7.014  13.187  1.00  0.00     0.123 C 
HETATM    2  C5  UNL     1      41.622   7.794  12.917  1.00  0.00     0.028 C 
HETATM    3  C6  UNL     1      41.578   7.797  11.419  1.00  0.00     0.005 C 
HETATM    4  C7  UNL     1      42.977   7.562  10.919  1.00  0.00     0.034 C 
HETATM    5  C8  UNL     1      43.834   7.673  12.181  1.00  0.00     0.145 C 
ENDROOT
BRANCH   1   6
HETATM    6  N2  UNL     1      42.652   5.647  12.835  1.00  0.00    -0.296 N 
ATOM      7  H2  UNL     1      41.962   5.337  12.151  1.00  0.00     0.174 HD
BRANCH   6   8
HETATM    8  S1  UNL     1      43.689   4.602  13.745  1.00  0.00     0.315 S 
HETATM    9  O2  UNL     1      44.492   3.744  12.800  1.00  0.00    -0.183 OA
HETATM   10  O3  UNL     1      42.796   3.664  14.523  1.00  0.00    -0.183 OA
BRANCH   8  11
HETATM   11  N1  UNL     1      44.692   5.524  14.788  1.00  0.00    -0.301 N 
ATOM     12  H1  UNL     1      44.359   6.293  15.371  1.00  0.00     0.173 HD
BRANCH  11  13
HETATM   13  C3  UNL     1      46.075   5.077  14.738  1.00  0.00     0.160 C 
BRANCH  13  14
HETATM   14  C2  UNL     1      46.911   6.307  14.488  1.00  0.00     0.187 C 
BRANCH  14  15
HETATM   15  O1  UNL     1      47.640   6.679  15.589  1.00  0.00    -0.394 OA
HETATM   16  C1  UNL     1      48.973   6.332  15.469  1.00  0.00     0.201 C 
ENDBRANCH  14  15
ENDBRANCH  13  14
ENDBRANCH  11  13
ENDBRANCH   8  11
ENDBRANCH   6   8
ENDBRANCH   1   6
BRANCH   5  17
HETATM   17  O4  UNL     1      44.025   8.978  12.560  1.00  0.00    -0.379 OA
BRANCH  17  18
HETATM   18  C9  UNL     1      44.633   9.761  11.584  1.00  0.00     0.206 C 
BRANCH  18  19
HETATM   19  C10 UNL     1      46.101   9.538  11.659  1.00  0.00    -0.035 A 
HETATM   20  C11 UNL     1      46.778   9.167  10.516  1.00  0.00     0.009 A 
HETATM   21  C12 UNL     1      48.157   8.948  10.545  1.00  0.00     0.001 A 
HETATM   22  C13 UNL     1      48.835   9.107  11.732  1.00  0.00     0.000 A 
HETATM   23  C14 UNL     1      48.181   9.479  12.892  1.00  0.00     0.001 A 
HETATM   24  C15 UNL     1      46.822   9.685  12.821  1.00  0.00     0.009 A 
ENDBRANCH  18  19
ENDBRANCH  17  18
ENDBRANCH   5  17
TORSDOF 9
ENDMDL
MODEL 3
REMARK VINA RESULT: -6.631737422      2.259      4.324
REMARK  9 active torsions:
REMARK  status: ('A' for Active; 'I' for Inactive)
REMARK    1  A    between atoms: O1_2  and  C2_3 
REMARK    2  A    between atoms: C2_3  and  C3_4 
REMARK    3  A    between atoms: C3_4  and  N1_5 
REMARK    4  A    between atoms: N1_5  and  S1_7 
REMARK    5  A    between atoms: S1_7  and  N2_10 
REMARK    6  A    between atoms: N2_10  and  C4_12 
REMARK    7  A    between atoms: C8_16  and  O4_17 
REMARK    8  A    between atoms: O4_17  and  C9_18 
REMARK    9  A    between atoms: C9_18  and  C10_19 
ROOT
HETATM    1  C4  UNL     1      44.104   6.424  12.669  1.00  0.00     0.123 C 
HETATM    2  C5  UNL     1      44.599   6.675  11.244  1.00  0.00     0.028 C 
HETATM    3  C6  UNL     1      45.183   8.051  11.364  1.00  0.00     0.005 C 
HETATM    4  C7  UNL     1      44.555   8.712  12.561  1.00  0.00     0.034 C 
HETATM    5  C8  UNL     1      43.432   7.753  12.954  1.00  0.00     0.145 C 
ENDROOT
BRANCH   1   6
HETATM    6  N2  UNL     1      45.268   6.247  13.490  1.00  0.00    -0.296 N 
ATOM      7  H2  UNL     1      46.004   6.940  13.622  1.00  0.00     0.174 HD
BRANCH   6   8
HETATM    8  S1  UNL     1      45.236   4.679  14.222  1.00  0.00     0.315 S 
HETATM    9  O2  UNL     1      44.838   3.652  13.192  1.00  0.00    -0.183 OA
HETATM   10  O3  UNL     1      44.135   4.698  15.257  1.00  0.00    -0.183 OA
BRANCH   8  11
HETATM   11  N1  UNL     1      46.759   4.325  14.930  1.00  0.00    -0.301 N 
ATOM     12  H1  UNL     1      46.894   3.667  15.698  1.00  0.00     0.173 HD
BRANCH  11  13
HETATM   13  C3  UNL     1      47.832   5.079  14.301  1.00  0.00     0.160 C 
BRANCH  13  14
HETATM   14  C2  UNL     1      48.377   6.006  15.358  1.00  0.00     0.187 C 
BRANCH  14  15
HETATM   15  O1  UNL     1      47.670   7.179  15.444  1.00  0.00    -0.394 OA
HETATM   16  C1  UNL     1      48.029   8.073  14.453  1.00  0.00     0.201 C 
ENDBRANCH  14  15
ENDBRANCH  13  14
ENDBRANCH  11  13
ENDBRANCH   8  11
ENDBRANCH   6   8
ENDBRANCH   1   6
BRANCH   5  17
HETATM   17  O4  UNL     1      42.341   7.871  12.128  1.00  0.00    -0.379 OA
BRANCH  17  18
HETATM   18  C9  UNL     1      41.167   8.201  12.796  1.00  0.00     0.206 C 
BRANCH  18  19
HETATM   19  C10 UNL     1      40.996   9.676  12.733  1.00  0.00    -0.035 A 
HETATM   20  C11 UNL     1      41.158  10.315  11.522  1.00  0.00     0.009 A 
HETATM   21  C12 UNL     1      41.007  11.699  11.421  1.00  0.00     0.001 A 
HETATM   22  C13 UNL     1      40.693  12.422  12.550  1.00  0.00     0.000 A 
HETATM   23  C14 UNL     1      40.525  11.807  13.777  1.00  0.00     0.001 A 
HETATM   24  C15 UNL     1      40.683  10.441  13.833  1.00  0.00     0.009 A 
ENDBRANCH  18  19
ENDBRANCH  17  18
ENDBRANCH   5  17
TORSDOF 9
ENDMDL
MODEL 4
REMARK VINA RESULT: -6.527885257      2.079      5.046
REMARK  9 active torsions:
REMARK  status: ('A' for Active; 'I' for Inactive)
REMARK    1  A    between atoms: O1_2  and  C2_3 
REMARK    2  A    between atoms: C2_3  and  C3_4 
REMARK    3  A    between atoms: C3_4  and  N1_5 
REMARK    4  A    between atoms: N1_5  and  S1_7 
REMARK    5  A    between atoms: S1_7  and  N2_10 
REMARK    6  A    between atoms: N2_10  and  C4_12 
REMARK    7  A    between atoms: C8_16  and  O4_17 
REMARK    8  A    between atoms: O4_17  and  C9_18 
REMARK    9  A    between atoms: C9_18  and  C10_19 
ROOT
HETATM    1  C4  UNL     1      43.852   6.357  12.660  1.00  0.00     0.123 C 
HETATM    2  C5  UNL     1      44.564   6.613  11.332  1.00  0.00     0.028 C 
HETATM    3  C6  UNL     1      45.050   8.020  11.513  1.00  0.00     0.005 C 
HETATM    4  C7  UNL     1      44.198   8.664  12.574  1.00  0.00     0.034 C 
HETATM    5  C8  UNL     1      43.075   7.652  12.797  1.00  0.00     0.145 C 
ENDROOT
BRANCH   1   6
HETATM    6  N2  UNL     1      44.869   6.255  13.667  1.00  0.00    -0.296 N 
ATOM      7  H2  UNL     1      45.461   7.023  13.982  1.00  0.00     0.174 HD
BRANCH   6   8
HETATM    8  S1  UNL     1      44.941   4.634  14.266  1.00  0.00     0.315 S 
HETATM    9  O2  UNL     1      44.669   3.669  13.139  1.00  0.00    -0.183 OA
HETATM   10  O3  UNL     1      43.804   4.476  15.249  1.00  0.00    -0.183 OA
BRANCH   8  11
HETATM   11  N1  UNL     1      46.459   4.344  15.011  1.00  0.00    -0.301 N 
ATOM     12  H1  UNL     1      46.586   3.789  15.858  1.00  0.00     0.173 HD
BRANCH  11  13
HETATM   13  C3  UNL     1      47.544   4.986  14.285  1.00  0.00     0.160 C 
BRANCH  13  14
HETATM   14  C2  UNL     1      48.193   5.945  15.252  1.00  0.00     0.187 C 
BRANCH  14  15
HETATM   15  O1  UNL     1      47.458   7.088  15.432  1.00  0.00    -0.394 OA
HETATM   16  C1  UNL     1      47.708   8.025  14.446  1.00  0.00     0.201 C 
ENDBRANCH  14  15
ENDBRANCH  13  14
ENDBRANCH  11  13
ENDBRANCH   8  11
ENDBRANCH   6   8
ENDBRANCH   1   6
BRANCH   5  17
HETATM   17  O4  UNL     1      42.134   7.699  11.798  1.00  0.00    -0.379 OA
BRANCH  17  18
HETATM   18  C9  UNL     1      41.566   8.957  11.624  1.00  0.00     0.206 C 
BRANCH  18  19
HETATM   19  C10 UNL     1      40.091   8.822  11.755  1.00  0.00    -0.035 A 
HETATM   20  C11 UNL     1      39.522   8.908  13.008  1.00  0.00     0.009 A 
HETATM   21  C12 UNL     1      38.141   8.786  13.174  1.00  0.00     0.001 A 
HETATM   22  C13 UNL     1      37.351   8.577  12.066  1.00  0.00     0.000 A 
HETATM   23  C14 UNL     1      37.894   8.487  10.799  1.00  0.00     0.001 A 
HETATM   24  C15 UNL     1      39.260   8.613  10.679  1.00  0.00     0.009 A 
ENDBRANCH  18  19
ENDBRANCH  17  18
ENDBRANCH   5  17
TORSDOF 9
ENDMDL
MODEL 5
REMARK VINA RESULT: -6.419876859      1.539      4.550
REMARK  9 active torsions:
REMARK  status: ('A' for Active; 'I' for Inactive)
REMARK    1  A    between atoms: O1_2  and  C2_3 
REMARK    2  A    between atoms: C2_3  and  C3_4 
REMARK    3  A    between atoms: C3_4  and  N1_5 
REMARK    4  A    between atoms: N1_5  and  S1_7 
REMARK    5  A    between atoms: S1_7  and  N2_10 
REMARK    6  A    between atoms: N2_10  and  C4_12 
REMARK    7  A    between atoms: C8_16  and  O4_17 
REMARK    8  A    between atoms: O4_17  and  C9_18 
REMARK    9  A    between atoms: C9_18  and  C10_19 
ROOT
HETATM    1  C4  UNL     1      46.632   5.793  14.000  1.00  0.00     0.123 C 
HETATM    2  C5  UNL     1      48.061   5.337  14.301  1.00  0.00     0.028 C 
HETATM    3  C6  UNL     1      48.453   6.274  15.403  1.00  0.00     0.005 C 
HETATM    4  C7  UNL     1      47.562   7.484  15.314  1.00  0.00     0.034 C 
HETATM    5  C8  UNL     1      46.832   7.296  13.984  1.00  0.00     0.145 C 
ENDROOT
BRANCH   1   6
HETATM    6  N2  UNL     1      45.823   5.390  15.115  1.00  0.00    -0.296 N 
ATOM      7  H2  UNL     1      46.072   5.514  16.096  1.00  0.00     0.174 HD
BRANCH   6   8
HETATM    8  S1  UNL     1      44.359   4.665  14.545  1.00  0.00     0.315 S 
HETATM    9  O2  UNL     1      43.792   3.768  15.616  1.00  0.00    -0.183 OA
HETATM   10  O3  UNL     1      44.733   3.768  13.388  1.00  0.00    -0.183 OA
BRANCH   8  11
HETATM   11  N1  UNL     1      43.245   5.878  14.064  1.00  0.00    -0.301 N 
ATOM     12  H1  UNL     1      42.776   6.515  14.710  1.00  0.00     0.173 HD
BRANCH  11  13
HETATM   13  C3  UNL     1      43.050   5.888  12.623  1.00  0.00     0.160 C 
BRANCH  13  14
HETATM   14  C2  UNL     1      42.239   7.122  12.312  1.00  0.00     0.187 C 
BRANCH  14  15
HETATM   15  O1  UNL     1      41.522   7.566  13.393  1.00  0.00    -0.394 OA
HETATM   16  C1  UNL     1      40.861   8.750  13.125  1.00  0.00     0.201 C 
ENDBRANCH  14  15
ENDBRANCH  13  14
ENDBRANCH  11  13
ENDBRANCH   8  11
ENDBRANCH   6   8
ENDBRANCH   1   6
BRANCH   5  17
HETATM   17  O4  UNL     1      47.627   7.614  12.910  1.00  0.00    -0.379 OA
BRANCH  17  18
HETATM   18  C9  UNL     1      47.343   8.857  12.353  1.00  0.00     0.206 C 
BRANCH  18  19
HETATM   19  C10 UNL     1      47.781   8.839  10.933  1.00  0.00    -0.035 A 
HETATM   20  C11 UNL     1      46.863   8.513   9.956  1.00  0.00     0.009 A 
HETATM   21  C12 UNL     1      47.235   8.484   8.611  1.00  0.00     0.001 A 
HETATM   22  C13 UNL     1      48.533   8.787   8.269  1.00  0.00     0.000 A 
HETATM   23  C14 UNL     1      49.474   9.117   9.227  1.00  0.00     0.001 A 
HETATM   24  C15 UNL     1      49.066   9.133  10.542  1.00  0.00     0.009 A 
ENDBRANCH  18  19
ENDBRANCH  17  18
ENDBRANCH   5  17
TORSDOF 9
ENDMDL
