MODEL 1
REMARK VINA RESULT: -10.354660873      0.000      0.000
REMARK  14 active torsions:
REMARK  status: ('A' for Active; 'I' for Inactive)
REMARK    1  A    between atoms: C2_2  and  O1_4 
REMARK    2  A    between atoms: O1_4  and  C4_5 
REMARK       I    between atoms: C4_5  and  N1_7 
REMARK    3  A    between atoms: N1_7  and  C5_9 
REMARK    4  A    between atoms: C5_9  and  C6_10 
REMARK    5  A    between atoms: C5_9  and  C23_37 
REMARK    6  A    between atoms: C6_10  and  O3_11 
REMARK    7  A    between atoms: C6_10  and  N2_13 
REMARK    8  A    between atoms: N2_13  and  C7_15 
REMARK    9  A    between atoms: C7_15  and  C8_16 
REMARK   10  A    between atoms: C8_16  and  O4_17 
REMARK   11  A    between atoms: C8_16  and  N3_19 
REMARK   12  A    between atoms: C27_41  and  C28_42 
REMARK   13  A    between atoms: C28_42  and  S1_43 
REMARK   14  A    between atoms: S1_43  and  N5_46 
ROOT
HETATM    1  C6  UNL     1      14.262  23.493   5.268  1.00  0.00     0.140 C 
ENDROOT
BRANCH   1   2
HETATM    2  C5  UNL     1      15.388  22.652   5.754  1.00  0.00     0.169 C 
BRANCH   2   3
HETATM    3  N1  UNL     1      15.663  21.696   4.720  1.00  0.00    -0.324 N 
HETATM    4  C4  UNL     1      14.878  20.878   3.946  1.00  0.00     0.361 C 
HETATM    5  O2  UNL     1      13.637  20.849   4.066  1.00  0.00    -0.238 OA
ATOM      6  H1  UNL     1      16.658  21.604   4.516  1.00  0.00     0.165 HD
BRANCH   4   7
HETATM    7  O1  UNL     1      15.409  20.033   2.984  1.00  0.00    -0.299 OA
BRANCH   7   8
HETATM    8  C2  UNL     1      16.362  19.036   3.335  1.00  0.00     0.125 C 
HETATM    9  C1  UNL     1      15.645  17.869   3.973  1.00  0.00     0.040 C 
HETATM   10  C3  UNL     1      17.074  18.641   2.063  1.00  0.00     0.040 C 
ENDBRANCH   7   8
ENDBRANCH   4   7
ENDBRANCH   2   3
BRANCH   2  11
HETATM   11  C23 UNL     1      15.276  22.110   7.115  1.00  0.00    -0.016 C 
HETATM   12  C24 UNL     1      13.922  21.960   7.717  1.00  0.00     0.018 C 
HETATM   13  C25 UNL     1      16.179  22.782   8.095  1.00  0.00     0.012 C 
HETATM   14  C26 UNL     1      16.643  21.841   9.207  1.00  0.00     0.006 C 
HETATM   15  C27 UNL     1      17.607  20.802   8.710  1.00  0.00     0.001 C 
HETATM   16  C31 UNL     1      17.318  20.647   7.220  1.00  0.00     0.006 C 
HETATM   17  C32 UNL     1      15.823  20.639   7.067  1.00  0.00     0.012 C 
BRANCH  15  18
HETATM   18  C28 UNL     1      17.421  19.451   9.324  1.00  0.00     0.162 C 
BRANCH  18  19
HETATM   19  S1  UNL     1      18.497  19.104  10.669  1.00  0.00     0.211 S 
HETATM   20  O5  UNL     1      19.173  20.321  11.204  1.00  0.00    -0.211 OA
HETATM   21  O6  UNL     1      17.627  18.579  11.803  1.00  0.00    -0.211 OA
BRANCH  19  22
HETATM   22  N5  UNL     1      19.650  17.894  10.327  1.00  0.00    -0.219 NA
HETATM   23  C29 UNL     1      19.043  16.652   9.946  1.00  0.00     0.128 C 
HETATM   24  C30 UNL     1      20.435  17.670  11.529  1.00  0.00     0.128 C 
ENDBRANCH  19  22
ENDBRANCH  18  19
ENDBRANCH  15  18
ENDBRANCH   2  11
ENDBRANCH   1   2
BRANCH   1  25
HETATM   25  O3  UNL     1      14.493  24.416   4.377  1.00  0.00    -0.348 OA
ATOM     26  H3  UNL     1      13.909  24.500   3.632  1.00  0.00     0.219 HD
ENDBRANCH   1  25
BRANCH   1  27
HETATM   27  N2  UNL     1      12.927  23.436   5.651  1.00  0.00    -0.335 N 
ATOM     28  H2  UNL     1      12.592  22.587   6.105  1.00  0.00     0.168 HD
BRANCH  27  29
HETATM   29  C7  UNL     1      11.946  24.559   5.432  1.00  0.00     0.087 C 
HETATM   30  C17 UNL     1      11.054  24.162   4.365  1.00  0.00    -0.049 C 
HETATM   31  C18 UNL     1      10.179  22.961   4.515  1.00  0.00     0.036 C 
HETATM   32  C22 UNL     1      10.477  25.218   3.485  1.00  0.00     0.036 C 
HETATM   33  C19 UNL     1       9.974  22.381   3.127  1.00  0.00     0.004 C 
HETATM   34  C20 UNL     1       9.212  23.422   2.335  1.00  0.00     0.001 C 
HETATM   35  C21 UNL     1      10.118  24.621   2.123  1.00  0.00     0.004 C 
BRANCH  29  36
HETATM   36  C8  UNL     1      11.653  25.195   6.669  1.00  0.00     0.167 C 
BRANCH  36  37
HETATM   37  O4  UNL     1      12.787  25.291   7.414  1.00  0.00    -0.344 OA
ATOM     38  H4  UNL     1      12.559  25.406   8.329  1.00  0.00     0.219 HD
ENDBRANCH  36  37
BRANCH  36  39
HETATM   39  N3  UNL     1      10.604  25.758   7.387  1.00  0.00    -0.332 N 
HETATM   40  C9  UNL     1      10.706  26.913   8.206  1.00  0.00     0.134 C 
HETATM   41  C10 UNL     1       9.388  27.611   8.149  1.00  0.00     0.045 A 
HETATM   42  C11 UNL     1       8.486  26.540   8.864  1.00  0.00     0.203 A 
HETATM   43  C14 UNL     1       8.416  27.931   9.124  1.00  0.00    -0.012 A 
HETATM   44  N4  UNL     1       8.162  25.724   7.771  1.00  0.00    -0.049 N 
HETATM   45  C12 UNL     1       9.328  25.059   7.309  1.00  0.00     0.284 C 
ATOM     46  H42 UNL     1       7.408  25.072   7.987  1.00  0.00     0.280 HD
ATOM     47  H41 UNL     1       7.696  26.244   7.027  1.00  0.00     0.280 HD
HETATM   48  C13 UNL     1       9.400  23.718   8.022  1.00  0.00     0.063 C 
HETATM   49  C15 UNL     1       7.174  28.701   8.666  1.00  0.00     0.017 C 
HETATM   50  C16 UNL     1       8.918  28.462  10.459  1.00  0.00     0.017 C 
ENDBRANCH  36  39
ENDBRANCH  29  36
ENDBRANCH  27  29
ENDBRANCH   1  27
TORSDOF 14
ENDMDL
MODEL 2
REMARK VINA RESULT: -10.264432273      3.720     10.622
REMARK  14 active torsions:
REMARK  status: ('A' for Active; 'I' for Inactive)
REMARK    1  A    between atoms: C2_2  and  O1_4 
REMARK    2  A    between atoms: O1_4  and  C4_5 
REMARK       I    between atoms: C4_5  and  N1_7 
REMARK    3  A    between atoms: N1_7  and  C5_9 
REMARK    4  A    between atoms: C5_9  and  C6_10 
REMARK    5  A    between atoms: C5_9  and  C23_37 
REMARK    6  A    between atoms: C6_10  and  O3_11 
REMARK    7  A    between atoms: C6_10  and  N2_13 
REMARK    8  A    between atoms: N2_13  and  C7_15 
REMARK    9  A    between atoms: C7_15  and  C8_16 
REMARK   10  A    between atoms: C8_16  and  O4_17 
REMARK   11  A    between atoms: C8_16  and  N3_19 
REMARK   12  A    between atoms: C27_41  and  C28_42 
REMARK   13  A    between atoms: C28_42  and  S1_43 
REMARK   14  A    between atoms: S1_43  and  N5_46 
ROOT
HETATM    1  C6  UNL     1      11.746  23.022   7.385  1.00  0.00     0.140 C 
ENDROOT
BRANCH   1   2
HETATM    2  C5  UNL     1      11.327  24.119   6.473  1.00  0.00     0.169 C 
BRANCH   2   3
HETATM    3  N1  UNL     1      10.386  24.921   7.200  1.00  0.00    -0.324 N 
HETATM    4  C4  UNL     1      10.508  25.938   8.114  1.00  0.00     0.361 C 
HETATM    5  O2  UNL     1      11.620  26.353   8.495  1.00  0.00    -0.238 OA
ATOM      6  H1  UNL     1       9.416  24.684   6.992  1.00  0.00     0.165 HD
BRANCH   4   7
HETATM    7  O1  UNL     1       9.406  26.570   8.672  1.00  0.00    -0.299 OA
BRANCH   7   8
HETATM    8  C2  UNL     1       9.306  27.989   8.681  1.00  0.00     0.125 C 
HETATM    9  C1  UNL     1       8.493  28.435   7.488  1.00  0.00     0.040 C 
HETATM   10  C3  UNL     1       8.660  28.377   9.989  1.00  0.00     0.040 C 
ENDBRANCH   7   8
ENDBRANCH   4   7
ENDBRANCH   2   3
BRANCH   2  11
HETATM   11  C23 UNL     1      10.928  23.738   5.111  1.00  0.00    -0.016 C 
HETATM   12  C24 UNL     1      10.907  22.293   4.749  1.00  0.00     0.018 C 
HETATM   13  C25 UNL     1      11.646  24.501   4.050  1.00  0.00     0.012 C 
HETATM   14  C26 UNL     1      10.797  24.703   2.795  1.00  0.00     0.006 C 
HETATM   15  C27 UNL     1       9.667  25.666   3.020  1.00  0.00     0.001 C 
HETATM   16  C31 UNL     1       9.382  25.628   4.517  1.00  0.00     0.006 C 
HETATM   17  C32 UNL     1       9.434  24.186   4.933  1.00  0.00     0.012 C 
BRANCH  15  18
HETATM   18  C28 UNL     1       8.394  25.288   2.332  1.00  0.00     0.162 C 
BRANCH  18  19
HETATM   19  S1  UNL     1       7.384  26.646   1.863  1.00  0.00     0.211 S 
HETATM   20  O5  UNL     1       7.817  27.935   2.474  1.00  0.00    -0.211 OA
HETATM   21  O6  UNL     1       7.553  26.821   0.359  1.00  0.00    -0.211 OA
BRANCH  19  22
HETATM   22  N5  UNL     1       5.720  26.391   2.148  1.00  0.00    -0.219 NA
HETATM   23  C29 UNL     1       5.405  26.350   3.547  1.00  0.00     0.128 C 
HETATM   24  C30 UNL     1       5.354  25.115   1.559  1.00  0.00     0.128 C 
ENDBRANCH  19  22
ENDBRANCH  18  19
ENDBRANCH  15  18
ENDBRANCH   2  11
ENDBRANCH   1   2
BRANCH   1  25
HETATM   25  O3  UNL     1      10.871  22.128   7.753  1.00  0.00    -0.348 OA
ATOM     26  H3  UNL     1      10.590  21.468   7.131  1.00  0.00     0.219 HD
ENDBRANCH   1  25
BRANCH   1  27
HETATM   27  N2  UNL     1      13.004  22.801   7.935  1.00  0.00    -0.335 N 
ATOM     28  H2  UNL     1      13.339  23.449   8.647  1.00  0.00     0.168 HD
BRANCH  27  29
HETATM   29  C7  UNL     1      13.902  21.658   7.535  1.00  0.00     0.087 C 
HETATM   30  C17 UNL     1      14.253  21.841   6.144  1.00  0.00    -0.049 C 
HETATM   31  C18 UNL     1      15.013  23.050   5.705  1.00  0.00     0.036 C 
HETATM   32  C22 UNL     1      14.511  20.635   5.307  1.00  0.00     0.036 C 
HETATM   33  C19 UNL     1      14.595  23.349   4.277  1.00  0.00     0.004 C 
HETATM   34  C20 UNL     1      15.055  22.175   3.441  1.00  0.00     0.001 C 
HETATM   35  C21 UNL     1      14.241  20.957   3.836  1.00  0.00     0.004 C 
BRANCH  29  36
HETATM   36  C8  UNL     1      14.718  21.277   8.634  1.00  0.00     0.167 C 
BRANCH  36  37
HETATM   37  O4  UNL     1      14.541  22.149   9.661  1.00  0.00    -0.344 OA
ATOM     38  H4  UNL     1      13.855  22.767   9.440  1.00  0.00     0.219 HD
ENDBRANCH  36  37
BRANCH  36  39
HETATM   39  N3  UNL     1      15.641  20.312   9.027  1.00  0.00    -0.332 N 
HETATM   40  C9  UNL     1      15.611  19.615  10.263  1.00  0.00     0.134 C 
HETATM   41  C10 UNL     1      16.180  18.258  10.016  1.00  0.00     0.045 A 
HETATM   42  C11 UNL     1      17.663  18.647   9.670  1.00  0.00     0.203 A 
HETATM   43  C14 UNL     1      17.307  17.571  10.520  1.00  0.00    -0.012 A 
HETATM   44  N4  UNL     1      17.534  18.901   8.296  1.00  0.00    -0.049 N 
HETATM   45  C12 UNL     1      16.733  20.057   8.099  1.00  0.00     0.284 C 
ATOM     46  H42 UNL     1      18.440  18.977   7.832  1.00  0.00     0.280 HD
ATOM     47  H41 UNL     1      17.177  18.094   7.786  1.00  0.00     0.280 HD
HETATM   48  C13 UNL     1      17.670  21.252   8.021  1.00  0.00     0.063 C 
HETATM   49  C15 UNL     1      17.547  16.139  10.031  1.00  0.00     0.017 C 
HETATM   50  C16 UNL     1      17.582  17.684  12.013  1.00  0.00     0.017 C 
ENDBRANCH  36  39
ENDBRANCH  29  36
ENDBRANCH  27  29
ENDBRANCH   1  27
TORSDOF 14
ENDMDL
MODEL 3
REMARK VINA RESULT: -9.787085111      4.546     10.987
REMARK  14 active torsions:
REMARK  status: ('A' for Active; 'I' for Inactive)
REMARK    1  A    between atoms: C2_2  and  O1_4 
REMARK    2  A    between atoms: O1_4  and  C4_5 
REMARK       I    between atoms: C4_5  and  N1_7 
REMARK    3  A    between atoms: N1_7  and  C5_9 
REMARK    4  A    between atoms: C5_9  and  C6_10 
REMARK    5  A    between atoms: C5_9  and  C23_37 
REMARK    6  A    between atoms: C6_10  and  O3_11 
REMARK    7  A    between atoms: C6_10  and  N2_13 
REMARK    8  A    between atoms: N2_13  and  C7_15 
REMARK    9  A    between atoms: C7_15  and  C8_16 
REMARK   10  A    between atoms: C8_16  and  O4_17 
REMARK   11  A    between atoms: C8_16  and  N3_19 
REMARK   12  A    between atoms: C27_41  and  C28_42 
REMARK   13  A    between atoms: C28_42  and  S1_43 
REMARK   14  A    between atoms: S1_43  and  N5_46 
ROOT
HETATM    1  C6  UNL     1      10.698  25.207   3.428  1.00  0.00     0.140 C 
ENDROOT
BRANCH   1   2
HETATM    2  C5  UNL     1       9.294  25.691   3.365  1.00  0.00     0.169 C 
BRANCH   2   3
HETATM    3  N1  UNL     1       8.996  26.258   4.648  1.00  0.00    -0.324 N 
HETATM    4  C4  UNL     1       8.551  27.488   5.066  1.00  0.00     0.361 C 
HETATM    5  O2  UNL     1       8.320  28.414   4.264  1.00  0.00    -0.238 OA
ATOM      6  H1  UNL     1       9.149  25.606   5.418  1.00  0.00     0.165 HD
BRANCH   4   7
HETATM    7  O1  UNL     1       8.327  27.781   6.403  1.00  0.00    -0.299 OA
BRANCH   7   8
HETATM    8  C2  UNL     1       7.024  28.110   6.870  1.00  0.00     0.125 C 
HETATM    9  C1  UNL     1       6.359  26.862   7.402  1.00  0.00     0.040 C 
HETATM   10  C3  UNL     1       7.192  29.166   7.936  1.00  0.00     0.040 C 
ENDBRANCH   7   8
ENDBRANCH   4   7
ENDBRANCH   2   3
BRANCH   2  11
HETATM   11  C23 UNL     1       8.291  24.761   2.826  1.00  0.00    -0.016 C 
HETATM   12  C24 UNL     1       8.731  23.404   2.398  1.00  0.00     0.018 C 
HETATM   13  C25 UNL     1       7.440  25.363   1.760  1.00  0.00     0.012 C 
HETATM   14  C26 UNL     1       6.028  24.779   1.736  1.00  0.00     0.006 C 
HETATM   15  C27 UNL     1       5.214  25.208   2.923  1.00  0.00     0.001 C 
HETATM   16  C31 UNL     1       6.221  25.544   4.017  1.00  0.00     0.006 C 
HETATM   17  C32 UNL     1       7.272  24.470   3.984  1.00  0.00     0.012 C 
BRANCH  15  18
HETATM   18  C28 UNL     1       4.324  24.139   3.474  1.00  0.00     0.162 C 
BRANCH  18  19
HETATM   19  S1  UNL     1       2.976  24.731   4.432  1.00  0.00     0.211 S 
HETATM   20  O5  UNL     1       1.716  23.968   4.201  1.00  0.00    -0.211 OA
HETATM   21  O6  UNL     1       3.340  24.501   5.893  1.00  0.00    -0.211 OA
BRANCH  19  22
HETATM   22  N5  UNL     1       2.690  26.404   4.250  1.00  0.00    -0.219 NA
HETATM   23  C29 UNL     1       3.079  27.154   5.409  1.00  0.00     0.128 C 
HETATM   24  C30 UNL     1       1.266  26.596   4.037  1.00  0.00     0.128 C 
ENDBRANCH  19  22
ENDBRANCH  18  19
ENDBRANCH  15  18
ENDBRANCH   2  11
ENDBRANCH   1   2
BRANCH   1  25
HETATM   25  O3  UNL     1      11.565  25.642   2.558  1.00  0.00    -0.348 OA
ATOM     26  H3  UNL     1      12.316  26.140   2.858  1.00  0.00     0.219 HD
ENDBRANCH   1  25
BRANCH   1  27
HETATM   27  N2  UNL     1      11.250  24.304   4.332  1.00  0.00    -0.335 N 
ATOM     28  H2  UNL     1      11.045  23.313   4.207  1.00  0.00     0.168 HD
BRANCH  27  29
HETATM   29  C7  UNL     1      12.133  24.709   5.483  1.00  0.00     0.087 C 
HETATM   30  C17 UNL     1      11.284  24.926   6.634  1.00  0.00    -0.049 C 
HETATM   31  C18 UNL     1      10.469  23.808   7.197  1.00  0.00     0.036 C 
HETATM   32  C22 UNL     1      11.699  25.936   7.648  1.00  0.00     0.036 C 
HETATM   33  C19 UNL     1       9.224  24.425   7.808  1.00  0.00     0.004 C 
HETATM   34  C20 UNL     1       9.693  25.290   8.957  1.00  0.00     0.001 C 
HETATM   35  C21 UNL     1      10.468  26.464   8.388  1.00  0.00     0.004 C 
BRANCH  29  36
HETATM   36  C8  UNL     1      13.384  24.040   5.393  1.00  0.00     0.167 C 
BRANCH  36  37
HETATM   37  O4  UNL     1      14.094  24.535   4.345  1.00  0.00    -0.344 OA
ATOM     38  H4  UNL     1      14.966  24.161   4.344  1.00  0.00     0.219 HD
ENDBRANCH  36  37
BRANCH  36  39
HETATM   39  N3  UNL     1      14.141  23.049   6.010  1.00  0.00    -0.332 N 
HETATM   40  C9  UNL     1      15.201  23.286   6.923  1.00  0.00     0.134 C 
HETATM   41  C10 UNL     1      15.217  22.144   7.884  1.00  0.00     0.045 A 
HETATM   42  C11 UNL     1      15.616  20.977   6.909  1.00  0.00     0.203 A 
HETATM   43  C14 UNL     1      16.174  21.154   8.200  1.00  0.00    -0.012 A 
HETATM   44  N4  UNL     1      14.349  20.621   6.424  1.00  0.00    -0.049 N 
HETATM   45  C12 UNL     1      13.827  21.677   5.633  1.00  0.00     0.284 C 
ATOM     46  H42 UNL     1      14.365  19.734   5.919  1.00  0.00     0.280 HD
ATOM     47  H41 UNL     1      13.712  20.350   7.173  1.00  0.00     0.280 HD
HETATM   48  C13 UNL     1      14.225  21.406   4.191  1.00  0.00     0.063 C 
HETATM   49  C15 UNL     1      15.820  20.144   9.296  1.00  0.00     0.017 C 
HETATM   50  C16 UNL     1      17.624  21.600   8.325  1.00  0.00     0.017 C 
ENDBRANCH  36  39
ENDBRANCH  29  36
ENDBRANCH  27  29
ENDBRANCH   1  27
TORSDOF 14
ENDMDL
MODEL 4
REMARK VINA RESULT: -9.652980052      4.262      7.964
REMARK  14 active torsions:
REMARK  status: ('A' for Active; 'I' for Inactive)
REMARK    1  A    between atoms: C2_2  and  O1_4 
REMARK    2  A    between atoms: O1_4  and  C4_5 
REMARK       I    between atoms: C4_5  and  N1_7 
REMARK    3  A    between atoms: N1_7  and  C5_9 
REMARK    4  A    between atoms: C5_9  and  C6_10 
REMARK    5  A    between atoms: C5_9  and  C23_37 
REMARK    6  A    between atoms: C6_10  and  O3_11 
REMARK    7  A    between atoms: C6_10  and  N2_13 
REMARK    8  A    between atoms: N2_13  and  C7_15 
REMARK    9  A    between atoms: C7_15  and  C8_16 
REMARK   10  A    between atoms: C8_16  and  O4_17 
REMARK   11  A    between atoms: C8_16  and  N3_19 
REMARK   12  A    between atoms: C27_41  and  C28_42 
REMARK   13  A    between atoms: C28_42  and  S1_43 
REMARK   14  A    between atoms: S1_43  and  N5_46 
ROOT
HETATM    1  C6  UNL     1       8.624  26.436   3.896  1.00  0.00     0.140 C 
ENDROOT
BRANCH   1   2
HETATM    2  C5  UNL     1       8.837  24.968   3.995  1.00  0.00     0.169 C 
BRANCH   2   3
HETATM    3  N1  UNL     1       7.542  24.375   4.164  1.00  0.00    -0.324 N 
HETATM    4  C4  UNL     1       6.439  24.250   3.355  1.00  0.00     0.361 C 
HETATM    5  O2  UNL     1       6.413  24.712   2.198  1.00  0.00    -0.238 OA
ATOM      6  H1  UNL     1       7.412  23.955   5.084  1.00  0.00     0.165 HD
BRANCH   4   7
HETATM    7  O1  UNL     1       5.285  23.602   3.770  1.00  0.00    -0.299 OA
BRANCH   7   8
HETATM    8  C2  UNL     1       4.022  24.256   3.716  1.00  0.00     0.125 C 
HETATM    9  C1  UNL     1       3.171  23.601   2.654  1.00  0.00     0.040 C 
HETATM   10  C3  UNL     1       3.408  24.142   5.090  1.00  0.00     0.040 C 
ENDBRANCH   7   8
ENDBRANCH   4   7
ENDBRANCH   2   3
BRANCH   2  11
HETATM   11  C23 UNL     1       9.879  24.506   4.923  1.00  0.00    -0.016 C 
HETATM   12  C24 UNL     1       9.528  24.321   6.359  1.00  0.00     0.018 C 
HETATM   13  C25 UNL     1      11.147  25.285   4.822  1.00  0.00     0.012 C 
HETATM   14  C26 UNL     1      12.381  24.441   5.141  1.00  0.00     0.006 C 
HETATM   15  C27 UNL     1      12.671  23.427   4.072  1.00  0.00     0.001 C 
HETATM   16  C31 UNL     1      11.339  23.165   3.378  1.00  0.00     0.006 C 
HETATM   17  C32 UNL     1      10.298  23.067   4.457  1.00  0.00     0.012 C 
BRANCH  15  18
HETATM   18  C28 UNL     1      13.148  22.108   4.592  1.00  0.00     0.162 C 
BRANCH  18  19
HETATM   19  S1  UNL     1      14.856  22.057   5.001  1.00  0.00     0.211 S 
HETATM   20  O5  UNL     1      15.589  20.958   4.310  1.00  0.00    -0.211 OA
HETATM   21  O6  UNL     1      15.469  23.354   4.487  1.00  0.00    -0.211 OA
BRANCH  19  22
HETATM   22  N5  UNL     1      15.156  21.999   6.680  1.00  0.00    -0.219 NA
HETATM   23  C29 UNL     1      13.949  21.885   7.447  1.00  0.00     0.128 C 
HETATM   24  C30 UNL     1      15.824  23.233   7.059  1.00  0.00     0.128 C 
ENDBRANCH  19  22
ENDBRANCH  18  19
ENDBRANCH  15  18
ENDBRANCH   2  11
ENDBRANCH   1   2
BRANCH   1  25
HETATM   25  O3  UNL     1       8.621  27.004   2.724  1.00  0.00    -0.348 OA
ATOM     26  H3  UNL     1       8.066  26.653   2.038  1.00  0.00     0.219 HD
ENDBRANCH   1  25
BRANCH   1  27
HETATM   27  N2  UNL     1       8.418  27.341   4.933  1.00  0.00    -0.335 N 
ATOM     28  H2  UNL     1       9.033  28.152   4.992  1.00  0.00     0.168 HD
BRANCH  27  29
HETATM   29  C7  UNL     1       7.339  27.188   5.973  1.00  0.00     0.087 C 
HETATM   30  C17 UNL     1       7.976  27.188   7.271  1.00  0.00    -0.049 C 
HETATM   31  C18 UNL     1       8.745  28.380   7.740  1.00  0.00     0.036 C 
HETATM   32  C22 UNL     1       7.350  26.407   8.375  1.00  0.00     0.036 C 
HETATM   33  C19 UNL     1       9.839  27.873   8.661  1.00  0.00     0.004 C 
HETATM   34  C20 UNL     1       9.145  27.262   9.858  1.00  0.00     0.001 C 
HETATM   35  C21 UNL     1       8.414  26.013   9.401  1.00  0.00     0.004 C 
BRANCH  29  36
HETATM   36  C8  UNL     1       6.156  27.849   5.544  1.00  0.00     0.167 C 
BRANCH  36  37
HETATM   37  O4  UNL     1       6.388  28.483   4.364  1.00  0.00    -0.344 OA
ATOM     38  H4  UNL     1       5.611  28.963   4.101  1.00  0.00     0.219 HD
ENDBRANCH  36  37
BRANCH  36  39
HETATM   39  N3  UNL     1       4.833  28.072   5.913  1.00  0.00    -0.332 N 
HETATM   40  C9  UNL     1       3.731  28.084   5.019  1.00  0.00     0.134 C 
HETATM   41  C10 UNL     1       2.545  27.586   5.777  1.00  0.00     0.045 A 
HETATM   42  C11 UNL     1       2.385  28.749   6.822  1.00  0.00     0.203 A 
HETATM   43  C14 UNL     1       1.302  28.161   6.123  1.00  0.00    -0.012 A 
HETATM   44  N4  UNL     1       3.272  28.309   7.815  1.00  0.00    -0.049 N 
HETATM   45  C12 UNL     1       4.602  28.358   7.322  1.00  0.00     0.284 C 
ATOM     46  H42 UNL     1       3.165  28.830   8.686  1.00  0.00     0.280 HD
ATOM     47  H41 UNL     1       3.027  27.384   8.168  1.00  0.00     0.280 HD
HETATM   48  C13 UNL     1       5.179  29.713   7.702  1.00  0.00     0.063 C 
HETATM   49  C15 UNL     1       0.308  27.296   6.904  1.00  0.00     0.017 C 
HETATM   50  C16 UNL     1       0.586  28.971   5.050  1.00  0.00     0.017 C 
ENDBRANCH  36  39
ENDBRANCH  29  36
ENDBRANCH  27  29
ENDBRANCH   1  27
TORSDOF 14
ENDMDL
MODEL 5
REMARK VINA RESULT: -9.513282088      4.836      8.900
REMARK  14 active torsions:
REMARK  status: ('A' for Active; 'I' for Inactive)
REMARK    1  A    between atoms: C2_2  and  O1_4 
REMARK    2  A    between atoms: O1_4  and  C4_5 
REMARK       I    between atoms: C4_5  and  N1_7 
REMARK    3  A    between atoms: N1_7  and  C5_9 
REMARK    4  A    between atoms: C5_9  and  C6_10 
REMARK    5  A    between atoms: C5_9  and  C23_37 
REMARK    6  A    between atoms: C6_10  and  O3_11 
REMARK    7  A    between atoms: C6_10  and  N2_13 
REMARK    8  A    between atoms: N2_13  and  C7_15 
REMARK    9  A    between atoms: C7_15  and  C8_16 
REMARK   10  A    between atoms: C8_16  and  O4_17 
REMARK   11  A    between atoms: C8_16  and  N3_19 
REMARK   12  A    between atoms: C27_41  and  C28_42 
REMARK   13  A    between atoms: C28_42  and  S1_43 
REMARK   14  A    between atoms: S1_43  and  N5_46 
ROOT
HETATM    1  C6  UNL     1       7.592  27.594   3.608  1.00  0.00     0.140 C 
ENDROOT
BRANCH   1   2
HETATM    2  C5  UNL     1       7.859  26.133   3.543  1.00  0.00     0.169 C 
BRANCH   2   3
HETATM    3  N1  UNL     1       6.707  25.479   4.094  1.00  0.00    -0.324 N 
HETATM    4  C4  UNL     1       5.581  24.914   3.549  1.00  0.00     0.361 C 
HETATM    5  O2  UNL     1       5.379  24.901   2.319  1.00  0.00    -0.238 OA
ATOM      6  H1  UNL     1       6.729  25.423   5.112  1.00  0.00     0.165 HD
BRANCH   4   7
HETATM    7  O1  UNL     1       4.597  24.322   4.327  1.00  0.00    -0.299 OA
BRANCH   7   8
HETATM    8  C2  UNL     1       3.637  23.447   3.747  1.00  0.00     0.125 C 
HETATM    9  C1  UNL     1       3.807  22.066   4.333  1.00  0.00     0.040 C 
HETATM   10  C3  UNL     1       2.275  24.029   4.044  1.00  0.00     0.040 C 
ENDBRANCH   7   8
ENDBRANCH   4   7
ENDBRANCH   2   3
BRANCH   2  11
HETATM   11  C23 UNL     1       9.160  25.669   4.045  1.00  0.00    -0.016 C 
HETATM   12  C24 UNL     1       9.786  26.393   5.187  1.00  0.00     0.018 C 
HETATM   13  C25 UNL     1      10.174  25.478   2.968  1.00  0.00     0.012 C 
HETATM   14  C26 UNL     1      11.168  24.362   3.289  1.00  0.00     0.006 C 
HETATM   15  C27 UNL     1      10.537  23.001   3.228  1.00  0.00     0.001 C 
HETATM   16  C31 UNL     1       9.049  23.222   3.481  1.00  0.00     0.006 C 
HETATM   17  C32 UNL     1       8.943  24.218   4.601  1.00  0.00     0.012 C 
BRANCH  15  18
HETATM   18  C28 UNL     1      11.014  22.056   4.286  1.00  0.00     0.162 C 
BRANCH  18  19
HETATM   19  S1  UNL     1      12.540  22.504   5.031  1.00  0.00     0.211 S 
HETATM   20  O5  UNL     1      12.439  23.725   5.881  1.00  0.00    -0.211 OA
HETATM   21  O6  UNL     1      12.917  21.370   5.975  1.00  0.00    -0.211 OA
BRANCH  19  22
HETATM   22  N5  UNL     1      13.823  22.669   3.918  1.00  0.00    -0.219 NA
HETATM   23  C29 UNL     1      14.323  21.402   3.468  1.00  0.00     0.128 C 
HETATM   24  C30 UNL     1      14.904  23.379   4.580  1.00  0.00     0.128 C 
ENDBRANCH  19  22
ENDBRANCH  18  19
ENDBRANCH  15  18
ENDBRANCH   2  11
ENDBRANCH   1   2
BRANCH   1  25
HETATM   25  O3  UNL     1       7.882  28.343   2.582  1.00  0.00    -0.348 OA
ATOM     26  H3  UNL     1       8.228  29.215   2.725  1.00  0.00     0.219 HD
ENDBRANCH   1  25
BRANCH   1  27
HETATM   27  N2  UNL     1       7.050  28.316   4.666  1.00  0.00    -0.335 N 
ATOM     28  H2  UNL     1       7.218  29.322   4.698  1.00  0.00     0.168 HD
BRANCH  27  29
HETATM   29  C7  UNL     1       6.230  27.697   5.767  1.00  0.00     0.087 C 
HETATM   30  C17 UNL     1       7.064  27.620   6.947  1.00  0.00    -0.049 C 
HETATM   31  C18 UNL     1       7.608  28.862   7.574  1.00  0.00     0.036 C 
HETATM   32  C22 UNL     1       6.833  26.511   7.915  1.00  0.00     0.036 C 
HETATM   33  C19 UNL     1       8.931  28.494   8.221  1.00  0.00     0.004 C 
HETATM   34  C20 UNL     1       8.611  27.511   9.325  1.00  0.00     0.001 C 
HETATM   35  C21 UNL     1       8.119  26.222   8.691  1.00  0.00     0.004 C 
BRANCH  29  36
HETATM   36  C8  UNL     1       4.871  28.096   5.642  1.00  0.00     0.167 C 
BRANCH  36  37
HETATM   37  O4  UNL     1       4.738  28.941   4.586  1.00  0.00    -0.344 OA
ATOM     38  H4  UNL     1       5.527  29.461   4.492  1.00  0.00     0.219 HD
ENDBRANCH  36  37
BRANCH  36  39
HETATM   39  N3  UNL     1       3.622  27.919   6.228  1.00  0.00    -0.332 N 
HETATM   40  C9  UNL     1       2.430  27.608   5.522  1.00  0.00     0.134 C 
HETATM   41  C10 UNL     1       1.584  26.781   6.432  1.00  0.00     0.045 A 
HETATM   42  C11 UNL     1       1.270  27.843   7.547  1.00  0.00     0.203 A 
HETATM   43  C14 UNL     1       0.303  26.964   7.000  1.00  0.00    -0.012 A 
HETATM   44  N4  UNL     1       2.400  27.680   8.364  1.00  0.00    -0.049 N 
HETATM   45  C12 UNL     1       3.557  28.120   7.669  1.00  0.00     0.284 C 
ATOM     46  H42 UNL     1       2.293  28.144   9.266  1.00  0.00     0.280 HD
ATOM     47  H41 UNL     1       2.495  26.723   8.702  1.00  0.00     0.280 HD
HETATM   48  C13 UNL     1       3.771  29.583   8.022  1.00  0.00     0.063 C 
HETATM   49  C15 UNL     1      -0.252  25.843   7.882  1.00  0.00     0.017 C 
HETATM   50  C16 UNL     1      -0.785  27.530   6.098  1.00  0.00     0.017 C 
ENDBRANCH  36  39
ENDBRANCH  29  36
ENDBRANCH  27  29
ENDBRANCH   1  27
TORSDOF 14
ENDMDL
