MODEL 1
REMARK VINA RESULT: -7.858443093      0.000      0.000
REMARK  15 active torsions:
REMARK  status: ('A' for Active; 'I' for Inactive)
REMARK    1  A    between atoms: C2_2  and  O1_4 
REMARK    2  A    between atoms: O1_4  and  C4_5 
REMARK    3  A    between atoms: C4_5  and  O3_7 
REMARK    4  A    between atoms: O3_7  and  C5_8 
REMARK    5  A    between atoms: C5_8  and  C6_9 
REMARK    6  A    between atoms: C6_9  and  C7_10 
REMARK    7  A    between atoms: C7_10  and  O4_11 
REMARK    8  A    between atoms: C7_10  and  C8_13 
REMARK    9  A    between atoms: C8_13  and  N1_14 
REMARK   10  A    between atoms: N1_14  and  C9_16 
REMARK   11  A    between atoms: C9_16  and  C10_18 
REMARK   12  A    between atoms: C18_29  and  C19_30 
REMARK       I    between atoms: C19_30  and  N3_32 
REMARK   13  A    between atoms: C20_34  and  C21_35 
REMARK   14  A    between atoms: C21_35  and  C22_36 
REMARK   15  A    between atoms: C22_36  and  N4_37 
ROOT
HETATM    1  C10 UNL     1      14.724 -15.457  20.883  1.00  0.00     0.259 C 
HETATM    2  N2  UNL     1      13.543 -16.106  21.357  1.00  0.00    -0.064 N 
ATOM      3  H21 UNL     1      13.446 -15.991  22.366  1.00  0.00     0.278 HD
ATOM      4  H22 UNL     1      13.643 -17.120  21.313  1.00  0.00     0.278 HD
HETATM    5  C11 UNL     1      12.357 -15.684  20.683  1.00  0.00     0.238 C 
HETATM    6  C12 UNL     1      12.456 -16.107  19.208  1.00  0.00     0.016 C 
HETATM    7  C13 UNL     1      12.295 -17.604  19.235  1.00  0.00     0.007 C 
HETATM    8  C14 UNL     1      12.555 -18.131  17.843  1.00  0.00     0.000 C 
HETATM    9  C15 UNL     1      14.069 -17.938  17.677  1.00  0.00     0.000 C 
HETATM   10  C16 UNL     1      14.301 -16.479  17.517  1.00  0.00     0.006 C 
HETATM   11  C17 UNL     1      13.677 -15.603  18.560  1.00  0.00     0.007 C 
HETATM   12  C18 UNL     1      14.734 -15.027  19.466  1.00  0.00     0.120 C 
ENDROOT
BRANCH   1  13
HETATM   13  C9  UNL     1      15.935 -16.180  21.308  1.00  0.00     0.105 C 
HETATM   14  S1  UNL     1      16.315 -17.603  20.643  1.00  0.00    -0.063 SA
BRANCH  13  15
HETATM   15  N1  UNL     1      16.775 -15.638  22.299  1.00  0.00    -0.380 N 
ATOM     16  H1  UNL     1      16.538 -15.766  23.283  1.00  0.00     0.160 HD
BRANCH  15  17
HETATM   17  C8  UNL     1      17.970 -14.902  21.947  1.00  0.00     0.152 C 
BRANCH  17  18
HETATM   18  C7  UNL     1      19.166 -15.605  22.563  1.00  0.00     0.138 C 
BRANCH  18  19
HETATM   19  C6  UNL     1      19.674 -14.895  23.801  1.00  0.00     0.060 C 
BRANCH  19  20
HETATM   20  C5  UNL     1      20.745 -13.889  23.473  1.00  0.00     0.183 C 
BRANCH  20  21
HETATM   21  O3  UNL     1      22.000 -14.513  23.566  1.00  0.00    -0.298 OA
BRANCH  21  22
HETATM   22  C4  UNL     1      23.057 -14.134  24.334  1.00  0.00     0.406 C 
HETATM   23  O2  UNL     1      24.188 -14.060  23.833  1.00  0.00    -0.229 OA
BRANCH  22  24
HETATM   24  O1  UNL     1      22.970 -13.811  25.685  1.00  0.00    -0.293 OA
BRANCH  24  25
HETATM   25  C2  UNL     1      22.195 -14.560  26.599  1.00  0.00     0.126 C 
HETATM   26  C1  UNL     1      21.190 -13.592  27.219  1.00  0.00     0.040 C 
HETATM   27  C3  UNL     1      23.003 -15.194  27.681  1.00  0.00     0.040 C 
ENDBRANCH  24  25
ENDBRANCH  22  24
ENDBRANCH  21  22
ENDBRANCH  20  21
ENDBRANCH  19  20
ENDBRANCH  18  19
BRANCH  18  28
HETATM   28  O4  UNL     1      20.190 -15.546  21.613  1.00  0.00    -0.394 OA
ATOM     29  H4  UNL     1      19.910 -14.931  20.945  1.00  0.00     0.210 HD
ENDBRANCH  18  28
ENDBRANCH  17  18
ENDBRANCH  15  17
ENDBRANCH  13  15
ENDBRANCH   1  13
BRANCH  12  30
HETATM   30  C19 UNL     1      14.828 -13.530  19.310  1.00  0.00     0.228 C 
HETATM   31  O5  UNL     1      13.966 -12.974  18.605  1.00  0.00    -0.273 OA
HETATM   32  N3  UNL     1      15.833 -12.774  19.921  1.00  0.00    -0.340 N 
HETATM   33  C20 UNL     1      15.737 -11.705  20.587  1.00  0.00     0.065 C 
ATOM     34  H3  UNL     1      16.780 -13.139  19.813  1.00  0.00     0.167 HD
BRANCH  33  35
HETATM   35  C21 UNL     1      14.507 -10.951  20.902  1.00  0.00     0.074 C 
BRANCH  35  36
HETATM   36  C22 UNL     1      13.681 -11.744  21.900  1.00  0.00     0.277 C 
BRANCH  36  37
HETATM   37  N4  UNL     1      12.317 -11.320  21.873  1.00  0.00     0.088 N 
HETATM   38  C23 UNL     1      12.081 -10.319  22.871  1.00  0.00     0.272 C 
HETATM   39  C24 UNL     1      11.216 -10.908  23.945  1.00  0.00     0.032 C 
HETATM   40  C25 UNL     1      11.076 -12.376  23.543  1.00  0.00     0.032 C 
HETATM   41  C26 UNL     1      11.371 -12.366  22.055  1.00  0.00     0.272 C 
ENDBRANCH  36  37
ENDBRANCH  35  36
ENDBRANCH  33  35
ENDBRANCH  12  30
TORSDOF 15
ENDMDL
MODEL 2
REMARK VINA RESULT: -7.690039037      2.733      8.145
REMARK  15 active torsions:
REMARK  status: ('A' for Active; 'I' for Inactive)
REMARK    1  A    between atoms: C2_2  and  O1_4 
REMARK    2  A    between atoms: O1_4  and  C4_5 
REMARK    3  A    between atoms: C4_5  and  O3_7 
REMARK    4  A    between atoms: O3_7  and  C5_8 
REMARK    5  A    between atoms: C5_8  and  C6_9 
REMARK    6  A    between atoms: C6_9  and  C7_10 
REMARK    7  A    between atoms: C7_10  and  O4_11 
REMARK    8  A    between atoms: C7_10  and  C8_13 
REMARK    9  A    between atoms: C8_13  and  N1_14 
REMARK   10  A    between atoms: N1_14  and  C9_16 
REMARK   11  A    between atoms: C9_16  and  C10_18 
REMARK   12  A    between atoms: C18_29  and  C19_30 
REMARK       I    between atoms: C19_30  and  N3_32 
REMARK   13  A    between atoms: C20_34  and  C21_35 
REMARK   14  A    between atoms: C21_35  and  C22_36 
REMARK   15  A    between atoms: C22_36  and  N4_37 
ROOT
HETATM    1  C10 UNL     1      19.294 -16.526  24.185  1.00  0.00     0.259 C 
HETATM    2  N2  UNL     1      20.483 -17.268  24.465  1.00  0.00    -0.064 N 
ATOM      3  H21 UNL     1      20.359 -18.254  24.235  1.00  0.00     0.278 HD
ATOM      4  H22 UNL     1      20.632 -17.348  25.471  1.00  0.00     0.278 HD
HETATM    5  C11 UNL     1      21.643 -16.739  23.822  1.00  0.00     0.238 C 
HETATM    6  C12 UNL     1      21.925 -15.340  24.394  1.00  0.00     0.016 C 
HETATM    7  C13 UNL     1      22.422 -15.599  25.792  1.00  0.00     0.007 C 
HETATM    8  C14 UNL     1      22.558 -14.269  26.496  1.00  0.00     0.000 C 
HETATM    9  C15 UNL     1      21.101 -13.839  26.711  1.00  0.00     0.000 C 
HETATM   10  C16 UNL     1      20.570 -13.445  25.380  1.00  0.00     0.006 C 
HETATM   11  C17 UNL     1      20.764 -14.443  24.280  1.00  0.00     0.007 C 
HETATM   12  C18 UNL     1      19.451 -15.081  23.908  1.00  0.00     0.120 C 
ENDROOT
BRANCH   1  13
HETATM   13  C9  UNL     1      18.227 -16.849  25.148  1.00  0.00     0.105 C 
HETATM   14  S1  UNL     1      18.466 -16.646  26.733  1.00  0.00    -0.063 SA
BRANCH  13  15
HETATM   15  N1  UNL     1      16.986 -17.337  24.696  1.00  0.00    -0.380 N 
ATOM     16  H1  UNL     1      16.131 -17.052  25.175  1.00  0.00     0.160 HD
BRANCH  15  17
HETATM   17  C8  UNL     1      16.901 -18.235  23.566  1.00  0.00     0.152 C 
BRANCH  17  18
HETATM   18  C7  UNL     1      15.651 -17.894  22.774  1.00  0.00     0.138 C 
BRANCH  18  19
HETATM   19  C6  UNL     1      15.325 -18.947  21.736  1.00  0.00     0.060 C 
BRANCH  19  20
HETATM   20  C5  UNL     1      13.841 -19.094  21.527  1.00  0.00     0.183 C 
BRANCH  20  21
HETATM   21  O3  UNL     1      13.237 -17.832  21.655  1.00  0.00    -0.298 OA
BRANCH  21  22
HETATM   22  C4  UNL     1      12.810 -17.015  20.654  1.00  0.00     0.406 C 
HETATM   23  O2  UNL     1      11.669 -17.152  20.191  1.00  0.00    -0.229 OA
BRANCH  22  24
HETATM   24  O1  UNL     1      13.577 -16.001  20.087  1.00  0.00    -0.293 OA
BRANCH  24  25
HETATM   25  C2  UNL     1      13.918 -15.980  18.716  1.00  0.00     0.126 C 
HETATM   26  C1  UNL     1      14.942 -17.091  18.500  1.00  0.00     0.040 C 
HETATM   27  C3  UNL     1      14.499 -14.679  18.270  1.00  0.00     0.040 C 
ENDBRANCH  24  25
ENDBRANCH  22  24
ENDBRANCH  21  22
ENDBRANCH  20  21
ENDBRANCH  19  20
ENDBRANCH  18  19
BRANCH  18  28
HETATM   28  O4  UNL     1      15.934 -16.714  22.080  1.00  0.00    -0.394 OA
ATOM     29  H4  UNL     1      15.124 -16.434  21.671  1.00  0.00     0.210 HD
ENDBRANCH  18  28
ENDBRANCH  17  18
ENDBRANCH  15  17
ENDBRANCH  13  15
ENDBRANCH   1  13
BRANCH  12  30
HETATM   30  C19 UNL     1      19.043 -14.707  22.504  1.00  0.00     0.228 C 
HETATM   31  O5  UNL     1      18.650 -15.624  21.760  1.00  0.00    -0.273 OA
HETATM   32  N3  UNL     1      19.096 -13.392  22.034  1.00  0.00    -0.340 N 
HETATM   33  C20 UNL     1      18.223 -12.732  21.403  1.00  0.00     0.065 C 
ATOM     34  H3  UNL     1      19.965 -12.894  22.228  1.00  0.00     0.167 HD
BRANCH  33  35
HETATM   35  C21 UNL     1      16.883 -13.188  20.984  1.00  0.00     0.074 C 
BRANCH  35  36
HETATM   36  C22 UNL     1      16.058 -11.984  20.563  1.00  0.00     0.277 C 
BRANCH  36  37
HETATM   37  N4  UNL     1      14.974 -11.775  21.470  1.00  0.00     0.088 N 
HETATM   38  C23 UNL     1      14.064 -12.880  21.432  1.00  0.00     0.272 C 
HETATM   39  C24 UNL     1      12.785 -12.425  20.794  1.00  0.00     0.032 C 
HETATM   40  C25 UNL     1      13.081 -10.992  20.353  1.00  0.00     0.032 C 
HETATM   41  C26 UNL     1      14.239 -10.579  21.242  1.00  0.00     0.272 C 
ENDBRANCH  36  37
ENDBRANCH  35  36
ENDBRANCH  33  35
ENDBRANCH  12  30
TORSDOF 15
ENDMDL
MODEL 3
REMARK VINA RESULT: -7.669989363      3.694     10.661
REMARK  15 active torsions:
REMARK  status: ('A' for Active; 'I' for Inactive)
REMARK    1  A    between atoms: C2_2  and  O1_4 
REMARK    2  A    between atoms: O1_4  and  C4_5 
REMARK    3  A    between atoms: C4_5  and  O3_7 
REMARK    4  A    between atoms: O3_7  and  C5_8 
REMARK    5  A    between atoms: C5_8  and  C6_9 
REMARK    6  A    between atoms: C6_9  and  C7_10 
REMARK    7  A    between atoms: C7_10  and  O4_11 
REMARK    8  A    between atoms: C7_10  and  C8_13 
REMARK    9  A    between atoms: C8_13  and  N1_14 
REMARK   10  A    between atoms: N1_14  and  C9_16 
REMARK   11  A    between atoms: C9_16  and  C10_18 
REMARK   12  A    between atoms: C18_29  and  C19_30 
REMARK       I    between atoms: C19_30  and  N3_32 
REMARK   13  A    between atoms: C20_34  and  C21_35 
REMARK   14  A    between atoms: C21_35  and  C22_36 
REMARK   15  A    between atoms: C22_36  and  N4_37 
ROOT
HETATM    1  C10 UNL     1      19.261 -15.827  23.541  1.00  0.00     0.259 C 
HETATM    2  N2  UNL     1      18.574 -15.932  24.790  1.00  0.00    -0.064 N 
ATOM      3  H21 UNL     1      17.639 -16.315  24.658  1.00  0.00     0.278 HD
ATOM      4  H22 UNL     1      18.329 -15.008  25.147  1.00  0.00     0.278 HD
HETATM    5  C11 UNL     1      19.296 -16.679  25.770  1.00  0.00     0.238 C 
HETATM    6  C12 UNL     1      20.589 -15.920  26.111  1.00  0.00     0.016 C 
HETATM    7  C13 UNL     1      20.125 -14.722  26.896  1.00  0.00     0.007 C 
HETATM    8  C14 UNL     1      21.316 -13.820  27.125  1.00  0.00     0.000 C 
HETATM    9  C15 UNL     1      21.589 -13.246  25.728  1.00  0.00     0.000 C 
HETATM   10  C16 UNL     1      22.171 -14.347  24.917  1.00  0.00     0.006 C 
HETATM   11  C17 UNL     1      21.401 -15.632  24.918  1.00  0.00     0.007 C 
HETATM   12  C18 UNL     1      20.741 -15.852  23.581  1.00  0.00     0.120 C 
ENDROOT
BRANCH   1  13
HETATM   13  C9  UNL     1      18.693 -14.751  22.710  1.00  0.00     0.105 C 
HETATM   14  S1  UNL     1      19.658 -13.803  21.827  1.00  0.00    -0.063 SA
BRANCH  13  15
HETATM   15  N1  UNL     1      17.302 -14.540  22.677  1.00  0.00    -0.380 N 
ATOM     16  H1  UNL     1      16.700 -15.060  23.316  1.00  0.00     0.160 HD
BRANCH  15  17
HETATM   17  C8  UNL     1      16.709 -13.596  21.754  1.00  0.00     0.152 C 
BRANCH  17  18
HETATM   18  C7  UNL     1      15.482 -14.239  21.132  1.00  0.00     0.138 C 
BRANCH  18  19
HETATM   19  C6  UNL     1      15.092 -13.582  19.825  1.00  0.00     0.060 C 
BRANCH  19  20
HETATM   20  C5  UNL     1      15.397 -12.108  19.821  1.00  0.00     0.183 C 
BRANCH  20  21
HETATM   21  O3  UNL     1      14.248 -11.404  20.217  1.00  0.00    -0.298 OA
BRANCH  21  22
HETATM   22  C4  UNL     1      14.017 -10.807  21.418  1.00  0.00     0.406 C 
HETATM   23  O2  UNL     1      14.489  -9.685  21.649  1.00  0.00    -0.229 OA
BRANCH  22  24
HETATM   24  O1  UNL     1      13.269 -11.374  22.445  1.00  0.00    -0.293 OA
BRANCH  24  25
HETATM   25  C2  UNL     1      11.856 -11.348  22.463  1.00  0.00     0.126 C 
HETATM   26  C1  UNL     1      11.445 -10.653  23.757  1.00  0.00     0.040 C 
HETATM   27  C3  UNL     1      11.238 -12.706  22.413  1.00  0.00     0.040 C 
ENDBRANCH  24  25
ENDBRANCH  22  24
ENDBRANCH  21  22
ENDBRANCH  20  21
ENDBRANCH  19  20
ENDBRANCH  18  19
BRANCH  18  28
HETATM   28  O4  UNL     1      14.429 -14.023  22.025  1.00  0.00    -0.394 OA
ATOM     29  H4  UNL     1      14.370 -14.795  22.575  1.00  0.00     0.210 HD
ENDBRANCH  18  28
ENDBRANCH  17  18
ENDBRANCH  15  17
ENDBRANCH  13  15
ENDBRANCH   1  13
BRANCH  12  30
HETATM   30  C19 UNL     1      21.325 -17.051  22.877  1.00  0.00     0.228 C 
HETATM   31  O5  UNL     1      21.084 -17.174  21.662  1.00  0.00    -0.273 OA
HETATM   32  N3  UNL     1      22.107 -18.002  23.539  1.00  0.00    -0.340 N 
HETATM   33  C20 UNL     1      23.216 -18.503  23.199  1.00  0.00     0.065 C 
ATOM     34  H3  UNL     1      21.728 -18.339  24.424  1.00  0.00     0.167 HD
BRANCH  33  35
HETATM   35  C21 UNL     1      23.997 -18.210  21.980  1.00  0.00     0.074 C 
BRANCH  35  36
HETATM   36  C22 UNL     1      25.380 -18.823  22.117  1.00  0.00     0.277 C 
BRANCH  36  37
HETATM   37  N4  UNL     1      26.197 -18.032  22.982  1.00  0.00     0.088 N 
HETATM   38  C23 UNL     1      26.403 -16.728  22.426  1.00  0.00     0.272 C 
HETATM   39  C24 UNL     1      27.838 -16.609  22.004  1.00  0.00     0.032 C 
HETATM   40  C25 UNL     1      28.413 -18.004  22.251  1.00  0.00     0.032 C 
HETATM   41  C26 UNL     1      27.466 -18.601  23.275  1.00  0.00     0.272 C 
ENDBRANCH  36  37
ENDBRANCH  35  36
ENDBRANCH  33  35
ENDBRANCH  12  30
TORSDOF 15
ENDMDL
MODEL 4
REMARK VINA RESULT: -7.637002701      1.178      1.570
REMARK  15 active torsions:
REMARK  status: ('A' for Active; 'I' for Inactive)
REMARK    1  A    between atoms: C2_2  and  O1_4 
REMARK    2  A    between atoms: O1_4  and  C4_5 
REMARK    3  A    between atoms: C4_5  and  O3_7 
REMARK    4  A    between atoms: O3_7  and  C5_8 
REMARK    5  A    between atoms: C5_8  and  C6_9 
REMARK    6  A    between atoms: C6_9  and  C7_10 
REMARK    7  A    between atoms: C7_10  and  O4_11 
REMARK    8  A    between atoms: C7_10  and  C8_13 
REMARK    9  A    between atoms: C8_13  and  N1_14 
REMARK   10  A    between atoms: N1_14  and  C9_16 
REMARK   11  A    between atoms: C9_16  and  C10_18 
REMARK   12  A    between atoms: C18_29  and  C19_30 
REMARK       I    between atoms: C19_30  and  N3_32 
REMARK   13  A    between atoms: C20_34  and  C21_35 
REMARK   14  A    between atoms: C21_35  and  C22_36 
REMARK   15  A    between atoms: C22_36  and  N4_37 
ROOT
HETATM    1  C10 UNL     1      14.755 -15.815  20.957  1.00  0.00     0.259 C 
HETATM    2  N2  UNL     1      13.538 -16.305  21.524  1.00  0.00    -0.064 N 
ATOM      3  H21 UNL     1      13.549 -16.217  22.540  1.00  0.00     0.278 HD
ATOM      4  H22 UNL     1      13.484 -17.321  21.443  1.00  0.00     0.278 HD
HETATM    5  C11 UNL     1      12.372 -15.690  20.974  1.00  0.00     0.238 C 
HETATM    6  C12 UNL     1      12.275 -16.065  19.486  1.00  0.00     0.016 C 
HETATM    7  C13 UNL     1      11.899 -17.523  19.490  1.00  0.00     0.007 C 
HETATM    8  C14 UNL     1      11.954 -18.026  18.066  1.00  0.00     0.000 C 
HETATM    9  C15 UNL     1      13.459 -18.048  17.763  1.00  0.00     0.000 C 
HETATM   10  C16 UNL     1      13.888 -16.632  17.621  1.00  0.00     0.006 C 
HETATM   11  C17 UNL     1      13.495 -15.718  18.740  1.00  0.00     0.007 C 
HETATM   12  C18 UNL     1      14.702 -15.336  19.558  1.00  0.00     0.120 C 
ENDROOT
BRANCH   1  13
HETATM   13  C9  UNL     1      15.879 -16.722  21.248  1.00  0.00     0.105 C 
HETATM   14  S1  UNL     1      16.181 -17.986  20.288  1.00  0.00    -0.063 SA
BRANCH  13  15
HETATM   15  N1  UNL     1      16.704 -16.494  22.367  1.00  0.00    -0.380 N 
ATOM     16  H1  UNL     1      16.317 -16.603  23.304  1.00  0.00     0.160 HD
BRANCH  15  17
HETATM   17  C8  UNL     1      18.089 -16.110  22.210  1.00  0.00     0.152 C 
BRANCH  17  18
HETATM   18  C7  UNL     1      18.188 -14.601  22.349  1.00  0.00     0.138 C 
BRANCH  18  19
HETATM   19  C6  UNL     1      19.419 -14.176  23.121  1.00  0.00     0.060 C 
BRANCH  19  20
HETATM   20  C5  UNL     1      19.641 -15.028  24.342  1.00  0.00     0.183 C 
BRANCH  20  21
HETATM   21  O3  UNL     1      19.982 -14.197  25.422  1.00  0.00    -0.298 OA
BRANCH  21  22
HETATM   22  C4  UNL     1      21.154 -13.536  25.619  1.00  0.00     0.406 C 
HETATM   23  O2  UNL     1      21.214 -12.623  26.455  1.00  0.00    -0.229 OA
BRANCH  22  24
HETATM   24  O1  UNL     1      22.335 -13.810  24.934  1.00  0.00    -0.293 OA
BRANCH  24  25
HETATM   25  C2  UNL     1      23.383 -14.572  25.497  1.00  0.00     0.126 C 
HETATM   26  C1  UNL     1      24.643 -14.240  24.703  1.00  0.00     0.040 C 
HETATM   27  C3  UNL     1      23.140 -16.044  25.446  1.00  0.00     0.040 C 
ENDBRANCH  24  25
ENDBRANCH  22  24
ENDBRANCH  21  22
ENDBRANCH  20  21
ENDBRANCH  19  20
ENDBRANCH  18  19
BRANCH  18  28
HETATM   28  O4  UNL     1      17.079 -14.202  23.101  1.00  0.00    -0.394 OA
ATOM     29  H4  UNL     1      16.348 -14.739  22.820  1.00  0.00     0.210 HD
ENDBRANCH  18  28
ENDBRANCH  17  18
ENDBRANCH  15  17
ENDBRANCH  13  15
ENDBRANCH   1  13
BRANCH  12  30
HETATM   30  C19 UNL     1      15.000 -13.862  19.433  1.00  0.00     0.228 C 
HETATM   31  O5  UNL     1      14.603 -13.284  18.404  1.00  0.00    -0.273 OA
HETATM   32  N3  UNL     1      15.695 -13.152  20.416  1.00  0.00    -0.340 N 
HETATM   33  C20 UNL     1      15.416 -12.040  20.948  1.00  0.00     0.065 C 
ATOM     34  H3  UNL     1      16.550 -13.596  20.753  1.00  0.00     0.167 HD
BRANCH  33  35
HETATM   35  C21 UNL     1      14.254 -11.175  20.661  1.00  0.00     0.074 C 
BRANCH  35  36
HETATM   36  C22 UNL     1      13.713 -10.622  21.968  1.00  0.00     0.277 C 
BRANCH  36  37
HETATM   37  N4  UNL     1      12.284 -10.668  21.980  1.00  0.00     0.088 N 
HETATM   38  C23 UNL     1      11.778 -10.270  23.259  1.00  0.00     0.272 C 
HETATM   39  C24 UNL     1      11.192 -11.472  23.937  1.00  0.00     0.032 C 
HETATM   40  C25 UNL     1      11.516 -12.627  22.990  1.00  0.00     0.032 C 
HETATM   41  C26 UNL     1      11.734 -11.939  21.655  1.00  0.00     0.272 C 
ENDBRANCH  36  37
ENDBRANCH  35  36
ENDBRANCH  33  35
ENDBRANCH  12  30
TORSDOF 15
ENDMDL
MODEL 5
REMARK VINA RESULT: -7.630547474      3.835     10.710
REMARK  15 active torsions:
REMARK  status: ('A' for Active; 'I' for Inactive)
REMARK    1  A    between atoms: C2_2  and  O1_4 
REMARK    2  A    between atoms: O1_4  and  C4_5 
REMARK    3  A    between atoms: C4_5  and  O3_7 
REMARK    4  A    between atoms: O3_7  and  C5_8 
REMARK    5  A    between atoms: C5_8  and  C6_9 
REMARK    6  A    between atoms: C6_9  and  C7_10 
REMARK    7  A    between atoms: C7_10  and  O4_11 
REMARK    8  A    between atoms: C7_10  and  C8_13 
REMARK    9  A    between atoms: C8_13  and  N1_14 
REMARK   10  A    between atoms: N1_14  and  C9_16 
REMARK   11  A    between atoms: C9_16  and  C10_18 
REMARK   12  A    between atoms: C18_29  and  C19_30 
REMARK       I    between atoms: C19_30  and  N3_32 
REMARK   13  A    between atoms: C20_34  and  C21_35 
REMARK   14  A    between atoms: C21_35  and  C22_36 
REMARK   15  A    between atoms: C22_36  and  N4_37 
ROOT
HETATM    1  C10 UNL     1      19.302 -17.015  23.924  1.00  0.00     0.259 C 
HETATM    2  N2  UNL     1      19.013 -17.125  25.319  1.00  0.00    -0.064 N 
ATOM      3  H21 UNL     1      18.332 -17.864  25.491  1.00  0.00     0.278 HD
ATOM      4  H22 UNL     1      18.474 -16.321  25.642  1.00  0.00     0.278 HD
HETATM    5  C11 UNL     1      20.178 -17.311  26.124  1.00  0.00     0.238 C 
HETATM    6  C12 UNL     1      21.054 -16.051  26.016  1.00  0.00     0.016 C 
HETATM    7  C13 UNL     1      20.296 -15.001  26.784  1.00  0.00     0.007 C 
HETATM    8  C14 UNL     1      20.996 -13.676  26.585  1.00  0.00     0.000 C 
HETATM    9  C15 UNL     1      20.688 -13.338  25.119  1.00  0.00     0.000 C 
HETATM   10  C16 UNL     1      21.502 -14.261  24.286  1.00  0.00     0.006 C 
HETATM   11  C17 UNL     1      21.385 -15.716  24.622  1.00  0.00     0.007 C 
HETATM   12  C18 UNL     1      20.616 -16.446  23.551  1.00  0.00     0.120 C 
ENDROOT
BRANCH   1  13
HETATM   13  C9  UNL     1      18.161 -16.444  23.188  1.00  0.00     0.105 C 
HETATM   14  S1  UNL     1      17.293 -17.363  22.182  1.00  0.00    -0.063 SA
BRANCH  13  15
HETATM   15  N1  UNL     1      17.813 -15.090  23.356  1.00  0.00    -0.380 N 
ATOM     16  H1  UNL     1      17.293 -14.805  24.186  1.00  0.00     0.160 HD
BRANCH  15  17
HETATM   17  C8  UNL     1      18.181 -14.094  22.373  1.00  0.00     0.152 C 
BRANCH  17  18
HETATM   18  C7  UNL     1      16.967 -13.800  21.510  1.00  0.00     0.138 C 
BRANCH  18  19
HETATM   19  C6  UNL     1      17.067 -12.454  20.822  1.00  0.00     0.060 C 
BRANCH  19  20
HETATM   20  C5  UNL     1      15.755 -12.033  20.216  1.00  0.00     0.183 C 
BRANCH  20  21
HETATM   21  O3  UNL     1      15.148 -11.085  21.057  1.00  0.00    -0.298 OA
BRANCH  21  22
HETATM   22  C4  UNL     1      13.817 -10.855  21.218  1.00  0.00     0.406 C 
HETATM   23  O2  UNL     1      13.106 -10.635  20.227  1.00  0.00    -0.229 OA
BRANCH  22  24
HETATM   24  O1  UNL     1      13.165 -10.845  22.448  1.00  0.00    -0.293 OA
BRANCH  24  25
HETATM   25  C2  UNL     1      11.774 -11.055  22.574  1.00  0.00     0.126 C 
HETATM   26  C1  UNL     1      11.374 -10.533  23.952  1.00  0.00     0.040 C 
HETATM   27  C3  UNL     1      11.377 -12.489  22.454  1.00  0.00     0.040 C 
ENDBRANCH  24  25
ENDBRANCH  22  24
ENDBRANCH  21  22
ENDBRANCH  20  21
ENDBRANCH  19  20
ENDBRANCH  18  19
BRANCH  18  28
HETATM   28  O4  UNL     1      15.874 -13.730  22.380  1.00  0.00    -0.394 OA
ATOM     29  H4  UNL     1      15.904 -14.510  22.922  1.00  0.00     0.210 HD
ENDBRANCH  18  28
ENDBRANCH  17  18
ENDBRANCH  15  17
ENDBRANCH  13  15
ENDBRANCH   1  13
BRANCH  12  30
HETATM   30  C19 UNL     1      21.497 -17.434  22.827  1.00  0.00     0.228 C 
HETATM   31  O5  UNL     1      21.376 -17.509  21.590  1.00  0.00    -0.273 OA
HETATM   32  N3  UNL     1      22.419 -18.245  23.494  1.00  0.00    -0.340 N 
HETATM   33  C20 UNL     1      23.632 -18.471  23.221  1.00  0.00     0.065 C 
ATOM     34  H3  UNL     1      22.061 -18.724  24.321  1.00  0.00     0.167 HD
BRANCH  33  35
HETATM   35  C21 UNL     1      24.414 -17.923  22.095  1.00  0.00     0.074 C 
BRANCH  35  36
HETATM   36  C22 UNL     1      25.682 -18.743  21.926  1.00  0.00     0.277 C 
BRANCH  36  37
HETATM   37  N4  UNL     1      26.749 -18.181  22.693  1.00  0.00     0.088 N 
HETATM   38  C23 UNL     1      26.879 -16.780  22.425  1.00  0.00     0.272 C 
HETATM   39  C24 UNL     1      28.152 -16.555  21.663  1.00  0.00     0.032 C 
HETATM   40  C25 UNL     1      28.684 -17.964  21.406  1.00  0.00     0.032 C 
HETATM   41  C26 UNL     1      28.013 -18.798  22.481  1.00  0.00     0.272 C 
ENDBRANCH  36  37
ENDBRANCH  35  36
ENDBRANCH  33  35
ENDBRANCH  12  30
TORSDOF 15
ENDMDL
