MODEL 1
REMARK VINA RESULT: -7.863232022      0.000      0.000
REMARK  7 active torsions:
REMARK  status: ('A' for Active; 'I' for Inactive)
REMARK    1  A    between atoms: C1_2  and  O2_4 
REMARK    2  A    between atoms: O2_4  and  C2_5 
REMARK    3  A    between atoms: C6_9  and  N2_10 
REMARK       I    between atoms: N2_10  and  C7_12 
REMARK    4  A    between atoms: C7_12  and  C8_14 
REMARK    5  A    between atoms: C8_14  and  N3_15 
REMARK    6  A    between atoms: C8_14  and  C18_27 
REMARK       I    between atoms: N3_15  and  C9_17 
REMARK    7  A    between atoms: C9_17  and  C10_19 
ROOT
HETATM    1  C8  UNL     1      -0.766   2.962  24.571  1.00  0.00     0.180 C 
ENDROOT
BRANCH   1   2
HETATM    2  C7  UNL     1      -0.941   3.631  23.302  1.00  0.00     0.241 C 
HETATM    3  N2  UNL     1      -2.052   4.316  22.821  1.00  0.00    -0.352 N 
ATOM      4  H2  UNL     1      -2.885   4.382  23.405  1.00  0.00     0.163 HD
HETATM    5  O3  UNL     1       0.070   3.588  22.499  1.00  0.00    -0.271 OA
BRANCH   3   6
HETATM    6  C6  UNL     1      -2.059   4.945  21.498  1.00  0.00     0.114 C 
HETATM    7  C2  UNL     1      -2.897   6.170  21.431  1.00  0.00     0.156 C 
HETATM    8  C3  UNL     1      -4.320   5.595  21.457  1.00  0.00     0.035 C 
HETATM    9  C4  UNL     1      -4.179   4.490  20.402  1.00  0.00     0.005 C 
HETATM   10  C5  UNL     1      -2.780   3.987  20.560  1.00  0.00     0.028 C 
BRANCH   7  11
HETATM   11  O2  UNL     1      -2.748   6.716  20.125  1.00  0.00    -0.299 OA
BRANCH  11  12
HETATM   12  C1  UNL     1      -2.869   8.055  19.830  1.00  0.00     0.373 C 
HETATM   13  N1  UNL     1      -1.966   8.612  18.896  1.00  0.00    -0.032 NA
HETATM   14  O1  UNL     1      -3.768   8.707  20.402  1.00  0.00    -0.242 OA
ENDBRANCH  11  12
ENDBRANCH   7  11
ENDBRANCH   3   6
ENDBRANCH   1   2
BRANCH   1  15
HETATM   15  N3  UNL     1      -0.996   3.822  25.722  1.00  0.00    -0.347 N 
HETATM   16  C9  UNL     1      -2.182   3.881  26.474  1.00  0.00     0.227 C 
HETATM   17  O4  UNL     1      -3.148   3.155  26.164  1.00  0.00    -0.273 OA
ATOM     18  H3  UNL     1      -0.231   4.433  26.008  1.00  0.00     0.163 HD
BRANCH  16  19
HETATM   19  C10 UNL     1      -2.318   4.788  27.630  1.00  0.00     0.048 A 
HETATM   20  C11 UNL     1      -3.228   5.998  27.448  1.00  0.00     0.020 C 
HETATM   21  C12 UNL     1      -4.107   6.240  28.646  1.00  0.00     0.005 C 
HETATM   22  C13 UNL     1      -3.421   7.090  29.693  1.00  0.00     0.027 C 
HETATM   23  C14 UNL     1      -1.999   7.323  29.424  1.00  0.00    -0.030 C 
HETATM   24  C15 UNL     1      -1.077   6.520  28.923  1.00  0.00    -0.025 C 
HETATM   25  C16 UNL     1      -1.153   5.114  28.461  1.00  0.00     0.027 A 
HETATM   26  C17 UNL     1      -2.163   4.181  28.989  1.00  0.00     0.029 A 
ENDBRANCH  16  19
ENDBRANCH   1  15
BRANCH   1  27
HETATM   27  C18 UNL     1       0.424   2.118  24.811  1.00  0.00     0.018 C 
HETATM   28  C19 UNL     1       1.119   2.241  26.112  1.00  0.00     0.007 C 
HETATM   29  C20 UNL     1       1.666   0.952  26.677  1.00  0.00     0.000 C 
HETATM   30  C21 UNL     1       2.331   0.099  25.628  1.00  0.00     0.000 C 
HETATM   31  C22 UNL     1       1.512  -0.004  24.364  1.00  0.00     0.000 C 
HETATM   32  C23 UNL     1       0.150   0.639  24.513  1.00  0.00     0.007 C 
ENDBRANCH   1  27
TORSDOF 7
ENDMDL
MODEL 2
REMARK VINA RESULT: -7.767167545      0.732      1.471
REMARK  7 active torsions:
REMARK  status: ('A' for Active; 'I' for Inactive)
REMARK    1  A    between atoms: C1_2  and  O2_4 
REMARK    2  A    between atoms: O2_4  and  C2_5 
REMARK    3  A    between atoms: C6_9  and  N2_10 
REMARK       I    between atoms: N2_10  and  C7_12 
REMARK    4  A    between atoms: C7_12  and  C8_14 
REMARK    5  A    between atoms: C8_14  and  N3_15 
REMARK    6  A    between atoms: C8_14  and  C18_27 
REMARK       I    between atoms: N3_15  and  C9_17 
REMARK    7  A    between atoms: C9_17  and  C10_19 
ROOT
HETATM    1  C8  UNL     1      -0.949   3.146  24.538  1.00  0.00     0.180 C 
ENDROOT
BRANCH   1   2
HETATM    2  C7  UNL     1      -1.097   3.690  23.208  1.00  0.00     0.241 C 
HETATM    3  N2  UNL     1      -2.145   4.438  22.680  1.00  0.00    -0.352 N 
ATOM      4  H2  UNL     1      -2.945   4.657  23.273  1.00  0.00     0.163 HD
HETATM    5  O3  UNL     1      -0.125   3.450  22.391  1.00  0.00    -0.271 OA
BRANCH   3   6
HETATM    6  C6  UNL     1      -2.132   4.918  21.297  1.00  0.00     0.114 C 
HETATM    7  C2  UNL     1      -2.743   6.262  21.132  1.00  0.00     0.156 C 
HETATM    8  C3  UNL     1      -4.239   5.963  21.293  1.00  0.00     0.035 C 
HETATM    9  C4  UNL     1      -4.370   4.749  20.364  1.00  0.00     0.005 C 
HETATM   10  C5  UNL     1      -3.074   4.017  20.509  1.00  0.00     0.028 C 
BRANCH   7  11
HETATM   11  O2  UNL     1      -2.590   6.634  19.767  1.00  0.00    -0.299 OA
BRANCH  11  12
HETATM   12  C1  UNL     1      -1.540   7.382  19.285  1.00  0.00     0.373 C 
HETATM   13  N1  UNL     1      -1.835   8.620  18.669  1.00  0.00    -0.032 NA
HETATM   14  O1  UNL     1      -0.382   6.929  19.416  1.00  0.00    -0.242 OA
ENDBRANCH  11  12
ENDBRANCH   7  11
ENDBRANCH   3   6
ENDBRANCH   1   2
BRANCH   1  15
HETATM   15  N3  UNL     1      -1.215   4.108  25.597  1.00  0.00    -0.347 N 
HETATM   16  C9  UNL     1      -2.307   4.068  26.481  1.00  0.00     0.227 C 
HETATM   17  O4  UNL     1      -3.146   3.150  26.388  1.00  0.00    -0.273 OA
ATOM     18  H3  UNL     1      -0.554   4.877  25.707  1.00  0.00     0.163 HD
BRANCH  16  19
HETATM   19  C10 UNL     1      -2.491   5.092  27.526  1.00  0.00     0.048 A 
HETATM   20  C11 UNL     1      -1.341   5.285  28.508  1.00  0.00     0.020 C 
HETATM   21  C12 UNL     1      -1.057   6.738  28.783  1.00  0.00     0.005 C 
HETATM   22  C13 UNL     1      -1.916   7.284  29.901  1.00  0.00     0.027 C 
HETATM   23  C14 UNL     1      -2.971   6.364  30.338  1.00  0.00    -0.030 C 
HETATM   24  C15 UNL     1      -3.734   5.539  29.641  1.00  0.00    -0.025 C 
HETATM   25  C16 UNL     1      -3.792   5.256  28.188  1.00  0.00     0.027 A 
HETATM   26  C17 UNL     1      -3.373   6.254  27.189  1.00  0.00     0.029 A 
ENDBRANCH  16  19
ENDBRANCH   1  15
BRANCH   1  27
HETATM   27  C18 UNL     1       0.241   2.341  24.886  1.00  0.00     0.018 C 
HETATM   28  C19 UNL     1       0.897   2.589  26.190  1.00  0.00     0.007 C 
HETATM   29  C20 UNL     1       1.440   1.364  26.884  1.00  0.00     0.000 C 
HETATM   30  C21 UNL     1       2.143   0.427  25.936  1.00  0.00     0.000 C 
HETATM   31  C22 UNL     1       1.362   0.201  24.664  1.00  0.00     0.000 C 
HETATM   32  C23 UNL     1      -0.010   0.838  24.716  1.00  0.00     0.007 C 
ENDBRANCH   1  27
TORSDOF 7
ENDMDL
MODEL 3
REMARK VINA RESULT: -7.573381593      1.489      1.919
REMARK  7 active torsions:
REMARK  status: ('A' for Active; 'I' for Inactive)
REMARK    1  A    between atoms: C1_2  and  O2_4 
REMARK    2  A    between atoms: O2_4  and  C2_5 
REMARK    3  A    between atoms: C6_9  and  N2_10 
REMARK       I    between atoms: N2_10  and  C7_12 
REMARK    4  A    between atoms: C7_12  and  C8_14 
REMARK    5  A    between atoms: C8_14  and  N3_15 
REMARK    6  A    between atoms: C8_14  and  C18_27 
REMARK       I    between atoms: N3_15  and  C9_17 
REMARK    7  A    between atoms: C9_17  and  C10_19 
ROOT
HETATM    1  C8  UNL     1       0.157   2.381  25.568  1.00  0.00     0.180 C 
ENDROOT
BRANCH   1   2
HETATM    2  C7  UNL     1       0.168   2.904  24.221  1.00  0.00     0.241 C 
HETATM    3  N2  UNL     1      -0.517   2.446  23.100  1.00  0.00    -0.352 N 
ATOM      4  H2  UNL     1      -1.122   1.629  23.188  1.00  0.00     0.163 HD
HETATM    5  O3  UNL     1       0.917   3.938  24.025  1.00  0.00    -0.271 OA
BRANCH   3   6
HETATM    6  C6  UNL     1      -0.394   3.103  21.797  1.00  0.00     0.114 C 
HETATM    7  C2  UNL     1      -1.614   3.848  21.393  1.00  0.00     0.156 C 
HETATM    8  C3  UNL     1      -2.583   2.715  21.027  1.00  0.00     0.035 C 
HETATM    9  C4  UNL     1      -1.667   1.857  20.144  1.00  0.00     0.005 C 
HETATM   10  C5  UNL     1      -0.309   1.998  20.753  1.00  0.00     0.028 C 
BRANCH   7  11
HETATM   11  O2  UNL     1      -1.328   4.496  20.160  1.00  0.00    -0.299 OA
BRANCH  11  12
HETATM   12  C1  UNL     1      -1.692   5.791  19.866  1.00  0.00     0.373 C 
HETATM   13  N1  UNL     1      -0.665   6.747  19.695  1.00  0.00    -0.032 NA
HETATM   14  O1  UNL     1      -2.910   6.054  19.766  1.00  0.00    -0.242 OA
ENDBRANCH  11  12
ENDBRANCH   7  11
ENDBRANCH   3   6
ENDBRANCH   1   2
BRANCH   1  15
HETATM   15  N3  UNL     1      -0.269   3.347  26.568  1.00  0.00    -0.347 N 
HETATM   16  C9  UNL     1      -1.603   3.678  26.868  1.00  0.00     0.227 C 
HETATM   17  O4  UNL     1      -2.532   3.123  26.249  1.00  0.00    -0.273 OA
ATOM     18  H3  UNL     1       0.460   3.826  27.096  1.00  0.00     0.163 HD
BRANCH  16  19
HETATM   19  C10 UNL     1      -1.936   4.674  27.903  1.00  0.00     0.048 A 
HETATM   20  C11 UNL     1      -2.775   5.868  27.462  1.00  0.00     0.020 C 
HETATM   21  C12 UNL     1      -3.857   6.206  28.452  1.00  0.00     0.005 C 
HETATM   22  C13 UNL     1      -3.364   7.136  29.540  1.00  0.00     0.027 C 
HETATM   23  C14 UNL     1      -1.913   7.344  29.522  1.00  0.00    -0.030 C 
HETATM   24  C15 UNL     1      -0.927   6.502  29.267  1.00  0.00    -0.025 C 
HETATM   25  C16 UNL     1      -0.939   5.064  28.910  1.00  0.00     0.027 A 
HETATM   26  C17 UNL     1      -2.045   4.178  29.311  1.00  0.00     0.029 A 
ENDBRANCH  16  19
ENDBRANCH   1  15
BRANCH   1  27
HETATM   27  C18 UNL     1       1.314   1.615  26.079  1.00  0.00     0.018 C 
HETATM   28  C19 UNL     1       1.484   1.498  27.545  1.00  0.00     0.007 C 
HETATM   29  C20 UNL     1       2.010   0.170  28.032  1.00  0.00     0.000 C 
HETATM   30  C21 UNL     1       3.131  -0.356  27.173  1.00  0.00     0.000 C 
HETATM   31  C22 UNL     1       2.831  -0.240  25.698  1.00  0.00     0.000 C 
HETATM   32  C23 UNL     1       1.414   0.225  25.439  1.00  0.00     0.007 C 
ENDBRANCH   1  27
TORSDOF 7
ENDMDL
MODEL 4
REMARK VINA RESULT: -7.358854148      1.633      2.277
REMARK  7 active torsions:
REMARK  status: ('A' for Active; 'I' for Inactive)
REMARK    1  A    between atoms: C1_2  and  O2_4 
REMARK    2  A    between atoms: O2_4  and  C2_5 
REMARK    3  A    between atoms: C6_9  and  N2_10 
REMARK       I    between atoms: N2_10  and  C7_12 
REMARK    4  A    between atoms: C7_12  and  C8_14 
REMARK    5  A    between atoms: C8_14  and  N3_15 
REMARK    6  A    between atoms: C8_14  and  C18_27 
REMARK       I    between atoms: N3_15  and  C9_17 
REMARK    7  A    between atoms: C9_17  and  C10_19 
ROOT
HETATM    1  C8  UNL     1      -0.161   2.744  25.843  1.00  0.00     0.180 C 
ENDROOT
BRANCH   1   2
HETATM    2  C7  UNL     1      -0.036   3.143  24.460  1.00  0.00     0.241 C 
HETATM    3  N2  UNL     1      -0.929   2.952  23.410  1.00  0.00    -0.352 N 
ATOM      4  H2  UNL     1      -1.808   2.466  23.590  1.00  0.00     0.163 HD
HETATM    5  O3  UNL     1       1.055   3.762  24.150  1.00  0.00    -0.271 OA
BRANCH   3   6
HETATM    6  C6  UNL     1      -0.644   3.430  22.056  1.00  0.00     0.114 C 
HETATM    7  C2  UNL     1      -1.781   4.155  21.433  1.00  0.00     0.156 C 
HETATM    8  C3  UNL     1      -2.758   3.017  21.111  1.00  0.00     0.035 C 
HETATM    9  C4  UNL     1      -1.798   2.022  20.446  1.00  0.00     0.005 C 
HETATM   10  C5  UNL     1      -0.504   2.196  21.175  1.00  0.00     0.028 C 
BRANCH   7  11
HETATM   11  O2  UNL     1      -1.340   4.628  20.166  1.00  0.00    -0.299 OA
BRANCH  11  12
HETATM   12  C1  UNL     1      -1.614   5.884  19.673  1.00  0.00     0.373 C 
HETATM   13  N1  UNL     1      -2.959   6.318  19.674  1.00  0.00    -0.032 NA
HETATM   14  O1  UNL     1      -0.661   6.574  19.251  1.00  0.00    -0.242 OA
ENDBRANCH  11  12
ENDBRANCH   7  11
ENDBRANCH   3   6
ENDBRANCH   1   2
BRANCH   1  15
HETATM   15  N3  UNL     1      -0.579   3.820  26.728  1.00  0.00    -0.347 N 
HETATM   16  C9  UNL     1      -1.900   4.073  27.138  1.00  0.00     0.227 C 
HETATM   17  O4  UNL     1      -2.825   3.340  26.734  1.00  0.00    -0.273 OA
ATOM     18  H3  UNL     1       0.147   4.444  27.080  1.00  0.00     0.163 HD
BRANCH  16  19
HETATM   19  C10 UNL     1      -2.225   5.192  28.042  1.00  0.00     0.048 A 
HETATM   20  C11 UNL     1      -1.161   5.583  29.061  1.00  0.00     0.020 C 
HETATM   21  C12 UNL     1      -0.998   7.075  29.178  1.00  0.00     0.005 C 
HETATM   22  C13 UNL     1      -1.967   7.678  30.171  1.00  0.00     0.027 C 
HETATM   23  C14 UNL     1      -2.982   6.735  30.650  1.00  0.00    -0.030 C 
HETATM   24  C15 UNL     1      -3.637   5.780  30.011  1.00  0.00    -0.025 C 
HETATM   25  C16 UNL     1      -3.577   5.330  28.601  1.00  0.00     0.027 A 
HETATM   26  C17 UNL     1      -3.161   6.237  27.518  1.00  0.00     0.029 A 
ENDBRANCH  16  19
ENDBRANCH   1  15
BRANCH   1  27
HETATM   27  C18 UNL     1       0.910   1.956  26.491  1.00  0.00     0.018 C 
HETATM   28  C19 UNL     1       0.772   1.638  27.930  1.00  0.00     0.007 C 
HETATM   29  C20 UNL     1       1.271   0.274  28.341  1.00  0.00     0.000 C 
HETATM   30  C21 UNL     1       2.581  -0.083  27.688  1.00  0.00     0.000 C 
HETATM   31  C22 UNL     1       2.593   0.231  26.211  1.00  0.00     0.000 C 
HETATM   32  C23 UNL     1       1.236   0.677  25.711  1.00  0.00     0.007 C 
ENDBRANCH   1  27
TORSDOF 7
ENDMDL
MODEL 5
REMARK VINA RESULT: -7.206884096      2.978      4.908
REMARK  7 active torsions:
REMARK  status: ('A' for Active; 'I' for Inactive)
REMARK    1  A    between atoms: C1_2  and  O2_4 
REMARK    2  A    between atoms: O2_4  and  C2_5 
REMARK    3  A    between atoms: C6_9  and  N2_10 
REMARK       I    between atoms: N2_10  and  C7_12 
REMARK    4  A    between atoms: C7_12  and  C8_14 
REMARK    5  A    between atoms: C8_14  and  N3_15 
REMARK    6  A    between atoms: C8_14  and  C18_27 
REMARK       I    between atoms: N3_15  and  C9_17 
REMARK    7  A    between atoms: C9_17  and  C10_19 
ROOT
HETATM    1  C8  UNL     1      -1.069   1.204  21.160  1.00  0.00     0.180 C 
ENDROOT
BRANCH   1   2
HETATM    2  C7  UNL     1      -1.433   2.501  20.636  1.00  0.00     0.241 C 
HETATM    3  N2  UNL     1      -2.570   3.260  20.893  1.00  0.00    -0.352 N 
ATOM      4  H2  UNL     1      -3.276   2.894  21.531  1.00  0.00     0.163 HD
HETATM    5  O3  UNL     1      -0.590   3.031  19.813  1.00  0.00    -0.271 OA
BRANCH   3   6
HETATM    6  C6  UNL     1      -2.781   4.570  20.273  1.00  0.00     0.114 C 
HETATM    7  C2  UNL     1      -2.276   5.700  21.093  1.00  0.00     0.156 C 
HETATM    8  C3  UNL     1      -3.311   5.773  22.224  1.00  0.00     0.035 C 
HETATM    9  C4  UNL     1      -4.606   5.710  21.403  1.00  0.00     0.005 C 
HETATM   10  C5  UNL     1      -4.285   4.809  20.253  1.00  0.00     0.028 C 
BRANCH   7  11
HETATM   11  O2  UNL     1      -2.471   6.892  20.341  1.00  0.00    -0.299 OA
BRANCH  11  12
HETATM   12  C1  UNL     1      -1.516   7.456  19.527  1.00  0.00     0.373 C 
HETATM   13  N1  UNL     1      -1.890   8.567  18.737  1.00  0.00    -0.032 NA
HETATM   14  O1  UNL     1      -0.369   6.959  19.529  1.00  0.00    -0.242 OA
ENDBRANCH  11  12
ENDBRANCH   7  11
ENDBRANCH   3   6
ENDBRANCH   1   2
BRANCH   1  15
HETATM   15  N3  UNL     1      -0.270   1.267  22.374  1.00  0.00    -0.347 N 
HETATM   16  C9  UNL     1      -0.729   1.691  23.633  1.00  0.00     0.227 C 
HETATM   17  O4  UNL     1      -1.914   2.056  23.769  1.00  0.00    -0.273 OA
ATOM     18  H3  UNL     1       0.707   0.978  22.306  1.00  0.00     0.163 HD
BRANCH  16  19
HETATM   19  C10 UNL     1       0.161   1.718  24.809  1.00  0.00     0.048 A 
HETATM   20  C11 UNL     1       0.611   0.370  25.360  1.00  0.00     0.020 C 
HETATM   21  C12 UNL     1       2.072   0.355  25.720  1.00  0.00     0.005 C 
HETATM   22  C13 UNL     1       2.318   0.853  27.128  1.00  0.00     0.027 C 
HETATM   23  C14 UNL     1       1.129   1.429  27.764  1.00  0.00    -0.030 C 
HETATM   24  C15 UNL     1       0.163   2.177  27.260  1.00  0.00    -0.025 C 
HETATM   25  C16 UNL     1      -0.061   2.690  25.888  1.00  0.00     0.027 A 
HETATM   26  C17 UNL     1       1.057   2.908  24.954  1.00  0.00     0.029 A 
ENDBRANCH  16  19
ENDBRANCH   1  15
BRANCH   1  27
HETATM   27  C18 UNL     1      -0.526   0.163  20.261  1.00  0.00     0.018 C 
HETATM   28  C19 UNL     1      -1.011   0.121  18.863  1.00  0.00     0.007 C 
HETATM   29  C20 UNL     1       0.026  -0.247  17.830  1.00  0.00     0.000 C 
HETATM   30  C21 UNL     1       0.909  -1.383  18.278  1.00  0.00     0.000 C 
HETATM   31  C22 UNL     1       1.392  -1.212  19.698  1.00  0.00     0.000 C 
HETATM   32  C23 UNL     1       1.007   0.134  20.274  1.00  0.00     0.007 C 
ENDBRANCH   1  27
TORSDOF 7
ENDMDL
