MODEL 1
REMARK VINA RESULT: -5.491013890      0.000      0.000
REMARK  7 active torsions:
REMARK  status: ('A' for Active; 'I' for Inactive)
REMARK    1  A    between atoms: N1_2  and  C4_5 
REMARK    2  A    between atoms: C4_5  and  C5_6 
REMARK    3  A    between atoms: C5_6  and  C6_7 
REMARK    4  A    between atoms: C7_10  and  C8_11 
REMARK    5  A    between atoms: C8_11  and  O1_12 
REMARK    6  A    between atoms: C10_15  and  O2_16 
REMARK    7  A    between atoms: C11_18  and  O3_19 
ROOT
HETATM    1  C6  UNL     1      43.829  -3.561  28.814  1.00  0.00     0.110 C 
HETATM    2  N2  UNL     1      43.637  -4.050  27.498  1.00  0.00    -0.408 N 
ATOM      3  H2  UNL     1      43.633  -5.049  27.294  1.00  0.00     0.154 HD
HETATM    4  C7  UNL     1      43.452  -3.084  26.481  1.00  0.00     0.103 C 
HETATM    5  C9  UNL     1      43.952  -1.720  26.753  1.00  0.00     0.061 C 
HETATM    6  C10 UNL     1      43.749  -1.224  28.142  1.00  0.00     0.150 C 
HETATM    7  C11 UNL     1      43.112  -2.242  29.022  1.00  0.00     0.169 C 
ENDROOT
BRANCH   1   8
HETATM    8  C5  UNL     1      43.379  -4.496  29.899  1.00  0.00     0.055 C 
BRANCH   8   9
HETATM    9  C4  UNL     1      42.523  -5.624  29.395  1.00  0.00     0.238 C 
BRANCH   9  10
HETATM   10  N1  UNL     1      42.028  -6.400  30.485  1.00  0.00    -0.079 N 
HETATM   11  C1  UNL     1      42.061  -5.715  31.758  1.00  0.00     0.271 C 
HETATM   12  C2  UNL     1      40.621  -6.775  30.265  1.00  0.00     0.271 C 
HETATM   13  C3  UNL     1      42.739  -7.664  30.654  1.00  0.00     0.271 C 
ENDBRANCH   9  10
ENDBRANCH   8   9
ENDBRANCH   1   8
BRANCH   7  14
HETATM   14  O3  UNL     1      41.764  -2.447  28.766  1.00  0.00    -0.391 OA
ATOM     15  H3  UNL     1      41.380  -1.608  28.541  1.00  0.00     0.210 HD
ENDBRANCH   7  14
BRANCH   4  16
HETATM   16  C8  UNL     1      44.161  -3.597  25.219  1.00  0.00     0.189 C 
BRANCH  16  17
HETATM   17  O1  UNL     1      44.533  -4.923  25.435  1.00  0.00    -0.399 OA
ATOM     18  H1  UNL     1      44.971  -5.241  24.654  1.00  0.00     0.209 HD
ENDBRANCH  16  17
ENDBRANCH   4  16
BRANCH   6  19
HETATM   19  O2  UNL     1      44.978  -0.855  28.689  1.00  0.00    -0.393 OA
ATOM     20  H2  UNL     1      45.211   0.015  28.386  1.00  0.00     0.210 HD
ENDBRANCH   6  19
TORSDOF 7
ENDMDL
MODEL 2
REMARK VINA RESULT: -5.144628379      2.884      4.026
REMARK  7 active torsions:
REMARK  status: ('A' for Active; 'I' for Inactive)
REMARK    1  A    between atoms: N1_2  and  C4_5 
REMARK    2  A    between atoms: C4_5  and  C5_6 
REMARK    3  A    between atoms: C5_6  and  C6_7 
REMARK    4  A    between atoms: C7_10  and  C8_11 
REMARK    5  A    between atoms: C8_11  and  O1_12 
REMARK    6  A    between atoms: C10_15  and  O2_16 
REMARK    7  A    between atoms: C11_18  and  O3_19 
ROOT
HETATM    1  C6  UNL     1      43.434  -2.193  29.197  1.00  0.00     0.110 C 
HETATM    2  N2  UNL     1      44.289  -1.960  28.091  1.00  0.00    -0.408 N 
ATOM      3  H2  UNL     1      44.915  -1.156  28.058  1.00  0.00     0.154 HD
HETATM    4  C7  UNL     1      44.231  -2.900  27.035  1.00  0.00     0.103 C 
HETATM    5  C9  UNL     1      43.002  -3.715  26.928  1.00  0.00     0.061 C 
HETATM    6  C10 UNL     1      42.421  -4.176  28.220  1.00  0.00     0.150 C 
HETATM    7  C11 UNL     1      43.180  -3.673  29.397  1.00  0.00     0.169 C 
ENDROOT
BRANCH   1   8
HETATM    8  C5  UNL     1      43.937  -1.640  30.501  1.00  0.00     0.055 C 
BRANCH   8   9
HETATM    9  C4  UNL     1      42.853  -1.027  31.343  1.00  0.00     0.238 C 
BRANCH   9  10
HETATM   10  N1  UNL     1      43.190  -1.112  32.727  1.00  0.00    -0.079 N 
HETATM   11  C1  UNL     1      44.578  -0.826  33.014  1.00  0.00     0.271 C 
HETATM   12  C2  UNL     1      42.407  -0.147  33.516  1.00  0.00     0.271 C 
HETATM   13  C3  UNL     1      42.887  -2.417  33.308  1.00  0.00     0.271 C 
ENDBRANCH   9  10
ENDBRANCH   8   9
ENDBRANCH   1   8
BRANCH   7  14
HETATM   14  O3  UNL     1      44.407  -4.292  29.586  1.00  0.00    -0.391 OA
ATOM     15  H3  UNL     1      44.287  -5.223  29.444  1.00  0.00     0.210 HD
ENDBRANCH   7  14
BRANCH   4  16
HETATM   16  C8  UNL     1      44.394  -2.129  25.718  1.00  0.00     0.189 C 
BRANCH  16  17
HETATM   17  O1  UNL     1      44.640  -3.048  24.699  1.00  0.00    -0.399 OA
ATOM     18  H1  UNL     1      44.702  -3.913  25.086  1.00  0.00     0.209 HD
ENDBRANCH  16  17
ENDBRANCH   4  16
BRANCH   6  19
HETATM   19  O2  UNL     1      41.097  -3.747  28.314  1.00  0.00    -0.393 OA
ATOM     20  H2  UNL     1      40.899  -3.526  29.216  1.00  0.00     0.210 HD
ENDBRANCH   6  19
TORSDOF 7
ENDMDL
MODEL 3
REMARK VINA RESULT: -4.873013874      3.330      4.480
REMARK  7 active torsions:
REMARK  status: ('A' for Active; 'I' for Inactive)
REMARK    1  A    between atoms: N1_2  and  C4_5 
REMARK    2  A    between atoms: C4_5  and  C5_6 
REMARK    3  A    between atoms: C5_6  and  C6_7 
REMARK    4  A    between atoms: C7_10  and  C8_11 
REMARK    5  A    between atoms: C8_11  and  O1_12 
REMARK    6  A    between atoms: C10_15  and  O2_16 
REMARK    7  A    between atoms: C11_18  and  O3_19 
ROOT
HETATM    1  C6  UNL     1      42.473  -1.430  29.414  1.00  0.00     0.110 C 
HETATM    2  N2  UNL     1      43.114  -0.880  28.277  1.00  0.00    -0.408 N 
ATOM      3  H2  UNL     1      42.837   0.023  27.891  1.00  0.00     0.154 HD
HETATM    4  C7  UNL     1      44.158  -1.644  27.703  1.00  0.00     0.103 C 
HETATM    5  C9  UNL     1      44.163  -3.094  27.991  1.00  0.00     0.061 C 
HETATM    6  C10 UNL     1      43.786  -3.477  29.380  1.00  0.00     0.150 C 
HETATM    7  C11 UNL     1      43.420  -2.300  30.215  1.00  0.00     0.169 C 
ENDROOT
BRANCH   1   8
HETATM    8  C5  UNL     1      41.888  -0.414  30.354  1.00  0.00     0.055 C 
BRANCH   8   9
HETATM    9  C4  UNL     1      40.386  -0.406  30.361  1.00  0.00     0.238 C 
BRANCH   9  10
HETATM   10  N1  UNL     1      39.895  -0.294  31.696  1.00  0.00    -0.079 N 
HETATM   11  C1  UNL     1      40.931  -0.165  32.697  1.00  0.00     0.271 C 
HETATM   12  C2  UNL     1      39.043   0.899  31.842  1.00  0.00     0.271 C 
HETATM   13  C3  UNL     1      39.050  -1.418  32.090  1.00  0.00     0.271 C 
ENDBRANCH   9  10
ENDBRANCH   8   9
ENDBRANCH   1   8
BRANCH   7  14
HETATM   14  O3  UNL     1      44.500  -1.515  30.592  1.00  0.00    -0.391 OA
ATOM     15  H3  UNL     1      45.292  -2.009  30.416  1.00  0.00     0.210 HD
ENDBRANCH   7  14
BRANCH   4  16
HETATM   16  C8  UNL     1      44.076  -1.472  26.180  1.00  0.00     0.189 C 
BRANCH  16  17
HETATM   17  O1  UNL     1      44.860  -2.459  25.585  1.00  0.00    -0.399 OA
ATOM     18  H1  UNL     1      45.022  -2.208  24.683  1.00  0.00     0.209 HD
ENDBRANCH  16  17
ENDBRANCH   4  16
BRANCH   6  19
HETATM   19  O2  UNL     1      42.708  -4.362  29.343  1.00  0.00    -0.393 OA
ATOM     20  H2  UNL     1      42.396  -4.519  30.226  1.00  0.00     0.210 HD
ENDBRANCH   6  19
TORSDOF 7
ENDMDL
MODEL 4
REMARK VINA RESULT: -4.869407423      2.723      3.558
REMARK  7 active torsions:
REMARK  status: ('A' for Active; 'I' for Inactive)
REMARK    1  A    between atoms: N1_2  and  C4_5 
REMARK    2  A    between atoms: C4_5  and  C5_6 
REMARK    3  A    between atoms: C5_6  and  C6_7 
REMARK    4  A    between atoms: C7_10  and  C8_11 
REMARK    5  A    between atoms: C8_11  and  O1_12 
REMARK    6  A    between atoms: C10_15  and  O2_16 
REMARK    7  A    between atoms: C11_18  and  O3_19 
ROOT
HETATM    1  C6  UNL     1      43.932  -2.262  29.647  1.00  0.00     0.110 C 
HETATM    2  N2  UNL     1      43.599  -3.221  28.660  1.00  0.00    -0.408 N 
ATOM      3  H2  UNL     1      43.417  -4.195  28.900  1.00  0.00     0.154 HD
HETATM    4  C7  UNL     1      43.531  -2.761  27.323  1.00  0.00     0.103 C 
HETATM    5  C9  UNL     1      44.266  -1.519  27.004  1.00  0.00     0.061 C 
HETATM    6  C10 UNL     1      44.216  -0.454  28.044  1.00  0.00     0.150 C 
HETATM    7  C11 UNL     1      43.458  -0.878  29.254  1.00  0.00     0.169 C 
ENDROOT
BRANCH   1   8
HETATM    8  C5  UNL     1      43.383  -2.556  31.014  1.00  0.00     0.055 C 
BRANCH   8   9
HETATM    9  C4  UNL     1      43.752  -1.520  32.038  1.00  0.00     0.238 C 
BRANCH   9  10
HETATM   10  N1  UNL     1      42.760  -1.456  33.061  1.00  0.00    -0.079 N 
HETATM   11  C1  UNL     1      42.382  -2.745  33.598  1.00  0.00     0.271 C 
HETATM   12  C2  UNL     1      43.241  -0.667  34.208  1.00  0.00     0.271 C 
HETATM   13  C3  UNL     1      41.534  -0.792  32.627  1.00  0.00     0.271 C 
ENDBRANCH   9  10
ENDBRANCH   8   9
ENDBRANCH   1   8
BRANCH   7  14
HETATM   14  O3  UNL     1      42.085  -0.936  29.070  1.00  0.00    -0.391 OA
ATOM     15  H3  UNL     1      41.923  -1.159  28.161  1.00  0.00     0.210 HD
ENDBRANCH   7  14
BRANCH   4  16
HETATM   16  C8  UNL     1      44.083  -3.874  26.421  1.00  0.00     0.189 C 
BRANCH  16  17
HETATM   17  O1  UNL     1      44.705  -3.280  25.324  1.00  0.00    -0.399 OA
ATOM     18  H1  UNL     1      45.489  -3.777  25.120  1.00  0.00     0.209 HD
ENDBRANCH  16  17
ENDBRANCH   4  16
BRANCH   6  19
HETATM   19  O2  UNL     1      45.514  -0.106  28.417  1.00  0.00    -0.393 OA
ATOM     20  H2  UNL     1      45.529   0.799  28.705  1.00  0.00     0.210 HD
ENDBRANCH   6  19
TORSDOF 7
ENDMDL
MODEL 5
REMARK VINA RESULT: -4.849378004      2.807      3.605
REMARK  7 active torsions:
REMARK  status: ('A' for Active; 'I' for Inactive)
REMARK    1  A    between atoms: N1_2  and  C4_5 
REMARK    2  A    between atoms: C4_5  and  C5_6 
REMARK    3  A    between atoms: C5_6  and  C6_7 
REMARK    4  A    between atoms: C7_10  and  C8_11 
REMARK    5  A    between atoms: C8_11  and  O1_12 
REMARK    6  A    between atoms: C10_15  and  O2_16 
REMARK    7  A    between atoms: C11_18  and  O3_19 
ROOT
HETATM    1  C6  UNL     1      43.902  -2.255  29.770  1.00  0.00     0.110 C 
HETATM    2  N2  UNL     1      43.568  -3.261  28.830  1.00  0.00    -0.408 N 
ATOM      3  H2  UNL     1      43.381  -4.221  29.118  1.00  0.00     0.154 HD
HETATM    4  C7  UNL     1      43.505  -2.868  27.472  1.00  0.00     0.103 C 
HETATM    5  C9  UNL     1      44.246  -1.646  27.093  1.00  0.00     0.061 C 
HETATM    6  C10 UNL     1      44.197  -0.530  28.079  1.00  0.00     0.150 C 
HETATM    7  C11 UNL     1      43.435  -0.890  29.307  1.00  0.00     0.169 C 
ENDROOT
BRANCH   1   8
HETATM    8  C5  UNL     1      43.349  -2.478  31.148  1.00  0.00     0.055 C 
BRANCH   8   9
HETATM    9  C4  UNL     1      43.776  -1.431  32.137  1.00  0.00     0.238 C 
BRANCH   9  10
HETATM   10  N1  UNL     1      42.762  -1.232  33.121  1.00  0.00    -0.079 N 
HETATM   11  C1  UNL     1      41.578  -0.568  32.621  1.00  0.00     0.271 C 
HETATM   12  C2  UNL     1      42.302  -2.520  33.667  1.00  0.00     0.271 C 
HETATM   13  C3  UNL     1      43.230  -0.471  34.276  1.00  0.00     0.271 C 
ENDBRANCH   9  10
ENDBRANCH   8   9
ENDBRANCH   1   8
BRANCH   7  14
HETATM   14  O3  UNL     1      42.062  -0.952  29.123  1.00  0.00    -0.391 OA
ATOM     15  H3  UNL     1      41.811  -1.868  29.118  1.00  0.00     0.210 HD
ENDBRANCH   7  14
BRANCH   4  16
HETATM   16  C8  UNL     1      44.055  -4.026  26.628  1.00  0.00     0.189 C 
BRANCH  16  17
HETATM   17  O1  UNL     1      44.596  -3.496  25.458  1.00  0.00    -0.399 OA
ATOM     18  H1  UNL     1      45.050  -2.691  25.677  1.00  0.00     0.209 HD
ENDBRANCH  16  17
ENDBRANCH   4  16
BRANCH   6  19
HETATM   19  O2  UNL     1      45.496  -0.169  28.438  1.00  0.00    -0.393 OA
ATOM     20  H2  UNL     1      45.501   0.728  28.748  1.00  0.00     0.210 HD
ENDBRANCH   6  19
TORSDOF 7
ENDMDL
