MODEL 1
REMARK VINA RESULT: -9.211637570      0.000      0.000
REMARK  5 active torsions:
REMARK  status: ('A' for Active; 'I' for Inactive)
REMARK    1  A    between atoms: C3_6  and  C4_7 
REMARK    2  A    between atoms: C4_7  and  N2_8 
REMARK    3  A    between atoms: C8_12  and  C9_13 
REMARK    4  A    between atoms: N3_20  and  C13_21 
REMARK    5  A    between atoms: C13_21  and  C14_22 
ROOT
HETATM    1  O1  UNL     1      -2.244   4.280   8.658  1.00  0.00    -0.247 OA
HETATM    2  C1  UNL     1      -2.902   4.175   9.725  1.00  0.00     0.316 C 
HETATM    3  N1  UNL     1      -4.315   4.306   9.778  1.00  0.00    -0.342 N 
ATOM      4  H1  UNL     1      -4.890   4.410   8.942  1.00  0.00     0.164 HD
HETATM    5  C2  UNL     1      -4.880   4.279  11.132  1.00  0.00     0.143 C 
HETATM    6  C3  UNL     1      -4.355   3.115  11.904  1.00  0.00     0.056 C 
HETATM    7  C12 UNL     1      -4.632   1.880  11.004  1.00  0.00     0.291 C 
HETATM    8  N3  UNL     1      -3.645   0.911  11.464  1.00  0.00     0.097 N 
HETATM    9  C15 UNL     1      -2.448   1.652  11.668  1.00  0.00     0.298 C 
HETATM   10  C16 UNL     1      -2.844   3.090  11.962  1.00  0.00     0.131 C 
HETATM   11  N4  UNL     1      -2.239   3.913  10.954  1.00  0.00    -0.336 N 
ATOM     12  H4  UNL     1      -1.318   4.316  11.123  1.00  0.00     0.164 HD
ENDROOT
BRANCH   6  13
HETATM   13  C4  UNL     1      -5.036   2.947  13.202  1.00  0.00     0.078 C 
BRANCH  13  14
HETATM   14  N2  UNL     1      -4.837   3.854  14.252  1.00  0.00    -0.373 N 
HETATM   15  C5  UNL     1      -5.830   4.765  14.632  1.00  0.00     0.063 C 
HETATM   16  C6  UNL     1      -6.049   4.852  16.137  1.00  0.00     0.045 C 
HETATM   17  C7  UNL     1      -6.748   3.622  16.676  1.00  0.00     0.019 C 
HETATM   18  C8  UNL     1      -5.641   2.724  17.232  1.00  0.00     0.095 C 
HETATM   19  C10 UNL     1      -4.913   2.156  16.044  1.00  0.00     0.033 C 
HETATM   20  C11 UNL     1      -4.118   3.195  15.325  1.00  0.00     0.127 C 
BRANCH  18  21
HETATM   21  C9  UNL     1      -6.247   1.664  18.107  1.00  0.00     0.391 C 
HETATM   22  F1  UNL     1      -6.362   2.126  19.400  1.00  0.00    -0.171 F 
HETATM   23  F2  UNL     1      -7.550   1.458  17.640  1.00  0.00    -0.171 F 
HETATM   24  F3  UNL     1      -5.597   0.453  18.025  1.00  0.00    -0.171 F 
ENDBRANCH  18  21
ENDBRANCH  13  14
ENDBRANCH   6  13
BRANCH   8  25
HETATM   25  C13 UNL     1      -3.445  -0.102  10.463  1.00  0.00     0.343 C 
BRANCH  25  26
HETATM   26  C14 UNL     1      -3.518  -1.496  11.030  1.00  0.00     0.381 C 
HETATM   27  F4  UNL     1      -2.303  -1.847  11.624  1.00  0.00    -0.213 F 
HETATM   28  F5  UNL     1      -4.465  -1.630  12.020  1.00  0.00    -0.213 F 
ENDBRANCH  25  26
ENDBRANCH   8  25
TORSDOF 5
ENDMDL
MODEL 2
REMARK VINA RESULT: -8.598400010      0.877      1.278
REMARK  5 active torsions:
REMARK  status: ('A' for Active; 'I' for Inactive)
REMARK    1  A    between atoms: C3_6  and  C4_7 
REMARK    2  A    between atoms: C4_7  and  N2_8 
REMARK    3  A    between atoms: C8_12  and  C9_13 
REMARK    4  A    between atoms: N3_20  and  C13_21 
REMARK    5  A    between atoms: C13_21  and  C14_22 
ROOT
HETATM    1  O1  UNL     1      -2.313   5.188   8.728  1.00  0.00    -0.247 OA
HETATM    2  C1  UNL     1      -3.062   5.021   9.724  1.00  0.00     0.316 C 
HETATM    3  N1  UNL     1      -4.439   4.693   9.610  1.00  0.00    -0.342 N 
ATOM      4  H1  UNL     1      -4.884   4.489   8.714  1.00  0.00     0.164 HD
HETATM    5  C2  UNL     1      -5.169   4.668  10.882  1.00  0.00     0.143 C 
HETATM    6  C3  UNL     1      -4.440   3.854  11.898  1.00  0.00     0.056 C 
HETATM    7  C12 UNL     1      -4.188   2.486  11.208  1.00  0.00     0.291 C 
HETATM    8  N3  UNL     1      -3.036   1.962  11.931  1.00  0.00     0.097 N 
HETATM    9  C15 UNL     1      -2.167   3.070  12.121  1.00  0.00     0.298 C 
HETATM   10  C16 UNL     1      -3.020   4.329  12.113  1.00  0.00     0.131 C 
HETATM   11  N4  UNL     1      -2.547   5.158  11.042  1.00  0.00    -0.336 N 
ATOM     12  H4  UNL     1      -1.829   5.858  11.229  1.00  0.00     0.164 HD
ENDROOT
BRANCH   6  13
HETATM   13  C4  UNL     1      -5.227   3.653  13.129  1.00  0.00     0.078 C 
BRANCH  13  14
HETATM   14  N2  UNL     1      -4.946   4.372  14.300  1.00  0.00    -0.373 N 
HETATM   15  C5  UNL     1      -5.874   5.263  14.852  1.00  0.00     0.063 C 
HETATM   16  C6  UNL     1      -6.044   5.124  16.360  1.00  0.00     0.045 C 
HETATM   17  C7  UNL     1      -6.799   3.863  16.727  1.00  0.00     0.019 C 
HETATM   18  C8  UNL     1      -5.729   2.832  17.095  1.00  0.00     0.095 C 
HETATM   19  C10 UNL     1      -5.070   2.420  15.808  1.00  0.00     0.033 C 
HETATM   20  C11 UNL     1      -4.237   3.516  15.230  1.00  0.00     0.127 C 
BRANCH  18  21
HETATM   21  C9  UNL     1      -6.371   1.681  17.817  1.00  0.00     0.391 C 
HETATM   22  F1  UNL     1      -5.502   0.612  17.871  1.00  0.00    -0.171 F 
HETATM   23  F2  UNL     1      -6.569   2.100  19.138  1.00  0.00    -0.171 F 
HETATM   24  F3  UNL     1      -7.607   1.344  17.315  1.00  0.00    -0.171 F 
ENDBRANCH  18  21
ENDBRANCH  13  14
ENDBRANCH   6  13
BRANCH   8  25
HETATM   25  C13 UNL     1      -2.387   0.942  11.151  1.00  0.00     0.343 C 
BRANCH  25  26
HETATM   26  C14 UNL     1      -3.267  -0.260  10.927  1.00  0.00     0.381 C 
HETATM   27  F4  UNL     1      -3.564  -0.403   9.569  1.00  0.00    -0.213 F 
HETATM   28  F5  UNL     1      -2.672  -1.445  11.300  1.00  0.00    -0.213 F 
ENDBRANCH  25  26
ENDBRANCH   8  25
TORSDOF 5
ENDMDL
MODEL 3
REMARK VINA RESULT: -8.248385318      1.055      1.424
REMARK  5 active torsions:
REMARK  status: ('A' for Active; 'I' for Inactive)
REMARK    1  A    between atoms: C3_6  and  C4_7 
REMARK    2  A    between atoms: C4_7  and  N2_8 
REMARK    3  A    between atoms: C8_12  and  C9_13 
REMARK    4  A    between atoms: N3_20  and  C13_21 
REMARK    5  A    between atoms: C13_21  and  C14_22 
ROOT
HETATM    1  O1  UNL     1      -2.427   5.639   8.583  1.00  0.00    -0.247 OA
HETATM    2  C1  UNL     1      -3.129   5.388   9.596  1.00  0.00     0.316 C 
HETATM    3  N1  UNL     1      -4.491   4.994   9.515  1.00  0.00    -0.342 N 
ATOM      4  H1  UNL     1      -4.958   4.808   8.627  1.00  0.00     0.164 HD
HETATM    5  C2  UNL     1      -5.171   4.873  10.809  1.00  0.00     0.143 C 
HETATM    6  C3  UNL     1      -4.364   4.054  11.759  1.00  0.00     0.056 C 
HETATM    7  C12 UNL     1      -4.068   2.733  10.998  1.00  0.00     0.291 C 
HETATM    8  N3  UNL     1      -2.864   2.238  11.654  1.00  0.00     0.097 N 
HETATM    9  C15 UNL     1      -2.046   3.381  11.865  1.00  0.00     0.298 C 
HETATM   10  C16 UNL     1      -2.963   4.592  11.946  1.00  0.00     0.131 C 
HETATM   11  N4  UNL     1      -2.573   5.493  10.899  1.00  0.00    -0.336 N 
ATOM     12  H4  UNL     1      -1.884   6.220  11.094  1.00  0.00     0.164 HD
ENDROOT
BRANCH   6  13
HETATM   13  C4  UNL     1      -5.092   3.756  13.007  1.00  0.00     0.078 C 
BRANCH  13  14
HETATM   14  N2  UNL     1      -4.842   4.472  14.186  1.00  0.00    -0.373 N 
HETATM   15  C5  UNL     1      -5.793   5.347  14.727  1.00  0.00     0.063 C 
HETATM   16  C6  UNL     1      -5.988   5.198  16.230  1.00  0.00     0.045 C 
HETATM   17  C7  UNL     1      -6.730   3.924  16.577  1.00  0.00     0.019 C 
HETATM   18  C8  UNL     1      -5.654   2.905  16.959  1.00  0.00     0.095 C 
HETATM   19  C10 UNL     1      -4.966   2.510  15.681  1.00  0.00     0.033 C 
HETATM   20  C11 UNL     1      -4.137   3.621  15.124  1.00  0.00     0.127 C 
BRANCH  18  21
HETATM   21  C9  UNL     1      -6.291   1.742  17.663  1.00  0.00     0.391 C 
HETATM   22  F1  UNL     1      -7.506   1.446  17.083  1.00  0.00    -0.171 F 
HETATM   23  F2  UNL     1      -5.463   0.637  17.437  1.00  0.00    -0.171 F 
HETATM   24  F3  UNL     1      -6.373   1.908  19.027  1.00  0.00    -0.171 F 
ENDBRANCH  18  21
ENDBRANCH  13  14
ENDBRANCH   6  13
BRANCH   8  25
HETATM   25  C13 UNL     1      -2.194   1.290  10.805  1.00  0.00     0.343 C 
BRANCH  25  26
HETATM   26  C14 UNL     1      -2.804  -0.086  10.882  1.00  0.00     0.381 C 
HETATM   27  F4  UNL     1      -3.532  -0.233  12.065  1.00  0.00    -0.213 F 
HETATM   28  F5  UNL     1      -3.696  -0.341   9.865  1.00  0.00    -0.213 F 
ENDBRANCH  25  26
ENDBRANCH   8  25
TORSDOF 5
ENDMDL
MODEL 4
REMARK VINA RESULT: -8.100693476      1.216      1.565
REMARK  5 active torsions:
REMARK  status: ('A' for Active; 'I' for Inactive)
REMARK    1  A    between atoms: C3_6  and  C4_7 
REMARK    2  A    between atoms: C4_7  and  N2_8 
REMARK    3  A    between atoms: C8_12  and  C9_13 
REMARK    4  A    between atoms: N3_20  and  C13_21 
REMARK    5  A    between atoms: C13_21  and  C14_22 
ROOT
HETATM    1  O1  UNL     1      -0.778   3.384   8.345  1.00  0.00    -0.247 OA
HETATM    2  C1  UNL     1      -1.570   3.700   9.269  1.00  0.00     0.316 C 
HETATM    3  N1  UNL     1      -2.880   4.194   9.029  1.00  0.00    -0.342 N 
ATOM      4  H1  UNL     1      -3.288   4.243   8.095  1.00  0.00     0.164 HD
HETATM    5  C2  UNL     1      -3.600   4.627  10.232  1.00  0.00     0.143 C 
HETATM    6  C3  UNL     1      -3.538   3.581  11.294  1.00  0.00     0.056 C 
HETATM    7  C12 UNL     1      -4.040   2.282  10.606  1.00  0.00     0.291 C 
HETATM    8  N3  UNL     1      -3.443   1.229  11.417  1.00  0.00     0.097 N 
HETATM    9  C15 UNL     1      -2.121   1.668  11.702  1.00  0.00     0.298 C 
HETATM   10  C16 UNL     1      -2.119   3.187  11.640  1.00  0.00     0.131 C 
HETATM   11  N4  UNL     1      -1.177   3.571  10.629  1.00  0.00    -0.336 N 
ATOM     12  H4  UNL     1      -0.208   3.756  10.890  1.00  0.00     0.164 HD
ENDROOT
BRANCH   6  13
HETATM   13  C4  UNL     1      -4.400   3.897  12.448  1.00  0.00     0.078 C 
BRANCH  13  14
HETATM   14  N2  UNL     1      -3.886   4.524  13.592  1.00  0.00    -0.373 N 
HETATM   15  C5  UNL     1      -4.339   5.784  14.002  1.00  0.00     0.063 C 
HETATM   16  C6  UNL     1      -4.632   5.882  15.494  1.00  0.00     0.045 C 
HETATM   17  C7  UNL     1      -5.892   5.131  15.870  1.00  0.00     0.019 C 
HETATM   18  C8  UNL     1      -5.425   3.772  16.396  1.00  0.00     0.095 C 
HETATM   19  C10 UNL     1      -4.957   2.988  15.202  1.00  0.00     0.033 C 
HETATM   20  C11 UNL     1      -3.690   3.535  14.633  1.00  0.00     0.127 C 
BRANCH  18  21
HETATM   21  C9  UNL     1      -6.554   3.103  17.128  1.00  0.00     0.391 C 
HETATM   22  F1  UNL     1      -6.114   2.626  18.343  1.00  0.00    -0.171 F 
HETATM   23  F2  UNL     1      -7.493   4.102  17.410  1.00  0.00    -0.171 F 
HETATM   24  F3  UNL     1      -7.200   2.147  16.377  1.00  0.00    -0.171 F 
ENDBRANCH  18  21
ENDBRANCH  13  14
ENDBRANCH   6  13
BRANCH   8  25
HETATM   25  C13 UNL     1      -3.416  -0.006  10.681  1.00  0.00     0.343 C 
BRANCH  25  26
HETATM   26  C14 UNL     1      -3.411  -1.215  11.580  1.00  0.00     0.381 C 
HETATM   27  F4  UNL     1      -4.707  -1.716  11.733  1.00  0.00    -0.213 F 
HETATM   28  F5  UNL     1      -2.668  -2.260  11.079  1.00  0.00    -0.213 F 
ENDBRANCH  25  26
ENDBRANCH   8  25
TORSDOF 5
ENDMDL
MODEL 5
REMARK VINA RESULT: -7.995638128      1.495      1.918
REMARK  5 active torsions:
REMARK  status: ('A' for Active; 'I' for Inactive)
REMARK    1  A    between atoms: C3_6  and  C4_7 
REMARK    2  A    between atoms: C4_7  and  N2_8 
REMARK    3  A    between atoms: C8_12  and  C9_13 
REMARK    4  A    between atoms: N3_20  and  C13_21 
REMARK    5  A    between atoms: C13_21  and  C14_22 
ROOT
HETATM    1  O1  UNL     1      -0.691   3.333   7.877  1.00  0.00    -0.247 OA
HETATM    2  C1  UNL     1      -1.109   3.634   9.025  1.00  0.00     0.316 C 
HETATM    3  N1  UNL     1      -2.267   4.427   9.242  1.00  0.00    -0.342 N 
ATOM      4  H1  UNL     1      -2.877   4.731   8.482  1.00  0.00     0.164 HD
HETATM    5  C2  UNL     1      -2.517   4.774  10.645  1.00  0.00     0.143 C 
HETATM    6  C3  UNL     1      -2.448   3.562  11.512  1.00  0.00     0.056 C 
HETATM    7  C12 UNL     1      -3.423   2.545  10.858  1.00  0.00     0.291 C 
HETATM    8  N3  UNL     1      -2.922   1.260  11.328  1.00  0.00     0.097 N 
HETATM    9  C15 UNL     1      -1.505   1.352  11.258  1.00  0.00     0.298 C 
HETATM   10  C16 UNL     1      -1.135   2.823  11.375  1.00  0.00     0.131 C 
HETATM   11  N4  UNL     1      -0.422   3.179  10.183  1.00  0.00    -0.336 N 
ATOM     12  H4  UNL     1       0.595   3.105  10.165  1.00  0.00     0.164 HD
ENDROOT
BRANCH   6  13
HETATM   13  C4  UNL     1      -2.872   3.835  12.899  1.00  0.00     0.078 C 
BRANCH  13  14
HETATM   14  N2  UNL     1      -3.771   4.868  13.195  1.00  0.00    -0.373 N 
HETATM   15  C5  UNL     1      -5.034   4.936  12.594  1.00  0.00     0.063 C 
HETATM   16  C6  UNL     1      -6.169   5.234  13.566  1.00  0.00     0.045 C 
HETATM   17  C7  UNL     1      -6.478   4.044  14.451  1.00  0.00     0.019 C 
HETATM   18  C8  UNL     1      -5.738   4.301  15.767  1.00  0.00     0.095 C 
HETATM   19  C10 UNL     1      -4.276   4.089  15.484  1.00  0.00     0.033 C 
HETATM   20  C11 UNL     1      -3.712   5.163  14.613  1.00  0.00     0.127 C 
BRANCH  18  21
HETATM   21  C9  UNL     1      -6.267   3.378  16.828  1.00  0.00     0.391 C 
HETATM   22  F1  UNL     1      -7.020   4.087  17.738  1.00  0.00    -0.171 F 
HETATM   23  F2  UNL     1      -7.144   2.496  16.187  1.00  0.00    -0.171 F 
HETATM   24  F3  UNL     1      -5.289   2.612  17.420  1.00  0.00    -0.171 F 
ENDBRANCH  18  21
ENDBRANCH  13  14
ENDBRANCH   6  13
BRANCH   8  25
HETATM   25  C13 UNL     1      -3.400   0.203  10.478  1.00  0.00     0.343 C 
BRANCH  25  26
HETATM   26  C14 UNL     1      -3.934  -0.969  11.259  1.00  0.00     0.381 C 
HETATM   27  F4  UNL     1      -2.935  -1.927  11.449  1.00  0.00    -0.213 F 
HETATM   28  F5  UNL     1      -4.364  -0.629  12.522  1.00  0.00    -0.213 F 
ENDBRANCH  25  26
ENDBRANCH   8  25
TORSDOF 5
ENDMDL
