MODEL 1
REMARK VINA RESULT: -5.861128486      0.000      0.000
REMARK  17 active torsions:
REMARK  status: ('A' for Active; 'I' for Inactive)
REMARK    1  A    between atoms: C2_2  and  C4_4 
REMARK    2  A    between atoms: C4_4  and  C5_5 
REMARK    3  A    between atoms: C5_5  and  C6_6 
REMARK    4  A    between atoms: C5_5  and  N7_31 
REMARK    5  A    between atoms: C6_6  and  N4_17 
REMARK    6  A    between atoms: C7_7  and  C8_8 
REMARK    7  A    between atoms: C8_8  and  C9_9 
REMARK    8  A    between atoms: C9_9  and  N1_10 
REMARK       I    between atoms: N1_10  and  C10_12 
REMARK    9  A    between atoms: N4_17  and  S1_19 
REMARK   10  A    between atoms: S1_19  and  N5_22 
REMARK   11  A    between atoms: N5_22  and  C11_24 
REMARK   12  A    between atoms: C11_24  and  C12_25 
REMARK   13  A    between atoms: C12_25  and  N6_28 
REMARK   14  A    between atoms: N7_31  and  C17_32 
REMARK   15  A    between atoms: N7_31  and  S2_36 
REMARK   16  A    between atoms: C17_32  and  C18_33 
REMARK   17  A    between atoms: S2_36  and  C21_39 
ROOT
HETATM    1  C6  UNL     1      11.081  20.241   6.518  1.00  0.00     0.062 C 
HETATM    2  C7  UNL     1       9.821  20.938   6.447  1.00  0.00     0.007 C 
ENDROOT
BRANCH   1   3
HETATM    3  C5  UNL     1      12.071  20.070   7.549  1.00  0.00     0.049 C 
BRANCH   3   4
HETATM    4  C4  UNL     1      13.294  20.900   7.667  1.00  0.00     0.004 C 
BRANCH   4   5
HETATM    5  C2  UNL     1      13.463  22.313   7.768  1.00  0.00     0.002 C 
HETATM    6  C1  UNL     1      15.004  22.568   7.547  1.00  0.00     0.013 C 
HETATM    7  C3  UNL     1      13.157  23.037   9.039  1.00  0.00     0.013 C 
ENDBRANCH   4   5
ENDBRANCH   3   4
BRANCH   3   8
HETATM    8  N7  UNL     1      11.664  19.603   8.884  1.00  0.00    -0.170 NA
BRANCH   8   9
HETATM    9  C17 UNL     1      10.383  19.927   9.327  1.00  0.00     0.117 C 
BRANCH   9  10
HETATM   10  C18 UNL     1      10.275  20.587  10.676  1.00  0.00    -0.008 C 
HETATM   11  C19 UNL     1       9.044  19.948  11.382  1.00  0.00     0.011 C 
HETATM   12  C20 UNL     1       9.877  22.042  10.534  1.00  0.00     0.011 C 
ENDBRANCH   9  10
ENDBRANCH   8   9
BRANCH   8  13
HETATM   13  S2  UNL     1      11.747  17.868   8.928  1.00  0.00     0.248 S 
HETATM   14  O3  UNL     1      12.477  17.288   7.757  1.00  0.00    -0.205 OA
HETATM   15  O4  UNL     1      10.320  17.312   8.767  1.00  0.00    -0.205 OA
BRANCH  13  16
HETATM   16  C21 UNL     1      12.364  17.196  10.377  1.00  0.00     0.075 A 
HETATM   17  C22 UNL     1      11.578  17.168  11.514  1.00  0.00     0.027 A 
HETATM   18  C23 UNL     1      12.034  16.624  12.688  1.00  0.00     0.028 A 
HETATM   19  C24 UNL     1      13.287  16.100  12.729  1.00  0.00     0.046 A 
HETATM   20  N8  UNL     1      13.819  15.521  13.924  1.00  0.00    -0.102 NA
HETATM   21  C25 UNL     1      14.085  16.117  11.613  1.00  0.00     0.028 A 
HETATM   22  C26 UNL     1      13.640  16.662  10.423  1.00  0.00     0.027 A 
ENDBRANCH  13  16
ENDBRANCH   8  13
ENDBRANCH   3   8
ENDBRANCH   1   3
BRANCH   1  23
HETATM   23  N4  UNL     1      10.988  18.985   5.675  1.00  0.00    -0.267 N 
ATOM     24  H4  UNL     1      10.300  18.255   5.859  1.00  0.00     0.180 HD
BRANCH  23  25
HETATM   25  S1  UNL     1      12.088  18.882   4.427  1.00  0.00     0.319 S 
HETATM   26  O1  UNL     1      12.712  20.260   4.192  1.00  0.00    -0.183 OA
HETATM   27  O2  UNL     1      11.477  18.529   3.094  1.00  0.00    -0.183 OA
BRANCH  25  28
HETATM   28  N5  UNL     1      13.432  17.831   4.653  1.00  0.00    -0.300 N 
ATOM     29  H5  UNL     1      13.553  17.194   5.440  1.00  0.00     0.173 HD
BRANCH  28  30
HETATM   30  C11 UNL     1      14.346  17.985   3.583  1.00  0.00     0.174 C 
BRANCH  30  31
HETATM   31  C12 UNL     1      14.572  16.811   2.701  1.00  0.00     0.168 C 
HETATM   32  C13 UNL     1      13.755  15.602   3.180  1.00  0.00     0.050 C 
HETATM   33  C14 UNL     1      15.993  16.328   2.611  1.00  0.00     0.050 C 
BRANCH  31  34
HETATM   34  N6  UNL     1      14.132  17.073   1.350  1.00  0.00     0.090 N 
HETATM   35  C15 UNL     1      13.064  16.235   0.895  1.00  0.00     0.310 C 
HETATM   36  C16 UNL     1      15.204  17.230   0.431  1.00  0.00     0.310 C 
ENDBRANCH  31  34
ENDBRANCH  30  31
ENDBRANCH  28  30
ENDBRANCH  25  28
ENDBRANCH  23  25
ENDBRANCH   1  23
BRANCH   2  37
HETATM   37  C8  UNL     1       9.593  22.377   6.640  1.00  0.00     0.049 C 
BRANCH  37  38
HETATM   38  C9  UNL     1       8.147  22.578   7.188  1.00  0.00     0.126 C 
BRANCH  38  39
HETATM   39  N1  UNL     1       7.361  21.410   7.135  1.00  0.00    -0.365 N 
HETATM   40  C10 UNL     1       6.775  20.891   8.317  1.00  0.00     0.181 C 
HETATM   41  N2  UNL     1       6.513  19.633   8.409  1.00  0.00    -0.374 N 
HETATM   42  N3  UNL     1       6.439  21.687   9.454  1.00  0.00    -0.064 NA
ATOM     43  H22 UNL     1       6.753  19.064   7.597  1.00  0.00     0.158 HD
ATOM     44  H21 UNL     1       6.092  19.260   9.259  1.00  0.00     0.158 HD
ATOM     45  H1  UNL     1       7.214  20.936   6.244  1.00  0.00     0.162 HD
ENDBRANCH  38  39
ENDBRANCH  37  38
ENDBRANCH   2  37
TORSDOF 17
ENDMDL
MODEL 2
REMARK VINA RESULT: -5.858686988      1.641      2.152
REMARK  17 active torsions:
REMARK  status: ('A' for Active; 'I' for Inactive)
REMARK    1  A    between atoms: C2_2  and  C4_4 
REMARK    2  A    between atoms: C4_4  and  C5_5 
REMARK    3  A    between atoms: C5_5  and  C6_6 
REMARK    4  A    between atoms: C5_5  and  N7_31 
REMARK    5  A    between atoms: C6_6  and  N4_17 
REMARK    6  A    between atoms: C7_7  and  C8_8 
REMARK    7  A    between atoms: C8_8  and  C9_9 
REMARK    8  A    between atoms: C9_9  and  N1_10 
REMARK       I    between atoms: N1_10  and  C10_12 
REMARK    9  A    between atoms: N4_17  and  S1_19 
REMARK   10  A    between atoms: S1_19  and  N5_22 
REMARK   11  A    between atoms: N5_22  and  C11_24 
REMARK   12  A    between atoms: C11_24  and  C12_25 
REMARK   13  A    between atoms: C12_25  and  N6_28 
REMARK   14  A    between atoms: N7_31  and  C17_32 
REMARK   15  A    between atoms: N7_31  and  S2_36 
REMARK   16  A    between atoms: C17_32  and  C18_33 
REMARK   17  A    between atoms: S2_36  and  C21_39 
ROOT
HETATM    1  C6  UNL     1      10.167  20.598   7.905  1.00  0.00     0.062 C 
HETATM    2  C7  UNL     1       8.763  20.845   7.696  1.00  0.00     0.007 C 
ENDROOT
BRANCH   1   3
HETATM    3  C5  UNL     1      11.015  20.573   9.068  1.00  0.00     0.049 C 
BRANCH   3   4
HETATM    4  C4  UNL     1      11.629  21.781   9.670  1.00  0.00     0.004 C 
BRANCH   4   5
HETATM    5  C2  UNL     1      11.053  22.856  10.410  1.00  0.00     0.002 C 
HETATM    6  C1  UNL     1      10.947  24.057   9.392  1.00  0.00     0.013 C 
HETATM    7  C3  UNL     1      11.758  23.445  11.588  1.00  0.00     0.013 C 
ENDBRANCH   4   5
ENDBRANCH   3   4
BRANCH   3   8
HETATM    8  N7  UNL     1      10.792  19.562  10.115  1.00  0.00    -0.170 NA
BRANCH   8   9
HETATM    9  C17 UNL     1       9.480  19.174  10.377  1.00  0.00     0.117 C 
BRANCH   9  10
HETATM   10  C18 UNL     1       8.896  19.596  11.700  1.00  0.00    -0.008 C 
HETATM   11  C19 UNL     1       8.033  20.859  11.418  1.00  0.00     0.011 C 
HETATM   12  C20 UNL     1       9.979  20.115  12.625  1.00  0.00     0.011 C 
ENDBRANCH   9  10
ENDBRANCH   8   9
BRANCH   8  13
HETATM   13  S2  UNL     1      11.633  18.104   9.684  1.00  0.00     0.248 S 
HETATM   14  O3  UNL     1      12.643  18.311   8.599  1.00  0.00    -0.205 OA
HETATM   15  O4  UNL     1      10.621  17.134   9.045  1.00  0.00    -0.205 OA
BRANCH  13  16
HETATM   16  C21 UNL     1      12.355  17.258  10.984  1.00  0.00     0.075 A 
HETATM   17  C22 UNL     1      11.656  17.080  12.165  1.00  0.00     0.027 A 
HETATM   18  C23 UNL     1      12.198  16.394  13.222  1.00  0.00     0.028 A 
HETATM   19  C24 UNL     1      13.450  15.879  13.103  1.00  0.00     0.046 A 
HETATM   20  N8  UNL     1      14.068  15.157  14.171  1.00  0.00    -0.102 NA
HETATM   21  C25 UNL     1      14.161  16.043  11.942  1.00  0.00     0.028 A 
HETATM   22  C26 UNL     1      13.630  16.732  10.867  1.00  0.00     0.027 A 
ENDBRANCH  13  16
ENDBRANCH   8  13
ENDBRANCH   3   8
ENDBRANCH   1   3
BRANCH   1  23
HETATM   23  N4  UNL     1      10.630  19.559   6.904  1.00  0.00    -0.267 N 
ATOM     24  H4  UNL     1      10.337  18.583   6.956  1.00  0.00     0.180 HD
BRANCH  23  25
HETATM   25  S1  UNL     1      11.649  20.122   5.711  1.00  0.00     0.319 S 
HETATM   26  O1  UNL     1      12.066  21.557   6.044  1.00  0.00    -0.183 OA
HETATM   27  O2  UNL     1      11.005  20.237   4.352  1.00  0.00    -0.183 OA
BRANCH  25  28
HETATM   28  N5  UNL     1      13.134  19.282   5.489  1.00  0.00    -0.300 N 
ATOM     29  H5  UNL     1      13.896  19.248   6.166  1.00  0.00     0.173 HD
BRANCH  28  30
HETATM   30  C11 UNL     1      13.140  18.645   4.225  1.00  0.00     0.174 C 
BRANCH  30  31
HETATM   31  C12 UNL     1      12.835  17.191   4.189  1.00  0.00     0.168 C 
HETATM   32  C13 UNL     1      11.582  16.916   3.344  1.00  0.00     0.050 C 
HETATM   33  C14 UNL     1      12.571  16.548   5.522  1.00  0.00     0.050 C 
BRANCH  31  34
HETATM   34  N6  UNL     1      13.902  16.443   3.567  1.00  0.00     0.090 N 
HETATM   35  C15 UNL     1      14.928  17.246   2.972  1.00  0.00     0.310 C 
HETATM   36  C16 UNL     1      13.439  15.368   2.760  1.00  0.00     0.310 C 
ENDBRANCH  31  34
ENDBRANCH  30  31
ENDBRANCH  28  30
ENDBRANCH  25  28
ENDBRANCH  23  25
ENDBRANCH   1  23
BRANCH   2  37
HETATM   37  C8  UNL     1       8.019  22.069   8.029  1.00  0.00     0.049 C 
BRANCH  37  38
HETATM   38  C9  UNL     1       6.494  21.743   8.001  1.00  0.00     0.126 C 
BRANCH  38  39
HETATM   39  N1  UNL     1       6.218  20.376   7.807  1.00  0.00    -0.365 N 
HETATM   40  C10 UNL     1       5.610  19.619   8.839  1.00  0.00     0.181 C 
HETATM   41  N2  UNL     1       5.807  18.348   8.910  1.00  0.00    -0.374 N 
HETATM   42  N3  UNL     1       4.762  20.179   9.843  1.00  0.00    -0.064 NA
ATOM     43  H22 UNL     1       6.412  17.947   8.193  1.00  0.00     0.158 HD
ATOM     44  H21 UNL     1       5.369  17.803   9.653  1.00  0.00     0.158 HD
ATOM     45  H1  UNL     1       6.457  19.929   6.922  1.00  0.00     0.162 HD
ENDBRANCH  38  39
ENDBRANCH  37  38
ENDBRANCH   2  37
TORSDOF 17
ENDMDL
MODEL 3
REMARK VINA RESULT: -5.842100275      1.761      2.953
REMARK  17 active torsions:
REMARK  status: ('A' for Active; 'I' for Inactive)
REMARK    1  A    between atoms: C2_2  and  C4_4 
REMARK    2  A    between atoms: C4_4  and  C5_5 
REMARK    3  A    between atoms: C5_5  and  C6_6 
REMARK    4  A    between atoms: C5_5  and  N7_31 
REMARK    5  A    between atoms: C6_6  and  N4_17 
REMARK    6  A    between atoms: C7_7  and  C8_8 
REMARK    7  A    between atoms: C8_8  and  C9_9 
REMARK    8  A    between atoms: C9_9  and  N1_10 
REMARK       I    between atoms: N1_10  and  C10_12 
REMARK    9  A    between atoms: N4_17  and  S1_19 
REMARK   10  A    between atoms: S1_19  and  N5_22 
REMARK   11  A    between atoms: N5_22  and  C11_24 
REMARK   12  A    between atoms: C11_24  and  C12_25 
REMARK   13  A    between atoms: C12_25  and  N6_28 
REMARK   14  A    between atoms: N7_31  and  C17_32 
REMARK   15  A    between atoms: N7_31  and  S2_36 
REMARK   16  A    between atoms: C17_32  and  C18_33 
REMARK   17  A    between atoms: S2_36  and  C21_39 
ROOT
HETATM    1  C6  UNL     1      11.405  20.300   6.193  1.00  0.00     0.062 C 
HETATM    2  C7  UNL     1      10.482  21.374   5.924  1.00  0.00     0.007 C 
ENDROOT
BRANCH   1   3
HETATM    3  C5  UNL     1      12.372  20.051   7.230  1.00  0.00     0.049 C 
BRANCH   3   4
HETATM    4  C4  UNL     1      13.695  20.718   7.305  1.00  0.00     0.004 C 
BRANCH   4   5
HETATM    5  C2  UNL     1      14.045  22.098   7.403  1.00  0.00     0.002 C 
HETATM    6  C1  UNL     1      15.622  22.127   7.446  1.00  0.00     0.013 C 
HETATM    7  C3  UNL     1      13.638  22.914   8.586  1.00  0.00     0.013 C 
ENDBRANCH   4   5
ENDBRANCH   3   4
BRANCH   3   8
HETATM    8  N7  UNL     1      11.918  19.708   8.588  1.00  0.00    -0.170 NA
BRANCH   8   9
HETATM    9  C17 UNL     1      10.677  20.187   9.001  1.00  0.00     0.117 C 
BRANCH   9  10
HETATM   10  C18 UNL     1      10.678  21.240  10.079  1.00  0.00    -0.008 C 
HETATM   11  C19 UNL     1       9.715  20.733  11.191  1.00  0.00     0.011 C 
HETATM   12  C20 UNL     1      10.009  22.509   9.592  1.00  0.00     0.011 C 
ENDBRANCH   9  10
ENDBRANCH   8   9
BRANCH   8  13
HETATM   13  S2  UNL     1      11.822  17.979   8.734  1.00  0.00     0.248 S 
HETATM   14  O3  UNL     1      12.527  17.259   7.626  1.00  0.00    -0.205 OA
HETATM   15  O4  UNL     1      10.352  17.560   8.549  1.00  0.00    -0.205 OA
BRANCH  13  16
HETATM   16  C21 UNL     1      12.321  17.338  10.240  1.00  0.00     0.075 A 
HETATM   17  C22 UNL     1      11.456  17.361  11.320  1.00  0.00     0.027 A 
HETATM   18  C23 UNL     1      11.816  16.842  12.538  1.00  0.00     0.028 A 
HETATM   19  C24 UNL     1      13.051  16.294  12.683  1.00  0.00     0.046 A 
HETATM   20  N8  UNL     1      13.484  15.740  13.928  1.00  0.00    -0.102 NA
HETATM   21  C25 UNL     1      13.925  16.260  11.626  1.00  0.00     0.028 A 
HETATM   22  C26 UNL     1      13.578  16.779  10.392  1.00  0.00     0.027 A 
ENDBRANCH  13  16
ENDBRANCH   8  13
ENDBRANCH   3   8
ENDBRANCH   1   3
BRANCH   1  23
HETATM   23  N4  UNL     1      10.774  18.996   5.749  1.00  0.00    -0.267 N 
ATOM     24  H4  UNL     1       9.953  18.602   6.210  1.00  0.00     0.180 HD
BRANCH  23  25
HETATM   25  S1  UNL     1      11.515  18.250   4.455  1.00  0.00     0.319 S 
HETATM   26  O1  UNL     1      11.452  19.177   3.238  1.00  0.00    -0.183 OA
HETATM   27  O2  UNL     1      10.824  16.993   3.989  1.00  0.00    -0.183 OA
BRANCH  25  28
HETATM   28  N5  UNL     1      13.185  17.869   4.622  1.00  0.00    -0.300 N 
ATOM     29  H5  UNL     1      13.651  17.650   5.502  1.00  0.00     0.173 HD
BRANCH  28  30
HETATM   30  C11 UNL     1      13.814  17.907   3.354  1.00  0.00     0.174 C 
BRANCH  30  31
HETATM   31  C12 UNL     1      14.253  16.614   2.769  1.00  0.00     0.168 C 
HETATM   32  C13 UNL     1      13.810  15.436   3.650  1.00  0.00     0.050 C 
HETATM   33  C14 UNL     1      15.737  16.449   2.593  1.00  0.00     0.050 C 
BRANCH  31  34
HETATM   34  N6  UNL     1      13.650  16.388   1.476  1.00  0.00     0.090 N 
HETATM   35  C15 UNL     1      13.286  17.579   0.769  1.00  0.00     0.310 C 
HETATM   36  C16 UNL     1      12.656  15.371   1.490  1.00  0.00     0.310 C 
ENDBRANCH  31  34
ENDBRANCH  30  31
ENDBRANCH  28  30
ENDBRANCH  25  28
ENDBRANCH  23  25
ENDBRANCH   1  23
BRANCH   2  37
HETATM   37  C8  UNL     1      10.811  22.788   5.693  1.00  0.00     0.049 C 
BRANCH  37  38
HETATM   38  C9  UNL     1      12.101  22.859   4.820  1.00  0.00     0.126 C 
BRANCH  38  39
HETATM   39  N1  UNL     1      12.045  22.045   3.672  1.00  0.00    -0.365 N 
HETATM   40  C10 UNL     1      13.240  21.635   3.030  1.00  0.00     0.181 C 
HETATM   41  N2  UNL     1      13.235  21.358   1.773  1.00  0.00    -0.374 N 
HETATM   42  N3  UNL     1      14.495  21.499   3.698  1.00  0.00    -0.064 NA
ATOM     43  H22 UNL     1      12.339  21.455   1.295  1.00  0.00     0.158 HD
ATOM     44  H21 UNL     1      14.096  21.063   1.311  1.00  0.00     0.158 HD
ATOM     45  H1  UNL     1      11.142  21.749   3.301  1.00  0.00     0.162 HD
ENDBRANCH  38  39
ENDBRANCH  37  38
ENDBRANCH   2  37
TORSDOF 17
ENDMDL
MODEL 4
REMARK VINA RESULT: -5.761306790      3.147      5.762
REMARK  17 active torsions:
REMARK  status: ('A' for Active; 'I' for Inactive)
REMARK    1  A    between atoms: C2_2  and  C4_4 
REMARK    2  A    between atoms: C4_4  and  C5_5 
REMARK    3  A    between atoms: C5_5  and  C6_6 
REMARK    4  A    between atoms: C5_5  and  N7_31 
REMARK    5  A    between atoms: C6_6  and  N4_17 
REMARK    6  A    between atoms: C7_7  and  C8_8 
REMARK    7  A    between atoms: C8_8  and  C9_9 
REMARK    8  A    between atoms: C9_9  and  N1_10 
REMARK       I    between atoms: N1_10  and  C10_12 
REMARK    9  A    between atoms: N4_17  and  S1_19 
REMARK   10  A    between atoms: S1_19  and  N5_22 
REMARK   11  A    between atoms: N5_22  and  C11_24 
REMARK   12  A    between atoms: C11_24  and  C12_25 
REMARK   13  A    between atoms: C12_25  and  N6_28 
REMARK   14  A    between atoms: N7_31  and  C17_32 
REMARK   15  A    between atoms: N7_31  and  S2_36 
REMARK   16  A    between atoms: C17_32  and  C18_33 
REMARK   17  A    between atoms: S2_36  and  C21_39 
ROOT
HETATM    1  C6  UNL     1      10.007  20.315   8.898  1.00  0.00     0.062 C 
HETATM    2  C7  UNL     1      10.647  21.563   8.564  1.00  0.00     0.007 C 
ENDROOT
BRANCH   1   3
HETATM    3  C5  UNL     1       8.963  19.943   9.816  1.00  0.00     0.049 C 
BRANCH   3   4
HETATM    4  C4  UNL     1       7.653  19.388   9.398  1.00  0.00     0.004 C 
BRANCH   4   5
HETATM    5  C2  UNL     1       6.352  19.523   9.967  1.00  0.00     0.002 C 
HETATM    6  C1  UNL     1       5.424  18.565   9.124  1.00  0.00     0.013 C 
HETATM    7  C3  UNL     1       5.633  20.832   9.944  1.00  0.00     0.013 C 
ENDBRANCH   4   5
ENDBRANCH   3   4
BRANCH   3   8
HETATM    8  N7  UNL     1       9.312  19.426  11.150  1.00  0.00    -0.170 NA
BRANCH   8   9
HETATM    9  C17 UNL     1      10.599  18.928  11.340  1.00  0.00     0.117 C 
BRANCH   9  10
HETATM   10  C18 UNL     1      10.734  17.437  11.508  1.00  0.00    -0.008 C 
HETATM   11  C19 UNL     1      12.245  17.156  11.752  1.00  0.00     0.011 C 
HETATM   12  C20 UNL     1      10.454  16.721  10.202  1.00  0.00     0.011 C 
ENDBRANCH   9  10
ENDBRANCH   8   9
BRANCH   8  13
HETATM   13  S2  UNL     1       9.128  20.700  12.318  1.00  0.00     0.248 S 
HETATM   14  O3  UNL     1       8.722  22.003  11.702  1.00  0.00    -0.205 OA
HETATM   15  O4  UNL     1      10.512  21.008  12.918  1.00  0.00    -0.205 OA
BRANCH  13  16
HETATM   16  C21 UNL     1       8.097  20.346  13.637  1.00  0.00     0.075 A 
HETATM   17  C22 UNL     1       8.638  19.961  14.851  1.00  0.00     0.027 A 
HETATM   18  C23 UNL     1       7.843  19.684  15.934  1.00  0.00     0.028 A 
HETATM   19  C24 UNL     1       6.494  19.794  15.809  1.00  0.00     0.046 A 
HETATM   20  N8  UNL     1       5.615  19.518  16.902  1.00  0.00    -0.102 NA
HETATM   21  C25 UNL     1       5.936  20.175  14.615  1.00  0.00     0.028 A 
HETATM   22  C26 UNL     1       6.723  20.457  13.514  1.00  0.00     0.027 A 
ENDBRANCH  13  16
ENDBRANCH   8  13
ENDBRANCH   3   8
ENDBRANCH   1   3
BRANCH   1  23
HETATM   23  N4  UNL     1       9.924  19.464   7.647  1.00  0.00    -0.267 N 
ATOM     24  H4  UNL     1       9.043  19.288   7.163  1.00  0.00     0.180 HD
BRANCH  23  25
HETATM   25  S1  UNL     1      11.375  18.835   7.116  1.00  0.00     0.319 S 
HETATM   26  O1  UNL     1      12.369  18.817   8.279  1.00  0.00    -0.183 OA
HETATM   27  O2  UNL     1      12.062  19.671   6.065  1.00  0.00    -0.183 OA
BRANCH  25  28
HETATM   28  N5  UNL     1      11.360  17.216   6.535  1.00  0.00    -0.300 N 
ATOM     29  H5  UNL     1      10.589  16.558   6.650  1.00  0.00     0.173 HD
BRANCH  28  30
HETATM   30  C11 UNL     1      12.579  16.932   5.873  1.00  0.00     0.174 C 
BRANCH  30  31
HETATM   31  C12 UNL     1      12.499  16.359   4.505  1.00  0.00     0.168 C 
HETATM   32  C13 UNL     1      11.359  17.009   3.705  1.00  0.00     0.050 C 
HETATM   33  C14 UNL     1      12.248  14.878   4.433  1.00  0.00     0.050 C 
BRANCH  31  34
HETATM   34  N6  UNL     1      13.705  16.617   3.753  1.00  0.00     0.090 N 
HETATM   35  C15 UNL     1      14.093  17.994   3.698  1.00  0.00     0.310 C 
HETATM   36  C16 UNL     1      13.749  15.931   2.509  1.00  0.00     0.310 C 
ENDBRANCH  31  34
ENDBRANCH  30  31
ENDBRANCH  28  30
ENDBRANCH  25  28
ENDBRANCH  23  25
ENDBRANCH   1  23
BRANCH   2  37
HETATM   37  C8  UNL     1      11.394  22.446   9.472  1.00  0.00     0.049 C 
BRANCH  37  38
HETATM   38  C9  UNL     1      12.781  22.755   8.830  1.00  0.00     0.126 C 
BRANCH  38  39
HETATM   39  N1  UNL     1      13.280  21.699   8.042  1.00  0.00    -0.365 N 
HETATM   40  C10 UNL     1      14.517  21.839   7.364  1.00  0.00     0.181 C 
HETATM   41  N2  UNL     1      14.743  21.166   6.289  1.00  0.00    -0.374 N 
HETATM   42  N3  UNL     1      15.570  22.699   7.800  1.00  0.00    -0.064 NA
ATOM     43  H22 UNL     1      13.991  20.552   5.978  1.00  0.00     0.158 HD
ATOM     44  H21 UNL     1      15.633  21.267   5.801  1.00  0.00     0.158 HD
ATOM     45  H1  UNL     1      12.750  20.831   7.959  1.00  0.00     0.162 HD
ENDBRANCH  38  39
ENDBRANCH  37  38
ENDBRANCH   2  37
TORSDOF 17
ENDMDL
MODEL 5
REMARK VINA RESULT: -5.694649910      5.565     10.688
REMARK  17 active torsions:
REMARK  status: ('A' for Active; 'I' for Inactive)
REMARK    1  A    between atoms: C2_2  and  C4_4 
REMARK    2  A    between atoms: C4_4  and  C5_5 
REMARK    3  A    between atoms: C5_5  and  C6_6 
REMARK    4  A    between atoms: C5_5  and  N7_31 
REMARK    5  A    between atoms: C6_6  and  N4_17 
REMARK    6  A    between atoms: C7_7  and  C8_8 
REMARK    7  A    between atoms: C8_8  and  C9_9 
REMARK    8  A    between atoms: C9_9  and  N1_10 
REMARK       I    between atoms: N1_10  and  C10_12 
REMARK    9  A    between atoms: N4_17  and  S1_19 
REMARK   10  A    between atoms: S1_19  and  N5_22 
REMARK   11  A    between atoms: N5_22  and  C11_24 
REMARK   12  A    between atoms: C11_24  and  C12_25 
REMARK   13  A    between atoms: C12_25  and  N6_28 
REMARK   14  A    between atoms: N7_31  and  C17_32 
REMARK   15  A    between atoms: N7_31  and  S2_36 
REMARK   16  A    between atoms: C17_32  and  C18_33 
REMARK   17  A    between atoms: S2_36  and  C21_39 
ROOT
HETATM    1  C6  UNL     1       9.245  20.274  13.600  1.00  0.00     0.062 C 
HETATM    2  C7  UNL     1       9.952  19.035  13.807  1.00  0.00     0.007 C 
ENDROOT
BRANCH   1   3
HETATM    3  C5  UNL     1       9.207  21.236  12.530  1.00  0.00     0.049 C 
BRANCH   3   4
HETATM    4  C4  UNL     1      10.128  22.394  12.427  1.00  0.00     0.004 C 
BRANCH   4   5
HETATM    5  C2  UNL     1      11.129  22.879  13.320  1.00  0.00     0.002 C 
HETATM    6  C1  UNL     1      10.345  23.661  14.444  1.00  0.00     0.013 C 
HETATM    7  C3  UNL     1      12.165  23.853  12.861  1.00  0.00     0.013 C 
ENDBRANCH   4   5
ENDBRANCH   3   4
BRANCH   3   8
HETATM    8  N7  UNL     1       8.796  20.815  11.181  1.00  0.00    -0.170 NA
BRANCH   8   9
HETATM    9  C17 UNL     1       8.785  19.450  10.898  1.00  0.00     0.117 C 
BRANCH   9  10
HETATM   10  C18 UNL     1       9.973  18.900  10.154  1.00  0.00    -0.008 C 
HETATM   11  C19 UNL     1       9.818  19.358   8.675  1.00  0.00     0.011 C 
HETATM   12  C20 UNL     1       9.896  17.389  10.060  1.00  0.00     0.011 C 
ENDBRANCH   9  10
ENDBRANCH   8   9
BRANCH   8  13
HETATM   13  S2  UNL     1       7.174  21.365  10.885  1.00  0.00     0.248 S 
HETATM   14  O3  UNL     1       7.097  22.402   9.809  1.00  0.00    -0.205 OA
HETATM   15  O4  UNL     1       6.683  22.115  12.137  1.00  0.00    -0.205 OA
BRANCH  13  16
HETATM   16  C21 UNL     1       6.024  20.136  10.578  1.00  0.00     0.075 A 
HETATM   17  C22 UNL     1       5.116  19.778  11.559  1.00  0.00     0.027 A 
HETATM   18  C23 UNL     1       4.171  18.809  11.343  1.00  0.00     0.028 A 
HETATM   19  C24 UNL     1       4.127  18.188  10.135  1.00  0.00     0.046 A 
HETATM   20  N8  UNL     1       3.165  17.168   9.850  1.00  0.00    -0.102 NA
HETATM   21  C25 UNL     1       5.016  18.526   9.146  1.00  0.00     0.028 A 
HETATM   22  C26 UNL     1       5.975  19.501   9.349  1.00  0.00     0.027 A 
ENDBRANCH  13  16
ENDBRANCH   8  13
ENDBRANCH   3   8
ENDBRANCH   1   3
BRANCH   1  23
HETATM   23  N4  UNL     1       7.879  20.165  14.247  1.00  0.00    -0.267 N 
ATOM     24  H4  UNL     1       7.041  19.925  13.717  1.00  0.00     0.180 HD
BRANCH  23  25
HETATM   25  S1  UNL     1       7.841  20.467  15.887  1.00  0.00     0.319 S 
HETATM   26  O1  UNL     1       6.973  21.699  16.151  1.00  0.00    -0.183 OA
HETATM   27  O2  UNL     1       9.180  20.832  16.477  1.00  0.00    -0.183 OA
BRANCH  25  28
HETATM   28  N5  UNL     1       7.170  19.242  16.893  1.00  0.00    -0.300 N 
ATOM     29  H5  UNL     1       7.376  19.119  17.884  1.00  0.00     0.173 HD
BRANCH  28  30
HETATM   30  C11 UNL     1       6.289  18.431  16.138  1.00  0.00     0.174 C 
BRANCH  30  31
HETATM   31  C12 UNL     1       4.831  18.637  16.332  1.00  0.00     0.168 C 
HETATM   32  C13 UNL     1       4.229  19.426  15.160  1.00  0.00     0.050 C 
HETATM   33  C14 UNL     1       4.441  19.396  17.571  1.00  0.00     0.050 C 
BRANCH  31  34
HETATM   34  N6  UNL     1       4.120  17.381  16.369  1.00  0.00     0.090 N 
HETATM   35  C15 UNL     1       3.552  17.051  17.642  1.00  0.00     0.310 C 
HETATM   36  C16 UNL     1       4.820  16.320  15.732  1.00  0.00     0.310 C 
ENDBRANCH  31  34
ENDBRANCH  30  31
ENDBRANCH  28  30
ENDBRANCH  25  28
ENDBRANCH  23  25
ENDBRANCH   1  23
BRANCH   2  37
HETATM   37  C8  UNL     1      11.409  18.841  13.838  1.00  0.00     0.049 C 
BRANCH  37  38
HETATM   38  C9  UNL     1      11.719  17.366  13.439  1.00  0.00     0.126 C 
BRANCH  38  39
HETATM   39  N1  UNL     1      12.835  16.828  14.109  1.00  0.00    -0.365 N 
HETATM   40  C10 UNL     1      13.791  16.059  13.398  1.00  0.00     0.181 C 
HETATM   41  N2  UNL     1      14.488  15.168  14.013  1.00  0.00    -0.374 N 
HETATM   42  N3  UNL     1      14.048  16.205  12.001  1.00  0.00    -0.064 NA
ATOM     43  H22 UNL     1      14.304  15.064  15.011  1.00  0.00     0.158 HD
ATOM     44  H21 UNL     1      15.175  14.614  13.501  1.00  0.00     0.158 HD
ATOM     45  H1  UNL     1      12.957  16.992  15.109  1.00  0.00     0.162 HD
ENDBRANCH  38  39
ENDBRANCH  37  38
ENDBRANCH   2  37
TORSDOF 17
ENDMDL
