MODEL 1
REMARK VINA RESULT: -5.530711132      0.000      0.000
REMARK  4 active torsions:
REMARK  status: ('A' for Active; 'I' for Inactive)
REMARK    1  A    between atoms: C2_2  and  C3_3 
REMARK    2  A    between atoms: C3_3  and  C4_4 
REMARK    3  A    between atoms: C4_4  and  C5_6 
REMARK    4  A    between atoms: C5_6  and  C6_7 
ROOT
HETATM    1  C4  UNL     1      -2.041   0.486   2.737  1.00  0.00     0.065 C 
HETATM    2  S1  UNL     1      -2.136  -1.045   3.690  1.00  0.00    -0.092 SA
ENDROOT
BRANCH   1   3
HETATM    3  C3  UNL     1      -2.963   1.499   3.372  1.00  0.00     0.042 C 
BRANCH   3   4
HETATM    4  C2  UNL     1      -3.904   0.898   4.324  1.00  0.00    -0.036 C 
HETATM    5  C1  UNL     1      -5.145   1.347   4.415  1.00  0.00     0.007 C 
ENDBRANCH   3   4
ENDBRANCH   1   3
BRANCH   1   6
HETATM    6  C5  UNL     1      -0.613   0.969   2.661  1.00  0.00     0.042 C 
BRANCH   6   7
HETATM    7  C6  UNL     1      -0.376   1.846   3.838  1.00  0.00    -0.036 C 
HETATM    8  C7  UNL     1       0.471   1.552   4.805  1.00  0.00     0.007 C 
ENDBRANCH   6   7
ENDBRANCH   1   6
TORSDOF 4
ENDMDL
MODEL 2
REMARK VINA RESULT: -5.295789257      2.002      3.289
REMARK  4 active torsions:
REMARK  status: ('A' for Active; 'I' for Inactive)
REMARK    1  A    between atoms: C2_2  and  C3_3 
REMARK    2  A    between atoms: C3_3  and  C4_4 
REMARK    3  A    between atoms: C4_4  and  C5_6 
REMARK    4  A    between atoms: C5_6  and  C6_7 
ROOT
HETATM    1  C4  UNL     1      -1.893   0.345   2.511  1.00  0.00     0.065 C 
HETATM    2  S1  UNL     1      -3.148   1.140   3.538  1.00  0.00    -0.092 SA
ENDROOT
BRANCH   1   3
HETATM    3  C3  UNL     1      -0.631   1.172   2.578  1.00  0.00     0.042 C 
BRANCH   3   4
HETATM    4  C2  UNL     1      -0.521   1.947   3.819  1.00  0.00    -0.036 C 
HETATM    5  C1  UNL     1       0.429   1.676   4.699  1.00  0.00     0.007 C 
ENDBRANCH   3   4
ENDBRANCH   1   3
BRANCH   1   6
HETATM    6  C5  UNL     1      -1.677  -1.081   2.956  1.00  0.00     0.042 C 
BRANCH   6   7
HETATM    7  C6  UNL     1      -2.068  -1.165   4.389  1.00  0.00    -0.036 C 
HETATM    8  C7  UNL     1      -1.242  -1.532   5.348  1.00  0.00     0.007 C 
ENDBRANCH   6   7
ENDBRANCH   1   6
TORSDOF 4
ENDMDL
MODEL 3
REMARK VINA RESULT: -5.280796814      0.995      4.020
REMARK  4 active torsions:
REMARK  status: ('A' for Active; 'I' for Inactive)
REMARK    1  A    between atoms: C2_2  and  C3_3 
REMARK    2  A    between atoms: C3_3  and  C4_4 
REMARK    3  A    between atoms: C4_4  and  C5_6 
REMARK    4  A    between atoms: C5_6  and  C6_7 
ROOT
HETATM    1  C4  UNL     1      -1.540   0.461   4.155  1.00  0.00     0.065 C 
HETATM    2  S1  UNL     1      -2.085  -0.268   2.594  1.00  0.00    -0.092 SA
ENDROOT
BRANCH   1   3
HETATM    3  C3  UNL     1      -0.584   1.588   3.845  1.00  0.00     0.042 C 
BRANCH   3   4
HETATM    4  C2  UNL     1       0.575   1.617   4.745  1.00  0.00    -0.036 C 
HETATM    5  C1  UNL     1       1.486   0.659   4.698  1.00  0.00     0.007 C 
ENDBRANCH   3   4
ENDBRANCH   1   3
BRANCH   1   6
HETATM    6  C5  UNL     1      -2.730   0.916   4.964  1.00  0.00     0.042 C 
BRANCH   6   7
HETATM    7  C6  UNL     1      -3.894   0.996   4.040  1.00  0.00    -0.036 C 
HETATM    8  C7  UNL     1      -5.093   1.395   4.415  1.00  0.00     0.007 C 
ENDBRANCH   6   7
ENDBRANCH   1   6
TORSDOF 4
ENDMDL
MODEL 4
REMARK VINA RESULT: -5.268521029      1.217      3.946
REMARK  4 active torsions:
REMARK  status: ('A' for Active; 'I' for Inactive)
REMARK    1  A    between atoms: C2_2  and  C3_3 
REMARK    2  A    between atoms: C3_3  and  C4_4 
REMARK    3  A    between atoms: C4_4  and  C5_6 
REMARK    4  A    between atoms: C5_6  and  C6_7 
ROOT
HETATM    1  C4  UNL     1      -1.841   0.564   5.044  1.00  0.00     0.065 C 
HETATM    2  S1  UNL     1      -1.702  -1.132   4.439  1.00  0.00    -0.092 SA
ENDROOT
BRANCH   1   3
HETATM    3  C3  UNL     1      -0.558   0.921   5.756  1.00  0.00     0.042 C 
BRANCH   3   4
HETATM    4  C2  UNL     1       0.495   1.377   4.843  1.00  0.00    -0.036 C 
HETATM    5  C1  UNL     1       1.626   0.699   4.728  1.00  0.00     0.007 C 
ENDBRANCH   3   4
ENDBRANCH   1   3
BRANCH   1   6
HETATM    6  C5  UNL     1      -2.151   1.503   3.904  1.00  0.00     0.042 C 
BRANCH   6   7
HETATM    7  C6  UNL     1      -3.573   1.288   3.524  1.00  0.00    -0.036 C 
HETATM    8  C7  UNL     1      -4.560   1.242   4.396  1.00  0.00     0.007 C 
ENDBRANCH   6   7
ENDBRANCH   1   6
TORSDOF 4
ENDMDL
MODEL 5
REMARK VINA RESULT: -5.214340740      1.517      1.924
REMARK  4 active torsions:
REMARK  status: ('A' for Active; 'I' for Inactive)
REMARK    1  A    between atoms: C2_2  and  C3_3 
REMARK    2  A    between atoms: C3_3  and  C4_4 
REMARK    3  A    between atoms: C4_4  and  C5_6 
REMARK    4  A    between atoms: C5_6  and  C6_7 
ROOT
HETATM    1  C4  UNL     1      -1.140   1.598   4.179  1.00  0.00     0.065 C 
HETATM    2  S1  UNL     1      -1.166   0.795   2.562  1.00  0.00    -0.092 SA
ENDROOT
BRANCH   1   3
HETATM    3  C3  UNL     1      -2.143   0.905   5.070  1.00  0.00     0.042 C 
BRANCH   3   4
HETATM    4  C2  UNL     1      -3.334   0.450   4.344  1.00  0.00    -0.036 C 
HETATM    5  C1  UNL     1      -4.460   1.142   4.401  1.00  0.00     0.007 C 
ENDBRANCH   3   4
ENDBRANCH   1   3
BRANCH   1   6
HETATM    6  C5  UNL     1       0.257   1.578   4.752  1.00  0.00     0.042 C 
BRANCH   6   7
HETATM    7  C6  UNL     1       0.967   0.415   4.156  1.00  0.00    -0.036 C 
HETATM    8  C7  UNL     1       1.563  -0.517   4.871  1.00  0.00     0.007 C 
ENDBRANCH   6   7
ENDBRANCH   1   6
TORSDOF 4
ENDMDL
