MODEL 1
REMARK VINA RESULT: -8.522039464      0.000      0.000
REMARK  9 active torsions:
REMARK  status: ('A' for Active; 'I' for Inactive)
REMARK    1  A    between atoms: C2_2  and  N1_3 
REMARK    2  A    between atoms: C2_2  and  C9_28 
REMARK    3  A    between atoms: C3_5  and  O1_6 
REMARK    4  A    between atoms: C3_5  and  C4_8 
REMARK    5  A    between atoms: C4_8  and  N2_9 
REMARK    6  A    between atoms: C4_8  and  C5_13 
REMARK    7  A    between atoms: N2_9  and  N3_10 
REMARK    8  A    between atoms: C6_16  and  N5_17 
REMARK    9  A    between atoms: C10_31  and  O4_32 
ROOT
HETATM    1  C4  UNL     1       3.347   9.396  49.655  1.00  0.00     0.228 C 
ENDROOT
BRANCH   1   2
HETATM    2  C3  UNL     1       3.856   9.419  48.278  1.00  0.00     0.143 C 
HETATM    3  N1  UNL     1       4.456  10.411  47.559  1.00  0.00    -0.343 N 
ATOM      4  H1  UNL     1       5.208   9.973  47.028  1.00  0.00     0.167 HD
BRANCH   3   5
HETATM    5  C2  UNL     1       4.475  11.597  47.281  1.00  0.00     0.030 C 
HETATM    6  C1  UNL     1       3.871  12.231  46.095  1.00  0.00     0.068 C 
BRANCH   5   7
HETATM    7  C9  UNL     1       5.173  12.535  48.217  1.00  0.00     0.280 C 
HETATM    8  N8  UNL     1       6.348  11.902  48.799  1.00  0.00    -0.105 NA
HETATM    9  N9  UNL     1       6.969  13.010  49.398  1.00  0.00    -0.086 NA
HETATM   10  C10 UNL     1       6.699  14.087  48.464  1.00  0.00     0.376 C 
HETATM   11  O5  UNL     1       5.730  13.615  47.577  1.00  0.00    -0.318 OA
BRANCH  10  12
HETATM   12  O4  UNL     1       7.900  14.378  47.825  1.00  0.00    -0.357 OA
ATOM     13  H4  UNL     1       7.683  14.876  47.045  1.00  0.00     0.214 HD
ENDBRANCH  10  12
ENDBRANCH   5   7
ENDBRANCH   3   5
BRANCH   2  14
HETATM   14  O1  UNL     1       3.703   8.290  47.645  1.00  0.00    -0.348 OA
ATOM     15  H1  UNL     1       4.276   7.587  47.930  1.00  0.00     0.219 HD
ENDBRANCH   2  14
ENDBRANCH   1   2
BRANCH   1  16
HETATM   16  N2  UNL     1       2.378  10.486  49.882  1.00  0.00    -0.129 NA
BRANCH  16  17
HETATM   17  N3  UNL     1       1.130   9.953  50.148  1.00  0.00    -0.347 N 
ATOM     18  H32 UNL     1       0.394  10.441  50.659  1.00  0.00     0.172 HD
ATOM     19  H31 UNL     1       1.067   9.013  49.758  1.00  0.00     0.172 HD
ENDBRANCH  16  17
ENDBRANCH   1  16
BRANCH   1  20
HETATM   20  C5  UNL     1       4.386   9.643  50.693  1.00  0.00     0.123 C 
HETATM   21  N4  UNL     1       4.438  10.872  51.259  1.00  0.00    -0.188 N 
HETATM   22  C6  UNL     1       5.250  11.255  52.252  1.00  0.00     0.680 C 
ATOM     23  H4  UNL     1       3.796  11.575  50.893  1.00  0.00     0.184 HD
HETATM   24  N6  UNL     1       5.860  10.439  53.133  1.00  0.00    -0.141 N 
HETATM   25  C7  UNL     1       6.117   9.128  53.088  1.00  0.00     0.341 C 
ATOM     26  H6  UNL     1       6.180  10.902  53.984  1.00  0.00     0.189 HD
HETATM   27  O2  UNL     1       6.586   8.573  54.120  1.00  0.00    -0.246 OA
HETATM   28  N7  UNL     1       5.938   8.279  52.050  1.00  0.00    -0.273 N 
HETATM   29  C8  UNL     1       5.174   8.547  50.966  1.00  0.00     0.274 C 
ATOM     30  H7  UNL     1       6.411   7.377  52.087  1.00  0.00     0.173 HD
HETATM   31  O3  UNL     1       5.202   7.647  50.090  1.00  0.00    -0.266 OA
BRANCH  22  32
HETATM   32  N5  UNL     1       5.477  12.539  52.385  1.00  0.00    -0.234 N 
ATOM     33  H52 UNL     1       4.677  13.121  52.633  1.00  0.00     0.174 HD
ATOM     34  H51 UNL     1       6.431  12.865  52.233  1.00  0.00     0.174 HD
ENDBRANCH  22  32
ENDBRANCH   1  20
TORSDOF 9
ENDMDL
MODEL 2
REMARK VINA RESULT: -8.440056543      1.792      6.044
REMARK  9 active torsions:
REMARK  status: ('A' for Active; 'I' for Inactive)
REMARK    1  A    between atoms: C2_2  and  N1_3 
REMARK    2  A    between atoms: C2_2  and  C9_28 
REMARK    3  A    between atoms: C3_5  and  O1_6 
REMARK    4  A    between atoms: C3_5  and  C4_8 
REMARK    5  A    between atoms: C4_8  and  N2_9 
REMARK    6  A    between atoms: C4_8  and  C5_13 
REMARK    7  A    between atoms: N2_9  and  N3_10 
REMARK    8  A    between atoms: C6_16  and  N5_17 
REMARK    9  A    between atoms: C10_31  and  O4_32 
ROOT
HETATM    1  C4  UNL     1       6.762  11.218  50.274  1.00  0.00     0.228 C 
ENDROOT
BRANCH   1   2
HETATM    2  C3  UNL     1       6.832   9.777  50.550  1.00  0.00     0.143 C 
HETATM    3  N1  UNL     1       5.953   8.937  51.167  1.00  0.00    -0.343 N 
ATOM      4  H1  UNL     1       5.954   8.069  50.633  1.00  0.00     0.167 HD
BRANCH   3   5
HETATM    5  C2  UNL     1       5.168   8.782  52.086  1.00  0.00     0.030 C 
HETATM    6  C1  UNL     1       5.504   8.641  53.513  1.00  0.00     0.068 C 
BRANCH   5   7
HETATM    7  C9  UNL     1       3.704   8.727  51.768  1.00  0.00     0.280 C 
HETATM    8  N8  UNL     1       3.247   9.999  51.225  1.00  0.00    -0.105 NA
HETATM    9  N9  UNL     1       1.972   9.639  50.763  1.00  0.00    -0.086 NA
HETATM   10  C10 UNL     1       2.165   8.286  50.275  1.00  0.00     0.376 C 
HETATM   11  O5  UNL     1       3.412   7.866  50.739  1.00  0.00    -0.318 OA
BRANCH  10  12
HETATM   12  O4  UNL     1       2.112   8.347  48.886  1.00  0.00    -0.357 OA
ATOM     13  H4  UNL     1       1.247   8.049  48.629  1.00  0.00     0.214 HD
ENDBRANCH  10  12
ENDBRANCH   5   7
ENDBRANCH   3   5
BRANCH   2  14
HETATM   14  O1  UNL     1       7.929   9.217  50.123  1.00  0.00    -0.348 OA
ATOM     15  H1  UNL     1       8.707   9.411  50.632  1.00  0.00     0.219 HD
ENDBRANCH   2  14
ENDBRANCH   1   2
BRANCH   1  16
HETATM   16  N2  UNL     1       6.100  11.938  51.379  1.00  0.00    -0.129 NA
BRANCH  16  17
HETATM   17  N3  UNL     1       6.908  11.917  52.501  1.00  0.00    -0.347 N 
ATOM     18  H32 UNL     1       6.994  11.120  53.132  1.00  0.00     0.172 HD
ATOM     19  H31 UNL     1       7.393  12.810  52.593  1.00  0.00     0.172 HD
ENDBRANCH  16  17
ENDBRANCH   1  16
BRANCH   1  20
HETATM   20  C5  UNL     1       5.929  11.572  49.091  1.00  0.00     0.123 C 
HETATM   21  N4  UNL     1       5.047  10.651  48.636  1.00  0.00    -0.188 N 
HETATM   22  C6  UNL     1       4.171  10.815  47.638  1.00  0.00     0.680 C 
ATOM     23  H4  UNL     1       5.051   9.742  49.100  1.00  0.00     0.184 HD
HETATM   24  N6  UNL     1       3.713  11.995  47.175  1.00  0.00    -0.141 N 
HETATM   25  C7  UNL     1       4.196  13.236  47.295  1.00  0.00     0.341 C 
ATOM     26  H6  UNL     1       2.847  11.930  46.641  1.00  0.00     0.189 HD
HETATM   27  O2  UNL     1       3.492  14.196  46.877  1.00  0.00    -0.246 OA
HETATM   28  N7  UNL     1       5.380  13.621  47.822  1.00  0.00    -0.273 N 
HETATM   29  C8  UNL     1       6.158  12.840  48.607  1.00  0.00     0.274 C 
ATOM     30  H7  UNL     1       5.709  14.564  47.614  1.00  0.00     0.173 HD
HETATM   31  O3  UNL     1       7.249  13.373  48.932  1.00  0.00    -0.266 OA
BRANCH  22  32
HETATM   32  N5  UNL     1       3.711   9.737  47.054  1.00  0.00    -0.234 N 
ATOM     33  H52 UNL     1       3.687   8.886  47.617  1.00  0.00     0.174 HD
ATOM     34  H51 UNL     1       3.411   9.820  46.083  1.00  0.00     0.174 HD
ENDBRANCH  22  32
ENDBRANCH   1  20
TORSDOF 9
ENDMDL
MODEL 3
REMARK VINA RESULT: -8.401966052      2.397      3.749
REMARK  9 active torsions:
REMARK  status: ('A' for Active; 'I' for Inactive)
REMARK    1  A    between atoms: C2_2  and  N1_3 
REMARK    2  A    between atoms: C2_2  and  C9_28 
REMARK    3  A    between atoms: C3_5  and  O1_6 
REMARK    4  A    between atoms: C3_5  and  C4_8 
REMARK    5  A    between atoms: C4_8  and  N2_9 
REMARK    6  A    between atoms: C4_8  and  C5_13 
REMARK    7  A    between atoms: N2_9  and  N3_10 
REMARK    8  A    between atoms: C6_16  and  N5_17 
REMARK    9  A    between atoms: C10_31  and  O4_32 
ROOT
HETATM    1  C4  UNL     1       5.907   8.614  51.458  1.00  0.00     0.228 C 
ENDROOT
BRANCH   1   2
HETATM    2  C3  UNL     1       5.774   8.704  49.999  1.00  0.00     0.143 C 
HETATM    3  N1  UNL     1       5.638   9.782  49.174  1.00  0.00    -0.343 N 
ATOM      4  H1  UNL     1       6.215   9.598  48.355  1.00  0.00     0.167 HD
BRANCH   3   5
HETATM    5  C2  UNL     1       5.119  10.871  49.001  1.00  0.00     0.030 C 
HETATM    6  C1  UNL     1       5.777  12.083  48.482  1.00  0.00     0.068 C 
BRANCH   5   7
HETATM    7  C9  UNL     1       3.667  11.029  49.337  1.00  0.00     0.280 C 
HETATM    8  N8  UNL     1       2.950   9.780  49.120  1.00  0.00    -0.105 NA
HETATM    9  N9  UNL     1       1.724  10.076  49.738  1.00  0.00    -0.086 NA
HETATM   10  C10 UNL     1       2.113  10.892  50.873  1.00  0.00     0.376 C 
HETATM   11  O5  UNL     1       3.448  11.244  50.676  1.00  0.00    -0.318 OA
BRANCH  10  12
HETATM   12  O4  UNL     1       1.937  10.110  52.011  1.00  0.00    -0.357 OA
ATOM     13  H4  UNL     1       2.235  10.628  52.750  1.00  0.00     0.214 HD
ENDBRANCH  10  12
ENDBRANCH   5   7
ENDBRANCH   3   5
BRANCH   2  14
HETATM   14  O1  UNL     1       5.794   7.547  49.400  1.00  0.00    -0.348 OA
ATOM     15  H1  UNL     1       6.655   7.157  49.303  1.00  0.00     0.219 HD
ENDBRANCH   2  14
ENDBRANCH   1   2
BRANCH   1  16
HETATM   16  N2  UNL     1       4.587   8.474  52.104  1.00  0.00    -0.129 NA
BRANCH  16  17
HETATM   17  N3  UNL     1       3.688   7.915  51.215  1.00  0.00    -0.347 N 
ATOM     18  H32 UNL     1       3.712   6.943  50.908  1.00  0.00     0.172 HD
ATOM     19  H31 UNL     1       3.011   8.620  50.921  1.00  0.00     0.172 HD
ENDBRANCH  16  17
ENDBRANCH   1  16
BRANCH   1  20
HETATM   20  C5  UNL     1       6.469   9.837  52.096  1.00  0.00     0.123 C 
HETATM   21  N4  UNL     1       5.615  10.840  52.409  1.00  0.00    -0.188 N 
HETATM   22  C6  UNL     1       5.924  11.975  53.047  1.00  0.00     0.680 C 
ATOM     23  H4  UNL     1       4.641  10.719  52.130  1.00  0.00     0.184 HD
HETATM   24  N6  UNL     1       6.996  12.170  53.839  1.00  0.00    -0.141 N 
HETATM   25  C7  UNL     1       8.149  11.501  53.942  1.00  0.00     0.341 C 
ATOM     26  H6  UNL     1       6.913  12.967  54.471  1.00  0.00     0.189 HD
HETATM   27  O2  UNL     1       8.941  11.813  54.873  1.00  0.00    -0.246 OA
HETATM   28  N7  UNL     1       8.602  10.497  53.158  1.00  0.00    -0.273 N 
HETATM   29  C8  UNL     1       7.828   9.779  52.311  1.00  0.00     0.274 C 
ATOM     30  H7  UNL     1       9.594  10.266  53.207  1.00  0.00     0.173 HD
HETATM   31  O3  UNL     1       8.466   8.940  51.627  1.00  0.00    -0.266 OA
BRANCH  22  32
HETATM   32  N5  UNL     1       5.114  12.994  52.892  1.00  0.00    -0.234 N 
ATOM     33  H52 UNL     1       4.211  12.936  53.362  1.00  0.00     0.174 HD
ATOM     34  H51 UNL     1       5.441  13.770  52.316  1.00  0.00     0.174 HD
ENDBRANCH  22  32
ENDBRANCH   1  20
TORSDOF 9
ENDMDL
MODEL 4
REMARK VINA RESULT: -8.243612578      2.497      6.825
REMARK  9 active torsions:
REMARK  status: ('A' for Active; 'I' for Inactive)
REMARK    1  A    between atoms: C2_2  and  N1_3 
REMARK    2  A    between atoms: C2_2  and  C9_28 
REMARK    3  A    between atoms: C3_5  and  O1_6 
REMARK    4  A    between atoms: C3_5  and  C4_8 
REMARK    5  A    between atoms: C4_8  and  N2_9 
REMARK    6  A    between atoms: C4_8  and  C5_13 
REMARK    7  A    between atoms: N2_9  and  N3_10 
REMARK    8  A    between atoms: C6_16  and  N5_17 
REMARK    9  A    between atoms: C10_31  and  O4_32 
ROOT
HETATM    1  C4  UNL     1       4.733  10.251  51.913  1.00  0.00     0.228 C 
ENDROOT
BRANCH   1   2
HETATM    2  C3  UNL     1       5.194   8.881  52.168  1.00  0.00     0.143 C 
HETATM    3  N1  UNL     1       5.831   8.333  53.242  1.00  0.00    -0.343 N 
ATOM      4  H1  UNL     1       5.413   7.416  53.394  1.00  0.00     0.167 HD
BRANCH   3   5
HETATM    5  C2  UNL     1       6.688   8.473  54.097  1.00  0.00     0.030 C 
HETATM    6  C1  UNL     1       8.132   8.662  53.870  1.00  0.00     0.068 C 
BRANCH   5   7
HETATM    7  C9  UNL     1       6.266   8.459  55.535  1.00  0.00     0.280 C 
HETATM    8  N8  UNL     1       5.580   7.216  55.858  1.00  0.00    -0.105 NA
HETATM    9  N9  UNL     1       5.529   7.306  57.258  1.00  0.00    -0.086 NA
HETATM   10  C10 UNL     1       6.789   7.941  57.597  1.00  0.00     0.376 C 
HETATM   11  O5  UNL     1       7.328   8.423  56.405  1.00  0.00    -0.318 OA
BRANCH  10  12
HETATM   12  O4  UNL     1       7.589   6.964  58.180  1.00  0.00    -0.357 OA
ATOM     13  H4  UNL     1       8.376   7.399  58.487  1.00  0.00     0.214 HD
ENDBRANCH  10  12
ENDBRANCH   5   7
ENDBRANCH   3   5
BRANCH   2  14
HETATM   14  O1  UNL     1       4.941   8.054  51.192  1.00  0.00    -0.348 OA
ATOM     15  H1  UNL     1       4.915   8.447  50.327  1.00  0.00     0.219 HD
ENDBRANCH   2  14
ENDBRANCH   1   2
BRANCH   1  16
HETATM   16  N2  UNL     1       3.259  10.325  51.915  1.00  0.00    -0.129 NA
BRANCH  16  17
HETATM   17  N3  UNL     1       2.735   9.202  52.528  1.00  0.00    -0.347 N 
ATOM     18  H32 UNL     1       2.225   9.215  53.411  1.00  0.00     0.172 HD
ATOM     19  H31 UNL     1       2.939   8.376  51.966  1.00  0.00     0.172 HD
ENDBRANCH  16  17
ENDBRANCH   1  16
BRANCH   1  20
HETATM   20  C5  UNL     1       5.098  10.777  50.568  1.00  0.00     0.123 C 
HETATM   21  N4  UNL     1       4.343  10.394  49.511  1.00  0.00    -0.188 N 
HETATM   22  C6  UNL     1       4.473  10.817  48.247  1.00  0.00     0.680 C 
ATOM     23  H4  UNL     1       3.602   9.717  49.695  1.00  0.00     0.184 HD
HETATM   24  N6  UNL     1       5.071  11.959  47.855  1.00  0.00    -0.141 N 
HETATM   25  C7  UNL     1       5.941  12.759  48.480  1.00  0.00     0.341 C 
ATOM     26  H6  UNL     1       4.815  12.266  46.916  1.00  0.00     0.189 HD
HETATM   27  O2  UNL     1       6.246  13.855  47.934  1.00  0.00    -0.246 OA
HETATM   28  N7  UNL     1       6.564  12.549  49.662  1.00  0.00    -0.273 N 
HETATM   29  C8  UNL     1       6.180  11.628  50.576  1.00  0.00     0.274 C 
ATOM     30  H7  UNL     1       7.377  13.124  49.879  1.00  0.00     0.173 HD
HETATM   31  O3  UNL     1       6.940  11.555  51.573  1.00  0.00    -0.266 OA
BRANCH  22  32
HETATM   32  N5  UNL     1       3.975  10.059  47.302  1.00  0.00    -0.234 N 
ATOM     33  H52 UNL     1       2.980   9.843  47.365  1.00  0.00     0.174 HD
ATOM     34  H51 UNL     1       4.613   9.738  46.574  1.00  0.00     0.174 HD
ENDBRANCH  22  32
ENDBRANCH   1  20
TORSDOF 9
ENDMDL
MODEL 5
REMARK VINA RESULT: -8.185695261      2.671      7.121
REMARK  9 active torsions:
REMARK  status: ('A' for Active; 'I' for Inactive)
REMARK    1  A    between atoms: C2_2  and  N1_3 
REMARK    2  A    between atoms: C2_2  and  C9_28 
REMARK    3  A    between atoms: C3_5  and  O1_6 
REMARK    4  A    between atoms: C3_5  and  C4_8 
REMARK    5  A    between atoms: C4_8  and  N2_9 
REMARK    6  A    between atoms: C4_8  and  C5_13 
REMARK    7  A    between atoms: N2_9  and  N3_10 
REMARK    8  A    between atoms: C6_16  and  N5_17 
REMARK    9  A    between atoms: C10_31  and  O4_32 
ROOT
HETATM    1  C4  UNL     1       5.890  10.262  51.715  1.00  0.00     0.228 C 
ENDROOT
BRANCH   1   2
HETATM    2  C3  UNL     1       6.265   9.024  52.409  1.00  0.00     0.143 C 
HETATM    3  N1  UNL     1       6.561   8.782  53.718  1.00  0.00    -0.343 N 
ATOM      4  H1  UNL     1       6.124   7.893  53.958  1.00  0.00     0.167 HD
BRANCH   3   5
HETATM    5  C2  UNL     1       7.126   9.177  54.723  1.00  0.00     0.030 C 
HETATM    6  C1  UNL     1       8.335  10.018  54.778  1.00  0.00     0.068 C 
BRANCH   5   7
HETATM    7  C9  UNL     1       6.560   8.788  56.055  1.00  0.00     0.280 C 
HETATM    8  N8  UNL     1       5.604   7.700  55.910  1.00  0.00    -0.105 NA
HETATM    9  N9  UNL     1       5.424   7.334  57.254  1.00  0.00    -0.086 NA
HETATM   10  C10 UNL     1       6.744   7.516  57.828  1.00  0.00     0.376 C 
HETATM   11  O5  UNL     1       7.494   8.226  56.891  1.00  0.00    -0.318 OA
BRANCH  10  12
HETATM   12  O4  UNL     1       7.261   6.246  58.062  1.00  0.00    -0.357 OA
ATOM     13  H4  UNL     1       7.277   6.125  59.005  1.00  0.00     0.214 HD
ENDBRANCH  10  12
ENDBRANCH   5   7
ENDBRANCH   3   5
BRANCH   2  14
HETATM   14  O1  UNL     1       6.319   7.983  51.627  1.00  0.00    -0.348 OA
ATOM     15  H1  UNL     1       6.943   8.045  50.913  1.00  0.00     0.219 HD
ENDBRANCH   2  14
ENDBRANCH   1   2
BRANCH   1  16
HETATM   16  N2  UNL     1       4.969  11.073  52.536  1.00  0.00    -0.129 NA
BRANCH  16  17
HETATM   17  N3  UNL     1       5.487  12.345  52.702  1.00  0.00    -0.347 N 
ATOM     18  H32 UNL     1       6.246  12.733  52.143  1.00  0.00     0.172 HD
ATOM     19  H31 UNL     1       4.995  12.821  53.458  1.00  0.00     0.172 HD
ENDBRANCH  16  17
ENDBRANCH   1  16
BRANCH   1  20
HETATM   20  C5  UNL     1       5.123  10.048  50.457  1.00  0.00     0.123 C 
HETATM   21  N4  UNL     1       3.936   9.401  50.539  1.00  0.00    -0.188 N 
HETATM   22  C6  UNL     1       3.080   9.183  49.533  1.00  0.00     0.680 C 
ATOM     23  H4  UNL     1       3.668   9.046  51.457  1.00  0.00     0.184 HD
HETATM   24  N6  UNL     1       3.019   9.879  48.382  1.00  0.00    -0.141 N 
HETATM   25  C7  UNL     1       3.913  10.674  47.784  1.00  0.00     0.341 C 
ATOM     26  H6  UNL     1       2.137   9.784  47.878  1.00  0.00     0.189 HD
HETATM   27  O2  UNL     1       3.550  11.324  46.766  1.00  0.00    -0.246 OA
HETATM   28  N7  UNL     1       5.202  10.887  48.133  1.00  0.00    -0.273 N 
HETATM   29  C8  UNL     1       5.731  10.569  49.337  1.00  0.00     0.274 C 
ATOM     30  H7  UNL     1       5.817  11.317  47.442  1.00  0.00     0.173 HD
HETATM   31  O3  UNL     1       6.965  10.791  49.424  1.00  0.00    -0.266 OA
BRANCH  22  32
HETATM   32  N5  UNL     1       2.220   8.205  49.675  1.00  0.00    -0.234 N 
ATOM     33  H52 UNL     1       2.430   7.511  50.392  1.00  0.00     0.174 HD
ATOM     34  H51 UNL     1       1.405   8.204  49.062  1.00  0.00     0.174 HD
ENDBRANCH  22  32
ENDBRANCH   1  20
TORSDOF 9
ENDMDL
