MODEL 1
REMARK VINA RESULT: -7.662728922      0.000      0.000
REMARK  5 active torsions:
REMARK  status: ('A' for Active; 'I' for Inactive)
REMARK    1  A    between atoms: C2_2  and  C3_3 
REMARK    2  A    between atoms: C8_8  and  N1_9 
REMARK    3  A    between atoms: N1_9  and  C9_11 
REMARK    4  A    between atoms: C9_11  and  C10_12 
REMARK    5  A    between atoms: C9_11  and  C16_18 
ROOT
HETATM    1  C9  UNL     1       7.463  -0.086  57.557  1.00  0.00     0.148 C 
ENDROOT
BRANCH   1   2
HETATM    2  N1  UNL     1       8.473  -1.061  57.308  1.00  0.00    -0.377 N 
ATOM      3  H1  UNL     1       8.205  -1.847  56.716  1.00  0.00     0.160 HD
BRANCH   2   4
HETATM    4  C8  UNL     1       9.803  -1.064  57.788  1.00  0.00     0.035 A 
HETATM    5  C3  UNL     1      10.841  -1.585  57.004  1.00  0.00    -0.032 A 
HETATM    6  C4  UNL     1      12.117  -1.555  57.497  1.00  0.00     0.009 A 
HETATM    7  C5  UNL     1      12.404  -1.026  58.742  1.00  0.00     0.001 A 
HETATM    8  C6  UNL     1      11.370  -0.515  59.502  1.00  0.00     0.002 A 
HETATM    9  C7  UNL     1      10.061  -0.530  59.030  1.00  0.00     0.029 A 
BRANCH   5  10
HETATM   10  C2  UNL     1      10.478  -2.136  55.688  1.00  0.00     0.036 C 
HETATM   11  C1  UNL     1      10.899  -1.287  54.541  1.00  0.00     0.010 C 
ENDBRANCH   5  10
ENDBRANCH   2   4
ENDBRANCH   1   2
BRANCH   1  12
HETATM   12  C10 UNL     1       7.465   0.954  56.458  1.00  0.00    -0.031 A 
HETATM   13  C11 UNL     1       7.145   2.265  56.705  1.00  0.00     0.009 A 
HETATM   14  C12 UNL     1       7.149   3.205  55.703  1.00  0.00     0.001 A 
HETATM   15  C13 UNL     1       7.479   2.853  54.410  1.00  0.00     0.000 A 
HETATM   16  C14 UNL     1       7.802   1.528  54.165  1.00  0.00     0.001 A 
HETATM   17  C15 UNL     1       7.794   0.596  55.174  1.00  0.00     0.009 A 
ENDBRANCH   1  12
BRANCH   1  18
HETATM   18  C16 UNL     1       6.087  -0.647  57.687  1.00  0.00    -0.031 A 
HETATM   19  C17 UNL     1       5.775  -1.903  57.166  1.00  0.00     0.009 A 
HETATM   20  C18 UNL     1       4.524  -2.424  57.253  1.00  0.00     0.001 A 
HETATM   21  C19 UNL     1       3.494  -1.738  57.860  1.00  0.00     0.000 A 
HETATM   22  C20 UNL     1       3.766  -0.493  58.387  1.00  0.00     0.001 A 
HETATM   23  C21 UNL     1       5.048   0.026  58.291  1.00  0.00     0.009 A 
ENDBRANCH   1  18
TORSDOF 5
ENDMDL
MODEL 2
REMARK VINA RESULT: -7.279718654      1.156      5.884
REMARK  5 active torsions:
REMARK  status: ('A' for Active; 'I' for Inactive)
REMARK    1  A    between atoms: C2_2  and  C3_3 
REMARK    2  A    between atoms: C8_8  and  N1_9 
REMARK    3  A    between atoms: N1_9  and  C9_11 
REMARK    4  A    between atoms: C9_11  and  C10_12 
REMARK    5  A    between atoms: C9_11  and  C16_18 
ROOT
HETATM    1  C9  UNL     1       9.541  -1.452  57.648  1.00  0.00     0.148 C 
ENDROOT
BRANCH   1   2
HETATM    2  N1  UNL     1       8.517  -0.461  57.615  1.00  0.00    -0.377 N 
ATOM      3  H1  UNL     1       8.793   0.483  57.889  1.00  0.00     0.160 HD
BRANCH   2   4
HETATM    4  C8  UNL     1       7.162  -0.633  57.248  1.00  0.00     0.035 A 
HETATM    5  C3  UNL     1       6.469   0.387  56.584  1.00  0.00    -0.032 A 
HETATM    6  C4  UNL     1       5.164   0.175  56.231  1.00  0.00     0.009 A 
HETATM    7  C5  UNL     1       4.518  -1.015  56.513  1.00  0.00     0.001 A 
HETATM    8  C6  UNL     1       5.216  -2.011  57.167  1.00  0.00     0.002 A 
HETATM    9  C7  UNL     1       6.544  -1.829  57.539  1.00  0.00     0.029 A 
BRANCH   5  10
HETATM   10  C2  UNL     1       7.205   1.633  56.310  1.00  0.00     0.036 C 
HETATM   11  C1  UNL     1       7.352   1.942  54.862  1.00  0.00     0.010 C 
ENDBRANCH   5  10
ENDBRANCH   2   4
ENDBRANCH   1   2
BRANCH   1  12
HETATM   12  C10 UNL     1      10.012  -1.756  56.242  1.00  0.00    -0.031 A 
HETATM   13  C11 UNL     1      10.439  -0.764  55.395  1.00  0.00     0.009 A 
HETATM   14  C12 UNL     1      10.866  -1.045  54.120  1.00  0.00     0.001 A 
HETATM   15  C13 UNL     1      10.877  -2.344  53.652  1.00  0.00     0.000 A 
HETATM   16  C14 UNL     1      10.445  -3.342  54.511  1.00  0.00     0.001 A 
HETATM   17  C15 UNL     1      10.020  -3.050  55.784  1.00  0.00     0.009 A 
ENDBRANCH   1  12
BRANCH   1  18
HETATM   18  C16 UNL     1      10.721  -1.088  58.483  1.00  0.00    -0.031 A 
HETATM   19  C17 UNL     1      11.811  -1.952  58.597  1.00  0.00     0.009 A 
HETATM   20  C18 UNL     1      12.886  -1.650  59.369  1.00  0.00     0.001 A 
HETATM   21  C19 UNL     1      12.958  -0.473  60.083  1.00  0.00     0.000 A 
HETATM   22  C20 UNL     1      11.900   0.405  59.995  1.00  0.00     0.001 A 
HETATM   23  C21 UNL     1      10.808   0.084  59.202  1.00  0.00     0.009 A 
ENDBRANCH   1  18
TORSDOF 5
ENDMDL
MODEL 3
REMARK VINA RESULT: -7.099714493      2.025      4.502
REMARK  5 active torsions:
REMARK  status: ('A' for Active; 'I' for Inactive)
REMARK    1  A    between atoms: C2_2  and  C3_3 
REMARK    2  A    between atoms: C8_8  and  N1_9 
REMARK    3  A    between atoms: N1_9  and  C9_11 
REMARK    4  A    between atoms: C9_11  and  C10_12 
REMARK    5  A    between atoms: C9_11  and  C16_18 
ROOT
HETATM    1  C9  UNL     1       9.682  -1.737  57.551  1.00  0.00     0.148 C 
ENDROOT
BRANCH   1   2
HETATM    2  N1  UNL     1      10.408  -0.700  58.206  1.00  0.00    -0.377 N 
ATOM      3  H1  UNL     1      10.128   0.256  57.985  1.00  0.00     0.160 HD
BRANCH   2   4
HETATM    4  C8  UNL     1      11.472  -0.842  59.127  1.00  0.00     0.035 A 
HETATM    5  C3  UNL     1      12.789  -1.002  58.675  1.00  0.00    -0.032 A 
HETATM    6  C4  UNL     1      13.792  -1.120  59.597  1.00  0.00     0.009 A 
HETATM    7  C5  UNL     1      13.539  -1.086  60.957  1.00  0.00     0.001 A 
HETATM    8  C6  UNL     1      12.235  -0.927  61.386  1.00  0.00     0.002 A 
HETATM    9  C7  UNL     1      11.192  -0.804  60.474  1.00  0.00     0.029 A 
BRANCH   5  10
HETATM   10  C2  UNL     1      13.000  -1.031  57.218  1.00  0.00     0.036 C 
HETATM   11  C1  UNL     1      14.275  -1.680  56.805  1.00  0.00     0.010 C 
ENDBRANCH   5  10
ENDBRANCH   2   4
ENDBRANCH   1   2
BRANCH   1  12
HETATM   12  C10 UNL     1       8.205  -1.411  57.545  1.00  0.00    -0.031 A 
HETATM   13  C11 UNL     1       7.740  -0.166  57.889  1.00  0.00     0.009 A 
HETATM   14  C12 UNL     1       6.398   0.125  57.881  1.00  0.00     0.001 A 
HETATM   15  C13 UNL     1       5.472  -0.834  57.523  1.00  0.00     0.000 A 
HETATM   16  C14 UNL     1       5.946  -2.089  57.176  1.00  0.00     0.001 A 
HETATM   17  C15 UNL     1       7.290  -2.370  57.188  1.00  0.00     0.009 A 
ENDBRANCH   1  12
BRANCH   1  18
HETATM   18  C16 UNL     1      10.122  -2.005  56.152  1.00  0.00    -0.031 A 
HETATM   19  C17 UNL     1      10.665  -3.240  55.796  1.00  0.00     0.009 A 
HETATM   20  C18 UNL     1      11.091  -3.498  54.533  1.00  0.00     0.001 A 
HETATM   21  C19 UNL     1      11.014  -2.551  53.534  1.00  0.00     0.000 A 
HETATM   22  C20 UNL     1      10.484  -1.318  53.849  1.00  0.00     0.001 A 
HETATM   23  C21 UNL     1      10.051  -1.069  55.143  1.00  0.00     0.009 A 
ENDBRANCH   1  18
TORSDOF 5
ENDMDL
MODEL 4
REMARK VINA RESULT: -6.962326823      1.509      5.457
REMARK  5 active torsions:
REMARK  status: ('A' for Active; 'I' for Inactive)
REMARK    1  A    between atoms: C2_2  and  C3_3 
REMARK    2  A    between atoms: C8_8  and  N1_9 
REMARK    3  A    between atoms: N1_9  and  C9_11 
REMARK    4  A    between atoms: C9_11  and  C10_12 
REMARK    5  A    between atoms: C9_11  and  C16_18 
ROOT
HETATM    1  C9  UNL     1       7.286   0.105  56.529  1.00  0.00     0.148 C 
ENDROOT
BRANCH   1   2
HETATM    2  N1  UNL     1       7.224   1.505  56.792  1.00  0.00    -0.377 N 
ATOM      3  H1  UNL     1       7.451   1.796  57.743  1.00  0.00     0.160 HD
BRANCH   2   4
HETATM    4  C8  UNL     1       6.884   2.537  55.887  1.00  0.00     0.035 A 
HETATM    5  C3  UNL     1       5.864   3.447  56.195  1.00  0.00    -0.032 A 
HETATM    6  C4  UNL     1       5.577   4.441  55.300  1.00  0.00     0.009 A 
HETATM    7  C5  UNL     1       6.263   4.567  54.106  1.00  0.00     0.001 A 
HETATM    8  C6  UNL     1       7.266   3.662  53.818  1.00  0.00     0.002 A 
HETATM    9  C7  UNL     1       7.585   2.640  54.706  1.00  0.00     0.029 A 
BRANCH   5  10
HETATM   10  C2  UNL     1       5.166   3.265  57.479  1.00  0.00     0.036 C 
HETATM   11  C1  UNL     1       3.730   3.654  57.446  1.00  0.00     0.010 C 
ENDBRANCH   5  10
ENDBRANCH   2   4
ENDBRANCH   1   2
BRANCH   1  12
HETATM   12  C10 UNL     1       8.587  -0.462  57.052  1.00  0.00    -0.031 A 
HETATM   13  C11 UNL     1       9.418  -1.212  56.257  1.00  0.00     0.009 A 
HETATM   14  C12 UNL     1      10.599  -1.724  56.737  1.00  0.00     0.001 A 
HETATM   15  C13 UNL     1      10.986  -1.497  58.042  1.00  0.00     0.000 A 
HETATM   16  C14 UNL     1      10.144  -0.738  58.840  1.00  0.00     0.001 A 
HETATM   17  C15 UNL     1       8.965  -0.231  58.351  1.00  0.00     0.009 A 
ENDBRANCH   1  12
BRANCH   1  18
HETATM   18  C16 UNL     1       6.154  -0.678  57.103  1.00  0.00    -0.031 A 
HETATM   19  C17 UNL     1       6.037  -2.047  56.862  1.00  0.00     0.009 A 
HETATM   20  C18 UNL     1       5.002  -2.775  57.358  1.00  0.00     0.001 A 
HETATM   21  C19 UNL     1       4.012  -2.199  58.123  1.00  0.00     0.000 A 
HETATM   22  C20 UNL     1       4.095  -0.848  58.382  1.00  0.00     0.001 A 
HETATM   23  C21 UNL     1       5.157  -0.117  57.870  1.00  0.00     0.009 A 
ENDBRANCH   1  18
TORSDOF 5
ENDMDL
MODEL 5
REMARK VINA RESULT: -6.958319000      1.550      5.819
REMARK  5 active torsions:
REMARK  status: ('A' for Active; 'I' for Inactive)
REMARK    1  A    between atoms: C2_2  and  C3_3 
REMARK    2  A    between atoms: C8_8  and  N1_9 
REMARK    3  A    between atoms: N1_9  and  C9_11 
REMARK    4  A    between atoms: C9_11  and  C10_12 
REMARK    5  A    between atoms: C9_11  and  C16_18 
ROOT
HETATM    1  C9  UNL     1       6.752  -0.433  57.086  1.00  0.00     0.148 C 
ENDROOT
BRANCH   1   2
HETATM    2  N1  UNL     1       5.932  -0.256  58.239  1.00  0.00    -0.377 N 
ATOM      3  H1  UNL     1       6.420  -0.121  59.124  1.00  0.00     0.160 HD
BRANCH   2   4
HETATM    4  C8  UNL     1       4.519  -0.246  58.296  1.00  0.00     0.035 A 
HETATM    5  C3  UNL     1       3.830   0.912  58.684  1.00  0.00    -0.032 A 
HETATM    6  C4  UNL     1       2.463   0.886  58.711  1.00  0.00     0.009 A 
HETATM    7  C5  UNL     1       1.749  -0.247  58.368  1.00  0.00     0.001 A 
HETATM    8  C6  UNL     1       2.443  -1.380  57.987  1.00  0.00     0.002 A 
HETATM    9  C7  UNL     1       3.833  -1.388  57.948  1.00  0.00     0.029 A 
BRANCH   5  10
HETATM   10  C2  UNL     1       4.641   2.088  59.040  1.00  0.00     0.036 C 
HETATM   11  C1  UNL     1       4.388   3.278  58.182  1.00  0.00     0.010 C 
ENDBRANCH   5  10
ENDBRANCH   2   4
ENDBRANCH   1   2
BRANCH   1  12
HETATM   12  C10 UNL     1       6.653   0.782  56.190  1.00  0.00    -0.031 A 
HETATM   13  C11 UNL     1       7.338   1.939  56.465  1.00  0.00     0.009 A 
HETATM   14  C12 UNL     1       7.244   3.038  55.647  1.00  0.00     0.001 A 
HETATM   15  C13 UNL     1       6.453   3.009  54.516  1.00  0.00     0.000 A 
HETATM   16  C14 UNL     1       5.765   1.838  54.242  1.00  0.00     0.001 A 
HETATM   17  C15 UNL     1       5.865   0.744  55.067  1.00  0.00     0.009 A 
ENDBRANCH   1  12
BRANCH   1  18
HETATM   18  C16 UNL     1       8.189  -0.691  57.391  1.00  0.00    -0.031 A 
HETATM   19  C17 UNL     1       9.041  -1.224  56.422  1.00  0.00     0.009 A 
HETATM   20  C18 UNL     1      10.347  -1.487  56.684  1.00  0.00     0.001 A 
HETATM   21  C19 UNL     1      10.901  -1.244  57.922  1.00  0.00     0.000 A 
HETATM   22  C20 UNL     1      10.089  -0.718  58.904  1.00  0.00     0.001 A 
HETATM   23  C21 UNL     1       8.758  -0.454  58.623  1.00  0.00     0.009 A 
ENDBRANCH   1  18
TORSDOF 5
ENDMDL
