MODEL 1
REMARK VINA RESULT: -7.566560837      0.000      0.000
REMARK  7 active torsions:
REMARK  status: ('A' for Active; 'I' for Inactive)
REMARK    1  A    between atoms: C1_2  and  C2_4 
REMARK    2  A    between atoms: C3_7  and  N3_8 
REMARK    3  A    between atoms: N3_8  and  N4_10 
REMARK       I    between atoms: N4_10  and  C4_12 
REMARK       I    between atoms: C4_12  and  N5_13 
REMARK       I    between atoms: C4_12  and  N6_17 
REMARK    4  A    between atoms: N8_24  and  C6_26 
REMARK    5  A    between atoms: C8_29  and  O3_30 
REMARK    6  A    between atoms: C9_32  and  O4_33 
REMARK    7  A    between atoms: C10_35  and  N9_36 
ROOT
HETATM    1  C2  UNL     1      19.866  27.785 102.849  1.00  0.00     0.201 A 
HETATM    2  N2  UNL     1      20.574  26.878 102.171  1.00  0.00    -0.169 N 
ATOM      3  H2  UNL     1      21.490  27.141 101.809  1.00  0.00     0.186 HD
HETATM    4  C3  UNL     1      20.120  25.625 101.950  1.00  0.00     0.712 A 
HETATM    5  N7  UNL     1      18.906  25.322 102.448  1.00  0.00    -0.021 N 
ATOM      6  H7  UNL     1      18.540  24.382 102.296  1.00  0.00     0.203 HD
HETATM    7  C5  UNL     1      18.150  26.197 103.136  1.00  0.00     0.696 A 
HETATM    8  N8  UNL     1      16.985  25.937 103.623  1.00  0.00    -0.197 N 
ATOM      9  H8  UNL     1      16.471  26.654 104.135  1.00  0.00     0.180 HD
HETATM   10  N10 UNL     1      18.665  27.453 103.328  1.00  0.00    -0.170 N 
ATOM     11  H10 UNL     1      18.123  28.145 103.846  1.00  0.00     0.186 HD
ENDROOT
BRANCH   8  12
HETATM   12  C6  UNL     1      16.412  24.620 103.439  1.00  0.00     0.270 C 
HETATM   13  O2  UNL     1      16.230  24.050 104.694  1.00  0.00    -0.361 OA
HETATM   14  C7  UNL     1      15.267  23.071 104.683  1.00  0.00     0.205 C 
HETATM   15  C8  UNL     1      13.913  23.760 104.653  1.00  0.00     0.173 C 
HETATM   16  C9  UNL     1      13.912  24.802 103.559  1.00  0.00     0.183 C 
HETATM   17  C10 UNL     1      15.116  24.718 102.668  1.00  0.00     0.263 C 
BRANCH  15  18
HETATM   18  O3  UNL     1      13.719  24.331 105.917  1.00  0.00    -0.391 OA
ATOM     19  H3  UNL     1      12.784  24.457 106.023  1.00  0.00     0.210 HD
ENDBRANCH  15  18
BRANCH  16  20
HETATM   20  O4  UNL     1      12.766  24.622 102.807  1.00  0.00    -0.391 OA
ATOM     21  H4  UNL     1      12.046  24.475 103.408  1.00  0.00     0.210 HD
ENDBRANCH  16  20
BRANCH  17  22
HETATM   22  N9  UNL     1      15.014  23.675 101.671  1.00  0.00    -0.068 N 
ATOM     23  H93 UNL     1      14.637  24.033 100.793  1.00  0.00     0.275 HD
ATOM     24  H92 UNL     1      15.935  23.383 101.340  1.00  0.00     0.275 HD
ATOM     25  H91 UNL     1      14.473  22.882 102.015  1.00  0.00     0.275 HD
ENDBRANCH  17  22
ENDBRANCH   8  12
BRANCH   4  26
HETATM   26  N3  UNL     1      20.819  24.763 101.293  1.00  0.00    -0.133 N 
ATOM     27  H3  UNL     1      21.112  24.942 100.333  1.00  0.00     0.205 HD
BRANCH  26  28
HETATM   28  N4  UNL     1      21.162  23.571 101.949  1.00  0.00    -0.270 N 
HETATM   29  C4  UNL     1      22.478  23.043 101.695  1.00  0.00     0.495 C 
HETATM   30  N5  UNL     1      22.668  21.819 102.444  1.00  0.00    -0.032 N 
HETATM   31  N6  UNL     1      23.459  24.001 102.181  1.00  0.00    -0.032 N 
ATOM     32  H53 UNL     1      22.492  21.948 103.440  1.00  0.00     0.279 HD
ATOM     33  H52 UNL     1      21.936  21.135 102.252  1.00  0.00     0.279 HD
ATOM     34  H51 UNL     1      23.600  21.445 102.264  1.00  0.00     0.279 HD
ATOM     35  H63 UNL     1      23.327  24.932 101.785  1.00  0.00     0.279 HD
ATOM     36  H62 UNL     1      23.317  24.245 103.161  1.00  0.00     0.279 HD
ATOM     37  H61 UNL     1      24.391  23.626 102.002  1.00  0.00     0.279 HD
ATOM     38  H4  UNL     1      20.510  23.101 102.576  1.00  0.00     0.184 HD
ENDBRANCH  26  28
ENDBRANCH   4  26
BRANCH   1  39
HETATM   39  C1  UNL     1      20.396  29.112 103.058  1.00  0.00     0.299 C 
HETATM   40  N1  UNL     1      21.572  29.538 102.387  1.00  0.00    -0.054 NA
HETATM   41  O1  UNL     1      19.810  29.902 103.845  1.00  0.00    -0.268 OA
ENDBRANCH   1  39
TORSDOF 7
ENDMDL
MODEL 2
REMARK VINA RESULT: -7.558612474      3.414      5.676
REMARK  7 active torsions:
REMARK  status: ('A' for Active; 'I' for Inactive)
REMARK    1  A    between atoms: C1_2  and  C2_4 
REMARK    2  A    between atoms: C3_7  and  N3_8 
REMARK    3  A    between atoms: N3_8  and  N4_10 
REMARK       I    between atoms: N4_10  and  C4_12 
REMARK       I    between atoms: C4_12  and  N5_13 
REMARK       I    between atoms: C4_12  and  N6_17 
REMARK    4  A    between atoms: N8_24  and  C6_26 
REMARK    5  A    between atoms: C8_29  and  O3_30 
REMARK    6  A    between atoms: C9_32  and  O4_33 
REMARK    7  A    between atoms: C10_35  and  N9_36 
ROOT
HETATM    1  C2  UNL     1      23.508  26.644 102.447  1.00  0.00     0.201 A 
HETATM    2  N2  UNL     1      23.114  27.882 102.751  1.00  0.00    -0.169 N 
ATOM      3  H2  UNL     1      23.821  28.588 102.953  1.00  0.00     0.186 HD
HETATM    4  C3  UNL     1      21.809  28.234 102.802  1.00  0.00     0.712 A 
HETATM    5  N7  UNL     1      20.910  27.269 102.527  1.00  0.00    -0.021 N 
ATOM      6  H7  UNL     1      19.919  27.508 102.557  1.00  0.00     0.203 HD
HETATM    7  C5  UNL     1      21.252  26.005 102.216  1.00  0.00     0.696 A 
HETATM    8  N8  UNL     1      20.415  25.062 101.951  1.00  0.00    -0.197 N 
ATOM      9  H8  UNL     1      20.751  24.127 101.722  1.00  0.00     0.180 HD
HETATM   10  N10 UNL     1      22.591  25.711 102.181  1.00  0.00    -0.170 N 
ATOM     11  H10 UNL     1      22.891  24.764 101.948  1.00  0.00     0.186 HD
ENDROOT
BRANCH   8  12
HETATM   12  C6  UNL     1      18.994  25.339 101.978  1.00  0.00     0.270 C 
HETATM   13  O2  UNL     1      18.805  26.558 102.619  1.00  0.00    -0.361 OA
HETATM   14  C7  UNL     1      17.616  27.148 102.267  1.00  0.00     0.205 C 
HETATM   15  C8  UNL     1      17.795  27.752 100.884  1.00  0.00     0.173 C 
HETATM   16  C9  UNL     1      18.399  26.715  99.966  1.00  0.00     0.183 C 
HETATM   17  C10 UNL     1      18.436  25.344 100.573  1.00  0.00     0.263 C 
BRANCH  15  18
HETATM   18  O3  UNL     1      18.630  28.867 101.032  1.00  0.00    -0.391 OA
ATOM     19  H3  UNL     1      18.879  29.144 100.158  1.00  0.00     0.210 HD
ENDBRANCH  15  18
BRANCH  16  20
HETATM   20  O4  UNL     1      17.644  26.687  98.808  1.00  0.00    -0.391 OA
ATOM     21  H4  UNL     1      18.093  26.130  98.184  1.00  0.00     0.210 HD
ENDBRANCH  16  20
BRANCH  17  22
HETATM   22  N9  UNL     1      17.165  24.658 100.508  1.00  0.00    -0.068 N 
ATOM     23  H93 UNL     1      16.786  24.483 101.438  1.00  0.00     0.275 HD
ATOM     24  H92 UNL     1      16.429  25.267 100.149  1.00  0.00     0.275 HD
ATOM     25  H91 UNL     1      17.233  23.797  99.965  1.00  0.00     0.275 HD
ENDBRANCH  17  22
ENDBRANCH   8  12
BRANCH   4  26
HETATM   26  N3  UNL     1      21.448  29.435 103.097  1.00  0.00    -0.133 N 
ATOM     27  H3  UNL     1      22.102  30.216 103.031  1.00  0.00     0.205 HD
BRANCH  26  28
HETATM   28  N4  UNL     1      20.123  29.631 103.513  1.00  0.00    -0.270 N 
HETATM   29  C4  UNL     1      19.928  30.244 104.801  1.00  0.00     0.495 C 
HETATM   30  N5  UNL     1      18.513  30.372 105.075  1.00  0.00    -0.032 N 
HETATM   31  N6  UNL     1      20.480  31.590 104.758  1.00  0.00    -0.032 N 
ATOM     32  H53 UNL     1      18.022  30.872 104.334  1.00  0.00     0.279 HD
ATOM     33  H52 UNL     1      18.025  29.479 104.998  1.00  0.00     0.279 HD
ATOM     34  H51 UNL     1      18.374  30.806 105.988  1.00  0.00     0.279 HD
ATOM     35  H63 UNL     1      21.455  31.604 104.460  1.00  0.00     0.279 HD
ATOM     36  H62 UNL     1      20.094  32.147 103.995  1.00  0.00     0.279 HD
ATOM     37  H61 UNL     1      20.341  32.024 105.670  1.00  0.00     0.279 HD
ATOM     38  H4  UNL     1      19.335  29.351 102.930  1.00  0.00     0.184 HD
ENDBRANCH  26  28
ENDBRANCH   4  26
BRANCH   1  39
HETATM   39  C1  UNL     1      24.915  26.319 102.407  1.00  0.00     0.299 C 
HETATM   40  N1  UNL     1      25.684  26.276 103.599  1.00  0.00    -0.054 NA
HETATM   41  O1  UNL     1      25.468  26.070 101.303  1.00  0.00    -0.268 OA
ENDBRANCH   1  39
TORSDOF 7
ENDMDL
MODEL 3
REMARK VINA RESULT: -7.336712412      1.236      1.780
REMARK  7 active torsions:
REMARK  status: ('A' for Active; 'I' for Inactive)
REMARK    1  A    between atoms: C1_2  and  C2_4 
REMARK    2  A    between atoms: C3_7  and  N3_8 
REMARK    3  A    between atoms: N3_8  and  N4_10 
REMARK       I    between atoms: N4_10  and  C4_12 
REMARK       I    between atoms: C4_12  and  N5_13 
REMARK       I    between atoms: C4_12  and  N6_17 
REMARK    4  A    between atoms: N8_24  and  C6_26 
REMARK    5  A    between atoms: C8_29  and  O3_30 
REMARK    6  A    between atoms: C9_32  and  O4_33 
REMARK    7  A    between atoms: C10_35  and  N9_36 
ROOT
HETATM    1  C2  UNL     1      19.663  27.680 102.888  1.00  0.00     0.201 A 
HETATM    2  N2  UNL     1      20.394  26.738 102.288  1.00  0.00    -0.169 N 
ATOM      3  H2  UNL     1      21.332  26.976 101.965  1.00  0.00     0.186 HD
HETATM    4  C3  UNL     1      19.936  25.482 102.092  1.00  0.00     0.712 A 
HETATM    5  N7  UNL     1      18.693  25.213 102.535  1.00  0.00    -0.021 N 
ATOM      6  H7  UNL     1      18.324  24.272 102.401  1.00  0.00     0.203 HD
HETATM    7  C5  UNL     1      17.912  26.124 103.146  1.00  0.00     0.696 A 
HETATM    8  N8  UNL     1      16.720  25.897 103.579  1.00  0.00    -0.197 N 
ATOM      9  H8  UNL     1      16.189  26.639 104.033  1.00  0.00     0.180 HD
HETATM   10  N10 UNL     1      18.433  27.381 103.315  1.00  0.00    -0.170 N 
ATOM     11  H10 UNL     1      17.873  28.099 103.775  1.00  0.00     0.186 HD
ENDROOT
BRANCH   8  12
HETATM   12  C6  UNL     1      16.140  24.580 103.417  1.00  0.00     0.270 C 
HETATM   13  O2  UNL     1      16.019  24.004 104.676  1.00  0.00    -0.361 OA
HETATM   14  C7  UNL     1      15.058  23.023 104.707  1.00  0.00     0.205 C 
HETATM   15  C8  UNL     1      13.703  23.711 104.745  1.00  0.00     0.173 C 
HETATM   16  C9  UNL     1      13.649  24.758 103.657  1.00  0.00     0.183 C 
HETATM   17  C10 UNL     1      14.809  24.680 102.709  1.00  0.00     0.263 C 
BRANCH  15  18
HETATM   18  O3  UNL     1      13.570  24.277 106.020  1.00  0.00    -0.391 OA
ATOM     19  H3  UNL     1      13.927  25.155 105.971  1.00  0.00     0.210 HD
ENDBRANCH  15  18
BRANCH  16  20
HETATM   20  O4  UNL     1      12.468  24.579 102.960  1.00  0.00    -0.391 OA
ATOM     21  H4  UNL     1      12.073  25.434 102.837  1.00  0.00     0.210 HD
ENDBRANCH  16  20
BRANCH  17  22
HETATM   22  N9  UNL     1      14.660  23.641 101.713  1.00  0.00    -0.068 N 
ATOM     23  H93 UNL     1      15.458  23.615 101.078  1.00  0.00     0.275 HD
ATOM     24  H92 UNL     1      14.756  22.712 102.125  1.00  0.00     0.275 HD
ATOM     25  H91 UNL     1      13.781  23.735 101.205  1.00  0.00     0.275 HD
ENDBRANCH  17  22
ENDBRANCH   8  12
BRANCH   4  26
HETATM   26  N3  UNL     1      20.658  24.586 101.509  1.00  0.00    -0.133 N 
ATOM     27  H3  UNL     1      21.647  24.475 101.736  1.00  0.00     0.205 HD
BRANCH  26  28
HETATM   28  N4  UNL     1      20.034  23.771 100.554  1.00  0.00    -0.270 N 
HETATM   29  C4  UNL     1      19.427  24.432  99.428  1.00  0.00     0.495 C 
HETATM   30  N5  UNL     1      18.833  23.452  98.545  1.00  0.00    -0.032 N 
HETATM   31  N6  UNL     1      20.472  25.111  98.676  1.00  0.00    -0.032 N 
ATOM     32  H53 UNL     1      19.504  22.740  98.255  1.00  0.00     0.279 HD
ATOM     33  H52 UNL     1      18.174  22.845  99.033  1.00  0.00     0.279 HD
ATOM     34  H51 UNL     1      18.403  23.921  97.747  1.00  0.00     0.279 HD
ATOM     35  H63 UNL     1      21.022  25.746  99.255  1.00  0.00     0.279 HD
ATOM     36  H62 UNL     1      21.228  24.483  98.401  1.00  0.00     0.279 HD
ATOM     37  H61 UNL     1      20.042  25.579  97.879  1.00  0.00     0.279 HD
ATOM     38  H4  UNL     1      20.012  22.756 100.653  1.00  0.00     0.184 HD
ENDBRANCH  26  28
ENDBRANCH   4  26
BRANCH   1  39
HETATM   39  C1  UNL     1      20.198  29.008 103.073  1.00  0.00     0.299 C 
HETATM   40  N1  UNL     1      21.365  29.423 102.379  1.00  0.00    -0.054 NA
HETATM   41  O1  UNL     1      19.626  29.809 103.859  1.00  0.00    -0.268 OA
ENDBRANCH   1  39
TORSDOF 7
ENDMDL
MODEL 4
REMARK VINA RESULT: -7.317099560      3.267      3.912
REMARK  7 active torsions:
REMARK  status: ('A' for Active; 'I' for Inactive)
REMARK    1  A    between atoms: C1_2  and  C2_4 
REMARK    2  A    between atoms: C3_7  and  N3_8 
REMARK    3  A    between atoms: N3_8  and  N4_10 
REMARK       I    between atoms: N4_10  and  C4_12 
REMARK       I    between atoms: C4_12  and  N5_13 
REMARK       I    between atoms: C4_12  and  N6_17 
REMARK    4  A    between atoms: N8_24  and  C6_26 
REMARK    5  A    between atoms: C8_29  and  O3_30 
REMARK    6  A    between atoms: C9_32  and  O4_33 
REMARK    7  A    between atoms: C10_35  and  N9_36 
ROOT
HETATM    1  C2  UNL     1      20.299  29.319 103.619  1.00  0.00     0.201 A 
HETATM    2  N2  UNL     1      21.599  29.097 103.408  1.00  0.00    -0.169 N 
ATOM      3  H2  UNL     1      22.276  29.774 103.758  1.00  0.00     0.186 HD
HETATM    4  C3  UNL     1      22.049  28.007 102.748  1.00  0.00     0.712 A 
HETATM    5  N7  UNL     1      21.117  27.139 102.304  1.00  0.00    -0.021 N 
ATOM      6  H7  UNL     1      21.430  26.308 101.804  1.00  0.00     0.203 HD
HETATM    7  C5  UNL     1      19.796  27.315 102.487  1.00  0.00     0.696 A 
HETATM    8  N8  UNL     1      18.884  26.504 102.074  1.00  0.00    -0.197 N 
ATOM      9  H8  UNL     1      17.900  26.705 102.252  1.00  0.00     0.180 HD
HETATM   10  N10 UNL     1      19.402  28.440 103.165  1.00  0.00    -0.170 N 
ATOM     11  H10 UNL     1      18.409  28.608 103.325  1.00  0.00     0.186 HD
ENDROOT
BRANCH   8  12
HETATM   12  C6  UNL     1      19.265  25.305 101.356  1.00  0.00     0.270 C 
HETATM   13  O2  UNL     1      18.790  24.209 102.065  1.00  0.00    -0.361 OA
HETATM   14  C7  UNL     1      18.641  23.101 101.266  1.00  0.00     0.205 C 
HETATM   15  C8  UNL     1      17.372  23.291 100.451  1.00  0.00     0.173 C 
HETATM   16  C9  UNL     1      17.396  24.659  99.811  1.00  0.00     0.183 C 
HETATM   17  C10 UNL     1      18.722  25.348  99.946  1.00  0.00     0.263 C 
BRANCH  15  18
HETATM   18  O3  UNL     1      16.295  23.148 101.336  1.00  0.00    -0.391 OA
ATOM     19  H3  UNL     1      15.654  22.597 100.903  1.00  0.00     0.210 HD
ENDBRANCH  15  18
BRANCH  16  20
HETATM   20  O4  UNL     1      17.090  24.502  98.472  1.00  0.00    -0.391 OA
ATOM     21  H4  UNL     1      17.590  25.146  97.984  1.00  0.00     0.210 HD
ENDBRANCH  16  20
BRANCH  17  22
HETATM   22  N9  UNL     1      19.703  24.885  98.988  1.00  0.00    -0.068 N 
ATOM     23  H93 UNL     1      19.277  24.689  98.083  1.00  0.00     0.275 HD
ATOM     24  H92 UNL     1      20.334  25.636  98.707  1.00  0.00     0.275 HD
ATOM     25  H91 UNL     1      20.218  24.079  99.342  1.00  0.00     0.275 HD
ENDBRANCH  17  22
ENDBRANCH   8  12
BRANCH   4  26
HETATM   26  N3  UNL     1      23.307  27.809 102.554  1.00  0.00    -0.133 N 
ATOM     27  H3  UNL     1      23.972  28.583 102.569  1.00  0.00     0.205 HD
BRANCH  26  28
HETATM   28  N4  UNL     1      23.730  26.492 102.323  1.00  0.00    -0.270 N 
HETATM   29  C4  UNL     1      25.101  26.183 102.637  1.00  0.00     0.495 C 
HETATM   30  N5  UNL     1      25.371  24.792 102.342  1.00  0.00    -0.032 N 
HETATM   31  N6  UNL     1      25.297  26.364 104.067  1.00  0.00    -0.032 N 
ATOM     32  H53 UNL     1      24.718  24.166 102.815  1.00  0.00     0.279 HD
ATOM     33  H52 UNL     1      25.134  24.552 101.379  1.00  0.00     0.279 HD
ATOM     34  H51 UNL     1      26.342  24.573 102.564  1.00  0.00     0.279 HD
ATOM     35  H63 UNL     1      25.022  27.293 104.386  1.00  0.00     0.279 HD
ATOM     36  H62 UNL     1      24.636  25.824 104.625  1.00  0.00     0.279 HD
ATOM     37  H61 UNL     1      26.268  26.145 104.289  1.00  0.00     0.279 HD
ATOM     38  H4  UNL     1      23.095  25.787 101.950  1.00  0.00     0.184 HD
ENDBRANCH  26  28
ENDBRANCH   4  26
BRANCH   1  39
HETATM   39  C1  UNL     1      19.870  30.500 104.330  1.00  0.00     0.299 C 
HETATM   40  N1  UNL     1      18.655  30.503 105.065  1.00  0.00    -0.054 NA
HETATM   41  O1  UNL     1      20.579  31.540 104.300  1.00  0.00    -0.268 OA
ENDBRANCH   1  39
TORSDOF 7
ENDMDL
MODEL 5
REMARK VINA RESULT: -7.108187358      8.667     12.825
REMARK  7 active torsions:
REMARK  status: ('A' for Active; 'I' for Inactive)
REMARK    1  A    between atoms: C1_2  and  C2_4 
REMARK    2  A    between atoms: C3_7  and  N3_8 
REMARK    3  A    between atoms: N3_8  and  N4_10 
REMARK       I    between atoms: N4_10  and  C4_12 
REMARK       I    between atoms: C4_12  and  N5_13 
REMARK       I    between atoms: C4_12  and  N6_17 
REMARK    4  A    between atoms: N8_24  and  C6_26 
REMARK    5  A    between atoms: C8_29  and  O3_30 
REMARK    6  A    between atoms: C9_32  and  O4_33 
REMARK    7  A    between atoms: C10_35  and  N9_36 
ROOT
HETATM    1  C2  UNL     1      29.341  22.123 102.144  1.00  0.00     0.201 A 
HETATM    2  N2  UNL     1      28.086  22.431 102.481  1.00  0.00    -0.169 N 
ATOM      3  H2  UNL     1      27.675  21.987 103.301  1.00  0.00     0.186 HD
HETATM    4  C3  UNL     1      27.342  23.311 101.774  1.00  0.00     0.712 A 
HETATM    5  N7  UNL     1      27.927  23.873 100.699  1.00  0.00    -0.021 N 
ATOM      6  H7  UNL     1      27.388  24.542 100.149  1.00  0.00     0.203 HD
HETATM    7  C5  UNL     1      29.187  23.599 100.313  1.00  0.00     0.696 A 
HETATM    8  N8  UNL     1      29.772  24.119  99.290  1.00  0.00    -0.197 N 
ATOM      9  H8  UNL     1      30.732  23.861  99.061  1.00  0.00     0.180 HD
HETATM   10  N10 UNL     1      29.890  22.698 101.071  1.00  0.00    -0.170 N 
ATOM     11  H10 UNL     1      30.849  22.464 100.812  1.00  0.00     0.186 HD
ENDROOT
BRANCH   8  12
HETATM   12  C6  UNL     1      29.058  25.075  98.468  1.00  0.00     0.270 C 
HETATM   13  O2  UNL     1      29.059  26.297  99.129  1.00  0.00    -0.361 OA
HETATM   14  C7  UNL     1      28.879  27.351  98.267  1.00  0.00     0.205 C 
HETATM   15  C8  UNL     1      30.197  27.587  97.548  1.00  0.00     0.173 C 
HETATM   16  C9  UNL     1      30.705  26.272  97.003  1.00  0.00     0.183 C 
HETATM   17  C10 UNL     1      29.696  25.166  97.102  1.00  0.00     0.263 C 
BRANCH  15  18
HETATM   18  O3  UNL     1      31.079  28.139  98.486  1.00  0.00    -0.391 OA
ATOM     19  H3  UNL     1      31.144  27.518  99.202  1.00  0.00     0.210 HD
ENDBRANCH  15  18
BRANCH  16  20
HETATM   20  O4  UNL     1      31.047  26.470  95.679  1.00  0.00    -0.391 OA
ATOM     21  H4  UNL     1      31.053  25.622  95.252  1.00  0.00     0.210 HD
ENDBRANCH  16  20
BRANCH  17  22
HETATM   22  N9  UNL     1      28.699  25.212  96.055  1.00  0.00    -0.068 N 
ATOM     23  H93 UNL     1      28.993  24.681  95.235  1.00  0.00     0.275 HD
ATOM     24  H92 UNL     1      27.870  24.671  96.304  1.00  0.00     0.275 HD
ATOM     25  H91 UNL     1      28.458  26.172  95.811  1.00  0.00     0.275 HD
ENDBRANCH  17  22
ENDBRANCH   8  12
BRANCH   4  26
HETATM   26  N3  UNL     1      26.132  23.595 102.116  1.00  0.00    -0.133 N 
ATOM     27  H3  UNL     1      25.365  22.947 101.934  1.00  0.00     0.205 HD
BRANCH  26  28
HETATM   28  N4  UNL     1      25.909  24.828 102.747  1.00  0.00    -0.270 N 
HETATM   29  C4  UNL     1      24.903  25.682 102.171  1.00  0.00     0.495 C 
HETATM   30  N5  UNL     1      24.799  26.905 102.938  1.00  0.00    -0.032 N 
HETATM   31  N6  UNL     1      23.618  25.006 102.265  1.00  0.00    -0.032 N 
ATOM     32  H53 UNL     1      24.628  26.724 103.928  1.00  0.00     0.279 HD
ATOM     33  H52 UNL     1      25.699  27.378 103.028  1.00  0.00     0.279 HD
ATOM     34  H51 UNL     1      24.087  27.510 102.530  1.00  0.00     0.279 HD
ATOM     35  H63 UNL     1      23.631  24.077 101.844  1.00  0.00     0.279 HD
ATOM     36  H62 UNL     1      23.393  24.723 103.219  1.00  0.00     0.279 HD
ATOM     37  H61 UNL     1      22.905  25.612 101.858  1.00  0.00     0.279 HD
ATOM     38  H4  UNL     1      26.435  25.105 103.575  1.00  0.00     0.184 HD
ENDBRANCH  26  28
ENDBRANCH   4  26
BRANCH   1  39
HETATM   39  C1  UNL     1      30.093  21.176 102.933  1.00  0.00     0.299 C 
HETATM   40  N1  UNL     1      29.970  21.150 104.347  1.00  0.00    -0.054 NA
HETATM   41  O1  UNL     1      30.869  20.364 102.362  1.00  0.00    -0.268 OA
ENDBRANCH   1  39
TORSDOF 7
ENDMDL
