MODEL 1
REMARK VINA RESULT: -6.760426638      0.000      0.000
REMARK  10 active torsions:
REMARK  status: ('A' for Active; 'I' for Inactive)
REMARK    1  A    between atoms: C2_2  and  O1_3 
REMARK    2  A    between atoms: C2_2  and  N1_5 
REMARK    3  A    between atoms: N1_5  and  C3_7 
REMARK    4  A    between atoms: C5_9  and  C6_10 
REMARK       I    between atoms: C6_10  and  N2_12 
REMARK    5  A    between atoms: N2_12  and  C7_14 
REMARK    6  A    between atoms: N4_21  and  C11_22 
REMARK    7  A    between atoms: C11_22  and  C12_23 
REMARK    8  A    between atoms: C13_24  and  O3_25 
REMARK    9  A    between atoms: N6_31  and  N7_32 
REMARK   10  A    between atoms: N7_32  and  C15_34 
ROOT
HETATM    1  C3  UNL     1      18.177  41.580  -2.430  1.00  0.00     0.106 A 
HETATM    2  C4  UNL     1      17.403  42.584  -1.856  1.00  0.00     0.067 A 
HETATM    3  C5  UNL     1      17.736  43.801  -2.390  1.00  0.00     0.051 A 
HETATM    4  C10 UNL     1      18.729  43.524  -3.302  1.00  0.00     0.110 A 
HETATM    5  N4  UNL     1      18.992  42.171  -3.318  1.00  0.00    -0.338 N 
ENDROOT
BRANCH   5   6
HETATM    6  C11 UNL     1      20.033  41.621  -4.129  1.00  0.00     0.178 C 
BRANCH   6   7
HETATM    7  C12 UNL     1      19.596  41.042  -5.448  1.00  0.00     0.081 A 
HETATM    8  C13 UNL     1      19.160  39.761  -5.581  1.00  0.00     0.157 A 
HETATM    9  N5  UNL     1      18.807  39.350  -6.809  1.00  0.00    -0.287 N 
HETATM   10  C14 UNL     1      18.882  40.179  -7.872  1.00  0.00     0.350 A 
ATOM     11  H5  UNL     1      18.477  38.394  -6.942  1.00  0.00     0.172 HD
HETATM   12  O4  UNL     1      18.525  39.679  -8.972  1.00  0.00    -0.244 OA
HETATM   13  N6  UNL     1      19.298  41.446  -7.822  1.00  0.00    -0.165 N 
HETATM   14  C16 UNL     1      19.660  41.871  -6.565  1.00  0.00     0.282 A 
HETATM   15  O6  UNL     1      20.058  43.038  -6.404  1.00  0.00    -0.265 OA
BRANCH   8  16
HETATM   16  O3  UNL     1      19.064  38.873  -4.507  1.00  0.00    -0.345 OA
ATOM     17  H3  UNL     1      19.063  37.929  -4.613  1.00  0.00     0.219 HD
ENDBRANCH   8  16
BRANCH  13  18
HETATM   18  N7  UNL     1      19.404  42.342  -8.868  1.00  0.00    -0.264 N 
ATOM     19  H7  UNL     1      20.352  42.442  -9.228  1.00  0.00     0.190 HD
BRANCH  18  20
HETATM   20  C15 UNL     1      18.488  43.115  -9.510  1.00  0.00     0.369 C 
HETATM   21  O5  UNL     1      18.040  44.221  -9.208  1.00  0.00    -0.282 OA
ENDBRANCH  18  20
ENDBRANCH  13  18
ENDBRANCH   6   7
ENDBRANCH   5   6
BRANCH   1  22
HETATM   22  N1  UNL     1      18.046  40.190  -2.152  1.00  0.00    -0.350 N 
ATOM     23  H1  UNL     1      17.643  39.555  -2.841  1.00  0.00     0.163 HD
BRANCH  22  24
HETATM   24  C2  UNL     1      18.498  39.698  -0.866  1.00  0.00     0.214 C 
HETATM   25  C1  UNL     1      19.686  38.770  -1.015  1.00  0.00     0.063 C 
BRANCH  24  26
HETATM   26  O1  UNL     1      17.404  39.008  -0.303  1.00  0.00    -0.377 OA
ATOM     27  H1  UNL     1      16.805  39.618   0.109  1.00  0.00     0.212 HD
ENDBRANCH  24  26
ENDBRANCH  22  24
ENDBRANCH   1  22
BRANCH   3  28
HETATM   28  C6  UNL     1      17.183  45.112  -2.081  1.00  0.00     0.259 C 
HETATM   29  O2  UNL     1      16.694  45.324  -0.942  1.00  0.00    -0.267 OA
HETATM   30  N2  UNL     1      17.166  46.177  -3.017  1.00  0.00    -0.303 N 
ATOM     31  H2  UNL     1      18.035  46.592  -3.353  1.00  0.00     0.171 HD
BRANCH  30  32
HETATM   32  C7  UNL     1      15.998  46.617  -3.441  1.00  0.00     0.151 A 
HETATM   33  N3  UNL     1      14.794  46.311  -2.960  1.00  0.00    -0.346 N 
HETATM   34  C8  UNL     1      13.744  46.847  -3.512  1.00  0.00     0.097 A 
ATOM     35  H3  UNL     1      14.697  45.670  -2.173  1.00  0.00     0.167 HD
HETATM   36  C9  UNL     1      13.943  47.702  -4.566  1.00  0.00     0.070 A 
HETATM   37  S1  UNL     1      15.642  47.695  -4.713  1.00  0.00    -0.064 SA
ENDBRANCH  30  32
ENDBRANCH   3  28
TORSDOF 10
ENDMDL
MODEL 2
REMARK VINA RESULT: -6.750466963      3.433      7.112
REMARK  10 active torsions:
REMARK  status: ('A' for Active; 'I' for Inactive)
REMARK    1  A    between atoms: C2_2  and  O1_3 
REMARK    2  A    between atoms: C2_2  and  N1_5 
REMARK    3  A    between atoms: N1_5  and  C3_7 
REMARK    4  A    between atoms: C5_9  and  C6_10 
REMARK       I    between atoms: C6_10  and  N2_12 
REMARK    5  A    between atoms: N2_12  and  C7_14 
REMARK    6  A    between atoms: N4_21  and  C11_22 
REMARK    7  A    between atoms: C11_22  and  C12_23 
REMARK    8  A    between atoms: C13_24  and  O3_25 
REMARK    9  A    between atoms: N6_31  and  N7_32 
REMARK   10  A    between atoms: N7_32  and  C15_34 
ROOT
HETATM    1  C3  UNL     1      22.272  39.292  -2.959  1.00  0.00     0.106 A 
HETATM    2  C4  UNL     1      22.220  38.630  -4.182  1.00  0.00     0.067 A 
HETATM    3  C5  UNL     1      20.918  38.465  -4.575  1.00  0.00     0.051 A 
HETATM    4  C10 UNL     1      20.173  39.038  -3.569  1.00  0.00     0.110 A 
HETATM    5  N4  UNL     1      21.004  39.535  -2.589  1.00  0.00    -0.338 N 
ENDROOT
BRANCH   5   6
HETATM    6  C11 UNL     1      20.485  40.120  -1.393  1.00  0.00     0.178 C 
BRANCH   6   7
HETATM    7  C12 UNL     1      19.085  40.665  -1.487  1.00  0.00     0.081 A 
HETATM    8  C13 UNL     1      17.989  39.940  -1.134  1.00  0.00     0.157 A 
HETATM    9  N5  UNL     1      16.789  40.525  -1.272  1.00  0.00    -0.287 N 
HETATM   10  C14 UNL     1      16.675  41.785  -1.742  1.00  0.00     0.350 A 
ATOM     11  H5  UNL     1      15.947  40.008  -1.016  1.00  0.00     0.172 HD
HETATM   12  O4  UNL     1      15.497  42.224  -1.826  1.00  0.00    -0.244 OA
HETATM   13  N6  UNL     1      17.700  42.558  -2.107  1.00  0.00    -0.165 N 
HETATM   14  C16 UNL     1      18.932  41.962  -1.968  1.00  0.00     0.282 A 
HETATM   15  O6  UNL     1      19.956  42.595  -2.276  1.00  0.00    -0.265 OA
BRANCH   8  16
HETATM   16  O3  UNL     1      18.064  38.636  -0.640  1.00  0.00    -0.345 OA
ATOM     17  H3  UNL     1      18.448  37.918  -1.128  1.00  0.00     0.219 HD
ENDBRANCH   8  16
BRANCH  13  18
HETATM   18  N7  UNL     1      17.651  43.846  -2.600  1.00  0.00    -0.264 N 
ATOM     19  H7  UNL     1      17.848  43.913  -3.598  1.00  0.00     0.190 HD
BRANCH  18  20
HETATM   20  C15 UNL     1      17.391  45.044  -2.012  1.00  0.00     0.369 C 
HETATM   21  O5  UNL     1      16.688  45.308  -1.037  1.00  0.00    -0.282 OA
ENDBRANCH  18  20
ENDBRANCH  13  18
ENDBRANCH   6   7
ENDBRANCH   5   6
BRANCH   1  22
HETATM   22  N1  UNL     1      23.468  39.681  -2.293  1.00  0.00    -0.350 N 
ATOM     23  H1  UNL     1      23.897  39.077  -1.592  1.00  0.00     0.163 HD
BRANCH  22  24
HETATM   24  C2  UNL     1      24.064  40.958  -2.635  1.00  0.00     0.214 C 
HETATM   25  C1  UNL     1      25.575  40.907  -2.541  1.00  0.00     0.063 C 
BRANCH  24  26
HETATM   26  O1  UNL     1      23.546  41.892  -1.712  1.00  0.00    -0.377 OA
ATOM     27  H1  UNL     1      22.816  42.364  -2.094  1.00  0.00     0.212 HD
ENDBRANCH  24  26
ENDBRANCH  22  24
ENDBRANCH   1  22
BRANCH   3  28
HETATM   28  C6  UNL     1      20.406  37.830  -5.781  1.00  0.00     0.259 C 
HETATM   29  O2  UNL     1      21.212  37.340  -6.612  1.00  0.00    -0.267 OA
HETATM   30  N2  UNL     1      19.020  37.737  -6.069  1.00  0.00    -0.303 N 
ATOM     31  H2  UNL     1      18.398  37.183  -5.479  1.00  0.00     0.171 HD
BRANCH  30  32
HETATM   32  C7  UNL     1      18.556  38.385  -7.119  1.00  0.00     0.151 A 
HETATM   33  N3  UNL     1      18.912  39.595  -7.546  1.00  0.00    -0.346 N 
HETATM   34  C8  UNL     1      18.340  40.077  -8.611  1.00  0.00     0.097 A 
ATOM     35  H3  UNL     1      19.620  40.134  -7.048  1.00  0.00     0.167 HD
HETATM   36  C9  UNL     1      17.395  39.302  -9.235  1.00  0.00     0.070 A 
HETATM   37  S1  UNL     1      17.376  37.908  -8.253  1.00  0.00    -0.064 SA
ENDBRANCH  30  32
ENDBRANCH   3  28
TORSDOF 10
ENDMDL
MODEL 3
REMARK VINA RESULT: -6.536032281      0.940      2.487
REMARK  10 active torsions:
REMARK  status: ('A' for Active; 'I' for Inactive)
REMARK    1  A    between atoms: C2_2  and  O1_3 
REMARK    2  A    between atoms: C2_2  and  N1_5 
REMARK    3  A    between atoms: N1_5  and  C3_7 
REMARK    4  A    between atoms: C5_9  and  C6_10 
REMARK       I    between atoms: C6_10  and  N2_12 
REMARK    5  A    between atoms: N2_12  and  C7_14 
REMARK    6  A    between atoms: N4_21  and  C11_22 
REMARK    7  A    between atoms: C11_22  and  C12_23 
REMARK    8  A    between atoms: C13_24  and  O3_25 
REMARK    9  A    between atoms: N6_31  and  N7_32 
REMARK   10  A    between atoms: N7_32  and  C15_34 
ROOT
HETATM    1  C3  UNL     1      18.222  41.603  -2.454  1.00  0.00     0.106 A 
HETATM    2  C4  UNL     1      17.435  42.585  -1.860  1.00  0.00     0.067 A 
HETATM    3  C5  UNL     1      17.758  43.818  -2.362  1.00  0.00     0.051 A 
HETATM    4  C10 UNL     1      18.759  43.574  -3.275  1.00  0.00     0.110 A 
HETATM    5  N4  UNL     1      19.037  42.225  -3.322  1.00  0.00    -0.338 N 
ENDROOT
BRANCH   5   6
HETATM    6  C11 UNL     1      20.088  41.706  -4.139  1.00  0.00     0.178 C 
BRANCH   6   7
HETATM    7  C12 UNL     1      19.728  41.442  -5.577  1.00  0.00     0.081 A 
HETATM    8  C13 UNL     1      19.863  42.381  -6.552  1.00  0.00     0.157 A 
HETATM    9  N5  UNL     1      19.498  42.037  -7.798  1.00  0.00    -0.287 N 
HETATM   10  C14 UNL     1      19.017  40.806  -8.071  1.00  0.00     0.350 A 
ATOM     11  H5  UNL     1      19.587  42.719  -8.552  1.00  0.00     0.172 HD
HETATM   12  O4  UNL     1      18.709  40.603  -9.276  1.00  0.00    -0.244 OA
HETATM   13  N6  UNL     1      18.857  39.834  -7.171  1.00  0.00    -0.165 N 
HETATM   14  C16 UNL     1      19.229  40.182  -5.893  1.00  0.00     0.282 A 
HETATM   15  O6  UNL     1      19.125  39.349  -4.976  1.00  0.00    -0.265 OA
BRANCH   8  16
HETATM   16  O3  UNL     1      20.360  43.664  -6.313  1.00  0.00    -0.345 OA
ATOM     17  H3  UNL     1      20.887  43.882  -5.554  1.00  0.00     0.219 HD
ENDBRANCH   8  16
BRANCH  13  18
HETATM   18  N7  UNL     1      18.366  38.561  -7.382  1.00  0.00    -0.264 N 
ATOM     19  H7  UNL     1      17.409  38.429  -7.054  1.00  0.00     0.190 HD
BRANCH  18  20
HETATM   20  C15 UNL     1      18.911  37.449  -7.943  1.00  0.00     0.369 C 
HETATM   21  O5  UNL     1      18.412  36.342  -8.146  1.00  0.00    -0.282 OA
ENDBRANCH  18  20
ENDBRANCH  13  18
ENDBRANCH   6   7
ENDBRANCH   5   6
BRANCH   1  22
HETATM   22  N1  UNL     1      18.105  40.206  -2.211  1.00  0.00    -0.350 N 
ATOM     23  H1  UNL     1      17.709  39.584  -2.916  1.00  0.00     0.163 HD
BRANCH  22  24
HETATM   24  C2  UNL     1      18.561  39.686  -0.937  1.00  0.00     0.214 C 
HETATM   25  C1  UNL     1      19.681  38.682  -1.118  1.00  0.00     0.063 C 
BRANCH  24  26
HETATM   26  O1  UNL     1      17.441  39.069  -0.341  1.00  0.00    -0.377 OA
ATOM     27  H1  UNL     1      16.651  39.557  -0.541  1.00  0.00     0.212 HD
ENDBRANCH  24  26
ENDBRANCH  22  24
ENDBRANCH   1  22
BRANCH   3  28
HETATM   28  C6  UNL     1      17.188  45.115  -2.024  1.00  0.00     0.259 C 
HETATM   29  O2  UNL     1      16.666  45.285  -0.894  1.00  0.00    -0.267 OA
HETATM   30  N2  UNL     1      17.192  46.212  -2.924  1.00  0.00    -0.303 N 
ATOM     31  H2  UNL     1      18.068  46.642  -3.221  1.00  0.00     0.171 HD
BRANCH  30  32
HETATM   32  C7  UNL     1      16.034  46.660  -3.366  1.00  0.00     0.151 A 
HETATM   33  N3  UNL     1      14.828  46.433  -2.850  1.00  0.00    -0.346 N 
HETATM   34  C8  UNL     1      13.789  46.963  -3.428  1.00  0.00     0.097 A 
ATOM     35  H3  UNL     1      14.719  45.854  -2.018  1.00  0.00     0.167 HD
HETATM   36  C9  UNL     1      14.002  47.732  -4.544  1.00  0.00     0.070 A 
HETATM   37  S1  UNL     1      15.698  47.654  -4.709  1.00  0.00    -0.064 SA
ENDBRANCH  30  32
ENDBRANCH   3  28
TORSDOF 10
ENDMDL
MODEL 4
REMARK VINA RESULT: -6.373164405      2.850      4.535
REMARK  10 active torsions:
REMARK  status: ('A' for Active; 'I' for Inactive)
REMARK    1  A    between atoms: C2_2  and  O1_3 
REMARK    2  A    between atoms: C2_2  and  N1_5 
REMARK    3  A    between atoms: N1_5  and  C3_7 
REMARK    4  A    between atoms: C5_9  and  C6_10 
REMARK       I    between atoms: C6_10  and  N2_12 
REMARK    5  A    between atoms: N2_12  and  C7_14 
REMARK    6  A    between atoms: N4_21  and  C11_22 
REMARK    7  A    between atoms: C11_22  and  C12_23 
REMARK    8  A    between atoms: C13_24  and  O3_25 
REMARK    9  A    between atoms: N6_31  and  N7_32 
REMARK   10  A    between atoms: N7_32  and  C15_34 
ROOT
HETATM    1  C3  UNL     1      18.449  41.721  -2.628  1.00  0.00     0.106 A 
HETATM    2  C4  UNL     1      17.586  42.610  -1.994  1.00  0.00     0.067 A 
HETATM    3  C5  UNL     1      17.803  43.883  -2.446  1.00  0.00     0.051 A 
HETATM    4  C10 UNL     1      18.816  43.760  -3.370  1.00  0.00     0.110 A 
HETATM    5  N4  UNL     1      19.205  42.442  -3.472  1.00  0.00    -0.338 N 
ENDROOT
BRANCH   5   6
HETATM    6  C11 UNL     1      20.292  42.045  -4.311  1.00  0.00     0.178 C 
BRANCH   6   7
HETATM    7  C12 UNL     1      21.547  41.620  -3.596  1.00  0.00     0.081 A 
HETATM    8  C13 UNL     1      22.389  42.506  -3.000  1.00  0.00     0.157 A 
HETATM    9  N5  UNL     1      23.485  42.013  -2.402  1.00  0.00    -0.287 N 
HETATM   10  C14 UNL     1      23.741  40.687  -2.394  1.00  0.00     0.350 A 
ATOM     11  H5  UNL     1      24.137  42.651  -1.946  1.00  0.00     0.172 HD
HETATM   12  O4  UNL     1      24.800  40.347  -1.803  1.00  0.00    -0.244 OA
HETATM   13  N6  UNL     1      22.965  39.758  -2.955  1.00  0.00    -0.165 N 
HETATM   14  C16 UNL     1      21.840  40.259  -3.568  1.00  0.00     0.282 A 
HETATM   15  O6  UNL     1      21.044  39.479  -4.120  1.00  0.00    -0.265 OA
BRANCH   8  16
HETATM   16  O3  UNL     1      22.159  43.883  -2.983  1.00  0.00    -0.345 OA
ATOM     17  H3  UNL     1      22.793  44.519  -3.292  1.00  0.00     0.219 HD
ENDBRANCH   8  16
BRANCH  13  18
HETATM   18  N7  UNL     1      23.171  38.394  -2.988  1.00  0.00    -0.264 N 
ATOM     19  H7  UNL     1      22.751  37.895  -2.204  1.00  0.00     0.190 HD
BRANCH  18  20
HETATM   20  C15 UNL     1      23.826  37.586  -3.863  1.00  0.00     0.369 C 
HETATM   21  O5  UNL     1      23.801  36.360  -3.976  1.00  0.00    -0.282 OA
ENDBRANCH  18  20
ENDBRANCH  13  18
ENDBRANCH   6   7
ENDBRANCH   5   6
BRANCH   1  22
HETATM   22  N1  UNL     1      18.449  40.310  -2.440  1.00  0.00    -0.350 N 
ATOM     23  H1  UNL     1      18.328  39.677  -3.231  1.00  0.00     0.163 HD
BRANCH  22  24
HETATM   24  C2  UNL     1      18.626  39.792  -1.098  1.00  0.00     0.214 C 
HETATM   25  C1  UNL     1      19.623  38.652  -1.072  1.00  0.00     0.063 C 
BRANCH  24  26
HETATM   26  O1  UNL     1      17.355  39.342  -0.681  1.00  0.00    -0.377 OA
ATOM     27  H1  UNL     1      16.687  39.626  -1.293  1.00  0.00     0.212 HD
ENDBRANCH  24  26
ENDBRANCH  22  24
ENDBRANCH   1  22
BRANCH   3  28
HETATM   28  C6  UNL     1      17.130  45.114  -2.056  1.00  0.00     0.259 C 
HETATM   29  O2  UNL     1      16.556  45.178  -0.939  1.00  0.00    -0.267 OA
HETATM   30  N2  UNL     1      17.087  46.262  -2.889  1.00  0.00    -0.303 N 
ATOM     31  H2  UNL     1      17.939  46.770  -3.124  1.00  0.00     0.171 HD
BRANCH  30  32
HETATM   32  C7  UNL     1      15.916  46.655  -3.350  1.00  0.00     0.151 A 
HETATM   33  N3  UNL     1      14.712  46.345  -2.872  1.00  0.00    -0.346 N 
HETATM   34  C8  UNL     1      13.659  46.830  -3.464  1.00  0.00     0.097 A 
ATOM     35  H3  UNL     1      14.617  45.739  -2.058  1.00  0.00     0.167 HD
HETATM   36  C9  UNL     1      13.855  47.639  -4.555  1.00  0.00     0.070 A 
HETATM   37  S1  UNL     1      15.556  47.663  -4.676  1.00  0.00    -0.064 SA
ENDBRANCH  30  32
ENDBRANCH   3  28
TORSDOF 10
ENDMDL
MODEL 5
REMARK VINA RESULT: -6.345874392      2.862      4.620
REMARK  10 active torsions:
REMARK  status: ('A' for Active; 'I' for Inactive)
REMARK    1  A    between atoms: C2_2  and  O1_3 
REMARK    2  A    between atoms: C2_2  and  N1_5 
REMARK    3  A    between atoms: N1_5  and  C3_7 
REMARK    4  A    between atoms: C5_9  and  C6_10 
REMARK       I    between atoms: C6_10  and  N2_12 
REMARK    5  A    between atoms: N2_12  and  C7_14 
REMARK    6  A    between atoms: N4_21  and  C11_22 
REMARK    7  A    between atoms: C11_22  and  C12_23 
REMARK    8  A    between atoms: C13_24  and  O3_25 
REMARK    9  A    between atoms: N6_31  and  N7_32 
REMARK   10  A    between atoms: N7_32  and  C15_34 
ROOT
HETATM    1  C3  UNL     1      19.487  45.304  -1.849  1.00  0.00     0.106 A 
HETATM    2  C4  UNL     1      18.248  45.926  -1.718  1.00  0.00     0.067 A 
HETATM    3  C5  UNL     1      17.320  45.300  -2.506  1.00  0.00     0.051 A 
HETATM    4  C10 UNL     1      18.011  44.283  -3.124  1.00  0.00     0.110 A 
HETATM    5  N4  UNL     1      19.329  44.294  -2.721  1.00  0.00    -0.338 N 
ENDROOT
BRANCH   5   6
HETATM    6  C11 UNL     1      20.287  43.385  -3.266  1.00  0.00     0.178 C 
BRANCH   6   7
HETATM    7  C12 UNL     1      20.233  41.980  -2.728  1.00  0.00     0.081 A 
HETATM    8  C13 UNL     1      20.737  41.639  -1.511  1.00  0.00     0.157 A 
HETATM    9  N5  UNL     1      20.643  40.352  -1.140  1.00  0.00    -0.287 N 
HETATM   10  C14 UNL     1      20.071  39.432  -1.946  1.00  0.00     0.350 A 
ATOM     11  H5  UNL     1      21.012  40.064  -0.234  1.00  0.00     0.172 HD
HETATM   12  O4  UNL     1      20.042  38.258  -1.488  1.00  0.00    -0.244 OA
HETATM   13  N6  UNL     1      19.555  39.689  -3.149  1.00  0.00    -0.165 N 
HETATM   14  C16 UNL     1      19.648  41.007  -3.533  1.00  0.00     0.282 A 
HETATM   15  O6  UNL     1      19.195  41.357  -4.636  1.00  0.00    -0.265 OA
BRANCH   8  16
HETATM   16  O3  UNL     1      21.333  42.560  -0.647  1.00  0.00    -0.345 OA
ATOM     17  H3  UNL     1      22.062  43.112  -0.901  1.00  0.00     0.219 HD
ENDBRANCH   8  16
BRANCH  13  18
HETATM   18  N7  UNL     1      18.963  38.797  -4.021  1.00  0.00    -0.264 N 
ATOM     19  H7  UNL     1      17.991  38.586  -3.798  1.00  0.00     0.190 HD
BRANCH  18  20
HETATM   20  C15 UNL     1      19.427  38.145  -5.121  1.00  0.00     0.369 C 
HETATM   21  O5  UNL     1      18.862  37.333  -5.853  1.00  0.00    -0.282 OA
ENDBRANCH  18  20
ENDBRANCH  13  18
ENDBRANCH   6   7
ENDBRANCH   5   6
BRANCH   1  22
HETATM   22  N1  UNL     1      20.658  45.659  -1.122  1.00  0.00    -0.350 N 
ATOM     23  H1  UNL     1      21.557  45.755  -1.595  1.00  0.00     0.163 HD
BRANCH  22  24
HETATM   24  C2  UNL     1      20.543  45.880   0.305  1.00  0.00     0.214 C 
HETATM   25  C1  UNL     1      21.813  46.478   0.876  1.00  0.00     0.063 C 
BRANCH  24  26
HETATM   26  O1  UNL     1      20.296  44.615   0.880  1.00  0.00    -0.377 OA
ATOM     27  H1  UNL     1      20.951  44.418   1.539  1.00  0.00     0.212 HD
ENDBRANCH  24  26
ENDBRANCH  22  24
ENDBRANCH   1  22
BRANCH   3  28
HETATM   28  C6  UNL     1      15.909  45.617  -2.676  1.00  0.00     0.259 C 
HETATM   29  O2  UNL     1      15.097  44.699  -2.957  1.00  0.00    -0.267 OA
HETATM   30  N2  UNL     1      15.397  46.933  -2.539  1.00  0.00    -0.303 N 
ATOM     31  H2  UNL     1      15.426  47.416  -1.641  1.00  0.00     0.171 HD
BRANCH  30  32
HETATM   32  C7  UNL     1      14.882  47.516  -3.603  1.00  0.00     0.151 A 
HETATM   33  N3  UNL     1      14.077  46.973  -4.514  1.00  0.00    -0.346 N 
HETATM   34  C8  UNL     1      13.665  47.709  -5.506  1.00  0.00     0.097 A 
ATOM     35  H3  UNL     1      13.787  45.998  -4.436  1.00  0.00     0.167 HD
HETATM   36  C9  UNL     1      14.090  49.013  -5.552  1.00  0.00     0.070 A 
HETATM   37  S1  UNL     1      15.067  49.117  -4.158  1.00  0.00    -0.064 SA
ENDBRANCH  30  32
ENDBRANCH   3  28
TORSDOF 10
ENDMDL
