MODEL 1
REMARK VINA RESULT: -4.818803399      0.000      0.000
REMARK  1 active torsions:
REMARK  status: ('A' for Active; 'I' for Inactive)
REMARK    1  A    between atoms: N1_2  and  C3_4 
ROOT
HETATM    1  C3  UNL     1      20.244  25.687  30.117  1.00  0.00     0.527 C 
HETATM    2  N2  UNL     1      20.649  24.469  29.432  1.00  0.00    -0.010 N 
ATOM      3  H21 UNL     1      20.238  23.638  29.859  1.00  0.00     0.283 HD
ATOM      4  H22 UNL     1      21.632  24.252  29.594  1.00  0.00     0.283 HD
HETATM    5  C4  UNL     1      20.338  24.557  28.008  1.00  0.00     0.363 C 
HETATM    6  N3  UNL     1      18.963  25.023  27.827  1.00  0.00    -0.319 N 
ATOM      7  H3  UNL     1      18.592  25.123  26.883  1.00  0.00     0.165 HD
HETATM    8  C5  UNL     1      18.129  25.341  28.945  1.00  0.00     0.320 C 
HETATM    9  O1  UNL     1      16.893  25.347  28.846  1.00  0.00    -0.247 OA
HETATM   10  N4  UNL     1      18.786  25.651  30.177  1.00  0.00    -0.290 N 
ATOM     11  H4  UNL     1      18.271  25.834  31.037  1.00  0.00     0.168 HD
ENDROOT
BRANCH   1  12
HETATM   12  N1  UNL     1      20.728  25.635  31.473  1.00  0.00     0.130 N 
HETATM   13  C1  UNL     1      19.721  25.965  32.449  1.00  0.00     0.314 C 
HETATM   14  C2  UNL     1      21.424  24.410  31.772  1.00  0.00     0.314 C 
ENDBRANCH   1  12
TORSDOF 1
ENDMDL
MODEL 2
REMARK VINA RESULT: -4.711963439      0.620      1.221
REMARK  1 active torsions:
REMARK  status: ('A' for Active; 'I' for Inactive)
REMARK    1  A    between atoms: N1_2  and  C3_4 
ROOT
HETATM    1  C3  UNL     1      19.681  25.556  30.541  1.00  0.00     0.527 C 
HETATM    2  N2  UNL     1      20.477  24.629  29.751  1.00  0.00    -0.010 N 
ATOM      3  H21 UNL     1      20.153  23.667  29.853  1.00  0.00     0.283 HD
ATOM      4  H22 UNL     1      21.416  24.514  30.133  1.00  0.00     0.283 HD
HETATM    5  C4  UNL     1      20.508  25.047  28.352  1.00  0.00     0.363 C 
HETATM    6  N3  UNL     1      19.152  25.351  27.895  1.00  0.00    -0.319 N 
ATOM      7  H3  UNL     1      19.006  25.645  26.929  1.00  0.00     0.165 HD
HETATM    8  C5  UNL     1      18.026  25.245  28.771  1.00  0.00     0.320 C 
HETATM    9  O1  UNL     1      16.876  25.107  28.330  1.00  0.00    -0.247 OA
HETATM   10  N4  UNL     1      18.290  25.306  30.175  1.00  0.00    -0.290 N 
ATOM     11  H4  UNL     1      17.557  25.183  30.873  1.00  0.00     0.168 HD
ENDROOT
BRANCH   1  12
HETATM   12  N1  UNL     1      19.824  25.215  31.934  1.00  0.00     0.130 N 
HETATM   13  C1  UNL     1      20.954  24.362  32.196  1.00  0.00     0.314 C 
HETATM   14  C2  UNL     1      19.771  26.366  32.798  1.00  0.00     0.314 C 
ENDBRANCH   1  12
TORSDOF 1
ENDMDL
MODEL 3
REMARK VINA RESULT: -4.662529720      1.837      3.703
REMARK  1 active torsions:
REMARK  status: ('A' for Active; 'I' for Inactive)
REMARK    1  A    between atoms: N1_2  and  C3_4 
ROOT
HETATM    1  C3  UNL     1      19.963  24.955  29.869  1.00  0.00     0.527 C 
HETATM    2  N2  UNL     1      21.389  25.194  30.035  1.00  0.00    -0.010 N 
ATOM      3  H21 UNL     1      21.607  26.191  30.051  1.00  0.00     0.283 HD
ATOM      4  H22 UNL     1      21.917  24.938  29.201  1.00  0.00     0.283 HD
HETATM    5  C4  UNL     1      21.886  24.510  31.225  1.00  0.00     0.363 C 
HETATM    6  N3  UNL     1      21.005  24.785  32.360  1.00  0.00    -0.319 N 
ATOM      7  H3  UNL     1      21.229  24.386  33.272  1.00  0.00     0.165 HD
HETATM    8  C5  UNL     1      19.839  25.600  32.221  1.00  0.00     0.320 C 
HETATM    9  O1  UNL     1      19.322  26.160  33.200  1.00  0.00    -0.247 OA
HETATM   10  N4  UNL     1      19.299  25.740  30.904  1.00  0.00    -0.290 N 
ATOM     11  H4  UNL     1      18.504  26.346  30.703  1.00  0.00     0.168 HD
ENDROOT
BRANCH   1  12
HETATM   12  N1  UNL     1      19.551  25.491  28.596  1.00  0.00     0.130 N 
HETATM   13  C1  UNL     1      20.589  25.446  27.598  1.00  0.00     0.314 C 
HETATM   14  C2  UNL     1      18.302  24.941  28.137  1.00  0.00     0.314 C 
ENDBRANCH   1  12
TORSDOF 1
ENDMDL
MODEL 4
REMARK VINA RESULT: -4.622396618      1.946      3.597
REMARK  1 active torsions:
REMARK  status: ('A' for Active; 'I' for Inactive)
REMARK    1  A    between atoms: N1_2  and  C3_4 
ROOT
HETATM    1  C3  UNL     1      19.833  24.979  29.902  1.00  0.00     0.527 C 
HETATM    2  N2  UNL     1      21.264  25.233  29.964  1.00  0.00    -0.010 N 
ATOM      3  H21 UNL     1      21.473  26.231  29.982  1.00  0.00     0.283 HD
ATOM      4  H22 UNL     1      21.730  24.997  29.088  1.00  0.00     0.283 HD
HETATM    5  C4  UNL     1      21.858  24.534  31.100  1.00  0.00     0.363 C 
HETATM    6  N3  UNL     1      21.063  24.778  32.304  1.00  0.00    -0.319 N 
ATOM      7  H3  UNL     1      21.359  24.366  33.189  1.00  0.00     0.165 HD
HETATM    8  C5  UNL     1      19.880  25.582  32.268  1.00  0.00     0.320 C 
HETATM    9  O1  UNL     1      19.433  26.118  33.293  1.00  0.00    -0.247 OA
HETATM   10  N4  UNL     1      19.240  25.737  30.999  1.00  0.00    -0.290 N 
ATOM     11  H4  UNL     1      18.426  26.336  30.869  1.00  0.00     0.168 HD
ENDROOT
BRANCH   1  12
HETATM   12  N1  UNL     1      19.320  25.531  28.674  1.00  0.00     0.130 N 
HETATM   13  C1  UNL     1      17.905  25.322  28.504  1.00  0.00     0.314 C 
HETATM   14  C2  UNL     1      19.717  26.901  28.470  1.00  0.00     0.314 C 
ENDBRANCH   1  12
TORSDOF 1
ENDMDL
MODEL 5
REMARK VINA RESULT: -4.461537046      1.936      3.094
REMARK  1 active torsions:
REMARK  status: ('A' for Active; 'I' for Inactive)
REMARK    1  A    between atoms: N1_2  and  C3_4 
ROOT
HETATM    1  C3  UNL     1      20.102  25.824  28.479  1.00  0.00     0.527 C 
HETATM    2  N2  UNL     1      19.312  24.717  27.961  1.00  0.00    -0.010 N 
ATOM      3  H21 UNL     1      19.629  23.819  28.329  1.00  0.00     0.283 HD
ATOM      4  H22 UNL     1      19.496  24.549  26.973  1.00  0.00     0.283 HD
HETATM    5  C4  UNL     1      17.892  24.938  28.220  1.00  0.00     0.363 C 
HETATM    6  N3  UNL     1      17.697  25.330  29.616  1.00  0.00    -0.319 N 
ATOM      7  H3  UNL     1      16.752  25.507  29.956  1.00  0.00     0.165 HD
HETATM    8  C5  UNL     1      18.800  25.469  30.515  1.00  0.00     0.320 C 
HETATM    9  O1  UNL     1      18.644  25.404  31.743  1.00  0.00    -0.247 OA
HETATM   10  N4  UNL     1      20.088  25.685  29.931  1.00  0.00    -0.290 N 
ATOM     11  H4  UNL     1      20.938  25.740  30.492  1.00  0.00     0.168 HD
ENDROOT
BRANCH   1  12
HETATM   12  N1  UNL     1      21.467  25.657  28.047  1.00  0.00     0.130 N 
HETATM   13  C1  UNL     1      22.159  24.604  28.745  1.00  0.00     0.314 C 
HETATM   14  C2  UNL     1      21.592  25.563  26.615  1.00  0.00     0.314 C 
ENDBRANCH   1  12
TORSDOF 1
ENDMDL
