MODEL 1
REMARK VINA RESULT: -7.390201320      0.000      0.000
REMARK  20 active torsions:
REMARK  status: ('A' for Active; 'I' for Inactive)
REMARK    1  A    between atoms: N1_1  and  C1_4 
REMARK    2  A    between atoms: C2_10  and  N4_11 
REMARK    3  A    between atoms: N5_13  and  N6_15 
REMARK    4  A    between atoms: N6_15  and  C3_17 
REMARK    5  A    between atoms: C3_17  and  C4_19 
REMARK    6  A    between atoms: C4_19  and  N7_20 
REMARK    7  A    between atoms: C4_19  and  C17_51 
REMARK       I    between atoms: N7_20  and  C5_21 
REMARK    8  A    between atoms: C5_21  and  C6_23 
REMARK    9  A    between atoms: C6_23  and  N8_24 
REMARK   10  A    between atoms: C6_23  and  C11_39 
REMARK       I    between atoms: N8_24  and  C7_26 
REMARK   11  A    between atoms: C7_26  and  C8_28 
REMARK   12  A    between atoms: C8_28  and  N9_29 
REMARK   13  A    between atoms: C8_28  and  C9_33 
REMARK   14  A    between atoms: C9_33  and  C10_34 
REMARK   15  A    between atoms: C10_34  and  N10_35 
REMARK   16  A    between atoms: C13_41  and  N11_42 
REMARK   17  A    between atoms: C15_46  and  N12_47 
REMARK   18  A    between atoms: C17_51  and  N13_52 
REMARK   19  A    between atoms: C17_51  and  C18_56 
REMARK   20  A    between atoms: C18_56  and  O8_57 
ROOT
HETATM    1  N7  UNL     1      10.147  18.353   7.861  1.00  0.00    -0.398 NA
HETATM    2  C5  UNL     1       9.908  18.433   6.519  1.00  0.00     0.314 C 
HETATM    3  O2  UNL     1       8.812  18.053   5.945  1.00  0.00    -0.255 OA
ENDROOT
BRANCH   2   4
HETATM    4  C6  UNL     1      10.886  18.962   5.503  1.00  0.00     0.225 C 
BRANCH   4   5
HETATM    5  N8  UNL     1      10.742  20.442   5.556  1.00  0.00    -0.341 N 
HETATM    6  C7  UNL     1      11.222  21.226   4.485  1.00  0.00     0.249 C 
HETATM    7  O3  UNL     1      11.784  20.681   3.488  1.00  0.00    -0.271 OA
ATOM      8  H8  UNL     1      10.300  20.886   6.360  1.00  0.00     0.163 HD
BRANCH   6   9
HETATM    9  C8  UNL     1      11.053  22.719   4.553  1.00  0.00     0.276 C 
BRANCH   9  10
HETATM   10  N9  UNL     1       9.910  23.059   5.379  1.00  0.00    -0.066 N 
ATOM     11  H93 UNL     1       9.610  22.272   5.954  1.00  0.00     0.275 HD
ATOM     12  H92 UNL     1      10.159  23.707   6.126  1.00  0.00     0.275 HD
ATOM     13  H91 UNL     1       9.151  23.419   4.801  1.00  0.00     0.275 HD
ENDBRANCH   9  10
BRANCH   9  14
HETATM   14  C9  UNL     1      12.336  23.274   5.087  1.00  0.00     0.069 C 
BRANCH  14  15
HETATM   15  C10 UNL     1      12.165  23.827   6.471  1.00  0.00     0.232 C 
BRANCH  15  16
HETATM   16  N10 UNL     1      12.929  23.024   7.415  1.00  0.00    -0.079 N 
ATOM     17 3H10 UNL     1      13.143  22.097   7.047  1.00  0.00     0.274 HD
ATOM     18 2H10 UNL     1      13.885  23.362   7.523  1.00  0.00     0.274 HD
ATOM     19 1H10 UNL     1      12.432  22.979   8.305  1.00  0.00     0.274 HD
ENDBRANCH  15  16
ENDBRANCH  14  15
ENDBRANCH   9  14
ENDBRANCH   6   9
ENDBRANCH   4   5
BRANCH   4  20
HETATM   20  C11 UNL     1      12.253  18.617   5.976  1.00  0.00    -0.021 A 
HETATM   21  C12 UNL     1      12.698  17.298   5.839  1.00  0.00     0.046 A 
HETATM   22  C13 UNL     1      13.976  17.012   6.258  1.00  0.00     0.105 A 
HETATM   23  C14 UNL     1      14.826  17.969   6.803  1.00  0.00     0.072 A 
HETATM   24  C15 UNL     1      14.378  19.276   6.938  1.00  0.00     0.105 A 
HETATM   25  C16 UNL     1      13.098  19.556   6.517  1.00  0.00     0.046 A 
BRANCH  22  26
HETATM   26  N11 UNL     1      14.407  15.666   6.121  1.00  0.00    -0.116 N 
HETATM   27  O4  UNL     1      14.381  15.129   5.010  1.00  0.00    -0.532 OA
HETATM   28  O5  UNL     1      14.845  14.962   7.197  1.00  0.00    -0.532 OA
ENDBRANCH  22  26
BRANCH  24  29
HETATM   29  N12 UNL     1      15.262  20.241   7.498  1.00  0.00    -0.116 N 
HETATM   30  O6  UNL     1      15.382  21.329   6.923  1.00  0.00    -0.532 OA
HETATM   31  O7  UNL     1      15.971  20.010   8.637  1.00  0.00    -0.532 OA
ENDBRANCH  24  29
ENDBRANCH   4  20
ENDBRANCH   2   4
BRANCH   1  32
HETATM   32  C4  UNL     1      10.386  18.272   9.207  1.00  0.00     0.262 C 
BRANCH  32  33
HETATM   33  C3  UNL     1      11.843  18.206   9.649  1.00  0.00     0.131 C 
HETATM   34  S1  UNL     1      12.567  19.579  10.220  1.00  0.00    -0.060 SA
BRANCH  33  35
HETATM   35  N6  UNL     1      12.620  17.052   9.602  1.00  0.00    -0.277 N 
ATOM     36  H6  UNL     1      13.544  17.061  10.034  1.00  0.00     0.189 HD
BRANCH  35  37
HETATM   37  N5  UNL     1      12.171  15.867   8.976  1.00  0.00    -0.240 N 
HETATM   38  N4  UNL     1      12.647  14.731   9.318  1.00  0.00    -0.266 N 
ATOM     39  H4  UNL     1      13.359  14.662  10.045  1.00  0.00     0.190 HD
ATOM     40  H5  UNL     1      11.461  15.919   8.246  1.00  0.00     0.208 HD
BRANCH  38  41
HETATM   41  C2  UNL     1      12.160  13.567   8.662  1.00  0.00     0.189 A 
HETATM   42  C1  UNL     1      11.048  12.848   8.957  1.00  0.00     0.169 A 
HETATM   43  N2  UNL     1      10.976  11.816   8.071  1.00  0.00    -0.222 N 
HETATM   44  O1  UNL     1      12.017  11.909   7.263  1.00  0.00    -0.153 OA
ATOM     45  H2  UNL     1      10.251  11.099   8.038  1.00  0.00     0.198 HD
HETATM   46  N3  UNL     1      12.735  12.943   7.595  1.00  0.00    -0.221 N 
ATOM     47  H3  UNL     1      13.593  13.240   7.129  1.00  0.00     0.198 HD
BRANCH  42  48
HETATM   48  N1  UNL     1      10.169  13.040   9.873  1.00  0.00    -0.381 N 
ATOM     49  H12 UNL     1       9.198  12.730   9.917  1.00  0.00     0.157 HD
ATOM     50  H11 UNL     1      10.367  13.559  10.729  1.00  0.00     0.157 HD
ENDBRANCH  42  48
ENDBRANCH  38  41
ENDBRANCH  35  37
ENDBRANCH  33  35
ENDBRANCH  32  33
BRANCH  32  51
HETATM   51  C17 UNL     1       9.699  17.194   9.984  1.00  0.00     0.249 C 
BRANCH  51  52
HETATM   52  N13 UNL     1       8.487  16.737   9.310  1.00  0.00    -0.070 N 
ATOM     53 3H13 UNL     1       7.655  17.175   9.703  1.00  0.00     0.275 HD
ATOM     54 2H13 UNL     1       8.427  17.105   8.361  1.00  0.00     0.275 HD
ATOM     55 1H13 UNL     1       8.414  15.719   9.321  1.00  0.00     0.275 HD
ENDBRANCH  51  52
BRANCH  51  56
HETATM   56  C18 UNL     1       9.289  17.621  11.366  1.00  0.00     0.200 C 
BRANCH  56  57
HETATM   57  O8  UNL     1       8.832  18.928  11.339  1.00  0.00    -0.399 OA
ATOM     58  H8  UNL     1       7.897  18.947  11.508  1.00  0.00     0.209 HD
ENDBRANCH  56  57
ENDBRANCH  51  56
ENDBRANCH  32  51
ENDBRANCH   1  32
TORSDOF 20
ENDMDL
MODEL 2
REMARK VINA RESULT: -7.379440159      0.126      2.315
REMARK  20 active torsions:
REMARK  status: ('A' for Active; 'I' for Inactive)
REMARK    1  A    between atoms: N1_1  and  C1_4 
REMARK    2  A    between atoms: C2_10  and  N4_11 
REMARK    3  A    between atoms: N5_13  and  N6_15 
REMARK    4  A    between atoms: N6_15  and  C3_17 
REMARK    5  A    between atoms: C3_17  and  C4_19 
REMARK    6  A    between atoms: C4_19  and  N7_20 
REMARK    7  A    between atoms: C4_19  and  C17_51 
REMARK       I    between atoms: N7_20  and  C5_21 
REMARK    8  A    between atoms: C5_21  and  C6_23 
REMARK    9  A    between atoms: C6_23  and  N8_24 
REMARK   10  A    between atoms: C6_23  and  C11_39 
REMARK       I    between atoms: N8_24  and  C7_26 
REMARK   11  A    between atoms: C7_26  and  C8_28 
REMARK   12  A    between atoms: C8_28  and  N9_29 
REMARK   13  A    between atoms: C8_28  and  C9_33 
REMARK   14  A    between atoms: C9_33  and  C10_34 
REMARK   15  A    between atoms: C10_34  and  N10_35 
REMARK   16  A    between atoms: C13_41  and  N11_42 
REMARK   17  A    between atoms: C15_46  and  N12_47 
REMARK   18  A    between atoms: C17_51  and  N13_52 
REMARK   19  A    between atoms: C17_51  and  C18_56 
REMARK   20  A    between atoms: C18_56  and  O8_57 
ROOT
HETATM    1  N7  UNL     1      10.119  18.343   7.911  1.00  0.00    -0.398 NA
HETATM    2  C5  UNL     1       9.861  18.413   6.572  1.00  0.00     0.314 C 
HETATM    3  O2  UNL     1       8.771  17.999   6.012  1.00  0.00    -0.255 OA
ENDROOT
BRANCH   2   4
HETATM    4  C6  UNL     1      10.810  18.972   5.544  1.00  0.00     0.225 C 
BRANCH   4   5
HETATM    5  N8  UNL     1      10.685  20.449   5.658  1.00  0.00    -0.341 N 
HETATM    6  C7  UNL     1      11.080  21.267   4.578  1.00  0.00     0.249 C 
HETATM    7  O3  UNL     1      11.551  20.753   3.519  1.00  0.00    -0.271 OA
ATOM      8  H8  UNL     1      10.316  20.869   6.511  1.00  0.00     0.163 HD
BRANCH   6   9
HETATM    9  C8  UNL     1      10.931  22.758   4.709  1.00  0.00     0.276 C 
BRANCH   9  10
HETATM   10  N9  UNL     1       9.781  23.077   5.533  1.00  0.00    -0.066 N 
ATOM     11  H93 UNL     1       8.905  22.973   5.021  1.00  0.00     0.275 HD
ATOM     12  H92 UNL     1       9.621  22.372   6.252  1.00  0.00     0.275 HD
ATOM     13  H91 UNL     1       9.881  24.011   5.932  1.00  0.00     0.275 HD
ENDBRANCH   9  10
BRANCH   9  14
HETATM   14  C9  UNL     1      12.214  23.270   5.286  1.00  0.00     0.069 C 
BRANCH  14  15
HETATM   15  C10 UNL     1      12.020  23.812   6.671  1.00  0.00     0.232 C 
BRANCH  15  16
HETATM   16  N10 UNL     1      12.710  22.960   7.629  1.00  0.00    -0.079 N 
ATOM     17 3H10 UNL     1      13.251  22.227   7.172  1.00  0.00     0.274 HD
ATOM     18 2H10 UNL     1      13.480  23.444   8.090  1.00  0.00     0.274 HD
ATOM     19 1H10 UNL     1      12.037  22.583   8.297  1.00  0.00     0.274 HD
ENDBRANCH  15  16
ENDBRANCH  14  15
ENDBRANCH   9  14
ENDBRANCH   6   9
ENDBRANCH   4   5
BRANCH   4  20
HETATM   20  C11 UNL     1      12.189  18.595   5.955  1.00  0.00    -0.021 A 
HETATM   21  C12 UNL     1      13.020  19.580   6.498  1.00  0.00     0.046 A 
HETATM   22  C13 UNL     1      14.280  19.199   6.896  1.00  0.00     0.105 A 
HETATM   23  C14 UNL     1      14.749  17.894   6.779  1.00  0.00     0.072 A 
HETATM   24  C15 UNL     1      13.920  16.921   6.237  1.00  0.00     0.105 A 
HETATM   25  C16 UNL     1      12.660  17.309   5.841  1.00  0.00     0.046 A 
BRANCH  22  26
HETATM   26  N11 UNL     1      15.114  20.213   7.436  1.00  0.00    -0.116 N 
HETATM   27  O4  UNL     1      15.147  21.324   6.897  1.00  0.00    -0.532 OA
HETATM   28  O5  UNL     1      15.878  19.976   8.533  1.00  0.00    -0.532 OA
ENDBRANCH  22  26
BRANCH  24  29
HETATM   29  N12 UNL     1      14.416  15.593   6.126  1.00  0.00    -0.116 N 
HETATM   30  O6  UNL     1      14.432  15.065   5.008  1.00  0.00    -0.532 OA
HETATM   31  O7  UNL     1      14.874  14.890   7.199  1.00  0.00    -0.532 OA
ENDBRANCH  24  29
ENDBRANCH   4  20
ENDBRANCH   2   4
BRANCH   1  32
HETATM   32  C4  UNL     1      10.377  18.271   9.254  1.00  0.00     0.262 C 
BRANCH  32  33
HETATM   33  C3  UNL     1      11.841  18.209   9.676  1.00  0.00     0.131 C 
HETATM   34  S1  UNL     1      12.565  19.582  10.248  1.00  0.00    -0.060 SA
BRANCH  33  35
HETATM   35  N6  UNL     1      12.623  17.060   9.609  1.00  0.00    -0.277 N 
ATOM     36  H6  UNL     1      13.557  17.074  10.019  1.00  0.00     0.189 HD
BRANCH  35  37
HETATM   37  N5  UNL     1      12.166  15.873   8.993  1.00  0.00    -0.240 N 
HETATM   38  N4  UNL     1      12.643  14.738   9.336  1.00  0.00    -0.266 N 
ATOM     39  H4  UNL     1      13.361  14.671  10.057  1.00  0.00     0.190 HD
ATOM     40  H5  UNL     1      11.450  15.923   8.268  1.00  0.00     0.208 HD
BRANCH  38  41
HETATM   41  C2  UNL     1      12.148  13.572   8.690  1.00  0.00     0.189 A 
HETATM   42  C1  UNL     1      11.034  12.860   8.995  1.00  0.00     0.169 A 
HETATM   43  N2  UNL     1      10.954  11.822   8.116  1.00  0.00    -0.222 N 
HETATM   44  O1  UNL     1      11.991  11.906   7.302  1.00  0.00    -0.153 OA
ATOM     45  H2  UNL     1      10.225  11.108   8.092  1.00  0.00     0.198 HD
HETATM   46  N3  UNL     1      12.715  12.939   7.624  1.00  0.00    -0.221 N 
ATOM     47  H3  UNL     1      13.572  13.229   7.153  1.00  0.00     0.198 HD
BRANCH  42  48
HETATM   48  N1  UNL     1      10.161  13.061   9.914  1.00  0.00    -0.381 N 
ATOM     49  H12 UNL     1       9.235  13.483   9.849  1.00  0.00     0.157 HD
ATOM     50  H11 UNL     1      10.310  12.789  10.887  1.00  0.00     0.157 HD
ENDBRANCH  42  48
ENDBRANCH  38  41
ENDBRANCH  35  37
ENDBRANCH  33  35
ENDBRANCH  32  33
BRANCH  32  51
HETATM   51  C17 UNL     1       9.702  17.198  10.048  1.00  0.00     0.249 C 
BRANCH  51  52
HETATM   52  N13 UNL     1       8.486  16.729   9.391  1.00  0.00    -0.070 N 
ATOM     53 3H13 UNL     1       8.686  16.342   8.469  1.00  0.00     0.275 HD
ATOM     54 2H13 UNL     1       8.121  15.889   9.839  1.00  0.00     0.275 HD
ATOM     55 1H13 UNL     1       7.780  17.463   9.342  1.00  0.00     0.275 HD
ENDBRANCH  51  52
BRANCH  51  56
HETATM   56  C18 UNL     1       9.304  17.636  11.430  1.00  0.00     0.200 C 
BRANCH  56  57
HETATM   57  O8  UNL     1       8.826  18.935  11.393  1.00  0.00    -0.399 OA
ATOM     58  H8  UNL     1       8.035  19.003  11.915  1.00  0.00     0.209 HD
ENDBRANCH  56  57
ENDBRANCH  51  56
ENDBRANCH  32  51
ENDBRANCH   1  32
TORSDOF 20
ENDMDL
MODEL 3
REMARK VINA RESULT: -7.273807053      2.753      5.435
REMARK  20 active torsions:
REMARK  status: ('A' for Active; 'I' for Inactive)
REMARK    1  A    between atoms: N1_1  and  C1_4 
REMARK    2  A    between atoms: C2_10  and  N4_11 
REMARK    3  A    between atoms: N5_13  and  N6_15 
REMARK    4  A    between atoms: N6_15  and  C3_17 
REMARK    5  A    between atoms: C3_17  and  C4_19 
REMARK    6  A    between atoms: C4_19  and  N7_20 
REMARK    7  A    between atoms: C4_19  and  C17_51 
REMARK       I    between atoms: N7_20  and  C5_21 
REMARK    8  A    between atoms: C5_21  and  C6_23 
REMARK    9  A    between atoms: C6_23  and  N8_24 
REMARK   10  A    between atoms: C6_23  and  C11_39 
REMARK       I    between atoms: N8_24  and  C7_26 
REMARK   11  A    between atoms: C7_26  and  C8_28 
REMARK   12  A    between atoms: C8_28  and  N9_29 
REMARK   13  A    between atoms: C8_28  and  C9_33 
REMARK   14  A    between atoms: C9_33  and  C10_34 
REMARK   15  A    between atoms: C10_34  and  N10_35 
REMARK   16  A    between atoms: C13_41  and  N11_42 
REMARK   17  A    between atoms: C15_46  and  N12_47 
REMARK   18  A    between atoms: C17_51  and  N13_52 
REMARK   19  A    between atoms: C17_51  and  C18_56 
REMARK   20  A    between atoms: C18_56  and  O8_57 
ROOT
HETATM    1  N7  UNL     1      12.652  19.839  10.764  1.00  0.00    -0.398 NA
HETATM    2  C5  UNL     1      13.559  19.160  10.002  1.00  0.00     0.314 C 
HETATM    3  O2  UNL     1      14.319  18.209  10.440  1.00  0.00    -0.255 OA
ENDROOT
BRANCH   2   4
HETATM    4  C6  UNL     1      13.819  19.422   8.542  1.00  0.00     0.225 C 
BRANCH   4   5
HETATM    5  N8  UNL     1      15.277  19.192   8.357  1.00  0.00    -0.341 N 
HETATM    6  C7  UNL     1      16.194  20.193   8.742  1.00  0.00     0.249 C 
HETATM    7  O3  UNL     1      15.784  21.289   9.230  1.00  0.00    -0.271 OA
ATOM      8  H8  UNL     1      15.612  18.316   7.956  1.00  0.00     0.163 HD
BRANCH   6   9
HETATM    9  C8  UNL     1      17.664  19.934   8.560  1.00  0.00     0.276 C 
BRANCH   9  10
HETATM   10  N9  UNL     1      18.312  21.095   7.982  1.00  0.00    -0.066 N 
ATOM     11  H93 UNL     1      18.747  20.881   7.085  1.00  0.00     0.275 HD
ATOM     12  H92 UNL     1      17.635  21.787   7.660  1.00  0.00     0.275 HD
ATOM     13  H91 UNL     1      18.978  21.495   8.643  1.00  0.00     0.275 HD
ENDBRANCH   9  10
BRANCH   9  14
HETATM   14  C9  UNL     1      18.209  19.582   9.910  1.00  0.00     0.069 C 
BRANCH  14  15
HETATM   15  C10 UNL     1      17.875  18.169  10.289  1.00  0.00     0.232 C 
BRANCH  15  16
HETATM   16  N10 UNL     1      19.001  17.575  10.994  1.00  0.00    -0.079 N 
ATOM     17 3H10 UNL     1      19.852  18.129  10.898  1.00  0.00     0.274 HD
ATOM     18 2H10 UNL     1      18.899  17.639  12.007  1.00  0.00     0.274 HD
ATOM     19 1H10 UNL     1      19.131  16.613  10.680  1.00  0.00     0.274 HD
ENDBRANCH  15  16
ENDBRANCH  14  15
ENDBRANCH   9  14
ENDBRANCH   6   9
ENDBRANCH   4   5
BRANCH   4  20
HETATM   20  C11 UNL     1      13.089  18.387   7.763  1.00  0.00    -0.021 A 
HETATM   21  C12 UNL     1      11.734  18.589   7.484  1.00  0.00     0.046 A 
HETATM   22  C13 UNL     1      11.089  17.631   6.738  1.00  0.00     0.105 A 
HETATM   23  C14 UNL     1      11.724  16.488   6.261  1.00  0.00     0.072 A 
HETATM   24  C15 UNL     1      13.070  16.292   6.543  1.00  0.00     0.105 A 
HETATM   25  C16 UNL     1      13.709  17.256   7.290  1.00  0.00     0.046 A 
BRANCH  22  26
HETATM   26  N11 UNL     1       9.711  17.846   6.473  1.00  0.00    -0.116 N 
HETATM   27  O4  UNL     1       8.863  17.344   7.217  1.00  0.00    -0.532 OA
HETATM   28  O5  UNL     1       9.314  18.594   5.410  1.00  0.00    -0.532 OA
ENDBRANCH  22  26
BRANCH  24  29
HETATM   29  N12 UNL     1      13.702  15.119   6.047  1.00  0.00    -0.116 N 
HETATM   30  O6  UNL     1      13.385  14.029   6.538  1.00  0.00    -0.532 OA
HETATM   31  O7  UNL     1      14.635  15.154   5.055  1.00  0.00    -0.532 OA
ENDBRANCH  24  29
ENDBRANCH   4  20
ENDBRANCH   2   4
BRANCH   1  32
HETATM   32  C4  UNL     1      11.743  20.520  11.530  1.00  0.00     0.262 C 
BRANCH  32  33
HETATM   33  C3  UNL     1      10.415  19.827  11.809  1.00  0.00     0.131 C 
HETATM   34  S1  UNL     1       9.937  19.618  13.379  1.00  0.00    -0.060 SA
BRANCH  33  35
HETATM   35  N6  UNL     1       9.563  19.349  10.818  1.00  0.00    -0.277 N 
ATOM     36  H6  UNL     1       8.777  19.927  10.522  1.00  0.00     0.189 HD
BRANCH  35  37
HETATM   37  N5  UNL     1       9.751  18.088  10.208  1.00  0.00    -0.240 N 
HETATM   38  N4  UNL     1      10.678  17.304  10.608  1.00  0.00    -0.266 N 
ATOM     39  H4  UNL     1      11.298  17.577  11.370  1.00  0.00     0.190 HD
ATOM     40  H5  UNL     1       9.141  17.801   9.442  1.00  0.00     0.208 HD
BRANCH  38  41
HETATM   41  C2  UNL     1      10.825  16.044   9.965  1.00  0.00     0.189 A 
HETATM   42  C1  UNL     1      11.947  15.290   9.856  1.00  0.00     0.169 A 
HETATM   43  N2  UNL     1      11.624  14.166   9.158  1.00  0.00    -0.222 N 
HETATM   44  O1  UNL     1      10.340  14.238   8.855  1.00  0.00    -0.153 OA
ATOM     45  H2  UNL     1      12.258  13.406   8.913  1.00  0.00     0.198 HD
HETATM   46  N3  UNL     1       9.843  15.346   9.325  1.00  0.00    -0.221 N 
ATOM     47  H3  UNL     1       8.873  15.645   9.230  1.00  0.00     0.198 HD
BRANCH  42  48
HETATM   48  N1  UNL     1      13.130  15.514  10.304  1.00  0.00    -0.381 N 
ATOM     49  H12 UNL     1      13.508  15.370  11.240  1.00  0.00     0.157 HD
ATOM     50  H11 UNL     1      13.881  15.883   9.720  1.00  0.00     0.157 HD
ENDBRANCH  42  48
ENDBRANCH  38  41
ENDBRANCH  35  37
ENDBRANCH  33  35
ENDBRANCH  32  33
BRANCH  32  51
HETATM   51  C17 UNL     1      11.374  21.911  11.121  1.00  0.00     0.249 C 
BRANCH  51  52
HETATM   52  N13 UNL     1      10.887  21.953   9.746  1.00  0.00    -0.070 N 
ATOM     53 3H13 UNL     1      10.952  22.894   9.357  1.00  0.00     0.275 HD
ATOM     54 2H13 UNL     1      11.524  21.475   9.110  1.00  0.00     0.275 HD
ATOM     55 1H13 UNL     1       9.939  21.584   9.673  1.00  0.00     0.275 HD
ENDBRANCH  51  52
BRANCH  51  56
HETATM   56  C18 UNL     1      12.518  22.883  11.204  1.00  0.00     0.200 C 
BRANCH  56  57
HETATM   57  O8  UNL     1      13.378  22.690  10.136  1.00  0.00    -0.399 OA
ATOM     58  H8  UNL     1      14.241  22.452  10.456  1.00  0.00     0.209 HD
ENDBRANCH  56  57
ENDBRANCH  51  56
ENDBRANCH  32  51
ENDBRANCH   1  32
TORSDOF 20
ENDMDL
MODEL 4
REMARK VINA RESULT: -7.201198379      2.547      5.263
REMARK  20 active torsions:
REMARK  status: ('A' for Active; 'I' for Inactive)
REMARK    1  A    between atoms: N1_1  and  C1_4 
REMARK    2  A    between atoms: C2_10  and  N4_11 
REMARK    3  A    between atoms: N5_13  and  N6_15 
REMARK    4  A    between atoms: N6_15  and  C3_17 
REMARK    5  A    between atoms: C3_17  and  C4_19 
REMARK    6  A    between atoms: C4_19  and  N7_20 
REMARK    7  A    between atoms: C4_19  and  C17_51 
REMARK       I    between atoms: N7_20  and  C5_21 
REMARK    8  A    between atoms: C5_21  and  C6_23 
REMARK    9  A    between atoms: C6_23  and  N8_24 
REMARK   10  A    between atoms: C6_23  and  C11_39 
REMARK       I    between atoms: N8_24  and  C7_26 
REMARK   11  A    between atoms: C7_26  and  C8_28 
REMARK   12  A    between atoms: C8_28  and  N9_29 
REMARK   13  A    between atoms: C8_28  and  C9_33 
REMARK   14  A    between atoms: C9_33  and  C10_34 
REMARK   15  A    between atoms: C10_34  and  N10_35 
REMARK   16  A    between atoms: C13_41  and  N11_42 
REMARK   17  A    between atoms: C15_46  and  N12_47 
REMARK   18  A    between atoms: C17_51  and  N13_52 
REMARK   19  A    between atoms: C17_51  and  C18_56 
REMARK   20  A    between atoms: C18_56  and  O8_57 
ROOT
HETATM    1  N7  UNL     1      12.223  21.434   7.968  1.00  0.00    -0.398 NA
HETATM    2  C5  UNL     1      13.130  21.128   6.993  1.00  0.00     0.314 C 
HETATM    3  O2  UNL     1      13.318  21.826   5.920  1.00  0.00    -0.255 OA
ENDROOT
BRANCH   2   4
HETATM    4  C6  UNL     1      14.039  19.928   7.015  1.00  0.00     0.225 C 
BRANCH   4   5
HETATM    5  N8  UNL     1      14.534  19.837   8.415  1.00  0.00    -0.341 N 
HETATM    6  C7  UNL     1      15.904  19.595   8.654  1.00  0.00     0.249 C 
HETATM    7  O3  UNL     1      16.710  19.442   7.687  1.00  0.00    -0.271 OA
ATOM      8  H8  UNL     1      13.889  19.949   9.196  1.00  0.00     0.163 HD
BRANCH   6   9
HETATM    9  C8  UNL     1      16.387  19.523  10.076  1.00  0.00     0.276 C 
BRANCH   9  10
HETATM   10  N9  UNL     1      16.341  18.154  10.553  1.00  0.00    -0.066 N 
ATOM     11  H93 UNL     1      15.704  17.580  10.001  1.00  0.00     0.275 HD
ATOM     12  H92 UNL     1      17.207  17.652  10.354  1.00  0.00     0.275 HD
ATOM     13  H91 UNL     1      16.109  18.133  11.546  1.00  0.00     0.275 HD
ENDBRANCH   9  10
BRANCH   9  14
HETATM   14  C9  UNL     1      17.771  20.093  10.091  1.00  0.00     0.069 C 
BRANCH  14  15
HETATM   15  C10 UNL     1      18.808  19.021  10.253  1.00  0.00     0.232 C 
BRANCH  15  16
HETATM   16  N10 UNL     1      19.509  18.827   8.992  1.00  0.00    -0.079 N 
ATOM     17 3H10 UNL     1      19.121  19.400   8.244  1.00  0.00     0.274 HD
ATOM     18 2H10 UNL     1      20.448  19.223   9.009  1.00  0.00     0.274 HD
ATOM     19 1H10 UNL     1      19.513  17.835   8.754  1.00  0.00     0.274 HD
ENDBRANCH  15  16
ENDBRANCH  14  15
ENDBRANCH   9  14
ENDBRANCH   6   9
ENDBRANCH   4   5
BRANCH   4  20
HETATM   20  C11 UNL     1      13.203  18.728   6.746  1.00  0.00    -0.021 A 
HETATM   21  C12 UNL     1      11.813  18.876   6.694  1.00  0.00     0.046 A 
HETATM   22  C13 UNL     1      11.065  17.756   6.416  1.00  0.00     0.105 A 
HETATM   23  C14 UNL     1      11.630  16.505   6.190  1.00  0.00     0.072 A 
HETATM   24  C15 UNL     1      13.010  16.364   6.245  1.00  0.00     0.105 A 
HETATM   25  C16 UNL     1      13.753  17.488   6.524  1.00  0.00     0.046 A 
BRANCH  22  26
HETATM   26  N11 UNL     1       9.655  17.922   6.378  1.00  0.00    -0.116 N 
HETATM   27  O4  UNL     1       8.945  17.272   7.151  1.00  0.00    -0.532 OA
HETATM   28  O5  UNL     1       9.079  18.783   5.499  1.00  0.00    -0.532 OA
ENDBRANCH  22  26
BRANCH  24  29
HETATM   29  N12 UNL     1      13.569  15.077   6.011  1.00  0.00    -0.116 N 
HETATM   30  O6  UNL     1      14.494  14.979   5.196  1.00  0.00    -0.532 OA
HETATM   31  O7  UNL     1      13.127  13.959   6.650  1.00  0.00    -0.532 OA
ENDBRANCH  24  29
ENDBRANCH   4  20
ENDBRANCH   2   4
BRANCH   1  32
HETATM   32  C4  UNL     1      11.313  21.742   8.943  1.00  0.00     0.262 C 
BRANCH  32  33
HETATM   33  C3  UNL     1      11.165  20.750  10.091  1.00  0.00     0.131 C 
HETATM   34  S1  UNL     1      12.360  20.664  11.231  1.00  0.00    -0.060 SA
BRANCH  33  35
HETATM   35  N6  UNL     1      10.078  19.895  10.246  1.00  0.00    -0.277 N 
ATOM     36  H6  UNL     1       9.228  20.252  10.682  1.00  0.00     0.189 HD
BRANCH  35  37
HETATM   37  N5  UNL     1      10.112  18.548   9.821  1.00  0.00    -0.240 N 
HETATM   38  N4  UNL     1      11.000  17.746  10.271  1.00  0.00    -0.266 N 
ATOM     39  H4  UNL     1      11.698  18.066  10.942  1.00  0.00     0.190 HD
ATOM     40  H5  UNL     1       9.422  18.212   9.148  1.00  0.00     0.208 HD
BRANCH  38  41
HETATM   41  C2  UNL     1      10.991  16.399   9.816  1.00  0.00     0.189 A 
HETATM   42  C1  UNL     1      12.039  15.542   9.729  1.00  0.00     0.169 A 
HETATM   43  N2  UNL     1      11.568  14.362   9.238  1.00  0.00    -0.222 N 
HETATM   44  O1  UNL     1      10.270  14.502   9.036  1.00  0.00    -0.153 OA
ATOM     45  H2  UNL     1      12.118  13.522   9.058  1.00  0.00     0.198 HD
HETATM   46  N3  UNL     1       9.903  15.705   9.374  1.00  0.00    -0.221 N 
ATOM     47  H3  UNL     1       8.954  16.071   9.315  1.00  0.00     0.198 HD
BRANCH  42  48
HETATM   48  N1  UNL     1      13.272  15.724  10.037  1.00  0.00    -0.381 N 
ATOM     49  H12 UNL     1      13.976  16.306   9.583  1.00  0.00     0.157 HD
ATOM     50  H11 UNL     1      13.713  15.272  10.839  1.00  0.00     0.157 HD
ENDBRANCH  42  48
ENDBRANCH  38  41
ENDBRANCH  35  37
ENDBRANCH  33  35
ENDBRANCH  32  33
BRANCH  32  51
HETATM   51  C17 UNL     1       9.912  22.062   8.529  1.00  0.00     0.249 C 
BRANCH  51  52
HETATM   52  N13 UNL     1       9.638  21.607   7.169  1.00  0.00    -0.070 N 
ATOM     53 3H13 UNL     1      10.476  21.636   6.590  1.00  0.00     0.275 HD
ATOM     54 2H13 UNL     1       9.461  20.603   7.141  1.00  0.00     0.275 HD
ATOM     55 1H13 UNL     1       8.873  22.132   6.745  1.00  0.00     0.275 HD
ENDBRANCH  51  52
BRANCH  51  56
HETATM   56  C18 UNL     1       9.598  23.532   8.563  1.00  0.00     0.200 C 
BRANCH  56  57
HETATM   57  O8  UNL     1       9.441  23.950   9.874  1.00  0.00    -0.399 OA
ATOM     58  H8  UNL     1       8.575  24.322   9.993  1.00  0.00     0.209 HD
ENDBRANCH  56  57
ENDBRANCH  51  56
ENDBRANCH  32  51
ENDBRANCH   1  32
TORSDOF 20
ENDMDL
MODEL 5
REMARK VINA RESULT: -7.168394833      2.028      5.279
REMARK  20 active torsions:
REMARK  status: ('A' for Active; 'I' for Inactive)
REMARK    1  A    between atoms: N1_1  and  C1_4 
REMARK    2  A    between atoms: C2_10  and  N4_11 
REMARK    3  A    between atoms: N5_13  and  N6_15 
REMARK    4  A    between atoms: N6_15  and  C3_17 
REMARK    5  A    between atoms: C3_17  and  C4_19 
REMARK    6  A    between atoms: C4_19  and  N7_20 
REMARK    7  A    between atoms: C4_19  and  C17_51 
REMARK       I    between atoms: N7_20  and  C5_21 
REMARK    8  A    between atoms: C5_21  and  C6_23 
REMARK    9  A    between atoms: C6_23  and  N8_24 
REMARK   10  A    between atoms: C6_23  and  C11_39 
REMARK       I    between atoms: N8_24  and  C7_26 
REMARK   11  A    between atoms: C7_26  and  C8_28 
REMARK   12  A    between atoms: C8_28  and  N9_29 
REMARK   13  A    between atoms: C8_28  and  C9_33 
REMARK   14  A    between atoms: C9_33  and  C10_34 
REMARK   15  A    between atoms: C10_34  and  N10_35 
REMARK   16  A    between atoms: C13_41  and  N11_42 
REMARK   17  A    between atoms: C15_46  and  N12_47 
REMARK   18  A    between atoms: C17_51  and  N13_52 
REMARK   19  A    between atoms: C17_51  and  C18_56 
REMARK   20  A    between atoms: C18_56  and  O8_57 
ROOT
HETATM    1  N7  UNL     1      13.546  17.972   7.144  1.00  0.00    -0.398 NA
HETATM    2  C5  UNL     1      12.652  17.366   6.309  1.00  0.00     0.314 C 
HETATM    3  O2  UNL     1      12.916  16.332   5.577  1.00  0.00    -0.255 OA
ENDROOT
BRANCH   2   4
HETATM    4  C6  UNL     1      11.229  17.815   6.104  1.00  0.00     0.225 C 
BRANCH   4   5
HETATM    5  N8  UNL     1      10.665  17.965   7.472  1.00  0.00    -0.341 N 
HETATM    6  C7  UNL     1      10.363  16.814   8.230  1.00  0.00     0.249 C 
HETATM    7  O3  UNL     1      10.555  15.657   7.749  1.00  0.00    -0.271 OA
ATOM      8  H8  UNL     1      10.499  18.893   7.860  1.00  0.00     0.163 HD
BRANCH   6   9
HETATM    9  C8  UNL     1       9.808  16.988   9.617  1.00  0.00     0.276 C 
BRANCH   9  10
HETATM   10  N9  UNL     1       9.639  15.698  10.256  1.00  0.00    -0.066 N 
ATOM     11  H93 UNL     1       8.880  15.161   9.836  1.00  0.00     0.275 HD
ATOM     12  H92 UNL     1      10.409  15.063  10.042  1.00  0.00     0.275 HD
ATOM     13  H91 UNL     1       9.512  15.815  11.261  1.00  0.00     0.275 HD
ENDBRANCH   9  10
BRANCH   9  14
HETATM   14  C9  UNL     1      10.761  17.877  10.353  1.00  0.00     0.069 C 
BRANCH  14  15
HETATM   15  C10 UNL     1      10.074  19.095  10.898  1.00  0.00     0.232 C 
BRANCH  15  16
HETATM   16  N10 UNL     1       8.821  18.706  11.529  1.00  0.00    -0.079 N 
ATOM     17 3H10 UNL     1       8.308  19.508  11.892  1.00  0.00     0.274 HD
ATOM     18 2H10 UNL     1       8.131  18.385  10.850  1.00  0.00     0.274 HD
ATOM     19 1H10 UNL     1       9.005  18.008  12.250  1.00  0.00     0.274 HD
ENDBRANCH  15  16
ENDBRANCH  14  15
ENDBRANCH   9  14
ENDBRANCH   6   9
ENDBRANCH   4   5
BRANCH   4  20
HETATM   20  C11 UNL     1      11.271  19.162   5.474  1.00  0.00    -0.021 A 
HETATM   21  C12 UNL     1      10.875  20.269   6.232  1.00  0.00     0.046 A 
HETATM   22  C13 UNL     1      10.950  21.506   5.636  1.00  0.00     0.105 A 
HETATM   23  C14 UNL     1      11.395  21.692   4.331  1.00  0.00     0.072 A 
HETATM   24  C15 UNL     1      11.785  20.589   3.583  1.00  0.00     0.105 A 
HETATM   25  C16 UNL     1      11.708  19.354   4.186  1.00  0.00     0.046 A 
BRANCH  22  26
HETATM   26  N11 UNL     1      10.534  22.618   6.415  1.00  0.00    -0.116 N 
HETATM   27  O4  UNL     1       9.805  23.476   5.909  1.00  0.00    -0.532 OA
HETATM   28  O5  UNL     1      10.931  22.751   7.707  1.00  0.00    -0.532 OA
ENDBRANCH  22  26
BRANCH  24  29
HETATM   29  N12 UNL     1      12.238  20.798   2.251  1.00  0.00    -0.116 N 
HETATM   30  O6  UNL     1      11.991  19.932   1.405  1.00  0.00    -0.532 OA
HETATM   31  O7  UNL     1      12.927  21.913   1.879  1.00  0.00    -0.532 OA
ENDBRANCH  24  29
ENDBRANCH   4  20
ENDBRANCH   2   4
BRANCH   1  32
HETATM   32  C4  UNL     1      14.444  18.579   7.981  1.00  0.00     0.262 C 
BRANCH  32  33
HETATM   33  C3  UNL     1      14.753  17.872   9.296  1.00  0.00     0.131 C 
HETATM   34  S1  UNL     1      16.059  18.369  10.181  1.00  0.00    -0.060 SA
BRANCH  33  35
HETATM   35  N6  UNL     1      14.002  16.819   9.809  1.00  0.00    -0.277 N 
ATOM     36  H6  UNL     1      13.765  16.820  10.801  1.00  0.00     0.189 HD
BRANCH  35  37
HETATM   37  N5  UNL     1      13.557  15.748   9.002  1.00  0.00    -0.240 N 
HETATM   38  N4  UNL     1      12.986  14.732   9.527  1.00  0.00    -0.266 N 
ATOM     39  H4  UNL     1      12.845  14.677  10.536  1.00  0.00     0.190 HD
ATOM     40  H5  UNL     1      13.691  15.786   7.991  1.00  0.00     0.208 HD
BRANCH  38  41
HETATM   41  C2  UNL     1      12.551  13.682   8.673  1.00  0.00     0.189 A 
HETATM   42  C1  UNL     1      11.662  12.696   8.952  1.00  0.00     0.169 A 
HETATM   43  N2  UNL     1      11.552  11.913   7.843  1.00  0.00    -0.222 N 
HETATM   44  O1  UNL     1      12.353  12.413   6.918  1.00  0.00    -0.153 OA
ATOM     45  H2  UNL     1      10.960  11.088   7.743  1.00  0.00     0.198 HD
HETATM   46  N3  UNL     1      12.957  13.466   7.389  1.00  0.00    -0.221 N 
ATOM     47  H3  UNL     1      13.627  14.039   6.878  1.00  0.00     0.198 HD
BRANCH  42  48
HETATM   48  N1  UNL     1      10.997  12.473  10.027  1.00  0.00    -0.381 N 
ATOM     49  H12 UNL     1      10.083  12.038  10.148  1.00  0.00     0.157 HD
ATOM     50  H11 UNL     1      11.345  12.723  10.953  1.00  0.00     0.157 HD
ENDBRANCH  42  48
ENDBRANCH  38  41
ENDBRANCH  35  37
ENDBRANCH  33  35
ENDBRANCH  32  33
BRANCH  32  51
HETATM   51  C17 UNL     1      14.205  20.007   8.359  1.00  0.00     0.249 C 
BRANCH  51  52
HETATM   52  N13 UNL     1      12.860  20.204   8.889  1.00  0.00    -0.070 N 
ATOM     53 3H13 UNL     1      12.713  21.169   9.183  1.00  0.00     0.275 HD
ATOM     54 2H13 UNL     1      12.158  20.155   8.151  1.00  0.00     0.275 HD
ATOM     55 1H13 UNL     1      12.654  19.549   9.643  1.00  0.00     0.275 HD
ENDBRANCH  51  52
BRANCH  51  56
HETATM   56  C18 UNL     1      14.361  20.964   7.210  1.00  0.00     0.200 C 
BRANCH  56  57
HETATM   57  O8  UNL     1      13.839  22.200   7.553  1.00  0.00    -0.399 OA
ATOM     58  H8  UNL     1      14.211  22.873   6.996  1.00  0.00     0.209 HD
ENDBRANCH  56  57
ENDBRANCH  51  56
ENDBRANCH  32  51
ENDBRANCH   1  32
TORSDOF 20
ENDMDL
