MODEL 1
REMARK VINA RESULT: -8.068424476      0.000      0.000
REMARK  22 active torsions:
REMARK  status: ('A' for Active; 'I' for Inactive)
REMARK    1  A    between atoms: C3_5  and  C4_6 
REMARK    2  A    between atoms: C5_7  and  C6_8 
REMARK    3  A    between atoms: C7_9  and  C8_10 
REMARK    4  A    between atoms: C8_10  and  C9_11 
REMARK    5  A    between atoms: C9_11  and  N2_12 
REMARK    6  A    between atoms: C9_11  and  C22_38 
REMARK    7  A    between atoms: N2_12  and  C10_14 
REMARK    8  A    between atoms: C10_14  and  O1_15 
REMARK    9  A    between atoms: C10_14  and  N3_17 
REMARK   10  A    between atoms: N3_17  and  C12_19 
REMARK   11  A    between atoms: C12_19  and  C13_20 
REMARK   12  A    between atoms: C13_20  and  C14_21 
REMARK   13  A    between atoms: C14_21  and  N4_24 
REMARK   14  A    between atoms: N5_28  and  C17_30 
REMARK   15  A    between atoms: C17_30  and  C18_31 
REMARK   16  A    between atoms: C18_31  and  C19_32 
REMARK   17  A    between atoms: C19_32  and  C20_33 
REMARK   18  A    between atoms: C24_42  and  C25_43 
REMARK   19  A    between atoms: C25_43  and  C26_44 
REMARK   20  A    between atoms: C26_44  and  C27_45 
REMARK       I    between atoms: C27_45  and  N8_47 
REMARK   21  A    between atoms: N8_47  and  C28_48 
REMARK   22  A    between atoms: N8_47  and  C30_50 
ROOT
HETATM    1  N2  UNL     1     -10.787  15.256  31.859  1.00  0.00    -0.342 N 
ATOM      2  H2  UNL     1     -10.397  14.315  31.919  1.00  0.00     0.164 HD
ENDROOT
BRANCH   1   3
HETATM    3  C9  UNL     1     -10.534  16.191  32.938  1.00  0.00     0.185 C 
BRANCH   3   4
HETATM    4  C8  UNL     1      -9.051  16.223  33.219  1.00  0.00     0.129 C 
BRANCH   4   5
HETATM    5  C7  UNL     1      -8.341  16.519  31.978  1.00  0.00    -0.090 C 
HETATM    6  C6  UNL     1      -7.770  16.795  30.933  1.00  0.00    -0.015 C 
BRANCH   6   7
HETATM    7  C5  UNL     1      -7.135  17.138  29.704  1.00  0.00    -0.008 C 
HETATM    8  C4  UNL     1      -6.600  17.400  28.648  1.00  0.00    -0.035 C 
BRANCH   8   9
HETATM    9  C3  UNL     1      -5.967  17.674  27.376  1.00  0.00     0.089 A 
HETATM   10  N1  UNL     1      -4.890  17.031  26.861  1.00  0.00    -0.349 N 
HETATM   11  C2  UNL     1      -4.575  17.549  25.640  1.00  0.00     0.033 A 
ATOM     12  H1  UNL     1      -4.389  16.271  27.321  1.00  0.00     0.166 HD
HETATM   13  C1  UNL     1      -3.563  17.100  24.933  1.00  0.00     0.044 C 
HETATM   14  C24 UNL     1      -5.449  18.547  25.333  1.00  0.00    -0.011 A 
HETATM   15  C23 UNL     1      -6.311  18.610  26.434  1.00  0.00     0.052 A 
BRANCH  14  16
HETATM   16  C25 UNL     1      -5.586  19.343  24.289  1.00  0.00    -0.004 C 
BRANCH  16  17
HETATM   17  C26 UNL     1      -6.449  19.121  23.135  1.00  0.00     0.131 C 
BRANCH  17  18
HETATM   18  C27 UNL     1      -5.597  18.725  21.957  1.00  0.00     0.223 C 
HETATM   19  O4  UNL     1      -4.362  18.928  22.002  1.00  0.00    -0.273 OA
HETATM   20  N8  UNL     1      -6.226  18.137  20.843  1.00  0.00    -0.353 N 
BRANCH  20  21
HETATM   21  C28 UNL     1      -5.439  17.753  19.699  1.00  0.00     0.121 C 
HETATM   22  C29 UNL     1      -5.040  16.296  19.748  1.00  0.00     0.026 C 
ENDBRANCH  20  21
BRANCH  20  23
HETATM   23  C30 UNL     1      -7.644  17.913  20.834  1.00  0.00     0.121 C 
HETATM   24  C31 UNL     1      -8.005  16.535  21.355  1.00  0.00     0.026 C 
ENDBRANCH  20  23
ENDBRANCH  17  18
ENDBRANCH  16  17
ENDBRANCH  14  16
ENDBRANCH   8   9
ENDBRANCH   6   7
ENDBRANCH   4   5
ENDBRANCH   3   4
BRANCH   3  25
HETATM   25  C22 UNL     1     -11.201  15.798  34.193  1.00  0.00     0.254 C 
HETATM   26  N7  UNL     1     -11.695  14.482  34.338  1.00  0.00    -0.060 NA
HETATM   27  O3  UNL     1     -11.321  16.632  35.115  1.00  0.00    -0.275 OA
ENDBRANCH   3  25
ENDBRANCH   1   3
BRANCH   1  28
HETATM   28  C10 UNL     1     -11.549  15.604  30.739  1.00  0.00     0.221 C 
BRANCH  28  29
HETATM   29  O1  UNL     1     -12.841  15.551  30.977  1.00  0.00    -0.332 OA
ATOM     30  H1  UNL     1     -13.359  15.703  30.196  1.00  0.00     0.220 HD
ENDBRANCH  28  29
BRANCH  28  31
HETATM   31  N3  UNL     1     -11.156  15.995  29.480  1.00  0.00    -0.307 N 
HETATM   32  C11 UNL     1     -11.007  17.512  29.335  1.00  0.00     0.161 C 
BRANCH  31  33
HETATM   33  C12 UNL     1     -11.072  15.369  28.234  1.00  0.00     0.087 C 
HETATM   34  N5  UNL     1     -11.761  14.453  27.742  1.00  0.00    -0.359 N 
ATOM     35  H5  UNL     1     -11.462  14.189  26.803  1.00  0.00     0.166 HD
BRANCH  33  36
HETATM   36  C13 UNL     1      -9.948  15.896  27.333  1.00  0.00     0.114 C 
BRANCH  36  37
HETATM   37  C14 UNL     1     -10.385  16.436  26.035  1.00  0.00     0.123 C 
HETATM   38  C15 UNL     1      -9.982  15.616  24.836  1.00  0.00     0.046 C 
HETATM   39  C16 UNL     1      -9.712  17.817  25.826  1.00  0.00     0.046 C 
BRANCH  37  40
HETATM   40  N4  UNL     1     -11.809  16.724  25.981  1.00  0.00    -0.071 N 
ATOM     41  H43 UNL     1     -12.135  17.103  26.870  1.00  0.00     0.275 HD
ATOM     42  H42 UNL     1     -11.994  17.526  25.379  1.00  0.00     0.275 HD
ATOM     43  H41 UNL     1     -12.373  15.923  25.700  1.00  0.00     0.275 HD
ENDBRANCH  37  40
ENDBRANCH  36  37
ENDBRANCH  33  36
BRANCH  34  44
HETATM   44  C17 UNL     1     -12.848  13.712  28.192  1.00  0.00     0.062 C 
BRANCH  44  45
HETATM   45  C18 UNL     1     -12.489  12.315  28.643  1.00  0.00     0.047 C 
BRANCH  45  46
HETATM   46  C19 UNL     1     -13.417  11.817  29.693  1.00  0.00     0.040 C 
BRANCH  46  47
HETATM   47  C20 UNL     1     -12.821  12.121  31.075  1.00  0.00     0.177 A 
HETATM   48  N6  UNL     1     -13.272  11.224  32.130  1.00  0.00    -0.346 N 
HETATM   49  C21 UNL     1     -13.764  12.557  32.118  1.00  0.00     0.241 A 
ATOM     50  H6  UNL     1     -13.249  10.302  32.565  1.00  0.00     0.163 HD
HETATM   51  O2  UNL     1     -14.489  13.435  32.646  1.00  0.00    -0.271 OA
ENDBRANCH  46  47
ENDBRANCH  45  46
ENDBRANCH  44  45
ENDBRANCH  34  44
ENDBRANCH  31  33
ENDBRANCH  28  31
ENDBRANCH   1  28
TORSDOF 22
ENDMDL
MODEL 2
REMARK VINA RESULT: -7.910067589      2.207      8.860
REMARK  22 active torsions:
REMARK  status: ('A' for Active; 'I' for Inactive)
REMARK    1  A    between atoms: C3_5  and  C4_6 
REMARK    2  A    between atoms: C5_7  and  C6_8 
REMARK    3  A    between atoms: C7_9  and  C8_10 
REMARK    4  A    between atoms: C8_10  and  C9_11 
REMARK    5  A    between atoms: C9_11  and  N2_12 
REMARK    6  A    between atoms: C9_11  and  C22_38 
REMARK    7  A    between atoms: N2_12  and  C10_14 
REMARK    8  A    between atoms: C10_14  and  O1_15 
REMARK    9  A    between atoms: C10_14  and  N3_17 
REMARK   10  A    between atoms: N3_17  and  C12_19 
REMARK   11  A    between atoms: C12_19  and  C13_20 
REMARK   12  A    between atoms: C13_20  and  C14_21 
REMARK   13  A    between atoms: C14_21  and  N4_24 
REMARK   14  A    between atoms: N5_28  and  C17_30 
REMARK   15  A    between atoms: C17_30  and  C18_31 
REMARK   16  A    between atoms: C18_31  and  C19_32 
REMARK   17  A    between atoms: C19_32  and  C20_33 
REMARK   18  A    between atoms: C24_42  and  C25_43 
REMARK   19  A    between atoms: C25_43  and  C26_44 
REMARK   20  A    between atoms: C26_44  and  C27_45 
REMARK       I    between atoms: C27_45  and  N8_47 
REMARK   21  A    between atoms: N8_47  and  C28_48 
REMARK   22  A    between atoms: N8_47  and  C30_50 
ROOT
HETATM    1  N2  UNL     1      -6.433  19.263  25.818  1.00  0.00    -0.342 N 
ATOM      2  H2  UNL     1      -6.565  20.133  26.335  1.00  0.00     0.164 HD
ENDROOT
BRANCH   1   3
HETATM    3  C9  UNL     1      -5.086  18.782  25.584  1.00  0.00     0.185 C 
BRANCH   3   4
HETATM    4  C8  UNL     1      -4.389  18.613  26.913  1.00  0.00     0.129 C 
BRANCH   4   5
HETATM    5  C7  UNL     1      -5.352  18.113  27.890  1.00  0.00    -0.090 C 
HETATM    6  C6  UNL     1      -6.183  17.718  28.695  1.00  0.00    -0.015 C 
BRANCH   6   7
HETATM    7  C5  UNL     1      -7.173  17.288  29.626  1.00  0.00    -0.008 C 
HETATM    8  C4  UNL     1      -8.007  16.948  30.437  1.00  0.00    -0.035 C 
BRANCH   8   9
HETATM    9  C3  UNL     1      -8.990  16.571  31.430  1.00  0.00     0.089 A 
HETATM   10  N1  UNL     1      -9.006  16.957  32.729  1.00  0.00    -0.349 N 
HETATM   11  C2  UNL     1     -10.084  16.417  33.366  1.00  0.00     0.033 A 
ATOM     12  H1  UNL     1      -8.312  17.563  33.167  1.00  0.00     0.166 HD
HETATM   13  C1  UNL     1     -10.323  16.635  34.639  1.00  0.00     0.044 C 
HETATM   14  C24 UNL     1     -10.798  15.662  32.485  1.00  0.00    -0.011 A 
HETATM   15  C23 UNL     1     -10.094  15.772  31.279  1.00  0.00     0.052 A 
BRANCH  14  16
HETATM   16  C25 UNL     1     -11.906  14.953  32.587  1.00  0.00    -0.004 C 
BRANCH  16  17
HETATM   17  C26 UNL     1     -12.954  14.830  31.582  1.00  0.00     0.131 C 
BRANCH  17  18
HETATM   18  C27 UNL     1     -13.673  13.521  31.782  1.00  0.00     0.223 C 
HETATM   19  O4  UNL     1     -14.531  13.428  32.690  1.00  0.00    -0.273 OA
HETATM   20  N8  UNL     1     -13.351  12.444  30.934  1.00  0.00    -0.353 N 
BRANCH  20  21
HETATM   21  C28 UNL     1     -14.017  11.178  31.103  1.00  0.00     0.121 C 
HETATM   22  C29 UNL     1     -13.064  10.089  31.539  1.00  0.00     0.026 C 
ENDBRANCH  20  21
BRANCH  20  23
HETATM   23  C30 UNL     1     -12.368  12.593  29.899  1.00  0.00     0.121 C 
HETATM   24  C31 UNL     1     -12.879  12.115  28.554  1.00  0.00     0.026 C 
ENDBRANCH  20  23
ENDBRANCH  17  18
ENDBRANCH  16  17
ENDBRANCH  14  16
ENDBRANCH   8   9
ENDBRANCH   6   7
ENDBRANCH   4   5
ENDBRANCH   3   4
BRANCH   3  25
HETATM   25  C22 UNL     1      -4.279  19.730  24.794  1.00  0.00     0.254 C 
HETATM   26  N7  UNL     1      -3.136  19.268  24.103  1.00  0.00    -0.060 NA
HETATM   27  O3  UNL     1      -4.615  20.932  24.742  1.00  0.00    -0.275 OA
ENDBRANCH   3  25
ENDBRANCH   1   3
BRANCH   1  28
HETATM   28  C10 UNL     1      -7.558  18.572  25.357  1.00  0.00     0.221 C 
BRANCH  28  29
HETATM   29  O1  UNL     1      -8.653  18.913  26.000  1.00  0.00    -0.332 OA
ATOM     30  H1  UNL     1      -9.400  19.005  25.419  1.00  0.00     0.220 HD
ENDBRANCH  28  29
BRANCH  28  31
HETATM   31  N3  UNL     1      -7.681  17.637  24.354  1.00  0.00    -0.307 N 
HETATM   32  C11 UNL     1      -7.552  18.233  22.949  1.00  0.00     0.161 C 
BRANCH  31  33
HETATM   33  C12 UNL     1      -8.116  16.312  24.290  1.00  0.00     0.087 C 
HETATM   34  N5  UNL     1      -8.285  15.471  25.197  1.00  0.00    -0.359 N 
ATOM     35  H5  UNL     1      -8.607  14.569  24.850  1.00  0.00     0.166 HD
BRANCH  33  36
HETATM   36  C13 UNL     1      -8.432  15.814  22.874  1.00  0.00     0.114 C 
BRANCH  36  37
HETATM   37  C14 UNL     1      -9.853  15.538  22.608  1.00  0.00     0.123 C 
HETATM   38  C15 UNL     1     -10.235  14.081  22.637  1.00  0.00     0.046 C 
HETATM   39  C16 UNL     1     -10.184  16.014  21.170  1.00  0.00     0.046 C 
BRANCH  37  40
HETATM   40  N4  UNL     1     -10.756  16.303  23.452  1.00  0.00    -0.071 N 
ATOM     41  H43 UNL     1     -10.234  16.926  24.068  1.00  0.00     0.275 HD
ATOM     42  H42 UNL     1     -11.264  16.997  22.903  1.00  0.00     0.275 HD
ATOM     43  H41 UNL     1     -11.400  15.722  23.986  1.00  0.00     0.275 HD
ENDBRANCH  37  40
ENDBRANCH  36  37
ENDBRANCH  33  36
BRANCH  34  44
HETATM   44  C17 UNL     1      -8.130  15.496  26.579  1.00  0.00     0.062 C 
BRANCH  44  45
HETATM   45  C18 UNL     1      -8.947  14.450  27.302  1.00  0.00     0.047 C 
BRANCH  45  46
HETATM   46  C19 UNL     1     -10.113  15.047  28.005  1.00  0.00     0.040 C 
BRANCH  46  47
HETATM   47  C20 UNL     1     -11.251  15.263  26.997  1.00  0.00     0.177 A 
HETATM   48  N6  UNL     1     -11.692  16.646  26.881  1.00  0.00    -0.346 N 
HETATM   49  C21 UNL     1     -12.539  15.717  27.544  1.00  0.00     0.241 A 
ATOM     50  H6  UNL     1     -11.517  17.597  26.558  1.00  0.00     0.163 HD
HETATM   51  O2  UNL     1     -13.615  15.494  28.150  1.00  0.00    -0.271 OA
ENDBRANCH  46  47
ENDBRANCH  45  46
ENDBRANCH  44  45
ENDBRANCH  34  44
ENDBRANCH  31  33
ENDBRANCH  28  31
ENDBRANCH   1  28
TORSDOF 22
ENDMDL
MODEL 3
REMARK VINA RESULT: -7.897809531      2.154      3.050
REMARK  22 active torsions:
REMARK  status: ('A' for Active; 'I' for Inactive)
REMARK    1  A    between atoms: C3_5  and  C4_6 
REMARK    2  A    between atoms: C5_7  and  C6_8 
REMARK    3  A    between atoms: C7_9  and  C8_10 
REMARK    4  A    between atoms: C8_10  and  C9_11 
REMARK    5  A    between atoms: C9_11  and  N2_12 
REMARK    6  A    between atoms: C9_11  and  C22_38 
REMARK    7  A    between atoms: N2_12  and  C10_14 
REMARK    8  A    between atoms: C10_14  and  O1_15 
REMARK    9  A    between atoms: C10_14  and  N3_17 
REMARK   10  A    between atoms: N3_17  and  C12_19 
REMARK   11  A    between atoms: C12_19  and  C13_20 
REMARK   12  A    between atoms: C13_20  and  C14_21 
REMARK   13  A    between atoms: C14_21  and  N4_24 
REMARK   14  A    between atoms: N5_28  and  C17_30 
REMARK   15  A    between atoms: C17_30  and  C18_31 
REMARK   16  A    between atoms: C18_31  and  C19_32 
REMARK   17  A    between atoms: C19_32  and  C20_33 
REMARK   18  A    between atoms: C24_42  and  C25_43 
REMARK   19  A    between atoms: C25_43  and  C26_44 
REMARK   20  A    between atoms: C26_44  and  C27_45 
REMARK       I    between atoms: C27_45  and  N8_47 
REMARK   21  A    between atoms: N8_47  and  C28_48 
REMARK   22  A    between atoms: N8_47  and  C30_50 
ROOT
HETATM    1  N2  UNL     1     -10.763  15.226  31.628  1.00  0.00    -0.342 N 
ATOM      2  H2  UNL     1     -10.222  14.363  31.574  1.00  0.00     0.164 HD
ENDROOT
BRANCH   1   3
HETATM    3  C9  UNL     1     -10.674  16.038  32.826  1.00  0.00     0.185 C 
BRANCH   3   4
HETATM    4  C8  UNL     1      -9.219  16.215  33.189  1.00  0.00     0.129 C 
BRANCH   4   5
HETATM    5  C7  UNL     1      -8.465  16.529  31.980  1.00  0.00    -0.090 C 
HETATM    6  C6  UNL     1      -7.851  16.826  30.964  1.00  0.00    -0.015 C 
BRANCH   6   7
HETATM    7  C5  UNL     1      -7.162  17.199  29.774  1.00  0.00    -0.008 C 
HETATM    8  C4  UNL     1      -6.558  17.539  28.779  1.00  0.00    -0.035 C 
BRANCH   8   9
HETATM    9  C3  UNL     1      -5.821  17.974  27.612  1.00  0.00     0.089 A 
HETATM   10  N1  UNL     1      -6.048  19.102  26.896  1.00  0.00    -0.349 N 
HETATM   11  C2  UNL     1      -5.154  19.193  25.870  1.00  0.00     0.033 A 
ATOM     12  H1  UNL     1      -6.780  19.783  27.095  1.00  0.00     0.166 HD
HETATM   13  C1  UNL     1      -5.166  20.195  25.022  1.00  0.00     0.044 C 
HETATM   14  C24 UNL     1      -4.321  18.115  25.900  1.00  0.00    -0.011 A 
HETATM   15  C23 UNL     1      -4.757  17.365  26.998  1.00  0.00     0.052 A 
BRANCH  14  16
HETATM   16  C25 UNL     1      -3.299  17.738  25.154  1.00  0.00    -0.004 C 
BRANCH  16  17
HETATM   17  C26 UNL     1      -2.954  16.372  24.782  1.00  0.00     0.131 C 
BRANCH  17  18
HETATM   18  C27 UNL     1      -2.084  16.405  23.552  1.00  0.00     0.223 C 
HETATM   19  O4  UNL     1      -2.269  17.303  22.698  1.00  0.00    -0.273 OA
HETATM   20  N8  UNL     1      -1.088  15.420  23.408  1.00  0.00    -0.353 N 
BRANCH  20  21
HETATM   21  C28 UNL     1      -0.245  15.422  22.242  1.00  0.00     0.121 C 
HETATM   22  C29 UNL     1      -0.443  14.186  21.395  1.00  0.00     0.026 C 
ENDBRANCH  20  21
BRANCH  20  23
HETATM   23  C30 UNL     1      -0.903  14.413  24.415  1.00  0.00     0.121 C 
HETATM   24  C31 UNL     1       0.483  14.470  25.028  1.00  0.00     0.026 C 
ENDBRANCH  20  23
ENDBRANCH  17  18
ENDBRANCH  16  17
ENDBRANCH  14  16
ENDBRANCH   8   9
ENDBRANCH   6   7
ENDBRANCH   4   5
ENDBRANCH   3   4
BRANCH   3  25
HETATM   25  C22 UNL     1     -11.333  15.406  33.984  1.00  0.00     0.254 C 
HETATM   26  N7  UNL     1     -11.610  16.176  35.136  1.00  0.00    -0.060 NA
HETATM   27  O3  UNL     1     -11.638  14.195  33.935  1.00  0.00    -0.275 OA
ENDBRANCH   3  25
ENDBRANCH   1   3
BRANCH   1  28
HETATM   28  C10 UNL     1     -11.568  15.590  30.543  1.00  0.00     0.221 C 
BRANCH  28  29
HETATM   29  O1  UNL     1     -12.849  15.462  30.806  1.00  0.00    -0.332 OA
ATOM     30  H1  UNL     1     -13.026  14.742  31.400  1.00  0.00     0.220 HD
ENDBRANCH  28  29
BRANCH  28  31
HETATM   31  N3  UNL     1     -11.224  16.062  29.297  1.00  0.00    -0.307 N 
HETATM   32  C11 UNL     1     -11.060  17.584  29.248  1.00  0.00     0.161 C 
BRANCH  31  33
HETATM   33  C12 UNL     1     -11.204  15.521  28.009  1.00  0.00     0.087 C 
HETATM   34  N5  UNL     1     -12.058  14.840  27.405  1.00  0.00    -0.359 N 
ATOM     35  H5  UNL     1     -11.763  14.575  26.465  1.00  0.00     0.166 HD
BRANCH  33  36
HETATM   36  C13 UNL     1      -9.922  15.811  27.218  1.00  0.00     0.114 C 
BRANCH  36  37
HETATM   37  C14 UNL     1     -10.128  16.399  25.884  1.00  0.00     0.123 C 
HETATM   38  C15 UNL     1      -9.946  15.444  24.733  1.00  0.00     0.046 C 
HETATM   39  C16 UNL     1      -9.062  17.504  25.666  1.00  0.00     0.046 C 
BRANCH  37  40
HETATM   40  N4  UNL     1     -11.395  17.098  25.751  1.00  0.00    -0.071 N 
ATOM     41  H43 UNL     1     -12.156  16.546  26.148  1.00  0.00     0.275 HD
ATOM     42  H42 UNL     1     -11.431  17.904  26.374  1.00  0.00     0.275 HD
ATOM     43  H41 UNL     1     -11.608  17.371  24.793  1.00  0.00     0.275 HD
ENDBRANCH  37  40
ENDBRANCH  36  37
ENDBRANCH  33  36
BRANCH  34  44
HETATM   44  C17 UNL     1     -13.323  14.365  27.731  1.00  0.00     0.062 C 
BRANCH  44  45
HETATM   45  C18 UNL     1     -13.402  12.858  27.822  1.00  0.00     0.047 C 
BRANCH  45  46
HETATM   46  C19 UNL     1     -12.480  12.317  28.855  1.00  0.00     0.040 C 
BRANCH  46  47
HETATM   47  C20 UNL     1     -13.290  11.942  30.104  1.00  0.00     0.177 A 
HETATM   48  N6  UNL     1     -12.624  12.248  31.362  1.00  0.00    -0.346 N 
HETATM   49  C21 UNL     1     -12.727  10.889  30.963  1.00  0.00     0.241 A 
ATOM     50  H6  UNL     1     -12.310  12.942  32.041  1.00  0.00     0.163 HD
HETATM   51  O2  UNL     1     -12.488   9.681  31.208  1.00  0.00    -0.271 OA
ENDBRANCH  46  47
ENDBRANCH  45  46
ENDBRANCH  44  45
ENDBRANCH  34  44
ENDBRANCH  31  33
ENDBRANCH  28  31
ENDBRANCH   1  28
TORSDOF 22
ENDMDL
MODEL 4
REMARK VINA RESULT: -7.850577133      2.028      4.458
REMARK  22 active torsions:
REMARK  status: ('A' for Active; 'I' for Inactive)
REMARK    1  A    between atoms: C3_5  and  C4_6 
REMARK    2  A    between atoms: C5_7  and  C6_8 
REMARK    3  A    between atoms: C7_9  and  C8_10 
REMARK    4  A    between atoms: C8_10  and  C9_11 
REMARK    5  A    between atoms: C9_11  and  N2_12 
REMARK    6  A    between atoms: C9_11  and  C22_38 
REMARK    7  A    between atoms: N2_12  and  C10_14 
REMARK    8  A    between atoms: C10_14  and  O1_15 
REMARK    9  A    between atoms: C10_14  and  N3_17 
REMARK   10  A    between atoms: N3_17  and  C12_19 
REMARK   11  A    between atoms: C12_19  and  C13_20 
REMARK   12  A    between atoms: C13_20  and  C14_21 
REMARK   13  A    between atoms: C14_21  and  N4_24 
REMARK   14  A    between atoms: N5_28  and  C17_30 
REMARK   15  A    between atoms: C17_30  and  C18_31 
REMARK   16  A    between atoms: C18_31  and  C19_32 
REMARK   17  A    between atoms: C19_32  and  C20_33 
REMARK   18  A    between atoms: C24_42  and  C25_43 
REMARK   19  A    between atoms: C25_43  and  C26_44 
REMARK   20  A    between atoms: C26_44  and  C27_45 
REMARK       I    between atoms: C27_45  and  N8_47 
REMARK   21  A    between atoms: N8_47  and  C28_48 
REMARK   22  A    between atoms: N8_47  and  C30_50 
ROOT
HETATM    1  N2  UNL     1     -10.393  14.718  32.425  1.00  0.00    -0.342 N 
ATOM      2  H2  UNL     1     -10.275  14.016  33.156  1.00  0.00     0.164 HD
ENDROOT
BRANCH   1   3
HETATM    3  C9  UNL     1     -10.065  16.100  32.719  1.00  0.00     0.185 C 
BRANCH   3   4
HETATM    4  C8  UNL     1      -8.565  16.265  32.677  1.00  0.00     0.129 C 
BRANCH   4   5
HETATM    5  C7  UNL     1      -8.178  16.733  31.350  1.00  0.00    -0.090 C 
HETATM    6  C6  UNL     1      -7.832  17.152  30.254  1.00  0.00    -0.015 C 
BRANCH   6   7
HETATM    7  C5  UNL     1      -7.418  17.672  28.993  1.00  0.00    -0.008 C 
HETATM    8  C4  UNL     1      -7.037  18.124  27.935  1.00  0.00    -0.035 C 
BRANCH   8   9
HETATM    9  C3  UNL     1      -6.550  18.677  26.690  1.00  0.00     0.089 A 
HETATM   10  N1  UNL     1      -5.572  19.605  26.554  1.00  0.00    -0.349 N 
HETATM   11  C2  UNL     1      -5.369  19.883  25.234  1.00  0.00     0.033 A 
ATOM     12  H1  UNL     1      -5.061  20.034  27.326  1.00  0.00     0.166 HD
HETATM   13  C1  UNL     1      -4.475  20.758  24.835  1.00  0.00     0.044 C 
HETATM   14  C24 UNL     1      -6.220  19.133  24.479  1.00  0.00    -0.011 A 
HETATM   15  C23 UNL     1      -6.950  18.386  25.411  1.00  0.00     0.052 A 
BRANCH  14  16
HETATM   16  C25 UNL     1      -6.417  19.018  23.179  1.00  0.00    -0.004 C 
BRANCH  16  17
HETATM   17  C26 UNL     1      -6.475  17.778  22.416  1.00  0.00     0.131 C 
BRANCH  17  18
HETATM   18  C27 UNL     1      -7.780  17.725  21.666  1.00  0.00     0.223 C 
HETATM   19  O4  UNL     1      -7.962  18.506  20.703  1.00  0.00    -0.273 OA
HETATM   20  N8  UNL     1      -8.753  16.793  22.076  1.00  0.00    -0.353 N 
BRANCH  20  21
HETATM   21  C28 UNL     1     -10.012  16.722  21.382  1.00  0.00     0.121 C 
HETATM   22  C29 UNL     1      -9.912  15.923  20.104  1.00  0.00     0.026 C 
ENDBRANCH  20  21
BRANCH  20  23
HETATM   23  C30 UNL     1      -8.501  15.909  23.179  1.00  0.00     0.121 C 
HETATM   24  C31 UNL     1      -9.729  15.723  24.051  1.00  0.00     0.026 C 
ENDBRANCH  20  23
ENDBRANCH  17  18
ENDBRANCH  16  17
ENDBRANCH  14  16
ENDBRANCH   8   9
ENDBRANCH   6   7
ENDBRANCH   4   5
ENDBRANCH   3   4
BRANCH   3  25
HETATM   25  C22 UNL     1     -10.505  16.509  34.065  1.00  0.00     0.254 C 
HETATM   26  N7  UNL     1     -11.793  16.147  34.519  1.00  0.00    -0.060 NA
HETATM   27  O3  UNL     1      -9.734  17.172  34.791  1.00  0.00    -0.275 OA
ENDBRANCH   3  25
ENDBRANCH   1   3
BRANCH   1  28
HETATM   28  C10 UNL     1     -10.866  14.319  31.171  1.00  0.00     0.221 C 
BRANCH  28  29
HETATM   29  O1  UNL     1      -9.916  14.292  30.263  1.00  0.00    -0.332 OA
ATOM     30  H1  UNL     1      -9.760  15.146  29.877  1.00  0.00     0.220 HD
ENDBRANCH  28  29
BRANCH  28  31
HETATM   31  N3  UNL     1     -12.130  13.947  30.772  1.00  0.00    -0.307 N 
HETATM   32  C11 UNL     1     -13.244  14.654  31.550  1.00  0.00     0.161 C 
BRANCH  31  33
HETATM   33  C12 UNL     1     -12.653  12.919  29.984  1.00  0.00     0.087 C 
HETATM   34  N5  UNL     1     -13.201  12.957  28.864  1.00  0.00    -0.359 N 
ATOM     35  H5  UNL     1     -13.494  12.039  28.532  1.00  0.00     0.166 HD
BRANCH  33  36
HETATM   36  C13 UNL     1     -12.533  11.521  30.604  1.00  0.00     0.114 C 
BRANCH  36  37
HETATM   37  C14 UNL     1     -13.649  11.124  31.478  1.00  0.00     0.123 C 
HETATM   38  C15 UNL     1     -13.496  11.516  32.924  1.00  0.00     0.046 C 
HETATM   39  C16 UNL     1     -13.739   9.575  31.485  1.00  0.00     0.046 C 
BRANCH  37  40
HETATM   40  N4  UNL     1     -14.947  11.552  30.983  1.00  0.00    -0.071 N 
ATOM     41  H43 UNL     1     -14.932  12.541  30.736  1.00  0.00     0.275 HD
ATOM     42  H42 UNL     1     -15.135  11.151  30.065  1.00  0.00     0.275 HD
ATOM     43  H41 UNL     1     -15.711  11.352  31.628  1.00  0.00     0.275 HD
ENDBRANCH  37  40
ENDBRANCH  36  37
ENDBRANCH  33  36
BRANCH  34  44
HETATM   44  C17 UNL     1     -13.501  13.978  27.969  1.00  0.00     0.062 C 
BRANCH  44  45
HETATM   45  C18 UNL     1     -12.315  14.845  27.614  1.00  0.00     0.047 C 
BRANCH  45  46
HETATM   46  C19 UNL     1     -12.524  16.261  28.018  1.00  0.00     0.040 C 
BRANCH  46  47
HETATM   47  C20 UNL     1     -11.163  16.902  28.322  1.00  0.00     0.177 A 
HETATM   48  N6  UNL     1     -11.236  18.303  28.712  1.00  0.00    -0.346 N 
HETATM   49  C21 UNL     1     -10.729  17.984  27.424  1.00  0.00     0.241 A 
ATOM     50  H6  UNL     1     -11.478  19.007  29.409  1.00  0.00     0.163 HD
HETATM   51  O2  UNL     1     -10.257  18.382  26.331  1.00  0.00    -0.271 OA
ENDBRANCH  46  47
ENDBRANCH  45  46
ENDBRANCH  44  45
ENDBRANCH  34  44
ENDBRANCH  31  33
ENDBRANCH  28  31
ENDBRANCH   1  28
TORSDOF 22
ENDMDL
MODEL 5
REMARK VINA RESULT: -7.837599459      2.276     10.396
REMARK  22 active torsions:
REMARK  status: ('A' for Active; 'I' for Inactive)
REMARK    1  A    between atoms: C3_5  and  C4_6 
REMARK    2  A    between atoms: C5_7  and  C6_8 
REMARK    3  A    between atoms: C7_9  and  C8_10 
REMARK    4  A    between atoms: C8_10  and  C9_11 
REMARK    5  A    between atoms: C9_11  and  N2_12 
REMARK    6  A    between atoms: C9_11  and  C22_38 
REMARK    7  A    between atoms: N2_12  and  C10_14 
REMARK    8  A    between atoms: C10_14  and  O1_15 
REMARK    9  A    between atoms: C10_14  and  N3_17 
REMARK   10  A    between atoms: N3_17  and  C12_19 
REMARK   11  A    between atoms: C12_19  and  C13_20 
REMARK   12  A    between atoms: C13_20  and  C14_21 
REMARK   13  A    between atoms: C14_21  and  N4_24 
REMARK   14  A    between atoms: N5_28  and  C17_30 
REMARK   15  A    between atoms: C17_30  and  C18_31 
REMARK   16  A    between atoms: C18_31  and  C19_32 
REMARK   17  A    between atoms: C19_32  and  C20_33 
REMARK   18  A    between atoms: C24_42  and  C25_43 
REMARK   19  A    between atoms: C25_43  and  C26_44 
REMARK   20  A    between atoms: C26_44  and  C27_45 
REMARK       I    between atoms: C27_45  and  N8_47 
REMARK   21  A    between atoms: N8_47  and  C28_48 
REMARK   22  A    between atoms: N8_47  and  C30_50 
ROOT
HETATM    1  N2  UNL     1      -7.601  16.965  23.479  1.00  0.00    -0.342 N 
ATOM      2  H2  UNL     1      -6.924  16.209  23.369  1.00  0.00     0.164 HD
ENDROOT
BRANCH   1   3
HETATM    3  C9  UNL     1      -8.735  17.030  22.579  1.00  0.00     0.185 C 
BRANCH   3   4
HETATM    4  C8  UNL     1      -9.493  15.726  22.654  1.00  0.00     0.129 C 
BRANCH   4   5
HETATM    5  C7  UNL     1     -10.072  15.592  23.987  1.00  0.00    -0.090 C 
HETATM    6  C6  UNL     1     -10.523  15.485  25.119  1.00  0.00    -0.015 C 
BRANCH   6   7
HETATM    7  C5  UNL     1     -11.013  15.354  26.451  1.00  0.00    -0.008 C 
HETATM    8  C4  UNL     1     -11.440  15.212  27.576  1.00  0.00    -0.035 C 
BRANCH   8   9
HETATM    9  C3  UNL     1     -11.964  15.007  28.909  1.00  0.00     0.089 A 
HETATM   10  N1  UNL     1     -13.006  14.208  29.247  1.00  0.00    -0.349 N 
HETATM   11  C2  UNL     1     -13.214  14.253  30.594  1.00  0.00     0.033 A 
ATOM     12  H1  UNL     1     -13.555  13.654  28.589  1.00  0.00     0.166 HD
HETATM   13  C1  UNL     1     -14.173  13.568  31.174  1.00  0.00     0.044 C 
HETATM   14  C24 UNL     1     -12.302  15.089  31.164  1.00  0.00    -0.011 A 
HETATM   15  C23 UNL     1     -11.531  15.551  30.091  1.00  0.00     0.052 A 
BRANCH  14  16
HETATM   16  C25 UNL     1     -12.069  15.464  32.408  1.00  0.00    -0.004 C 
BRANCH  16  17
HETATM   17  C26 UNL     1     -11.238  14.767  33.383  1.00  0.00     0.131 C 
BRANCH  17  18
HETATM   18  C27 UNL     1     -11.878  14.881  34.742  1.00  0.00     0.223 C 
HETATM   19  O4  UNL     1     -11.865  15.986  35.331  1.00  0.00    -0.273 OA
HETATM   20  N8  UNL     1     -12.472  13.734  35.301  1.00  0.00    -0.353 N 
BRANCH  20  21
HETATM   21  C28 UNL     1     -13.087  13.810  36.601  1.00  0.00     0.121 C 
HETATM   22  C29 UNL     1     -12.447  12.861  37.588  1.00  0.00     0.026 C 
ENDBRANCH  20  21
BRANCH  20  23
HETATM   23  C30 UNL     1     -12.473  12.487  34.589  1.00  0.00     0.121 C 
HETATM   24  C31 UNL     1     -13.877  11.951  34.384  1.00  0.00     0.026 C 
ENDBRANCH  20  23
ENDBRANCH  17  18
ENDBRANCH  16  17
ENDBRANCH  14  16
ENDBRANCH   8   9
ENDBRANCH   6   7
ENDBRANCH   4   5
ENDBRANCH   3   4
BRANCH   3  25
HETATM   25  C22 UNL     1      -8.329  17.210  21.172  1.00  0.00     0.254 C 
HETATM   26  N7  UNL     1      -7.448  16.281  20.576  1.00  0.00    -0.060 NA
HETATM   27  O3  UNL     1      -8.769  18.183  20.523  1.00  0.00    -0.275 OA
ENDBRANCH   3  25
ENDBRANCH   1   3
BRANCH   1  28
HETATM   28  C10 UNL     1      -7.404  17.908  24.494  1.00  0.00     0.221 C 
BRANCH  28  29
HETATM   29  O1  UNL     1      -6.838  19.008  24.051  1.00  0.00    -0.332 OA
ATOM     30  H1  UNL     1      -6.001  19.177  24.468  1.00  0.00     0.220 HD
ENDBRANCH  28  29
BRANCH  28  31
HETATM   31  N3  UNL     1      -7.723  17.856  25.832  1.00  0.00    -0.307 N 
HETATM   32  C11 UNL     1      -9.023  18.590  26.174  1.00  0.00     0.161 C 
BRANCH  31  33
HETATM   33  C12 UNL     1      -7.041  17.490  26.994  1.00  0.00     0.087 C 
HETATM   34  N5  UNL     1      -7.448  17.373  28.168  1.00  0.00    -0.359 N 
ATOM     35  H5  UNL     1      -6.714  17.095  28.819  1.00  0.00     0.166 HD
BRANCH  33  36
HETATM   36  C13 UNL     1      -5.551  17.188  26.788  1.00  0.00     0.114 C 
BRANCH  36  37
HETATM   37  C14 UNL     1      -4.661  18.361  26.832  1.00  0.00     0.123 C 
HETATM   38  C15 UNL     1      -3.527  18.337  25.840  1.00  0.00     0.046 C 
HETATM   39  C16 UNL     1      -3.981  18.407  28.225  1.00  0.00     0.046 C 
BRANCH  37  40
HETATM   40  N4  UNL     1      -5.371  19.626  26.742  1.00  0.00    -0.071 N 
ATOM     41  H43 UNL     1      -6.360  19.502  26.958  1.00  0.00     0.275 HD
ATOM     42  H42 UNL     1      -5.108  20.244  27.509  1.00  0.00     0.275 HD
ATOM     43  H41 UNL     1      -5.253  20.092  25.843  1.00  0.00     0.275 HD
ENDBRANCH  37  40
ENDBRANCH  36  37
ENDBRANCH  33  36
BRANCH  34  44
HETATM   44  C17 UNL     1      -8.684  17.538  28.783  1.00  0.00     0.062 C 
BRANCH  44  45
HETATM   45  C18 UNL     1      -8.596  17.772  30.273  1.00  0.00     0.047 C 
BRANCH  45  46
HETATM   46  C19 UNL     1      -7.498  16.983  30.894  1.00  0.00     0.040 C 
BRANCH  46  47
HETATM   47  C20 UNL     1      -8.097  16.010  31.920  1.00  0.00     0.177 A 
HETATM   48  N6  UNL     1      -8.329  16.596  33.233  1.00  0.00    -0.346 N 
HETATM   49  C21 UNL     1      -7.256  15.676  33.080  1.00  0.00     0.241 A 
ATOM     50  H6  UNL     1      -8.871  17.219  33.831  1.00  0.00     0.163 HD
HETATM   51  O2  UNL     1      -6.299  15.054  33.600  1.00  0.00    -0.271 OA
ENDBRANCH  46  47
ENDBRANCH  45  46
ENDBRANCH  44  45
ENDBRANCH  34  44
ENDBRANCH  31  33
ENDBRANCH  28  31
ENDBRANCH   1  28
TORSDOF 22
ENDMDL
