MODEL 1
REMARK VINA RESULT: -6.706799162      0.000      0.000
REMARK  9 active torsions:
REMARK  status: ('A' for Active; 'I' for Inactive)
REMARK    1  A    between atoms: N1_2  and  C2_3 
REMARK    2  A    between atoms: N1_2  and  C3_6 
REMARK    3  A    between atoms: C2_3  and  O1_4 
REMARK    4  A    between atoms: C3_6  and  C4_7 
REMARK    5  A    between atoms: N3_11  and  C6_12 
REMARK    6  A    between atoms: C7_15  and  N5_16 
REMARK    7  A    between atoms: N5_16  and  C8_18 
REMARK    8  A    between atoms: C8_18  and  C9_19 
REMARK    9  A    between atoms: C9_19  and  N6_20 
ROOT
HETATM    1  C6  UNL     1      -9.818  69.358  26.773  1.00  0.00     0.733 A 
HETATM    2  N4  UNL     1      -8.937  70.297  27.160  1.00  0.00    -0.019 N 
ATOM      3  H4  UNL     1      -8.917  71.188  26.665  1.00  0.00     0.203 HD
HETATM    4  C7  UNL     1      -8.077  70.099  28.185  1.00  0.00     0.707 A 
HETATM    5  N9  UNL     1      -8.080  68.934  28.855  1.00  0.00    -0.022 N 
ATOM      6  H9  UNL     1      -7.433  68.777  29.627  1.00  0.00     0.203 HD
HETATM    7  C14 UNL     1      -8.950  67.979  28.487  1.00  0.00     0.705 A 
HETATM    8  N10 UNL     1      -8.952  66.866  29.127  1.00  0.00    -0.234 N 
ATOM      9 1H10 UNL     1      -9.613  66.141  28.847  1.00  0.00     0.174 HD
ATOM     10 2H10 UNL     1      -8.309  66.705  29.901  1.00  0.00     0.174 HD
HETATM   11  N11 UNL     1      -9.813  68.195  27.449  1.00  0.00    -0.020 N 
ATOM     12  H11 UNL     1     -10.466  67.460  27.182  1.00  0.00     0.203 HD
ENDROOT
BRANCH   4  13
HETATM   13  N5  UNL     1      -7.273  71.064  28.476  1.00  0.00    -0.224 N 
ATOM     14  H5  UNL     1      -6.341  70.803  28.795  1.00  0.00     0.177 HD
BRANCH  13  15
HETATM   15  C8  UNL     1      -7.556  72.458  28.399  1.00  0.00     0.157 C 
BRANCH  15  16
HETATM   16  C9  UNL     1      -6.353  73.223  27.833  1.00  0.00     0.141 C 
BRANCH  16  17
HETATM   17  N6  UNL     1      -5.948  72.630  26.600  1.00  0.00    -0.375 N 
HETATM   18  C10 UNL     1      -6.108  73.090  25.433  1.00  0.00     0.103 A 
HETATM   19  C11 UNL     1      -6.731  74.292  25.216  1.00  0.00     0.065 A 
HETATM   20  N8  UNL     1      -5.665  72.400  24.377  1.00  0.00    -0.339 N 
HETATM   21  C12 UNL     1      -6.865  74.727  23.895  1.00  0.00     0.092 A 
HETATM   22  N7  UNL     1      -6.398  73.986  22.871  1.00  0.00    -0.362 N 
HETATM   23  C13 UNL     1      -5.788  72.807  23.101  1.00  0.00     0.181 A 
ATOM     24  H7  UNL     1      -6.507  74.320  21.914  1.00  0.00     0.165 HD
ATOM     25  H8  UNL     1      -5.203  71.508  24.550  1.00  0.00     0.168 HD
ATOM     26  H6  UNL     1      -5.475  71.728  26.669  1.00  0.00     0.161 HD
ENDBRANCH  16  17
ENDBRANCH  15  16
ENDBRANCH  13  15
ENDBRANCH   4  13
BRANCH   1  27
HETATM   27  N3  UNL     1     -10.736  69.570  25.677  1.00  0.00    -0.079 N 
HETATM   28  C5  UNL     1     -11.883  70.232  25.847  1.00  0.00     0.227 A 
HETATM   29  N2  UNL     1     -12.506  70.262  24.666  1.00  0.00    -0.338 N 
HETATM   30  C4  UNL     1     -11.726  69.614  23.787  1.00  0.00     0.126 A 
ATOM     31  H2  UNL     1     -13.407  70.696  24.469  1.00  0.00     0.168 HD
HETATM   32  N12 UNL     1     -10.642  69.200  24.444  1.00  0.00    -0.265 N 
ATOM     33  H12 UNL     1      -9.866  68.677  24.039  1.00  0.00     0.189 HD
BRANCH  30  34
HETATM   34  C3  UNL     1     -12.082  69.433  22.346  1.00  0.00     0.352 C 
BRANCH  34  35
HETATM   35  N1  UNL     1     -11.063  68.660  21.705  1.00  0.00     0.113 N 
HETATM   36  C1  UNL     1     -11.543  67.776  20.690  1.00  0.00     0.313 C 
BRANCH  35  37
HETATM   37  C2  UNL     1      -9.982  69.482  21.219  1.00  0.00     0.437 C 
BRANCH  37  38
HETATM   38  O1  UNL     1      -8.765  68.775  21.199  1.00  0.00    -0.373 OA
ATOM     39  H1  UNL     1      -8.083  69.268  20.757  1.00  0.00     0.211 HD
ENDBRANCH  37  38
ENDBRANCH  35  37
ENDBRANCH  34  35
ENDBRANCH  30  34
ENDBRANCH   1  27
TORSDOF 9
ENDMDL
MODEL 2
REMARK VINA RESULT: -6.455301594      2.083      4.971
REMARK  9 active torsions:
REMARK  status: ('A' for Active; 'I' for Inactive)
REMARK    1  A    between atoms: N1_2  and  C2_3 
REMARK    2  A    between atoms: N1_2  and  C3_6 
REMARK    3  A    between atoms: C2_3  and  O1_4 
REMARK    4  A    between atoms: C3_6  and  C4_7 
REMARK    5  A    between atoms: N3_11  and  C6_12 
REMARK    6  A    between atoms: C7_15  and  N5_16 
REMARK    7  A    between atoms: N5_16  and  C8_18 
REMARK    8  A    between atoms: C8_18  and  C9_19 
REMARK    9  A    between atoms: C9_19  and  N6_20 
ROOT
HETATM    1  C6  UNL     1      -9.187  71.328  23.216  1.00  0.00     0.733 A 
HETATM    2  N4  UNL     1      -9.418  71.959  24.381  1.00  0.00    -0.019 N 
ATOM      3  H4  UNL     1     -10.332  71.858  24.822  1.00  0.00     0.203 HD
HETATM    4  C7  UNL     1      -8.481  72.722  24.986  1.00  0.00     0.707 A 
HETATM    5  N9  UNL     1      -7.268  72.874  24.426  1.00  0.00    -0.022 N 
ATOM      6  H9  UNL     1      -6.556  73.449  24.876  1.00  0.00     0.203 HD
HETATM    7  C14 UNL     1      -7.011  72.255  23.263  1.00  0.00     0.705 A 
HETATM    8  N10 UNL     1      -5.853  72.400  22.728  1.00  0.00    -0.234 N 
ATOM      9 1H10 UNL     1      -5.658  71.931  21.844  1.00  0.00     0.174 HD
ATOM     10 2H10 UNL     1      -5.138  72.973  23.175  1.00  0.00     0.174 HD
HETATM   11  N11 UNL     1      -7.971  71.487  22.664  1.00  0.00    -0.020 N 
ATOM     12  H11 UNL     1      -7.760  71.025  21.780  1.00  0.00     0.203 HD
ENDROOT
BRANCH   4  13
HETATM   13  N5  UNL     1      -8.804  73.282  26.101  1.00  0.00    -0.224 N 
ATOM     14  H5  UNL     1      -9.714  73.741  26.135  1.00  0.00     0.177 HD
BRANCH  13  15
HETATM   15  C8  UNL     1      -8.020  73.326  27.289  1.00  0.00     0.157 C 
BRANCH  15  16
HETATM   16  C9  UNL     1      -8.775  72.681  28.459  1.00  0.00     0.141 C 
BRANCH  16  17
HETATM   17  N6  UNL     1      -8.197  71.411  28.755  1.00  0.00    -0.375 N 
HETATM   18  C10 UNL     1      -8.640  70.269  28.437  1.00  0.00     0.103 A 
HETATM   19  C11 UNL     1      -9.802  70.124  27.725  1.00  0.00     0.065 A 
HETATM   20  N8  UNL     1      -7.969  69.170  28.797  1.00  0.00    -0.339 N 
HETATM   21  C12 UNL     1     -10.219  68.827  27.417  1.00  0.00     0.092 A 
HETATM   22  N7  UNL     1      -9.500  67.757  27.808  1.00  0.00    -0.362 N 
HETATM   23  C13 UNL     1      -8.359  67.916  28.506  1.00  0.00     0.181 A 
ATOM     24  H7  UNL     1      -9.821  66.817  27.573  1.00  0.00     0.165 HD
ATOM     25  H8  UNL     1      -7.106  69.289  29.326  1.00  0.00     0.168 HD
ATOM     26  H6  UNL     1      -7.325  71.425  29.286  1.00  0.00     0.161 HD
ENDBRANCH  16  17
ENDBRANCH  15  16
ENDBRANCH  13  15
ENDBRANCH   4  13
BRANCH   1  27
HETATM   27  N3  UNL     1     -10.190  70.513  22.569  1.00  0.00    -0.079 N 
HETATM   28  C5  UNL     1     -10.728  69.455  23.178  1.00  0.00     0.227 A 
HETATM   29  N2  UNL     1     -11.611  68.913  22.335  1.00  0.00    -0.338 N 
HETATM   30  C4  UNL     1     -11.600  69.654  21.217  1.00  0.00     0.126 A 
ATOM     31  H2  UNL     1     -12.186  68.090  22.510  1.00  0.00     0.168 HD
HETATM   32  N12 UNL     1     -10.712  70.633  21.394  1.00  0.00    -0.265 N 
ATOM     33  H12 UNL     1     -10.483  71.357  20.714  1.00  0.00     0.189 HD
BRANCH  30  34
HETATM   34  C3  UNL     1     -12.460  69.365  20.028  1.00  0.00     0.352 C 
BRANCH  34  35
HETATM   35  N1  UNL     1     -12.002  68.166  19.397  1.00  0.00     0.113 N 
HETATM   36  C1  UNL     1     -12.820  67.021  19.642  1.00  0.00     0.313 C 
BRANCH  35  37
HETATM   37  C2  UNL     1     -11.763  68.351  17.987  1.00  0.00     0.437 C 
BRANCH  37  38
HETATM   38  O1  UNL     1     -11.781  67.125  17.295  1.00  0.00    -0.373 OA
ATOM     39  H1  UNL     1     -11.842  66.389  17.891  1.00  0.00     0.211 HD
ENDBRANCH  37  38
ENDBRANCH  35  37
ENDBRANCH  34  35
ENDBRANCH  30  34
ENDBRANCH   1  27
TORSDOF 9
ENDMDL
MODEL 3
REMARK VINA RESULT: -6.439288364      1.709      4.722
REMARK  9 active torsions:
REMARK  status: ('A' for Active; 'I' for Inactive)
REMARK    1  A    between atoms: N1_2  and  C2_3 
REMARK    2  A    between atoms: N1_2  and  C3_6 
REMARK    3  A    between atoms: C2_3  and  O1_4 
REMARK    4  A    between atoms: C3_6  and  C4_7 
REMARK    5  A    between atoms: N3_11  and  C6_12 
REMARK    6  A    between atoms: C7_15  and  N5_16 
REMARK    7  A    between atoms: N5_16  and  C8_18 
REMARK    8  A    between atoms: C8_18  and  C9_19 
REMARK    9  A    between atoms: C9_19  and  N6_20 
ROOT
HETATM    1  C6  UNL     1      -8.927  71.949  23.679  1.00  0.00     0.733 A 
HETATM    2  N4  UNL     1      -8.796  72.518  24.890  1.00  0.00    -0.019 N 
ATOM      3  H4  UNL     1      -9.610  72.568  25.502  1.00  0.00     0.203 HD
HETATM    4  C7  UNL     1      -7.620  73.026  25.323  1.00  0.00     0.707 A 
HETATM    5  N9  UNL     1      -6.531  72.976  24.537  1.00  0.00    -0.022 N 
ATOM      6  H9  UNL     1      -5.641  73.359  24.857  1.00  0.00     0.203 HD
HETATM    7  C14 UNL     1      -6.635  72.413  23.323  1.00  0.00     0.705 A 
HETATM    8  N10 UNL     1      -5.595  72.365  22.572  1.00  0.00    -0.234 N 
ATOM      9 1H10 UNL     1      -5.675  71.938  21.650  1.00  0.00     0.174 HD
ATOM     10 2H10 UNL     1      -4.703  72.745  22.887  1.00  0.00     0.174 HD
HETATM   11  N11 UNL     1      -7.832  71.904  22.900  1.00  0.00    -0.020 N 
ATOM     12  H11 UNL     1      -7.894  71.480  21.974  1.00  0.00     0.203 HD
ENDROOT
BRANCH   4  13
HETATM   13  N5  UNL     1      -7.601  73.550  26.501  1.00  0.00    -0.224 N 
ATOM     14  H5  UNL     1      -8.151  74.397  26.634  1.00  0.00     0.177 HD
BRANCH  13  15
HETATM   15  C8  UNL     1      -6.889  73.064  27.635  1.00  0.00     0.157 C 
BRANCH  15  16
HETATM   16  C9  UNL     1      -7.861  72.536  28.698  1.00  0.00     0.141 C 
BRANCH  16  17
HETATM   17  N6  UNL     1      -7.633  71.142  28.899  1.00  0.00    -0.375 N 
HETATM   18  C10 UNL     1      -8.322  70.176  28.459  1.00  0.00     0.103 A 
HETATM   19  C11 UNL     1      -9.437  70.384  27.689  1.00  0.00     0.065 A 
HETATM   20  N8  UNL     1      -7.967  68.919  28.743  1.00  0.00    -0.339 N 
HETATM   21  C12 UNL     1     -10.140  69.261  27.245  1.00  0.00     0.092 A 
HETATM   22  N7  UNL     1      -9.732  68.017  27.565  1.00  0.00    -0.362 N 
HETATM   23  C13 UNL     1      -8.634  67.830  28.322  1.00  0.00     0.181 A 
ATOM     24  H7  UNL     1     -10.260  67.210  27.231  1.00  0.00     0.165 HD
ATOM     25  H8  UNL     1      -7.136  68.776  29.316  1.00  0.00     0.168 HD
ATOM     26  H6  UNL     1      -6.820  70.895  29.464  1.00  0.00     0.161 HD
ENDBRANCH  16  17
ENDBRANCH  15  16
ENDBRANCH  13  15
ENDBRANCH   4  13
BRANCH   1  27
HETATM   27  N3  UNL     1     -10.184  71.406  23.216  1.00  0.00    -0.079 N 
HETATM   28  C5  UNL     1     -11.210  71.216  24.048  1.00  0.00     0.227 A 
HETATM   29  N2  UNL     1     -12.217  70.708  23.332  1.00  0.00    -0.338 N 
HETATM   30  C4  UNL     1     -11.789  70.594  22.066  1.00  0.00     0.126 A 
ATOM     31  H2  UNL     1     -13.140  70.453  23.683  1.00  0.00     0.168 HD
HETATM   32  N12 UNL     1     -10.530  71.034  22.029  1.00  0.00    -0.265 N 
ATOM     33  H12 UNL     1      -9.938  71.070  21.199  1.00  0.00     0.189 HD
BRANCH  30  34
HETATM   34  C3  UNL     1     -12.634  70.061  20.953  1.00  0.00     0.352 C 
BRANCH  34  35
HETATM   35  N1  UNL     1     -12.670  68.633  21.036  1.00  0.00     0.113 N 
HETATM   36  C1  UNL     1     -13.883  68.046  20.561  1.00  0.00     0.313 C 
BRANCH  35  37
HETATM   37  C2  UNL     1     -11.515  68.024  20.424  1.00  0.00     0.437 C 
BRANCH  37  38
HETATM   38  O1  UNL     1     -10.761  67.291  21.360  1.00  0.00    -0.373 OA
ATOM     39  H1  UNL     1     -10.409  66.496  20.978  1.00  0.00     0.211 HD
ENDBRANCH  37  38
ENDBRANCH  35  37
ENDBRANCH  34  35
ENDBRANCH  30  34
ENDBRANCH   1  27
TORSDOF 9
ENDMDL
MODEL 4
REMARK VINA RESULT: -6.306996600      1.477      5.791
REMARK  9 active torsions:
REMARK  status: ('A' for Active; 'I' for Inactive)
REMARK    1  A    between atoms: N1_2  and  C2_3 
REMARK    2  A    between atoms: N1_2  and  C3_6 
REMARK    3  A    between atoms: C2_3  and  O1_4 
REMARK    4  A    between atoms: C3_6  and  C4_7 
REMARK    5  A    between atoms: N3_11  and  C6_12 
REMARK    6  A    between atoms: C7_15  and  N5_16 
REMARK    7  A    between atoms: N5_16  and  C8_18 
REMARK    8  A    between atoms: C8_18  and  C9_19 
REMARK    9  A    between atoms: C9_19  and  N6_20 
ROOT
HETATM    1  C6  UNL     1      -8.607  70.106  27.581  1.00  0.00     0.733 A 
HETATM    2  N4  UNL     1      -9.797  69.890  26.994  1.00  0.00    -0.019 N 
ATOM      3  H4  UNL     1     -10.178  70.605  26.374  1.00  0.00     0.203 HD
HETATM    4  C7  UNL     1     -10.506  68.756  27.197  1.00  0.00     0.707 A 
HETATM    5  N9  UNL     1     -10.029  67.798  28.010  1.00  0.00    -0.022 N 
ATOM      6  H9  UNL     1     -10.558  66.941  28.169  1.00  0.00     0.203 HD
HETATM    7  C14 UNL     1      -8.842  67.989  28.608  1.00  0.00     0.705 A 
HETATM    8  N10 UNL     1      -8.387  67.073  29.384  1.00  0.00    -0.234 N 
ATOM      9 1H10 UNL     1      -7.485  67.219  29.839  1.00  0.00     0.174 HD
ATOM     10 2H10 UNL     1      -8.912  66.214  29.546  1.00  0.00     0.174 HD
HETATM   11  N11 UNL     1      -8.138  69.141  28.392  1.00  0.00    -0.020 N 
ATOM     12  H11 UNL     1      -7.240  69.271  28.855  1.00  0.00     0.203 HD
ENDROOT
BRANCH   4  13
HETATM   13  N5  UNL     1     -11.635  68.648  26.586  1.00  0.00    -0.224 N 
ATOM     14  H5  UNL     1     -11.961  67.702  26.390  1.00  0.00     0.177 HD
BRANCH  13  15
HETATM   15  C8  UNL     1     -12.475  69.716  26.158  1.00  0.00     0.157 C 
BRANCH  15  16
HETATM   16  C9  UNL     1     -13.095  69.401  24.790  1.00  0.00     0.141 C 
BRANCH  16  17
HETATM   17  N6  UNL     1     -12.139  68.719  23.980  1.00  0.00    -0.375 N 
HETATM   18  C10 UNL     1     -11.633  69.111  22.889  1.00  0.00     0.103 A 
HETATM   19  C11 UNL     1     -11.975  70.316  22.332  1.00  0.00     0.065 A 
HETATM   20  N8  UNL     1     -10.743  68.343  22.253  1.00  0.00    -0.339 N 
HETATM   21  C12 UNL     1     -11.368  70.671  21.125  1.00  0.00     0.092 A 
HETATM   22  N7  UNL     1     -10.477  69.853  20.531  1.00  0.00    -0.362 N 
HETATM   23  C13 UNL     1     -10.152  68.672  21.091  1.00  0.00     0.181 A 
ATOM     24  H7  UNL     1     -10.046  70.130  19.649  1.00  0.00     0.165 HD
ATOM     25  H8  UNL     1     -10.496  67.448  22.676  1.00  0.00     0.168 HD
ATOM     26  H6  UNL     1     -11.827  67.809  24.321  1.00  0.00     0.161 HD
ENDBRANCH  16  17
ENDBRANCH  15  16
ENDBRANCH  13  15
ENDBRANCH   4  13
BRANCH   1  27
HETATM   27  N3  UNL     1      -7.850  71.318  27.363  1.00  0.00    -0.079 N 
HETATM   28  C5  UNL     1      -7.305  71.992  28.377  1.00  0.00     0.227 A 
HETATM   29  N2  UNL     1      -6.679  73.053  27.862  1.00  0.00    -0.338 N 
HETATM   30  C4  UNL     1      -6.851  73.012  26.533  1.00  0.00     0.126 A 
ATOM     31  H2  UNL     1      -6.165  73.764  28.384  1.00  0.00     0.168 HD
HETATM   32  N12 UNL     1      -7.579  71.928  26.258  1.00  0.00    -0.265 N 
ATOM     33  H12 UNL     1      -7.872  71.631  25.327  1.00  0.00     0.189 HD
BRANCH  30  34
HETATM   34  C3  UNL     1      -6.295  74.036  25.596  1.00  0.00     0.352 C 
BRANCH  34  35
HETATM   35  N1  UNL     1      -6.634  73.678  24.253  1.00  0.00     0.113 N 
HETATM   36  C1  UNL     1      -7.533  74.583  23.611  1.00  0.00     0.313 C 
BRANCH  35  37
HETATM   37  C2  UNL     1      -5.466  73.432  23.445  1.00  0.00     0.437 C 
BRANCH  37  38
HETATM   38  O1  UNL     1      -5.666  72.354  22.562  1.00  0.00    -0.373 OA
ATOM     39  H1  UNL     1      -4.891  71.808  22.497  1.00  0.00     0.211 HD
ENDBRANCH  37  38
ENDBRANCH  35  37
ENDBRANCH  34  35
ENDBRANCH  30  34
ENDBRANCH   1  27
TORSDOF 9
ENDMDL
MODEL 5
REMARK VINA RESULT: -6.233392345      2.217      5.284
REMARK  9 active torsions:
REMARK  status: ('A' for Active; 'I' for Inactive)
REMARK    1  A    between atoms: N1_2  and  C2_3 
REMARK    2  A    between atoms: N1_2  and  C3_6 
REMARK    3  A    between atoms: C2_3  and  O1_4 
REMARK    4  A    between atoms: C3_6  and  C4_7 
REMARK    5  A    between atoms: N3_11  and  C6_12 
REMARK    6  A    between atoms: C7_15  and  N5_16 
REMARK    7  A    between atoms: N5_16  and  C8_18 
REMARK    8  A    between atoms: C8_18  and  C9_19 
REMARK    9  A    between atoms: C9_19  and  N6_20 
ROOT
HETATM    1  C6  UNL     1      -9.627  71.991  23.158  1.00  0.00     0.733 A 
HETATM    2  N4  UNL     1      -8.572  72.122  23.980  1.00  0.00    -0.019 N 
ATOM      3  H4  UNL     1      -8.101  71.281  24.315  1.00  0.00     0.203 HD
HETATM    4  C7  UNL     1      -8.113  73.330  24.379  1.00  0.00     0.707 A 
HETATM    5  N9  UNL     1      -8.715  74.455  23.955  1.00  0.00    -0.022 N 
ATOM      6  H9  UNL     1      -8.376  75.369  24.252  1.00  0.00     0.203 HD
HETATM    7  C14 UNL     1      -9.772  74.352  23.133  1.00  0.00     0.705 A 
HETATM    8  N10 UNL     1     -10.347  75.426  22.728  1.00  0.00    -0.234 N 
ATOM      9 1H10 UNL     1     -11.149  75.348  22.104  1.00  0.00     0.174 HD
ATOM     10 2H10 UNL     1     -10.011  76.343  23.022  1.00  0.00     0.174 HD
HETATM   11  N11 UNL     1     -10.222  73.122  22.739  1.00  0.00    -0.020 N 
ATOM     12  H11 UNL     1     -11.027  73.062  22.115  1.00  0.00     0.203 HD
ENDROOT
BRANCH   4  13
HETATM   13  N5  UNL     1      -7.095  73.344  25.168  1.00  0.00    -0.224 N 
ATOM     14  H5  UNL     1      -6.527  74.191  25.168  1.00  0.00     0.177 HD
BRANCH  13  15
HETATM   15  C8  UNL     1      -6.682  72.297  26.042  1.00  0.00     0.157 C 
BRANCH  15  16
HETATM   16  C9  UNL     1      -7.508  72.314  27.334  1.00  0.00     0.141 C 
BRANCH  16  17
HETATM   17  N6  UNL     1      -7.353  71.069  28.014  1.00  0.00    -0.375 N 
HETATM   18  C10 UNL     1      -8.121  70.064  27.967  1.00  0.00     0.103 A 
HETATM   19  C11 UNL     1      -9.261  70.067  27.206  1.00  0.00     0.065 A 
HETATM   20  N8  UNL     1      -7.825  68.966  28.672  1.00  0.00    -0.339 N 
HETATM   21  C12 UNL     1     -10.051  68.915  27.212  1.00  0.00     0.092 A 
HETATM   22  N7  UNL     1      -9.701  67.839  27.944  1.00  0.00    -0.362 N 
HETATM   23  C13 UNL     1      -8.577  67.852  28.686  1.00  0.00     0.181 A 
ATOM     24  H7  UNL     1     -10.292  67.007  27.935  1.00  0.00     0.165 HD
ATOM     25  H8  UNL     1      -6.975  68.975  29.234  1.00  0.00     0.168 HD
ATOM     26  H6  UNL     1      -6.527  70.979  28.606  1.00  0.00     0.161 HD
ENDBRANCH  16  17
ENDBRANCH  15  16
ENDBRANCH  13  15
ENDBRANCH   4  13
BRANCH   1  27
HETATM   27  N3  UNL     1     -10.116  70.700  22.732  1.00  0.00    -0.079 N 
HETATM   28  C5  UNL     1     -10.498  69.774  23.614  1.00  0.00     0.227 A 
HETATM   29  N2  UNL     1     -10.894  68.702  22.922  1.00  0.00    -0.338 N 
HETATM   30  C4  UNL     1     -10.748  68.991  21.620  1.00  0.00     0.126 A 
ATOM     31  H2  UNL     1     -11.243  67.826  23.312  1.00  0.00     0.168 HD
HETATM   32  N12 UNL     1     -10.266  70.232  21.538  1.00  0.00    -0.265 N 
ATOM     33  H12 UNL     1     -10.051  70.729  20.674  1.00  0.00     0.189 HD
BRANCH  30  34
HETATM   34  C3  UNL     1     -11.089  68.037  20.520  1.00  0.00     0.352 C 
BRANCH  34  35
HETATM   35  N1  UNL     1     -12.323  68.436  19.918  1.00  0.00     0.113 N 
HETATM   36  C1  UNL     1     -12.176  69.153  18.691  1.00  0.00     0.313 C 
BRANCH  35  37
HETATM   37  C2  UNL     1     -13.241  67.333  19.777  1.00  0.00     0.437 C 
BRANCH  37  38
HETATM   38  O1  UNL     1     -12.586  66.170  19.331  1.00  0.00    -0.373 OA
ATOM     39  H1  UNL     1     -12.762  66.001  18.413  1.00  0.00     0.211 HD
ENDBRANCH  37  38
ENDBRANCH  35  37
ENDBRANCH  34  35
ENDBRANCH  30  34
ENDBRANCH   1  27
TORSDOF 9
ENDMDL
