MODEL 1
REMARK VINA RESULT: -6.529935702      0.000      0.000
REMARK  12 active torsions:
REMARK  status: ('A' for Active; 'I' for Inactive)
REMARK    1  A    between atoms: O1_2  and  C2_3 
REMARK    2  A    between atoms: C2_3  and  C3_5 
REMARK    3  A    between atoms: C4_6  and  O3_7 
REMARK    4  A    between atoms: O3_7  and  C5_8 
REMARK    5  A    between atoms: C8_12  and  N1_13 
REMARK       I    between atoms: N1_13  and  C9_15 
REMARK    6  A    between atoms: N4_20  and  N5_21 
REMARK    7  A    between atoms: N5_21  and  N6_22 
REMARK    8  A    between atoms: C10_26  and  C11_27 
REMARK    9  A    between atoms: C11_27  and  O7_28 
REMARK   10  A    between atoms: C11_27  and  C12_30 
REMARK   11  A    between atoms: C12_30  and  N7_31 
REMARK   12  A    between atoms: C13_35  and  O8_36 
ROOT
HETATM    1  C3  UNL     1      11.534  15.672  10.310  1.00  0.00     0.151 A 
HETATM    2  C4  UNL     1      12.521  15.644   9.315  1.00  0.00     0.213 A 
HETATM    3  O6  UNL     1      13.167  16.777   9.127  1.00  0.00    -0.285 OA
HETATM    4  C10 UNL     1      12.941  17.876   9.798  1.00  0.00     0.123 A 
HETATM    5  C13 UNL     1      11.982  17.946  10.784  1.00  0.00     0.150 A 
HETATM    6  C14 UNL     1      11.254  16.805  11.048  1.00  0.00     0.228 A 
HETATM    7  O9  UNL     1      10.357  16.798  11.941  1.00  0.00    -0.284 OA
ENDROOT
BRANCH   2   8
HETATM    8  O3  UNL     1      12.714  14.492   8.651  1.00  0.00    -0.264 OA
BRANCH   8   9
HETATM    9  C5  UNL     1      13.261  14.159   7.464  1.00  0.00     0.216 A 
HETATM   10  C6  UNL     1      12.582  14.057   6.339  1.00  0.00     0.107 A 
HETATM   11  C7  UNL     1      11.096  14.311   6.279  1.00  0.00     0.081 C 
HETATM   12  O4  UNL     1      13.277  13.702   5.182  1.00  0.00    -0.279 OA
HETATM   13  C8  UNL     1      14.635  13.449   5.130  1.00  0.00     0.248 A 
HETATM   14  N3  UNL     1      15.275  13.555   6.244  1.00  0.00    -0.242 N 
HETATM   15  N4  UNL     1      14.678  13.901   7.442  1.00  0.00    -0.151 N 
ATOM     16  H3  UNL     1      16.279  13.374   6.241  1.00  0.00     0.192 HD
BRANCH  13  17
HETATM   17  N1  UNL     1      15.307  13.091   3.933  1.00  0.00    -0.275 N 
HETATM   18  C9  UNL     1      15.746  11.764   3.691  1.00  0.00     0.335 C 
HETATM   19  N2  UNL     1      16.413  11.397   2.507  1.00  0.00    -0.040 NA
HETATM   20  O5  UNL     1      15.529  10.900   4.564  1.00  0.00    -0.251 OA
ATOM     21  H1  UNL     1      15.479  13.806   3.227  1.00  0.00     0.173 HD
ENDBRANCH  13  17
BRANCH  15  22
HETATM   22  N5  UNL     1      15.470  13.985   8.584  1.00  0.00    -0.004 NA
BRANCH  22  23
HETATM   23  N6  UNL     1      15.810  15.313   8.884  1.00  0.00    -0.327 N 
ATOM     24  H62 UNL     1      15.135  16.078   8.884  1.00  0.00     0.174 HD
ATOM     25  H61 UNL     1      16.803  15.410   9.097  1.00  0.00     0.174 HD
ENDBRANCH  22  23
ENDBRANCH  15  22
ENDBRANCH   8   9
ENDBRANCH   2   8
BRANCH   1  26
HETATM   26  C2  UNL     1      10.793  14.458  10.558  1.00  0.00     0.302 C 
HETATM   27  O2  UNL     1      11.205  13.658  11.455  1.00  0.00    -0.259 OA
BRANCH  26  28
HETATM   28  O1  UNL     1       9.648  14.095   9.879  1.00  0.00    -0.322 OA
HETATM   29  C1  UNL     1       8.894  15.033   9.134  1.00  0.00     0.213 C 
ENDBRANCH  26  28
ENDBRANCH   1  26
BRANCH   4  30
HETATM   30  C11 UNL     1      13.719  19.131   9.529  1.00  0.00     0.203 C 
BRANCH  30  31
HETATM   31  O7  UNL     1      14.300  19.632  10.690  1.00  0.00    -0.387 OA
ATOM     32  H7  UNL     1      14.765  20.445  10.526  1.00  0.00     0.210 HD
ENDBRANCH  30  31
BRANCH  30  33
HETATM   33  C12 UNL     1      14.778  18.861   8.467  1.00  0.00     0.268 C 
BRANCH  33  34
HETATM   34  N7  UNL     1      14.113  18.762   7.182  1.00  0.00    -0.076 N 
ATOM     35  H73 UNL     1      14.366  17.915   6.672  1.00  0.00     0.274 HD
ATOM     36  H72 UNL     1      13.114  18.575   7.269  1.00  0.00     0.274 HD
ATOM     37  H71 UNL     1      14.311  19.613   6.655  1.00  0.00     0.274 HD
ENDBRANCH  33  34
ENDBRANCH  30  33
ENDBRANCH   4  30
BRANCH   5  38
HETATM   38  O8  UNL     1      11.749  19.123  11.493  1.00  0.00    -0.355 OA
ATOM     39  H8  UNL     1      11.698  19.131  12.441  1.00  0.00     0.218 HD
ENDBRANCH   5  38
TORSDOF 12
ENDMDL
MODEL 2
REMARK VINA RESULT: -6.242397848      2.781      5.769
REMARK  12 active torsions:
REMARK  status: ('A' for Active; 'I' for Inactive)
REMARK    1  A    between atoms: O1_2  and  C2_3 
REMARK    2  A    between atoms: C2_3  and  C3_5 
REMARK    3  A    between atoms: C4_6  and  O3_7 
REMARK    4  A    between atoms: O3_7  and  C5_8 
REMARK    5  A    between atoms: C8_12  and  N1_13 
REMARK       I    between atoms: N1_13  and  C9_15 
REMARK    6  A    between atoms: N4_20  and  N5_21 
REMARK    7  A    between atoms: N5_21  and  N6_22 
REMARK    8  A    between atoms: C10_26  and  C11_27 
REMARK    9  A    between atoms: C11_27  and  O7_28 
REMARK   10  A    between atoms: C11_27  and  C12_30 
REMARK   11  A    between atoms: C12_30  and  N7_31 
REMARK   12  A    between atoms: C13_35  and  O8_36 
ROOT
HETATM    1  C3  UNL     1      10.979  14.741   7.052  1.00  0.00     0.151 A 
HETATM    2  C4  UNL     1      12.096  15.081   7.828  1.00  0.00     0.213 A 
HETATM    3  O6  UNL     1      11.922  15.007   9.132  1.00  0.00    -0.285 OA
HETATM    4  C10 UNL     1      10.805  14.646   9.709  1.00  0.00     0.123 A 
HETATM    5  C13 UNL     1       9.685  14.303   8.984  1.00  0.00     0.150 A 
HETATM    6  C14 UNL     1       9.776  14.353   7.609  1.00  0.00     0.228 A 
HETATM    7  O9  UNL     1       8.786  14.051   6.880  1.00  0.00    -0.284 OA
ENDROOT
BRANCH   2   8
HETATM    8  O3  UNL     1      13.219  15.449   7.190  1.00  0.00    -0.264 OA
BRANCH   8   9
HETATM    9  C5  UNL     1      14.150  16.407   7.378  1.00  0.00     0.216 A 
HETATM   10  C6  UNL     1      14.027  17.650   6.960  1.00  0.00     0.107 A 
HETATM   11  C7  UNL     1      12.803  18.123   6.213  1.00  0.00     0.081 C 
HETATM   12  O4  UNL     1      15.070  18.538   7.223  1.00  0.00    -0.279 OA
HETATM   13  C8  UNL     1      16.231  18.206   7.897  1.00  0.00     0.248 A 
HETATM   14  N3  UNL     1      16.326  16.985   8.295  1.00  0.00    -0.242 N 
HETATM   15  N4  UNL     1      15.348  16.030   8.084  1.00  0.00    -0.151 N 
ATOM     16  H3  UNL     1      17.170  16.706   8.795  1.00  0.00     0.192 HD
BRANCH  13  17
HETATM   17  N1  UNL     1      17.271  19.139   8.146  1.00  0.00    -0.275 N 
HETATM   18  C9  UNL     1      17.148  20.147   9.135  1.00  0.00     0.335 C 
HETATM   19  N2  UNL     1      18.173  21.078   9.391  1.00  0.00    -0.040 NA
HETATM   20  O5  UNL     1      16.092  20.204   9.796  1.00  0.00    -0.251 OA
ATOM     21  H1  UNL     1      18.130  19.083   7.599  1.00  0.00     0.173 HD
ENDBRANCH  13  17
BRANCH  15  22
HETATM   22  N5  UNL     1      15.560  14.739   8.560  1.00  0.00    -0.004 NA
BRANCH  22  23
HETATM   23  N6  UNL     1      14.920  14.528   9.792  1.00  0.00    -0.327 N 
ATOM     24  H62 UNL     1      15.406  14.561  10.688  1.00  0.00     0.174 HD
ATOM     25  H61 UNL     1      13.924  14.343   9.673  1.00  0.00     0.174 HD
ENDBRANCH  22  23
ENDBRANCH  15  22
ENDBRANCH   8   9
ENDBRANCH   2   8
BRANCH   1  26
HETATM   26  C2  UNL     1      11.113  14.806   5.616  1.00  0.00     0.302 C 
HETATM   27  O2  UNL     1      10.712  15.846   5.007  1.00  0.00    -0.259 OA
BRANCH  26  28
HETATM   28  O1  UNL     1      11.656  13.802   4.841  1.00  0.00    -0.322 OA
HETATM   29  C1  UNL     1      12.792  14.020   4.025  1.00  0.00     0.213 C 
ENDBRANCH  26  28
ENDBRANCH   1  26
BRANCH   4  30
HETATM   30  C11 UNL     1      10.680  14.584  11.204  1.00  0.00     0.203 C 
BRANCH  30  31
HETATM   31  O7  UNL     1      10.388  13.296  11.641  1.00  0.00    -0.387 OA
ATOM     32  H7  UNL     1       9.604  13.278  12.178  1.00  0.00     0.210 HD
ENDBRANCH  30  31
BRANCH  30  33
HETATM   33  C12 UNL     1      11.963  15.096  11.847  1.00  0.00     0.268 C 
BRANCH  33  34
HETATM   34  N7  UNL     1      11.965  16.543  11.763  1.00  0.00    -0.076 N 
ATOM     35  H73 UNL     1      11.337  16.896  11.040  1.00  0.00     0.274 HD
ATOM     36  H72 UNL     1      11.514  16.985  12.564  1.00  0.00     0.274 HD
ATOM     37  H71 UNL     1      12.929  16.853  11.633  1.00  0.00     0.274 HD
ENDBRANCH  33  34
ENDBRANCH  30  33
ENDBRANCH   4  30
BRANCH   5  38
HETATM   38  O8  UNL     1       8.500  13.920   9.608  1.00  0.00    -0.355 OA
ATOM     39  H8  UNL     1       7.773  14.523   9.709  1.00  0.00     0.218 HD
ENDBRANCH   5  38
TORSDOF 12
ENDMDL
MODEL 3
REMARK VINA RESULT: -6.204885121      3.582      8.031
REMARK  12 active torsions:
REMARK  status: ('A' for Active; 'I' for Inactive)
REMARK    1  A    between atoms: O1_2  and  C2_3 
REMARK    2  A    between atoms: C2_3  and  C3_5 
REMARK    3  A    between atoms: C4_6  and  O3_7 
REMARK    4  A    between atoms: O3_7  and  C5_8 
REMARK    5  A    between atoms: C8_12  and  N1_13 
REMARK       I    between atoms: N1_13  and  C9_15 
REMARK    6  A    between atoms: N4_20  and  N5_21 
REMARK    7  A    between atoms: N5_21  and  N6_22 
REMARK    8  A    between atoms: C10_26  and  C11_27 
REMARK    9  A    between atoms: C11_27  and  O7_28 
REMARK   10  A    between atoms: C11_27  and  C12_30 
REMARK   11  A    between atoms: C12_30  and  N7_31 
REMARK   12  A    between atoms: C13_35  and  O8_36 
ROOT
HETATM    1  C3  UNL     1      15.161  16.384   2.327  1.00  0.00     0.151 A 
HETATM    2  C4  UNL     1      14.992  15.354   3.262  1.00  0.00     0.213 A 
HETATM    3  O6  UNL     1      15.811  14.330   3.131  1.00  0.00    -0.285 OA
HETATM    4  C10 UNL     1      16.734  14.237   2.210  1.00  0.00     0.123 A 
HETATM    5  C13 UNL     1      16.934  15.227   1.272  1.00  0.00     0.150 A 
HETATM    6  C14 UNL     1      16.120  16.337   1.334  1.00  0.00     0.228 A 
HETATM    7  O9  UNL     1      16.248  17.285   0.504  1.00  0.00    -0.284 OA
ENDROOT
BRANCH   2   8
HETATM    8  O3  UNL     1      14.028  15.494   4.187  1.00  0.00    -0.264 OA
BRANCH   8   9
HETATM    9  C5  UNL     1      13.923  15.211   5.502  1.00  0.00     0.216 A 
HETATM   10  C6  UNL     1      13.427  14.087   5.979  1.00  0.00     0.107 A 
HETATM   11  C7  UNL     1      12.921  12.991   5.074  1.00  0.00     0.081 C 
HETATM   12  O4  UNL     1      13.377  13.927   7.364  1.00  0.00    -0.279 OA
HETATM   13  C8  UNL     1      13.814  14.868   8.278  1.00  0.00     0.248 A 
HETATM   14  N3  UNL     1      14.293  15.958   7.785  1.00  0.00    -0.242 N 
HETATM   15  N4  UNL     1      14.386  16.211   6.429  1.00  0.00    -0.151 N 
ATOM     16  H3  UNL     1      14.624  16.674   8.432  1.00  0.00     0.192 HD
BRANCH  13  17
HETATM   17  N1  UNL     1      13.747  14.668   9.681  1.00  0.00    -0.275 N 
HETATM   18  C9  UNL     1      14.875  14.249  10.430  1.00  0.00     0.335 C 
HETATM   19  N2  UNL     1      14.821  14.046  11.822  1.00  0.00    -0.040 NA
HETATM   20  O5  UNL     1      15.949  14.052   9.825  1.00  0.00    -0.251 OA
ATOM     21  H1  UNL     1      12.864  14.832  10.164  1.00  0.00     0.173 HD
ENDBRANCH  13  17
BRANCH  15  22
HETATM   22  N5  UNL     1      14.923  17.426   6.011  1.00  0.00    -0.004 NA
BRANCH  22  23
HETATM   23  N6  UNL     1      16.282  17.308   5.682  1.00  0.00    -0.327 N 
ATOM     24  H62 UNL     1      16.849  16.496   5.927  1.00  0.00     0.174 HD
ATOM     25  H61 UNL     1      16.620  18.125   5.174  1.00  0.00     0.174 HD
ENDBRANCH  22  23
ENDBRANCH  15  22
ENDBRANCH   8   9
ENDBRANCH   2   8
BRANCH   1  26
HETATM   26  C2  UNL     1      14.289  17.531   2.423  1.00  0.00     0.302 C 
HETATM   27  O2  UNL     1      13.194  17.526   1.779  1.00  0.00    -0.259 OA
BRANCH  26  28
HETATM   28  O1  UNL     1      14.562  18.653   3.179  1.00  0.00    -0.322 OA
HETATM   29  C1  UNL     1      13.649  19.730   3.272  1.00  0.00     0.213 C 
ENDBRANCH  26  28
ENDBRANCH   1  26
BRANCH   4  30
HETATM   30  C11 UNL     1      17.634  13.038   2.121  1.00  0.00     0.203 C 
BRANCH  30  31
HETATM   31  O7  UNL     1      18.323  12.826   3.311  1.00  0.00    -0.387 OA
ATOM     32  H7  UNL     1      19.192  13.211   3.286  1.00  0.00     0.210 HD
ENDBRANCH  30  31
BRANCH  30  33
HETATM   33  C12 UNL     1      16.815  11.810   1.743  1.00  0.00     0.268 C 
BRANCH  33  34
HETATM   34  N7  UNL     1      16.046  11.405   2.903  1.00  0.00    -0.076 N 
ATOM     35  H73 UNL     1      16.406  11.800   3.771  1.00  0.00     0.274 HD
ATOM     36  H72 UNL     1      15.121  11.833   2.930  1.00  0.00     0.274 HD
ATOM     37  H71 UNL     1      16.008  10.385   2.919  1.00  0.00     0.274 HD
ENDBRANCH  33  34
ENDBRANCH  30  33
ENDBRANCH   4  30
BRANCH   5  38
HETATM   38  O8  UNL     1      17.921  15.117   0.295  1.00  0.00    -0.355 OA
ATOM     39  H8  UNL     1      18.653  15.721   0.257  1.00  0.00     0.218 HD
ENDBRANCH   5  38
TORSDOF 12
ENDMDL
MODEL 4
REMARK VINA RESULT: -6.195877593      2.767      7.098
REMARK  12 active torsions:
REMARK  status: ('A' for Active; 'I' for Inactive)
REMARK    1  A    between atoms: O1_2  and  C2_3 
REMARK    2  A    between atoms: C2_3  and  C3_5 
REMARK    3  A    between atoms: C4_6  and  O3_7 
REMARK    4  A    between atoms: O3_7  and  C5_8 
REMARK    5  A    between atoms: C8_12  and  N1_13 
REMARK       I    between atoms: N1_13  and  C9_15 
REMARK    6  A    between atoms: N4_20  and  N5_21 
REMARK    7  A    between atoms: N5_21  and  N6_22 
REMARK    8  A    between atoms: C10_26  and  C11_27 
REMARK    9  A    between atoms: C11_27  and  O7_28 
REMARK   10  A    between atoms: C11_27  and  C12_30 
REMARK   11  A    between atoms: C12_30  and  N7_31 
REMARK   12  A    between atoms: C13_35  and  O8_36 
ROOT
HETATM    1  C3  UNL     1      13.985  13.299   6.194  1.00  0.00     0.151 A 
HETATM    2  C4  UNL     1      14.485  14.511   5.696  1.00  0.00     0.213 A 
HETATM    3  O6  UNL     1      15.201  14.417   4.594  1.00  0.00    -0.285 OA
HETATM    4  C10 UNL     1      15.454  13.296   3.971  1.00  0.00     0.123 A 
HETATM    5  C13 UNL     1      14.982  12.084   4.426  1.00  0.00     0.150 A 
HETATM    6  C14 UNL     1      14.223  12.087   5.577  1.00  0.00     0.228 A 
HETATM    7  O9  UNL     1      13.757  11.010   6.051  1.00  0.00    -0.284 OA
ENDROOT
BRANCH   2   8
HETATM    8  O3  UNL     1      14.200  15.636   6.372  1.00  0.00    -0.264 OA
BRANCH   8   9
HETATM    9  C5  UNL     1      14.896  16.736   6.725  1.00  0.00     0.216 A 
HETATM   10  C6  UNL     1      15.215  17.707   5.895  1.00  0.00     0.107 A 
HETATM   11  C7  UNL     1      14.820  17.673   4.439  1.00  0.00     0.081 C 
HETATM   12  O4  UNL     1      15.941  18.788   6.396  1.00  0.00    -0.279 OA
HETATM   13  C8  UNL     1      16.351  18.915   7.710  1.00  0.00     0.248 A 
HETATM   14  N3  UNL     1      16.027  17.951   8.501  1.00  0.00    -0.242 N 
HETATM   15  N4  UNL     1      15.310  16.839   8.102  1.00  0.00    -0.151 N 
ATOM     16  H3  UNL     1      16.315  18.013   9.478  1.00  0.00     0.192 HD
BRANCH  13  17
HETATM   17  N1  UNL     1      17.088  20.031   8.183  1.00  0.00    -0.275 N 
HETATM   18  C9  UNL     1      16.697  20.748   9.342  1.00  0.00     0.335 C 
HETATM   19  N2  UNL     1      17.420  21.858   9.820  1.00  0.00    -0.040 NA
HETATM   20  O5  UNL     1      15.674  20.376   9.952  1.00  0.00    -0.251 OA
ATOM     21  H1  UNL     1      17.922  20.326   7.676  1.00  0.00     0.173 HD
ENDBRANCH  13  17
BRANCH  15  22
HETATM   22  N5  UNL     1      15.016  15.858   9.045  1.00  0.00    -0.004 NA
BRANCH  22  23
HETATM   23  N6  UNL     1      15.902  14.772   8.960  1.00  0.00    -0.327 N 
ATOM     24  H62 UNL     1      16.366  14.495   8.095  1.00  0.00     0.174 HD
ATOM     25  H61 UNL     1      16.017  14.308   9.861  1.00  0.00     0.174 HD
ENDBRANCH  22  23
ENDBRANCH  15  22
ENDBRANCH   8   9
ENDBRANCH   2   8
BRANCH   1  26
HETATM   26  C2  UNL     1      13.194  13.343   7.401  1.00  0.00     0.302 C 
HETATM   27  O2  UNL     1      13.676  12.855   8.470  1.00  0.00    -0.259 OA
BRANCH  26  28
HETATM   28  O1  UNL     1      11.929  13.886   7.481  1.00  0.00    -0.322 OA
HETATM   29  C1  UNL     1      11.540  14.718   8.558  1.00  0.00     0.213 C 
ENDBRANCH  26  28
ENDBRANCH   1  26
BRANCH   4  30
HETATM   30  C11 UNL     1      16.279  13.266   2.717  1.00  0.00     0.203 C 
BRANCH  30  31
HETATM   31  O7  UNL     1      15.485  13.366   1.579  1.00  0.00    -0.387 OA
ATOM     32  H7  UNL     1      14.977  12.576   1.436  1.00  0.00     0.210 HD
ENDBRANCH  30  31
BRANCH  30  33
HETATM   33  C12 UNL     1      17.313  14.384   2.757  1.00  0.00     0.268 C 
BRANCH  33  34
HETATM   34  N7  UNL     1      16.704  15.583   2.215  1.00  0.00    -0.076 N 
ATOM     35  H73 UNL     1      16.431  15.479   1.238  1.00  0.00     0.274 HD
ATOM     36  H72 UNL     1      15.775  15.759   2.598  1.00  0.00     0.274 HD
ATOM     37  H71 UNL     1      17.346  16.361   2.365  1.00  0.00     0.274 HD
ENDBRANCH  33  34
ENDBRANCH  30  33
ENDBRANCH   4  30
BRANCH   5  38
HETATM   38  O8  UNL     1      15.259  10.895   3.755  1.00  0.00    -0.355 OA
ATOM     39  H8  UNL     1      14.598  10.222   3.643  1.00  0.00     0.218 HD
ENDBRANCH   5  38
TORSDOF 12
ENDMDL
MODEL 5
REMARK VINA RESULT: -6.072216800      3.419      7.912
REMARK  12 active torsions:
REMARK  status: ('A' for Active; 'I' for Inactive)
REMARK    1  A    between atoms: O1_2  and  C2_3 
REMARK    2  A    between atoms: C2_3  and  C3_5 
REMARK    3  A    between atoms: C4_6  and  O3_7 
REMARK    4  A    between atoms: O3_7  and  C5_8 
REMARK    5  A    between atoms: C8_12  and  N1_13 
REMARK       I    between atoms: N1_13  and  C9_15 
REMARK    6  A    between atoms: N4_20  and  N5_21 
REMARK    7  A    between atoms: N5_21  and  N6_22 
REMARK    8  A    between atoms: C10_26  and  C11_27 
REMARK    9  A    between atoms: C11_27  and  O7_28 
REMARK   10  A    between atoms: C11_27  and  C12_30 
REMARK   11  A    between atoms: C12_30  and  N7_31 
REMARK   12  A    between atoms: C13_35  and  O8_36 
ROOT
HETATM    1  C3  UNL     1      14.978  16.315   2.869  1.00  0.00     0.151 A 
HETATM    2  C4  UNL     1      14.679  15.448   3.929  1.00  0.00     0.213 A 
HETATM    3  O6  UNL     1      15.463  14.394   4.037  1.00  0.00    -0.285 OA
HETATM    4  C10 UNL     1      16.464  14.134   3.236  1.00  0.00     0.123 A 
HETATM    5  C13 UNL     1      16.792  14.960   2.184  1.00  0.00     0.150 A 
HETATM    6  C14 UNL     1      16.022  16.088   1.995  1.00  0.00     0.228 A 
HETATM    7  O9  UNL     1      16.267  16.892   1.047  1.00  0.00    -0.284 OA
ENDROOT
BRANCH   2   8
HETATM    8  O3  UNL     1      13.639  15.756   4.722  1.00  0.00    -0.264 OA
BRANCH   8   9
HETATM    9  C5  UNL     1      13.311  15.496   6.004  1.00  0.00     0.216 A 
HETATM   10  C6  UNL     1      13.722  16.211   7.032  1.00  0.00     0.107 A 
HETATM   11  C7  UNL     1      14.620  17.412   6.861  1.00  0.00     0.081 C 
HETATM   12  O4  UNL     1      13.306  15.827   8.308  1.00  0.00    -0.279 OA
HETATM   13  C8  UNL     1      12.486  14.745   8.572  1.00  0.00     0.248 A 
HETATM   14  N3  UNL     1      12.099  14.064   7.550  1.00  0.00    -0.242 N 
HETATM   15  N4  UNL     1      12.456  14.363   6.248  1.00  0.00    -0.151 N 
ATOM     16  H3  UNL     1      11.494  13.258   7.710  1.00  0.00     0.192 HD
BRANCH  13  17
HETATM   17  N1  UNL     1      12.083  14.387   9.884  1.00  0.00    -0.275 N 
HETATM   18  C9  UNL     1      10.737  14.065  10.190  1.00  0.00     0.335 C 
HETATM   19  N2  UNL     1      10.325  13.709  11.488  1.00  0.00    -0.040 NA
HETATM   20  O5  UNL     1       9.895  14.103   9.270  1.00  0.00    -0.251 OA
ATOM     21  H1  UNL     1      12.781  14.360  10.628  1.00  0.00     0.173 HD
ENDBRANCH  13  17
BRANCH  15  22
HETATM   22  N5  UNL     1      11.977  13.554   5.220  1.00  0.00    -0.004 NA
BRANCH  22  23
HETATM   23  N6  UNL     1      12.893  12.545   4.883  1.00  0.00    -0.327 N 
ATOM     24  H62 UNL     1      12.949  12.127   3.954  1.00  0.00     0.174 HD
ATOM     25  H61 UNL     1      13.482  12.290   5.676  1.00  0.00     0.174 HD
ENDBRANCH  22  23
ENDBRANCH  15  22
ENDBRANCH   8   9
ENDBRANCH   2   8
BRANCH   1  26
HETATM   26  C2  UNL     1      14.149  17.486   2.703  1.00  0.00     0.302 C 
HETATM   27  O2  UNL     1      13.107  17.404   1.981  1.00  0.00    -0.259 OA
BRANCH  26  28
HETATM   28  O1  UNL     1      14.410  18.710   3.283  1.00  0.00    -0.322 OA
HETATM   29  C1  UNL     1      13.410  19.440   3.968  1.00  0.00     0.213 C 
ENDBRANCH  26  28
ENDBRANCH   1  26
BRANCH   4  30
HETATM   30  C11 UNL     1      17.317  12.912   3.421  1.00  0.00     0.203 C 
BRANCH  30  31
HETATM   31  O7  UNL     1      18.543  13.226   3.998  1.00  0.00    -0.387 OA
ATOM     32  H7  UNL     1      18.504  14.044   4.480  1.00  0.00     0.210 HD
ENDBRANCH  30  31
BRANCH  30  33
HETATM   33  C12 UNL     1      16.568  11.887   4.263  1.00  0.00     0.268 C 
BRANCH  33  34
HETATM   34  N7  UNL     1      15.658  11.166   3.395  1.00  0.00    -0.076 N 
ATOM     35  H73 UNL     1      16.143  10.557   2.735  1.00  0.00     0.274 HD
ATOM     36  H72 UNL     1      15.133  10.443   3.887  1.00  0.00     0.274 HD
ATOM     37  H71 UNL     1      15.054  11.846   2.933  1.00  0.00     0.274 HD
ENDBRANCH  33  34
ENDBRANCH  30  33
ENDBRANCH   4  30
BRANCH   5  38
HETATM   38  O8  UNL     1      17.860  14.673   1.337  1.00  0.00    -0.355 OA
ATOM     39  H8  UNL     1      18.749  14.930   1.553  1.00  0.00     0.218 HD
ENDBRANCH   5  38
TORSDOF 12
ENDMDL
