MODEL 1
REMARK VINA RESULT: -7.897070164      0.000      0.000
REMARK  19 active torsions:
REMARK  status: ('A' for Active; 'I' for Inactive)
REMARK    1  A    between atoms: C2_2  and  C3_3 
REMARK    2  A    between atoms: C3_3  and  C4_4 
REMARK    3  A    between atoms: C4_4  and  C5_5 
REMARK    4  A    between atoms: C5_5  and  N1_6 
REMARK    5  A    between atoms: N1_6  and  C6_7 
REMARK       I    between atoms: N1_6  and  C10_11 
REMARK    6  A    between atoms: C6_7  and  C7_8 
REMARK    7  A    between atoms: C7_8  and  C8_9 
REMARK    8  A    between atoms: C10_11  and  C11_13 
REMARK    9  A    between atoms: C11_13  and  C12_14 
REMARK   10  A    between atoms: C11_13  and  C26_38 
REMARK   11  A    between atoms: C13_15  and  C14_16 
REMARK   12  A    between atoms: C16_18  and  O2_19 
REMARK   13  A    between atoms: C17_21  and  N2_22 
REMARK       I    between atoms: N2_22  and  C18_24 
REMARK       I    between atoms: N3_28  and  C21_29 
REMARK       I    between atoms: C21_29  and  N4_31 
REMARK   14  A    between atoms: N4_31  and  C22_33 
REMARK   15  A    between atoms: C22_33  and  C23_34 
REMARK   16  A    between atoms: C23_34  and  C24_35 
REMARK   17  A    between atoms: C26_38  and  C27_39 
REMARK   18  A    between atoms: C27_39  and  C28_40 
REMARK   19  A    between atoms: C28_40  and  N6_41 
ROOT
HETATM    1  C12 UNL     1      14.657  29.840  10.592  1.00  0.00    -0.090 C 
HETATM    2  C13 UNL     1      13.758  29.099  10.979  1.00  0.00    -0.080 C 
ENDROOT
BRANCH   2   3
HETATM    3  C14 UNL     1      12.745  28.200  11.425  1.00  0.00     0.171 C 
HETATM    4  C15 UNL     1      13.130  26.726  11.478  1.00  0.00     0.072 C 
HETATM    5  C16 UNL     1      11.952  25.922  11.873  1.00  0.00     0.145 C 
HETATM    6  C17 UNL     1      10.733  26.559  12.388  1.00  0.00     0.131 C 
HETATM    7  C20 UNL     1      10.770  28.004  12.773  1.00  0.00     0.156 C 
HETATM    8  N3  UNL     1      12.188  28.484  12.696  1.00  0.00    -0.317 N 
HETATM    9  C21 UNL     1      12.710  29.011  13.887  1.00  0.00     0.323 C 
HETATM   10  O4  UNL     1      11.814  29.238  14.783  1.00  0.00    -0.247 OA
HETATM   11  N4  UNL     1      14.044  29.291  14.175  1.00  0.00    -0.319 N 
ATOM     12  H4  UNL     1      14.682  29.095  13.404  1.00  0.00     0.170 HD
BRANCH   5  13
HETATM   13  O2  UNL     1      12.442  24.911  12.756  1.00  0.00    -0.393 OA
ATOM     14  H2  UNL     1      12.477  24.111  12.246  1.00  0.00     0.210 HD
ENDBRANCH   5  13
BRANCH   6  15
HETATM   15  N2  UNL     1       9.599  26.273  11.501  1.00  0.00    -0.353 N 
HETATM   16  C18 UNL     1       8.972  25.009  11.484  1.00  0.00     0.214 C 
HETATM   17  C19 UNL     1       7.827  24.666  10.615  1.00  0.00     0.117 C 
HETATM   18  O3  UNL     1       9.411  24.119  12.256  1.00  0.00    -0.274 OA
ATOM     19  H2  UNL     1       9.255  27.006  10.881  1.00  0.00     0.163 HD
ENDBRANCH   6  15
BRANCH  11  20
HETATM   20  C22 UNL     1      14.675  29.788  15.316  1.00  0.00     0.094 C 
BRANCH  20  21
HETATM   21  C23 UNL     1      15.076  31.166  15.516  1.00  0.00     0.039 C 
BRANCH  21  22
HETATM   22  C24 UNL     1      14.484  32.381  14.968  1.00  0.00     0.021 C 
HETATM   23  C25 UNL     1      15.072  33.675  15.491  1.00  0.00     0.065 C 
HETATM   24  N5  UNL     1      14.244  32.470  13.569  1.00  0.00    -0.107 NA
ENDBRANCH  21  22
ENDBRANCH  20  21
ENDBRANCH  11  20
ENDBRANCH   2   3
BRANCH   1  25
HETATM   25  C11 UNL     1      15.704  30.737  10.114  1.00  0.00     0.157 C 
BRANCH  25  26
HETATM   26  C10 UNL     1      16.510  31.294  11.197  1.00  0.00     0.235 C 
HETATM   27  N1  UNL     1      16.906  32.644  11.373  1.00  0.00    -0.351 N 
HETATM   28  O1  UNL     1      16.891  30.439  12.078  1.00  0.00    -0.272 OA
BRANCH  27  29
HETATM   29  C5  UNL     1      17.705  32.968  12.520  1.00  0.00     0.126 C 
BRANCH  29  30
HETATM   30  C4  UNL     1      17.680  34.360  12.995  1.00  0.00     0.020 C 
BRANCH  30  31
HETATM   31  C3  UNL     1      18.875  35.201  12.953  1.00  0.00     0.001 C 
BRANCH  31  32
HETATM   32  C2  UNL     1      19.418  35.713  14.251  1.00  0.00    -0.004 C 
HETATM   33  C1  UNL     1      18.573  35.095  15.374  1.00  0.00     0.005 C 
ENDBRANCH  31  32
ENDBRANCH  30  31
ENDBRANCH  29  30
ENDBRANCH  27  29
BRANCH  27  34
HETATM   34  C6  UNL     1      16.490  33.673  10.465  1.00  0.00     0.125 C 
BRANCH  34  35
HETATM   35  C7  UNL     1      17.354  33.828   9.243  1.00  0.00     0.020 C 
BRANCH  35  36
HETATM   36  C8  UNL     1      17.795  35.273   9.120  1.00  0.00    -0.003 C 
HETATM   37  C9  UNL     1      16.927  36.190   9.948  1.00  0.00     0.005 C 
ENDBRANCH  35  36
ENDBRANCH  34  35
ENDBRANCH  27  34
ENDBRANCH  25  26
BRANCH  25  38
HETATM   38  C26 UNL     1      16.564  29.993   9.093  1.00  0.00     0.028 C 
BRANCH  38  39
HETATM   39  C27 UNL     1      15.936  29.957   7.734  1.00  0.00     0.021 C 
BRANCH  39  40
HETATM   40  C28 UNL     1      15.622  28.572   7.244  1.00  0.00     0.122 C 
BRANCH  40  41
HETATM   41  N6  UNL     1      14.251  28.269   7.607  1.00  0.00    -0.367 N 
HETATM   42  C29 UNL     1      13.893  27.019   7.677  1.00  0.00     0.196 C 
HETATM   43  N7  UNL     1      12.558  26.727   8.029  1.00  0.00    -0.067 NA
HETATM   44  N8  UNL     1      14.849  25.984   7.400  1.00  0.00    -0.067 NA
ATOM     45  H6  UNL     1      13.584  29.016   7.803  1.00  0.00     0.161 HD
ENDBRANCH  40  41
ENDBRANCH  39  40
ENDBRANCH  38  39
ENDBRANCH  25  38
ENDBRANCH   1  25
TORSDOF 19
ENDMDL
MODEL 2
REMARK VINA RESULT: -7.739765214      3.383     10.680
REMARK  19 active torsions:
REMARK  status: ('A' for Active; 'I' for Inactive)
REMARK    1  A    between atoms: C2_2  and  C3_3 
REMARK    2  A    between atoms: C3_3  and  C4_4 
REMARK    3  A    between atoms: C4_4  and  C5_5 
REMARK    4  A    between atoms: C5_5  and  N1_6 
REMARK    5  A    between atoms: N1_6  and  C6_7 
REMARK       I    between atoms: N1_6  and  C10_11 
REMARK    6  A    between atoms: C6_7  and  C7_8 
REMARK    7  A    between atoms: C7_8  and  C8_9 
REMARK    8  A    between atoms: C10_11  and  C11_13 
REMARK    9  A    between atoms: C11_13  and  C12_14 
REMARK   10  A    between atoms: C11_13  and  C26_38 
REMARK   11  A    between atoms: C13_15  and  C14_16 
REMARK   12  A    between atoms: C16_18  and  O2_19 
REMARK   13  A    between atoms: C17_21  and  N2_22 
REMARK       I    between atoms: N2_22  and  C18_24 
REMARK       I    between atoms: N3_28  and  C21_29 
REMARK       I    between atoms: C21_29  and  N4_31 
REMARK   14  A    between atoms: N4_31  and  C22_33 
REMARK   15  A    between atoms: C22_33  and  C23_34 
REMARK   16  A    between atoms: C23_34  and  C24_35 
REMARK   17  A    between atoms: C26_38  and  C27_39 
REMARK   18  A    between atoms: C27_39  and  C28_40 
REMARK   19  A    between atoms: C28_40  and  N6_41 
ROOT
HETATM    1  C12 UNL     1      15.900  32.917  14.849  1.00  0.00    -0.090 C 
HETATM    2  C13 UNL     1      16.633  33.847  14.523  1.00  0.00    -0.080 C 
ENDROOT
BRANCH   2   3
HETATM    3  C14 UNL     1      17.452  34.938  14.108  1.00  0.00     0.171 C 
HETATM    4  C15 UNL     1      18.888  34.933  14.622  1.00  0.00     0.072 C 
HETATM    5  C16 UNL     1      19.575  36.166  14.179  1.00  0.00     0.145 C 
HETATM    6  C17 UNL     1      18.976  37.052  13.171  1.00  0.00     0.131 C 
HETATM    7  C20 UNL     1      17.795  36.573  12.387  1.00  0.00     0.156 C 
HETATM    8  N3  UNL     1      17.560  35.128  12.708  1.00  0.00    -0.317 N 
HETATM    9  C21 UNL     1      17.593  34.254  11.612  1.00  0.00     0.323 C 
HETATM   10  O4  UNL     1      17.562  34.857  10.474  1.00  0.00    -0.247 OA
HETATM   11  N4  UNL     1      17.660  32.863  11.639  1.00  0.00    -0.319 N 
ATOM     12  H4  UNL     1      17.666  32.469  12.581  1.00  0.00     0.170 HD
BRANCH   5  13
HETATM   13  O2  UNL     1      20.902  35.773  13.825  1.00  0.00    -0.393 OA
ATOM     14  H2  UNL     1      21.339  36.563  13.527  1.00  0.00     0.210 HD
ENDBRANCH   5  13
BRANCH   6  15
HETATM   15  N2  UNL     1      18.731  38.380  13.745  1.00  0.00    -0.353 N 
HETATM   16  C18 UNL     1      19.538  39.490  13.415  1.00  0.00     0.214 C 
HETATM   17  C19 UNL     1      19.337  40.848  13.960  1.00  0.00     0.117 C 
HETATM   18  O3  UNL     1      20.485  39.315  12.607  1.00  0.00    -0.274 OA
ATOM     19  H2  UNL     1      17.958  38.505  14.399  1.00  0.00     0.163 HD
ENDBRANCH   6  15
BRANCH  11  20
HETATM   20  C22 UNL     1      17.720  31.903  10.627  1.00  0.00     0.094 C 
BRANCH  20  21
HETATM   21  C23 UNL     1      16.618  31.530   9.764  1.00  0.00     0.039 C 
BRANCH  21  22
HETATM   22  C24 UNL     1      16.057  30.207   9.515  1.00  0.00     0.021 C 
HETATM   23  C25 UNL     1      16.133  29.738   8.077  1.00  0.00     0.065 C 
HETATM   24  N5  UNL     1      16.363  29.141  10.406  1.00  0.00    -0.107 NA
ENDBRANCH  21  22
ENDBRANCH  20  21
ENDBRANCH  11  20
ENDBRANCH   2   3
BRANCH   1  25
HETATM   25  C11 UNL     1      15.056  31.793  15.242  1.00  0.00     0.157 C 
BRANCH  25  26
HETATM   26  C10 UNL     1      15.022  30.733  14.238  1.00  0.00     0.235 C 
HETATM   27  N1  UNL     1      13.940  29.873  13.926  1.00  0.00    -0.351 N 
HETATM   28  O1  UNL     1      16.114  30.586  13.576  1.00  0.00    -0.272 OA
BRANCH  27  29
HETATM   29  C5  UNL     1      14.133  28.893  12.895  1.00  0.00     0.126 C 
BRANCH  29  30
HETATM   30  C4  UNL     1      12.953  28.483  12.118  1.00  0.00     0.020 C 
BRANCH  30  31
HETATM   31  C3  UNL     1      12.419  27.125  12.206  1.00  0.00     0.001 C 
BRANCH  31  32
HETATM   32  C2  UNL     1      12.872  26.265  13.344  1.00  0.00    -0.004 C 
HETATM   33  C1  UNL     1      12.999  24.831  12.811  1.00  0.00     0.005 C 
ENDBRANCH  31  32
ENDBRANCH  30  31
ENDBRANCH  29  30
ENDBRANCH  27  29
BRANCH  27  34
HETATM   34  C6  UNL     1      12.671  29.995  14.582  1.00  0.00     0.125 C 
BRANCH  34  35
HETATM   35  C7  UNL     1      12.521  29.170  15.832  1.00  0.00     0.020 C 
BRANCH  35  36
HETATM   36  C8  UNL     1      11.169  28.483  15.820  1.00  0.00    -0.003 C 
HETATM   37  C9  UNL     1      10.335  28.921  14.641  1.00  0.00     0.005 C 
ENDBRANCH  35  36
ENDBRANCH  34  35
ENDBRANCH  27  34
ENDBRANCH  25  26
BRANCH  25  38
HETATM   38  C26 UNL     1      15.524  31.273  16.599  1.00  0.00     0.028 C 
BRANCH  38  39
HETATM   39  C27 UNL     1      14.947  32.053  17.741  1.00  0.00     0.021 C 
BRANCH  39  40
HETATM   40  C28 UNL     1      15.956  32.441  18.785  1.00  0.00     0.122 C 
BRANCH  40  41
HETATM   41  N6  UNL     1      17.019  33.176  18.128  1.00  0.00    -0.367 N 
HETATM   42  C29 UNL     1      17.209  34.420  18.466  1.00  0.00     0.196 C 
HETATM   43  N7  UNL     1      18.244  35.134  17.824  1.00  0.00    -0.067 NA
HETATM   44  N8  UNL     1      16.376  35.025  19.465  1.00  0.00    -0.067 NA
ATOM     45  H6  UNL     1      17.604  32.731  17.420  1.00  0.00     0.161 HD
ENDBRANCH  40  41
ENDBRANCH  39  40
ENDBRANCH  38  39
ENDBRANCH  25  38
ENDBRANCH   1  25
TORSDOF 19
ENDMDL
MODEL 3
REMARK VINA RESULT: -7.573562812      3.111     10.481
REMARK  19 active torsions:
REMARK  status: ('A' for Active; 'I' for Inactive)
REMARK    1  A    between atoms: C2_2  and  C3_3 
REMARK    2  A    between atoms: C3_3  and  C4_4 
REMARK    3  A    between atoms: C4_4  and  C5_5 
REMARK    4  A    between atoms: C5_5  and  N1_6 
REMARK    5  A    between atoms: N1_6  and  C6_7 
REMARK       I    between atoms: N1_6  and  C10_11 
REMARK    6  A    between atoms: C6_7  and  C7_8 
REMARK    7  A    between atoms: C7_8  and  C8_9 
REMARK    8  A    between atoms: C10_11  and  C11_13 
REMARK    9  A    between atoms: C11_13  and  C12_14 
REMARK   10  A    between atoms: C11_13  and  C26_38 
REMARK   11  A    between atoms: C13_15  and  C14_16 
REMARK   12  A    between atoms: C16_18  and  O2_19 
REMARK   13  A    between atoms: C17_21  and  N2_22 
REMARK       I    between atoms: N2_22  and  C18_24 
REMARK       I    between atoms: N3_28  and  C21_29 
REMARK       I    between atoms: C21_29  and  N4_31 
REMARK   14  A    between atoms: N4_31  and  C22_33 
REMARK   15  A    between atoms: C22_33  and  C23_34 
REMARK   16  A    between atoms: C23_34  and  C24_35 
REMARK   17  A    between atoms: C26_38  and  C27_39 
REMARK   18  A    between atoms: C27_39  and  C28_40 
REMARK   19  A    between atoms: C28_40  and  N6_41 
ROOT
HETATM    1  C12 UNL     1      15.383  32.464  14.573  1.00  0.00    -0.090 C 
HETATM    2  C13 UNL     1      16.058  33.381  14.113  1.00  0.00    -0.080 C 
ENDROOT
BRANCH   2   3
HETATM    3  C14 UNL     1      16.852  34.460  13.624  1.00  0.00     0.171 C 
HETATM    4  C15 UNL     1      18.304  34.488  14.088  1.00  0.00     0.072 C 
HETATM    5  C16 UNL     1      18.964  35.707  13.569  1.00  0.00     0.145 C 
HETATM    6  C17 UNL     1      18.323  36.543  12.545  1.00  0.00     0.131 C 
HETATM    7  C20 UNL     1      17.121  36.021  11.823  1.00  0.00     0.156 C 
HETATM    8  N3  UNL     1      16.911  34.590  12.214  1.00  0.00    -0.317 N 
HETATM    9  C21 UNL     1      16.915  33.670  11.156  1.00  0.00     0.323 C 
HETATM   10  O4  UNL     1      16.839  34.224   9.995  1.00  0.00    -0.247 OA
HETATM   11  N4  UNL     1      16.995  32.282  11.240  1.00  0.00    -0.319 N 
ATOM     12  H4  UNL     1      17.037  31.929  12.197  1.00  0.00     0.170 HD
BRANCH   5  13
HETATM   13  O2  UNL     1      20.282  35.310  13.187  1.00  0.00    -0.393 OA
ATOM     14  H2  UNL     1      20.765  35.189  13.996  1.00  0.00     0.210 HD
ENDBRANCH   5  13
BRANCH   6  15
HETATM   15  N2  UNL     1      18.086  37.893  13.070  1.00  0.00    -0.353 N 
HETATM   16  C18 UNL     1      19.133  38.828  13.210  1.00  0.00     0.214 C 
HETATM   17  C19 UNL     1      18.952  40.199  13.730  1.00  0.00     0.117 C 
HETATM   18  O3  UNL     1      20.291  38.476  12.872  1.00  0.00    -0.274 OA
ATOM     19  H2  UNL     1      17.139  38.162  13.340  1.00  0.00     0.163 HD
ENDBRANCH   6  15
BRANCH  11  20
HETATM   20  C22 UNL     1      17.030  31.280  10.269  1.00  0.00     0.094 C 
BRANCH  20  21
HETATM   21  C23 UNL     1      16.233  30.070  10.288  1.00  0.00     0.039 C 
BRANCH  21  22
HETATM   22  C24 UNL     1      15.406  29.501   9.230  1.00  0.00     0.021 C 
HETATM   23  C25 UNL     1      16.003  29.571   7.840  1.00  0.00     0.065 C 
HETATM   24  N5  UNL     1      14.773  28.245   9.441  1.00  0.00    -0.107 NA
ENDBRANCH  21  22
ENDBRANCH  20  21
ENDBRANCH  11  20
ENDBRANCH   2   3
BRANCH   1  25
HETATM   25  C11 UNL     1      14.559  31.380  15.098  1.00  0.00     0.157 C 
BRANCH  25  26
HETATM   26  C10 UNL     1      14.563  30.199  14.239  1.00  0.00     0.235 C 
HETATM   27  N1  UNL     1      13.466  29.362  13.916  1.00  0.00    -0.351 N 
HETATM   28  O1  UNL     1      15.708  29.908  13.732  1.00  0.00    -0.272 OA
BRANCH  27  29
HETATM   29  C5  UNL     1      13.704  28.245  13.046  1.00  0.00     0.126 C 
BRANCH  29  30
HETATM   30  C4  UNL     1      13.445  26.899  13.581  1.00  0.00     0.020 C 
BRANCH  30  31
HETATM   31  C3  UNL     1      12.555  25.965  12.893  1.00  0.00     0.001 C 
BRANCH  31  32
HETATM   32  C2  UNL     1      13.131  24.668  12.419  1.00  0.00    -0.004 C 
HETATM   33  C1  UNL     1      13.316  24.780  10.899  1.00  0.00     0.005 C 
ENDBRANCH  31  32
ENDBRANCH  30  31
ENDBRANCH  29  30
ENDBRANCH  27  29
BRANCH  27  34
HETATM   34  C6  UNL     1      12.145  29.636  14.399  1.00  0.00     0.125 C 
BRANCH  34  35
HETATM   35  C7  UNL     1      11.889  29.214  15.821  1.00  0.00     0.020 C 
BRANCH  35  36
HETATM   36  C8  UNL     1      10.834  28.125  15.839  1.00  0.00    -0.003 C 
HETATM   37  C9  UNL     1      10.057  28.085  14.546  1.00  0.00     0.005 C 
ENDBRANCH  35  36
ENDBRANCH  34  35
ENDBRANCH  27  34
ENDBRANCH  25  26
BRANCH  25  38
HETATM   38  C26 UNL     1      15.020  31.050  16.516  1.00  0.00     0.028 C 
BRANCH  38  39
HETATM   39  C27 UNL     1      14.765  32.172  17.476  1.00  0.00     0.021 C 
BRANCH  39  40
HETATM   40  C28 UNL     1      15.894  32.422  18.435  1.00  0.00     0.122 C 
BRANCH  40  41
HETATM   41  N6  UNL     1      16.915  33.179  17.736  1.00  0.00    -0.367 N 
HETATM   42  C29 UNL     1      17.265  34.336  18.222  1.00  0.00     0.196 C 
HETATM   43  N7  UNL     1      18.258  35.072  17.539  1.00  0.00    -0.067 NA
HETATM   44  N8  UNL     1      16.645  34.828  19.419  1.00  0.00    -0.067 NA
ATOM     45  H6  UNL     1      17.348  32.816  16.887  1.00  0.00     0.161 HD
ENDBRANCH  40  41
ENDBRANCH  39  40
ENDBRANCH  38  39
ENDBRANCH  25  38
ENDBRANCH   1  25
TORSDOF 19
ENDMDL
MODEL 4
REMARK VINA RESULT: -7.529013969      1.515      1.858
REMARK  19 active torsions:
REMARK  status: ('A' for Active; 'I' for Inactive)
REMARK    1  A    between atoms: C2_2  and  C3_3 
REMARK    2  A    between atoms: C3_3  and  C4_4 
REMARK    3  A    between atoms: C4_4  and  C5_5 
REMARK    4  A    between atoms: C5_5  and  N1_6 
REMARK    5  A    between atoms: N1_6  and  C6_7 
REMARK       I    between atoms: N1_6  and  C10_11 
REMARK    6  A    between atoms: C6_7  and  C7_8 
REMARK    7  A    between atoms: C7_8  and  C8_9 
REMARK    8  A    between atoms: C10_11  and  C11_13 
REMARK    9  A    between atoms: C11_13  and  C12_14 
REMARK   10  A    between atoms: C11_13  and  C26_38 
REMARK   11  A    between atoms: C13_15  and  C14_16 
REMARK   12  A    between atoms: C16_18  and  O2_19 
REMARK   13  A    between atoms: C17_21  and  N2_22 
REMARK       I    between atoms: N2_22  and  C18_24 
REMARK       I    between atoms: N3_28  and  C21_29 
REMARK       I    between atoms: C21_29  and  N4_31 
REMARK   14  A    between atoms: N4_31  and  C22_33 
REMARK   15  A    between atoms: C22_33  and  C23_34 
REMARK   16  A    between atoms: C23_34  and  C24_35 
REMARK   17  A    between atoms: C26_38  and  C27_39 
REMARK   18  A    between atoms: C27_39  and  C28_40 
REMARK   19  A    between atoms: C28_40  and  N6_41 
ROOT
HETATM    1  C12 UNL     1      14.857  31.254  11.473  1.00  0.00    -0.090 C 
HETATM    2  C13 UNL     1      14.092  30.326  11.724  1.00  0.00    -0.080 C 
ENDROOT
BRANCH   2   3
HETATM    3  C14 UNL     1      13.195  29.270  12.058  1.00  0.00     0.171 C 
HETATM    4  C15 UNL     1      13.726  27.853  11.869  1.00  0.00     0.072 C 
HETATM    5  C16 UNL     1      12.653  26.879  12.172  1.00  0.00     0.145 C 
HETATM    6  C17 UNL     1      11.403  27.300  12.819  1.00  0.00     0.131 C 
HETATM    7  C20 UNL     1      11.316  28.667  13.422  1.00  0.00     0.156 C 
HETATM    8  N3  UNL     1      12.675  29.298  13.375  1.00  0.00    -0.317 N 
HETATM    9  C21 UNL     1      13.199  29.691  14.615  1.00  0.00     0.323 C 
HETATM   10  O4  UNL     1      12.329  29.685  15.565  1.00  0.00    -0.247 OA
HETATM   11  N4  UNL     1      14.511  30.063  14.901  1.00  0.00    -0.319 N 
ATOM     12  H4  UNL     1      15.128  30.053  14.088  1.00  0.00     0.170 HD
BRANCH   5  13
HETATM   13  O2  UNL     1      13.282  25.804  12.872  1.00  0.00    -0.393 OA
ATOM     14  H2  UNL     1      12.580  25.233  13.160  1.00  0.00     0.210 HD
ENDBRANCH   5  13
BRANCH   6  15
HETATM   15  N2  UNL     1      10.261  27.034  11.936  1.00  0.00    -0.353 N 
HETATM   16  C18 UNL     1       9.845  25.719  11.639  1.00  0.00     0.214 C 
HETATM   17  C19 UNL     1       8.704  25.392  10.759  1.00  0.00     0.117 C 
HETATM   18  O3  UNL     1      10.482  24.765  12.154  1.00  0.00    -0.274 OA
ATOM     19  H2  UNL     1       9.756  27.820  11.526  1.00  0.00     0.163 HD
ENDBRANCH   6  15
BRANCH  11  20
HETATM   20  C22 UNL     1      15.144  30.446  16.084  1.00  0.00     0.094 C 
BRANCH  20  21
HETATM   21  C23 UNL     1      14.929  31.698  16.779  1.00  0.00     0.039 C 
BRANCH  21  22
HETATM   22  C24 UNL     1      15.714  32.925  16.721  1.00  0.00     0.021 C 
HETATM   23  C25 UNL     1      15.094  34.047  15.913  1.00  0.00     0.065 C 
HETATM   24  N5  UNL     1      16.304  33.433  17.912  1.00  0.00    -0.107 NA
ENDBRANCH  21  22
ENDBRANCH  20  21
ENDBRANCH  11  20
ENDBRANCH   2   3
BRANCH   1  25
HETATM   25  C11 UNL     1      15.786  32.335  11.163  1.00  0.00     0.157 C 
BRANCH  25  26
HETATM   26  C10 UNL     1      16.571  32.757  12.320  1.00  0.00     0.235 C 
HETATM   27  N1  UNL     1      17.279  33.973  12.487  1.00  0.00    -0.351 N 
HETATM   28  O1  UNL     1      16.604  31.908  13.285  1.00  0.00    -0.272 OA
BRANCH  27  29
HETATM   29  C5  UNL     1      17.989  34.177  13.718  1.00  0.00     0.126 C 
BRANCH  29  30
HETATM   30  C4  UNL     1      18.156  35.562  14.185  1.00  0.00     0.020 C 
BRANCH  30  31
HETATM   31  C3  UNL     1      18.993  35.880  15.340  1.00  0.00     0.001 C 
BRANCH  31  32
HETATM   32  C2  UNL     1      18.314  36.149  16.646  1.00  0.00    -0.004 C 
HETATM   33  C1  UNL     1      18.112  37.667  16.751  1.00  0.00     0.005 C 
ENDBRANCH  31  32
ENDBRANCH  30  31
ENDBRANCH  29  30
ENDBRANCH  27  29
BRANCH  27  34
HETATM   34  C6  UNL     1      17.261  34.997  11.483  1.00  0.00     0.125 C 
BRANCH  34  35
HETATM   35  C7  UNL     1      18.417  34.962  10.520  1.00  0.00     0.020 C 
BRANCH  35  36
HETATM   36  C8  UNL     1      17.905  35.194   9.112  1.00  0.00    -0.003 C 
HETATM   37  C9  UNL     1      16.409  35.396   9.093  1.00  0.00     0.005 C 
ENDBRANCH  35  36
ENDBRANCH  34  35
ENDBRANCH  27  34
ENDBRANCH  25  26
BRANCH  25  38
HETATM   38  C26 UNL     1      16.679  31.902  10.002  1.00  0.00     0.028 C 
BRANCH  38  39
HETATM   39  C27 UNL     1      16.708  30.414   9.826  1.00  0.00     0.021 C 
BRANCH  39  40
HETATM   40  C28 UNL     1      16.190  29.948   8.495  1.00  0.00     0.122 C 
BRANCH  40  41
HETATM   41  N6  UNL     1      15.292  28.833   8.730  1.00  0.00    -0.367 N 
HETATM   42  C29 UNL     1      14.318  28.638   7.888  1.00  0.00     0.196 C 
HETATM   43  N7  UNL     1      13.444  27.554   8.120  1.00  0.00    -0.067 NA
HETATM   44  N8  UNL     1      14.158  29.515   6.762  1.00  0.00    -0.067 NA
ATOM     45  H6  UNL     1      15.419  28.219   9.535  1.00  0.00     0.161 HD
ENDBRANCH  40  41
ENDBRANCH  39  40
ENDBRANCH  38  39
ENDBRANCH  25  38
ENDBRANCH   1  25
TORSDOF 19
ENDMDL
MODEL 5
REMARK VINA RESULT: -7.369487043      1.578      1.984
REMARK  19 active torsions:
REMARK  status: ('A' for Active; 'I' for Inactive)
REMARK    1  A    between atoms: C2_2  and  C3_3 
REMARK    2  A    between atoms: C3_3  and  C4_4 
REMARK    3  A    between atoms: C4_4  and  C5_5 
REMARK    4  A    between atoms: C5_5  and  N1_6 
REMARK    5  A    between atoms: N1_6  and  C6_7 
REMARK       I    between atoms: N1_6  and  C10_11 
REMARK    6  A    between atoms: C6_7  and  C7_8 
REMARK    7  A    between atoms: C7_8  and  C8_9 
REMARK    8  A    between atoms: C10_11  and  C11_13 
REMARK    9  A    between atoms: C11_13  and  C12_14 
REMARK   10  A    between atoms: C11_13  and  C26_38 
REMARK   11  A    between atoms: C13_15  and  C14_16 
REMARK   12  A    between atoms: C16_18  and  O2_19 
REMARK   13  A    between atoms: C17_21  and  N2_22 
REMARK       I    between atoms: N2_22  and  C18_24 
REMARK       I    between atoms: N3_28  and  C21_29 
REMARK       I    between atoms: C21_29  and  N4_31 
REMARK   14  A    between atoms: N4_31  and  C22_33 
REMARK   15  A    between atoms: C22_33  and  C23_34 
REMARK   16  A    between atoms: C23_34  and  C24_35 
REMARK   17  A    between atoms: C26_38  and  C27_39 
REMARK   18  A    between atoms: C27_39  and  C28_40 
REMARK   19  A    between atoms: C28_40  and  N6_41 
ROOT
HETATM    1  C12 UNL     1      14.712  31.104  11.585  1.00  0.00    -0.090 C 
HETATM    2  C13 UNL     1      13.927  30.191  11.825  1.00  0.00    -0.080 C 
ENDROOT
BRANCH   2   3
HETATM    3  C14 UNL     1      13.047  29.100  12.087  1.00  0.00     0.171 C 
HETATM    4  C15 UNL     1      13.676  27.711  12.069  1.00  0.00     0.072 C 
HETATM    5  C16 UNL     1      12.624  26.690  12.268  1.00  0.00     0.145 C 
HETATM    6  C17 UNL     1      11.269  27.065  12.693  1.00  0.00     0.131 C 
HETATM    7  C20 UNL     1      11.017  28.454  13.189  1.00  0.00     0.156 C 
HETATM    8  N3  UNL     1      12.331  29.167  13.307  1.00  0.00    -0.317 N 
HETATM    9  C21 UNL     1      12.637  29.658  14.584  1.00  0.00     0.323 C 
HETATM   10  O4  UNL     1      11.633  29.648  15.391  1.00  0.00    -0.247 OA
HETATM   11  N4  UNL     1      13.868  30.125  15.039  1.00  0.00    -0.319 N 
ATOM     12  H4  UNL     1      14.601  30.111  14.330  1.00  0.00     0.170 HD
BRANCH   5  13
HETATM   13  O2  UNL     1      13.195  25.695  13.120  1.00  0.00    -0.393 OA
ATOM     14  H2  UNL     1      12.706  24.898  12.957  1.00  0.00     0.210 HD
ENDBRANCH   5  13
BRANCH   6  15
HETATM   15  N2  UNL     1      10.292  26.681  11.666  1.00  0.00    -0.353 N 
HETATM   16  C18 UNL     1       9.934  25.333  11.452  1.00  0.00     0.214 C 
HETATM   17  C19 UNL     1       8.958  24.889  10.436  1.00  0.00     0.117 C 
HETATM   18  O3  UNL     1      10.478  24.455  12.168  1.00  0.00    -0.274 OA
ATOM     19  H2  UNL     1       9.860  27.407  11.094  1.00  0.00     0.163 HD
ENDBRANCH   6  15
BRANCH  11  20
HETATM   20  C22 UNL     1      14.291  30.610  16.278  1.00  0.00     0.094 C 
BRANCH  20  21
HETATM   21  C23 UNL     1      15.567  31.246  16.534  1.00  0.00     0.039 C 
BRANCH  21  22
HETATM   22  C24 UNL     1      15.849  32.467  17.279  1.00  0.00     0.021 C 
HETATM   23  C25 UNL     1      15.079  33.690  16.823  1.00  0.00     0.065 C 
HETATM   24  N5  UNL     1      15.915  32.418  18.700  1.00  0.00    -0.107 NA
ENDBRANCH  21  22
ENDBRANCH  20  21
ENDBRANCH  11  20
ENDBRANCH   2   3
BRANCH   1  25
HETATM   25  C11 UNL     1      15.621  32.206  11.288  1.00  0.00     0.157 C 
BRANCH  25  26
HETATM   26  C10 UNL     1      15.920  33.025  12.460  1.00  0.00     0.235 C 
HETATM   27  N1  UNL     1      16.880  34.061  12.568  1.00  0.00    -0.351 N 
HETATM   28  O1  UNL     1      15.214  32.751  13.500  1.00  0.00    -0.272 OA
BRANCH  27  29
HETATM   29  C5  UNL     1      17.004  34.736  13.829  1.00  0.00     0.126 C 
BRANCH  29  30
HETATM   30  C4  UNL     1      18.131  34.356  14.696  1.00  0.00     0.020 C 
BRANCH  30  31
HETATM   31  C3  UNL     1      18.992  35.364  15.312  1.00  0.00     0.001 C 
BRANCH  31  32
HETATM   32  C2  UNL     1      18.339  36.458  16.098  1.00  0.00    -0.004 C 
HETATM   33  C1  UNL     1      18.014  35.890  17.487  1.00  0.00     0.005 C 
ENDBRANCH  31  32
ENDBRANCH  30  31
ENDBRANCH  29  30
ENDBRANCH  27  29
BRANCH  27  34
HETATM   34  C6  UNL     1      17.679  34.465  11.449  1.00  0.00     0.125 C 
BRANCH  34  35
HETATM   35  C7  UNL     1      17.266  35.762  10.809  1.00  0.00     0.020 C 
BRANCH  35  36
HETATM   36  C8  UNL     1      16.807  35.497   9.388  1.00  0.00    -0.003 C 
HETATM   37  C9  UNL     1      17.842  34.725   8.606  1.00  0.00     0.005 C 
ENDBRANCH  35  36
ENDBRANCH  34  35
ENDBRANCH  27  34
ENDBRANCH  25  26
BRANCH  25  38
HETATM   38  C26 UNL     1      16.891  31.644  10.652  1.00  0.00     0.028 C 
BRANCH  38  39
HETATM   39  C27 UNL     1      16.682  31.231   9.227  1.00  0.00     0.021 C 
BRANCH  39  40
HETATM   40  C28 UNL     1      16.596  29.744   9.031  1.00  0.00     0.122 C 
BRANCH  40  41
HETATM   41  N6  UNL     1      16.060  29.498   7.705  1.00  0.00    -0.367 N 
HETATM   42  C29 UNL     1      15.132  28.594   7.574  1.00  0.00     0.196 C 
HETATM   43  N7  UNL     1      14.613  28.355   6.283  1.00  0.00    -0.067 NA
HETATM   44  N8  UNL     1      14.666  27.873   8.724  1.00  0.00    -0.067 NA
ATOM     45  H6  UNL     1      16.401  30.019   6.897  1.00  0.00     0.161 HD
ENDBRANCH  40  41
ENDBRANCH  39  40
ENDBRANCH  38  39
ENDBRANCH  25  38
ENDBRANCH   1  25
TORSDOF 19
ENDMDL
