MODEL 1
REMARK VINA RESULT: -9.981449527      0.000      0.000
REMARK  16 active torsions:
REMARK  status: ('A' for Active; 'I' for Inactive)
REMARK    1  A    between atoms: C2_2  and  C3_3 
REMARK    2  A    between atoms: C2_2  and  C4_6 
REMARK    3  A    between atoms: C4_6  and  N1_7 
REMARK    4  A    between atoms: C4_6  and  C5_11 
REMARK    5  A    between atoms: C5_11  and  N3_15 
REMARK    6  A    between atoms: N3_15  and  C6_17 
REMARK    7  A    between atoms: C8_20  and  S1_21 
REMARK    8  A    between atoms: S1_21  and  N4_24 
REMARK    9  A    between atoms: N4_24  and  N5_26 
REMARK       I    between atoms: N5_26  and  C9_28 
REMARK   10  A    between atoms: C9_28  and  C10_30 
REMARK   11  A    between atoms: C10_30  and  S2_31 
REMARK   12  A    between atoms: S2_31  and  C11_32 
REMARK   13  A    between atoms: N9_39  and  N10_40 
REMARK   14  A    between atoms: C14_45  and  C15_46 
REMARK   15  A    between atoms: C18_49  and  C19_50 
REMARK   16  A    between atoms: N15_61  and  N16_62 
ROOT
HETATM    1  C6  UNL     1       1.742  24.390  28.199  1.00  0.00     0.181 C 
HETATM    2  C7  UNL     1       2.072  25.326  27.249  1.00  0.00     0.240 C 
HETATM    3  O3  UNL     1       2.576  26.384  27.686  1.00  0.00    -0.283 OA
HETATM    4  C8  UNL     1       1.912  25.236  25.857  1.00  0.00     0.135 C 
HETATM    5  C12 UNL     1       1.225  24.274  25.150  1.00  0.00     0.032 C 
HETATM    6  C13 UNL     1       0.267  23.395  25.685  1.00  0.00     0.034 C 
HETATM    7  C14 UNL     1      -0.027  23.177  27.013  1.00  0.00     0.068 C 
HETATM    8  N15 UNL     1       0.719  23.497  28.105  1.00  0.00    -0.242 N 
ENDROOT
BRANCH   4   9
HETATM    9  S1  UNL     1       2.646  26.473  24.898  1.00  0.00     0.280 S 
HETATM   10  O4  UNL     1       2.190  26.313  23.460  1.00  0.00    -0.199 OA
HETATM   11  O5  UNL     1       4.149  26.399  24.929  1.00  0.00    -0.199 OA
BRANCH   9  12
HETATM   12  N4  UNL     1       2.200  28.038  25.412  1.00  0.00    -0.220 N 
ATOM     13  H4  UNL     1       2.863  28.784  25.618  1.00  0.00     0.200 HD
BRANCH  12  14
HETATM   14  N5  UNL     1       0.798  28.171  25.517  1.00  0.00    -0.260 N 
HETATM   15  C9  UNL     1       0.191  29.415  25.806  1.00  0.00     0.246 C 
HETATM   16  O6  UNL     1       0.892  30.450  25.977  1.00  0.00    -0.271 OA
ATOM     17  H5  UNL     1       0.210  27.350  25.381  1.00  0.00     0.190 HD
BRANCH  15  18
HETATM   18  C10 UNL     1      -1.273  29.535  25.914  1.00  0.00     0.187 C 
BRANCH  18  19
HETATM   19  S2  UNL     1      -2.011  30.162  24.405  1.00  0.00    -0.080 SA
BRANCH  19  20
HETATM   20  C11 UNL     1      -1.871  31.923  24.281  1.00  0.00     0.200 A 
HETATM   21  N6  UNL     1      -2.776  32.871  24.624  1.00  0.00    -0.261 N 
HETATM   22  N7  UNL     1      -2.243  34.049  24.358  1.00  0.00    -0.225 N 
ATOM     23  H6  UNL     1      -3.702  32.705  25.016  1.00  0.00     0.190 HD
HETATM   24  N8  UNL     1      -1.039  33.846  23.864  1.00  0.00    -0.205 N 
ATOM     25  H7  UNL     1      -2.684  34.956  24.510  1.00  0.00     0.210 HD
HETATM   26  N9  UNL     1      -0.784  32.565  23.804  1.00  0.00    -0.162 N 
ATOM     27  H8  UNL     1      -0.397  34.583  23.570  1.00  0.00     0.212 HD
BRANCH  26  28
HETATM   28  N10 UNL     1       0.414  32.010  23.325  1.00  0.00    -0.321 N 
ATOM     29 2H10 UNL     1       0.648  31.018  23.360  1.00  0.00     0.179 HD
ATOM     30 1H10 UNL     1       1.200  32.489  22.888  1.00  0.00     0.179 HD
ENDBRANCH  26  28
ENDBRANCH  19  20
ENDBRANCH  18  19
ENDBRANCH  15  18
ENDBRANCH  12  14
ENDBRANCH   9  12
ENDBRANCH   4   9
BRANCH   1  31
HETATM   31  N3  UNL     1       2.427  24.320  29.246  1.00  0.00    -0.326 N 
ATOM     32  H3  UNL     1       2.097  24.920  30.002  1.00  0.00     0.169 HD
BRANCH  31  33
HETATM   33  C5  UNL     1       3.563  23.569  29.567  1.00  0.00     0.108 C 
HETATM   34  N2  UNL     1       4.149  22.917  28.590  1.00  0.00    -0.387 N 
ATOM     35  H22 UNL     1       4.977  22.369  28.823  1.00  0.00     0.157 HD
ATOM     36  H21 UNL     1       3.809  22.954  27.628  1.00  0.00     0.157 HD
BRANCH  33  37
HETATM   37  C4  UNL     1       4.050  23.515  30.947  1.00  0.00     0.263 C 
BRANCH  37  38
HETATM   38  C2  UNL     1       3.211  22.690  31.888  1.00  0.00     0.120 C 
HETATM   39  C1  UNL     1       2.706  21.419  31.307  1.00  0.00     0.024 C 
BRANCH  38  40
HETATM   40  C3  UNL     1       2.133  23.436  32.525  1.00  0.00     0.179 C 
HETATM   41  O1  UNL     1       2.263  23.833  33.711  1.00  0.00    -0.648 OA
HETATM   42  O2  UNL     1       0.947  23.718  31.828  1.00  0.00    -0.648 OA
ENDBRANCH  38  40
ENDBRANCH  37  38
BRANCH  37  43
HETATM   43  N1  UNL     1       5.431  23.054  30.921  1.00  0.00    -0.067 N 
ATOM     44  H13 UNL     1       5.537  22.165  31.410  1.00  0.00     0.275 HD
ATOM     45  H12 UNL     1       5.708  22.754  29.986  1.00  0.00     0.275 HD
ATOM     46  H11 UNL     1       6.067  23.761  31.290  1.00  0.00     0.275 HD
ENDBRANCH  37  43
ENDBRANCH  33  37
ENDBRANCH  31  33
ENDBRANCH   1  31
BRANCH   8  47
HETATM   47  N16 UNL     1       0.350  22.789  29.242  1.00  0.00    -0.336 N 
ATOM     48 2H16 UNL     1      -0.046  23.382  29.970  1.00  0.00     0.177 HD
ATOM     49 1H16 UNL     1       0.497  21.779  29.255  1.00  0.00     0.177 HD
ENDBRANCH   8  47
BRANCH   7  50
HETATM   50  C15 UNL     1      -1.290  22.523  27.323  1.00  0.00    -0.007 A 
HETATM   51  C16 UNL     1      -1.374  21.226  27.764  1.00  0.00     0.014 A 
HETATM   52  C17 UNL     1      -2.618  20.695  28.038  1.00  0.00     0.016 A 
HETATM   53  C18 UNL     1      -3.789  21.430  27.885  1.00  0.00     0.011 A 
HETATM   54  C21 UNL     1      -3.638  22.728  27.440  1.00  0.00     0.016 A 
HETATM   55  C22 UNL     1      -2.424  23.308  27.151  1.00  0.00     0.014 A 
BRANCH  53  56
HETATM   56  C19 UNL     1      -5.068  20.838  28.189  1.00  0.00     0.147 A 
HETATM   57  N11 UNL     1      -5.298  19.711  28.865  1.00  0.00    -0.268 N 
HETATM   58  N12 UNL     1      -6.630  19.515  28.930  1.00  0.00    -0.225 N 
ATOM     59  H11 UNL     1      -4.586  19.100  29.265  1.00  0.00     0.190 HD
HETATM   60  N13 UNL     1      -7.216  20.515  28.298  1.00  0.00    -0.223 N 
ATOM     61  H12 UNL     1      -7.101  18.733  29.385  1.00  0.00     0.210 HD
HETATM   62  C20 UNL     1      -8.636  20.684  28.143  1.00  0.00     0.202 C 
HETATM   63  N14 UNL     1      -6.270  21.321  27.847  1.00  0.00    -0.266 N 
ATOM     64  H14 UNL     1      -6.430  22.179  27.319  1.00  0.00     0.190 HD
ENDBRANCH  53  56
ENDBRANCH   7  50
TORSDOF 16
ENDMDL
MODEL 2
REMARK VINA RESULT: -9.805680263      0.837      1.224
REMARK  16 active torsions:
REMARK  status: ('A' for Active; 'I' for Inactive)
REMARK    1  A    between atoms: C2_2  and  C3_3 
REMARK    2  A    between atoms: C2_2  and  C4_6 
REMARK    3  A    between atoms: C4_6  and  N1_7 
REMARK    4  A    between atoms: C4_6  and  C5_11 
REMARK    5  A    between atoms: C5_11  and  N3_15 
REMARK    6  A    between atoms: N3_15  and  C6_17 
REMARK    7  A    between atoms: C8_20  and  S1_21 
REMARK    8  A    between atoms: S1_21  and  N4_24 
REMARK    9  A    between atoms: N4_24  and  N5_26 
REMARK       I    between atoms: N5_26  and  C9_28 
REMARK   10  A    between atoms: C9_28  and  C10_30 
REMARK   11  A    between atoms: C10_30  and  S2_31 
REMARK   12  A    between atoms: S2_31  and  C11_32 
REMARK   13  A    between atoms: N9_39  and  N10_40 
REMARK   14  A    between atoms: C14_45  and  C15_46 
REMARK   15  A    between atoms: C18_49  and  C19_50 
REMARK   16  A    between atoms: N15_61  and  N16_62 
ROOT
HETATM    1  C6  UNL     1       1.794  24.323  28.283  1.00  0.00     0.181 C 
HETATM    2  C7  UNL     1       2.145  25.274  27.355  1.00  0.00     0.240 C 
HETATM    3  O3  UNL     1       2.652  26.319  27.818  1.00  0.00    -0.283 OA
HETATM    4  C8  UNL     1       2.003  25.211  25.960  1.00  0.00     0.135 C 
HETATM    5  C12 UNL     1       1.319  24.268  25.225  1.00  0.00     0.032 C 
HETATM    6  C13 UNL     1       0.346  23.387  25.731  1.00  0.00     0.034 C 
HETATM    7  C14 UNL     1       0.032  23.147  27.051  1.00  0.00     0.068 C 
HETATM    8  N15 UNL     1       0.766  23.440  28.158  1.00  0.00    -0.242 N 
ENDROOT
BRANCH   4   9
HETATM    9  S1  UNL     1       2.760  26.459  25.034  1.00  0.00     0.280 S 
HETATM   10  O4  UNL     1       2.288  26.357  23.595  1.00  0.00    -0.199 OA
HETATM   11  O5  UNL     1       4.261  26.347  25.048  1.00  0.00    -0.199 OA
BRANCH   9  12
HETATM   12  N4  UNL     1       2.358  28.017  25.601  1.00  0.00    -0.220 N 
ATOM     13  H4  UNL     1       2.928  28.553  26.256  1.00  0.00     0.200 HD
BRANCH  12  14
HETATM   14  N5  UNL     1       1.140  28.472  25.053  1.00  0.00    -0.260 N 
HETATM   15  C9  UNL     1       0.072  28.904  25.874  1.00  0.00     0.246 C 
HETATM   16  O6  UNL     1       0.182  28.895  27.131  1.00  0.00    -0.271 OA
ATOM     17  H5  UNL     1       1.027  28.491  24.040  1.00  0.00     0.190 HD
BRANCH  15  18
HETATM   18  C10 UNL     1      -1.193  29.373  25.285  1.00  0.00     0.187 C 
BRANCH  18  19
HETATM   19  S2  UNL     1      -1.202  31.149  25.034  1.00  0.00    -0.080 SA
BRANCH  19  20
HETATM   20  C11 UNL     1      -0.360  31.612  23.547  1.00  0.00     0.200 A 
HETATM   21  N6  UNL     1       0.967  31.571  23.276  1.00  0.00    -0.261 N 
HETATM   22  N7  UNL     1       1.139  32.010  22.043  1.00  0.00    -0.225 N 
ATOM     23  H6  UNL     1       1.701  31.257  23.910  1.00  0.00     0.190 HD
HETATM   24  N8  UNL     1      -0.044  32.317  21.554  1.00  0.00    -0.205 N 
ATOM     25  H7  UNL     1       2.030  32.096  21.555  1.00  0.00     0.210 HD
HETATM   26  N9  UNL     1      -0.975  32.087  22.443  1.00  0.00    -0.162 N 
ATOM     27  H8  UNL     1      -0.212  32.682  20.616  1.00  0.00     0.212 HD
BRANCH  26  28
HETATM   28  N10 UNL     1      -2.347  32.309  22.240  1.00  0.00    -0.321 N 
ATOM     29 2H10 UNL     1      -3.040  32.382  22.986  1.00  0.00     0.179 HD
ATOM     30 1H10 UNL     1      -2.843  32.426  21.357  1.00  0.00     0.179 HD
ENDBRANCH  26  28
ENDBRANCH  19  20
ENDBRANCH  18  19
ENDBRANCH  15  18
ENDBRANCH  12  14
ENDBRANCH   9  12
ENDBRANCH   4   9
BRANCH   1  31
HETATM   31  N3  UNL     1       2.465  24.228  29.337  1.00  0.00    -0.326 N 
ATOM     32  H3  UNL     1       2.105  24.785  30.112  1.00  0.00     0.169 HD
BRANCH  31  33
HETATM   33  C5  UNL     1       3.617  23.498  29.645  1.00  0.00     0.108 C 
HETATM   34  N2  UNL     1       4.217  22.876  28.657  1.00  0.00    -0.387 N 
ATOM     35  H22 UNL     1       5.058  22.343  28.882  1.00  0.00     0.157 HD
ATOM     36  H21 UNL     1       3.876  22.920  27.697  1.00  0.00     0.157 HD
BRANCH  33  37
HETATM   37  C4  UNL     1       4.107  23.433  31.024  1.00  0.00     0.263 C 
BRANCH  37  38
HETATM   38  C2  UNL     1       3.242  22.644  31.972  1.00  0.00     0.120 C 
HETATM   39  C1  UNL     1       2.715  21.374  31.410  1.00  0.00     0.024 C 
BRANCH  38  40
HETATM   40  C3  UNL     1       2.175  23.425  32.586  1.00  0.00     0.179 C 
HETATM   41  O1  UNL     1       2.307  23.850  33.761  1.00  0.00    -0.648 OA
HETATM   42  O2  UNL     1       0.997  23.709  31.876  1.00  0.00    -0.648 OA
ENDBRANCH  38  40
ENDBRANCH  37  38
BRANCH  37  43
HETATM   43  N1  UNL     1       5.470  22.922  30.996  1.00  0.00    -0.067 N 
ATOM     44  H13 UNL     1       5.662  22.325  31.801  1.00  0.00     0.275 HD
ATOM     45  H12 UNL     1       5.597  22.232  30.255  1.00  0.00     0.275 HD
ATOM     46  H11 UNL     1       6.151  23.678  30.922  1.00  0.00     0.275 HD
ENDBRANCH  37  43
ENDBRANCH  33  37
ENDBRANCH  31  33
ENDBRANCH   1  31
BRANCH   8  47
HETATM   47  N16 UNL     1       0.376  22.715  29.277  1.00  0.00    -0.336 N 
ATOM     48 2H16 UNL     1       0.153  23.305  30.078  1.00  0.00     0.177 HD
ATOM     49 1H16 UNL     1       0.343  21.697  29.210  1.00  0.00     0.177 HD
ENDBRANCH   8  47
BRANCH   7  50
HETATM   50  C15 UNL     1      -1.240  22.498  27.331  1.00  0.00    -0.007 A 
HETATM   51  C16 UNL     1      -1.342  21.188  27.731  1.00  0.00     0.014 A 
HETATM   52  C17 UNL     1      -2.593  20.664  27.979  1.00  0.00     0.016 A 
HETATM   53  C18 UNL     1      -3.754  21.415  27.842  1.00  0.00     0.011 A 
HETATM   54  C21 UNL     1      -3.586  22.725  27.439  1.00  0.00     0.016 A 
HETATM   55  C22 UNL     1      -2.364  23.300  27.176  1.00  0.00     0.014 A 
BRANCH  53  56
HETATM   56  C19 UNL     1      -5.042  20.828  28.118  1.00  0.00     0.147 A 
HETATM   57  N11 UNL     1      -5.288  19.669  28.731  1.00  0.00    -0.268 N 
HETATM   58  N12 UNL     1      -6.623  19.492  28.791  1.00  0.00    -0.225 N 
ATOM     59  H11 UNL     1      -4.585  19.025  29.092  1.00  0.00     0.190 HD
HETATM   60  N13 UNL     1      -7.194  20.536  28.220  1.00  0.00    -0.223 N 
ATOM     61  H12 UNL     1      -7.105  18.694  29.204  1.00  0.00     0.210 HD
HETATM   62  C20 UNL     1      -8.612  20.736  28.081  1.00  0.00     0.202 C 
HETATM   63  N14 UNL     1      -6.237  21.350  27.810  1.00  0.00    -0.266 N 
ATOM     64  H14 UNL     1      -6.385  22.239  27.332  1.00  0.00     0.190 HD
ENDBRANCH  53  56
ENDBRANCH   7  50
TORSDOF 16
ENDMDL
MODEL 3
REMARK VINA RESULT: -9.700026636      1.795      2.381
REMARK  16 active torsions:
REMARK  status: ('A' for Active; 'I' for Inactive)
REMARK    1  A    between atoms: C2_2  and  C3_3 
REMARK    2  A    between atoms: C2_2  and  C4_6 
REMARK    3  A    between atoms: C4_6  and  N1_7 
REMARK    4  A    between atoms: C4_6  and  C5_11 
REMARK    5  A    between atoms: C5_11  and  N3_15 
REMARK    6  A    between atoms: N3_15  and  C6_17 
REMARK    7  A    between atoms: C8_20  and  S1_21 
REMARK    8  A    between atoms: S1_21  and  N4_24 
REMARK    9  A    between atoms: N4_24  and  N5_26 
REMARK       I    between atoms: N5_26  and  C9_28 
REMARK   10  A    between atoms: C9_28  and  C10_30 
REMARK   11  A    between atoms: C10_30  and  S2_31 
REMARK   12  A    between atoms: S2_31  and  C11_32 
REMARK   13  A    between atoms: N9_39  and  N10_40 
REMARK   14  A    between atoms: C14_45  and  C15_46 
REMARK   15  A    between atoms: C18_49  and  C19_50 
REMARK   16  A    between atoms: N15_61  and  N16_62 
ROOT
HETATM    1  C6  UNL     1       1.000  23.394  28.685  1.00  0.00     0.181 C 
HETATM    2  C7  UNL     1       1.456  24.592  28.188  1.00  0.00     0.240 C 
HETATM    3  O3  UNL     1       2.129  25.284  28.982  1.00  0.00    -0.283 OA
HETATM    4  C8  UNL     1       1.256  25.125  26.905  1.00  0.00     0.135 C 
HETATM    5  C12 UNL     1       0.413  24.658  25.921  1.00  0.00     0.032 C 
HETATM    6  C13 UNL     1      -0.662  23.773  26.120  1.00  0.00     0.034 C 
HETATM    7  C14 UNL     1      -0.961  23.053  27.256  1.00  0.00     0.068 C 
HETATM    8  N15 UNL     1      -0.153  22.773  28.313  1.00  0.00    -0.242 N 
ENDROOT
BRANCH   4   9
HETATM    9  S1  UNL     1       2.158  26.541  26.491  1.00  0.00     0.280 S 
HETATM   10  O4  UNL     1       1.610  27.111  25.197  1.00  0.00    -0.199 OA
HETATM   11  O5  UNL     1       3.621  26.246  26.297  1.00  0.00    -0.199 OA
BRANCH   9  12
HETATM   12  N4  UNL     1       2.035  27.755  27.684  1.00  0.00    -0.220 N 
ATOM     13  H4  UNL     1       2.021  27.573  28.688  1.00  0.00     0.200 HD
BRANCH  12  14
HETATM   14  N5  UNL     1       1.956  29.042  27.111  1.00  0.00    -0.260 N 
HETATM   15  C9  UNL     1       0.797  29.842  27.240  1.00  0.00     0.246 C 
HETATM   16  O6  UNL     1      -0.207  29.423  27.880  1.00  0.00    -0.271 OA
ATOM     17  H5  UNL     1       2.754  29.404  26.590  1.00  0.00     0.190 HD
BRANCH  15  18
HETATM   18  C10 UNL     1       0.731  31.182  26.633  1.00  0.00     0.187 C 
BRANCH  18  19
HETATM   19  S2  UNL     1      -0.663  31.347  25.517  1.00  0.00    -0.080 SA
BRANCH  19  20
HETATM   20  C11 UNL     1      -0.147  31.688  23.858  1.00  0.00     0.200 A 
HETATM   21  N6  UNL     1      -0.561  32.675  23.027  1.00  0.00    -0.261 N 
HETATM   22  N7  UNL     1       0.096  32.545  21.890  1.00  0.00    -0.225 N 
ATOM     23  H6  UNL     1      -1.254  33.391  23.243  1.00  0.00     0.190 HD
HETATM   24  N8  UNL     1       0.898  31.507  22.003  1.00  0.00    -0.205 N 
ATOM     25  H7  UNL     1      -0.001  33.142  21.069  1.00  0.00     0.210 HD
HETATM   26  N9  UNL     1       0.773  30.965  23.186  1.00  0.00    -0.162 N 
ATOM     27  H8  UNL     1       1.526  31.172  21.272  1.00  0.00     0.212 HD
BRANCH  26  28
HETATM   28  N10 UNL     1       1.488  29.840  23.629  1.00  0.00    -0.321 N 
ATOM     29 2H10 UNL     1       1.171  28.875  23.530  1.00  0.00     0.179 HD
ATOM     30 1H10 UNL     1       2.393  29.811  24.097  1.00  0.00     0.179 HD
ENDBRANCH  26  28
ENDBRANCH  19  20
ENDBRANCH  18  19
ENDBRANCH  15  18
ENDBRANCH  12  14
ENDBRANCH   9  12
ENDBRANCH   4   9
BRANCH   1  31
HETATM   31  N3  UNL     1       1.686  22.794  29.544  1.00  0.00    -0.326 N 
ATOM     32  H3  UNL     1       2.034  21.885  29.239  1.00  0.00     0.169 HD
BRANCH  31  33
HETATM   33  C5  UNL     1       2.062  23.142  30.846  1.00  0.00     0.108 C 
HETATM   34  N2  UNL     1       1.115  23.556  31.655  1.00  0.00    -0.387 N 
ATOM     35  H22 UNL     1       1.389  23.810  32.604  1.00  0.00     0.157 HD
ATOM     36  H21 UNL     1       0.139  23.617  31.366  1.00  0.00     0.157 HD
BRANCH  33  37
HETATM   37  C4  UNL     1       3.464  23.055  31.260  1.00  0.00     0.263 C 
BRANCH  37  38
HETATM   38  C2  UNL     1       4.349  22.244  30.350  1.00  0.00     0.120 C 
HETATM   39  C1  UNL     1       5.146  21.198  31.041  1.00  0.00     0.024 C 
BRANCH  38  40
HETATM   40  C3  UNL     1       5.194  23.050  29.477  1.00  0.00     0.179 C 
HETATM   41  O1  UNL     1       4.740  23.473  28.384  1.00  0.00    -0.648 OA
HETATM   42  O2  UNL     1       6.513  23.361  29.845  1.00  0.00    -0.648 OA
ENDBRANCH  38  40
ENDBRANCH  37  38
BRANCH  37  43
HETATM   43  N1  UNL     1       3.971  24.410  31.428  1.00  0.00    -0.067 N 
ATOM     44  H13 UNL     1       3.301  25.001  31.919  1.00  0.00     0.275 HD
ATOM     45  H12 UNL     1       4.735  24.443  32.103  1.00  0.00     0.275 HD
ATOM     46  H11 UNL     1       4.245  24.819  30.534  1.00  0.00     0.275 HD
ENDBRANCH  37  43
ENDBRANCH  33  37
ENDBRANCH  31  33
ENDBRANCH   1  31
BRANCH   8  47
HETATM   47  N16 UNL     1      -0.607  21.706  29.078  1.00  0.00    -0.336 N 
ATOM     48 2H16 UNL     1      -0.009  21.506  29.879  1.00  0.00     0.177 HD
ATOM     49 1H16 UNL     1      -1.463  21.232  28.791  1.00  0.00     0.177 HD
ENDBRANCH   8  47
BRANCH   7  50
HETATM   50  C15 UNL     1      -2.306  22.507  27.369  1.00  0.00    -0.007 A 
HETATM   51  C16 UNL     1      -2.572  21.280  27.925  1.00  0.00     0.014 A 
HETATM   52  C17 UNL     1      -3.881  20.851  27.995  1.00  0.00     0.016 A 
HETATM   53  C18 UNL     1      -4.940  21.618  27.524  1.00  0.00     0.011 A 
HETATM   54  C21 UNL     1      -4.608  22.841  26.978  1.00  0.00     0.016 A 
HETATM   55  C22 UNL     1      -3.322  23.320  26.882  1.00  0.00     0.014 A 
BRANCH  53  56
HETATM   56  C19 UNL     1      -6.295  21.133  27.622  1.00  0.00     0.147 A 
HETATM   57  N11 UNL     1      -7.006  20.524  26.672  1.00  0.00    -0.268 N 
HETATM   58  N12 UNL     1      -8.223  20.230  27.172  1.00  0.00    -0.225 N 
ATOM     59  H11 UNL     1      -6.684  20.316  25.727  1.00  0.00     0.190 HD
HETATM   60  N13 UNL     1      -8.260  20.655  28.421  1.00  0.00    -0.223 N 
ATOM     61  H12 UNL     1      -8.981  19.762  26.674  1.00  0.00     0.210 HD
HETATM   62  C20 UNL     1      -9.384  20.531  29.310  1.00  0.00     0.202 C 
HETATM   63  N14 UNL     1      -7.090  21.205  28.698  1.00  0.00    -0.266 N 
ATOM     64  H14 UNL     1      -6.832  21.620  29.593  1.00  0.00     0.190 HD
ENDBRANCH  53  56
ENDBRANCH   7  50
TORSDOF 16
ENDMDL
MODEL 4
REMARK VINA RESULT: -9.594616384      1.428      1.606
REMARK  16 active torsions:
REMARK  status: ('A' for Active; 'I' for Inactive)
REMARK    1  A    between atoms: C2_2  and  C3_3 
REMARK    2  A    between atoms: C2_2  and  C4_6 
REMARK    3  A    between atoms: C4_6  and  N1_7 
REMARK    4  A    between atoms: C4_6  and  C5_11 
REMARK    5  A    between atoms: C5_11  and  N3_15 
REMARK    6  A    between atoms: N3_15  and  C6_17 
REMARK    7  A    between atoms: C8_20  and  S1_21 
REMARK    8  A    between atoms: S1_21  and  N4_24 
REMARK    9  A    between atoms: N4_24  and  N5_26 
REMARK       I    between atoms: N5_26  and  C9_28 
REMARK   10  A    between atoms: C9_28  and  C10_30 
REMARK   11  A    between atoms: C10_30  and  S2_31 
REMARK   12  A    between atoms: S2_31  and  C11_32 
REMARK   13  A    between atoms: N9_39  and  N10_40 
REMARK   14  A    between atoms: C14_45  and  C15_46 
REMARK   15  A    between atoms: C18_49  and  C19_50 
REMARK   16  A    between atoms: N15_61  and  N16_62 
ROOT
HETATM    1  C6  UNL     1       1.740  24.579  28.289  1.00  0.00     0.181 C 
HETATM    2  C7  UNL     1       2.087  25.477  27.307  1.00  0.00     0.240 C 
HETATM    3  O3  UNL     1       2.522  26.577  27.711  1.00  0.00    -0.283 OA
HETATM    4  C8  UNL     1       2.012  25.305  25.916  1.00  0.00     0.135 C 
HETATM    5  C12 UNL     1       1.407  24.277  25.226  1.00  0.00     0.032 C 
HETATM    6  C13 UNL     1       0.455  23.387  25.756  1.00  0.00     0.034 C 
HETATM    7  C14 UNL     1       0.094  23.229  27.076  1.00  0.00     0.068 C 
HETATM    8  N15 UNL     1       0.762  23.639  28.187  1.00  0.00    -0.242 N 
ENDROOT
BRANCH   4   9
HETATM    9  S1  UNL     1       2.749  26.519  24.931  1.00  0.00     0.280 S 
HETATM   10  O4  UNL     1       2.342  26.294  23.487  1.00  0.00    -0.199 OA
HETATM   11  O5  UNL     1       4.252  26.480  25.010  1.00  0.00    -0.199 OA
BRANCH   9  12
HETATM   12  N4  UNL     1       2.255  28.093  25.370  1.00  0.00    -0.220 N 
ATOM     13  H4  UNL     1       2.896  28.867  25.543  1.00  0.00     0.200 HD
BRANCH  12  14
HETATM   14  N5  UNL     1       0.850  28.191  25.462  1.00  0.00    -0.260 N 
HETATM   15  C9  UNL     1       0.211  29.406  25.799  1.00  0.00     0.246 C 
HETATM   16  O6  UNL     1       0.887  30.447  26.027  1.00  0.00    -0.271 OA
ATOM     17  H5  UNL     1       0.282  27.364  25.280  1.00  0.00     0.190 HD
BRANCH  15  18
HETATM   18  C10 UNL     1      -1.256  29.489  25.893  1.00  0.00     0.187 C 
BRANCH  18  19
HETATM   19  S2  UNL     1      -1.993  30.115  24.383  1.00  0.00    -0.080 SA
BRANCH  19  20
HETATM   20  C11 UNL     1      -1.877  31.879  24.271  1.00  0.00     0.200 A 
HETATM   21  N6  UNL     1      -2.800  32.812  24.606  1.00  0.00    -0.261 N 
HETATM   22  N7  UNL     1      -2.281  33.999  24.355  1.00  0.00    -0.225 N 
ATOM     23  H6  UNL     1      -3.730  32.630  24.984  1.00  0.00     0.190 HD
HETATM   24  N8  UNL     1      -1.068  33.817  23.877  1.00  0.00    -0.205 N 
ATOM     25  H7  UNL     1      -2.738  34.898  24.505  1.00  0.00     0.210 HD
HETATM   26  N9  UNL     1      -0.793  32.540  23.813  1.00  0.00    -0.162 N 
ATOM     27  H8  UNL     1      -0.432  34.564  23.597  1.00  0.00     0.212 HD
BRANCH  26  28
HETATM   28  N10 UNL     1       0.419  32.005  23.348  1.00  0.00    -0.321 N 
ATOM     29 2H10 UNL     1       1.194  31.716  23.947  1.00  0.00     0.179 HD
ATOM     30 1H10 UNL     1       0.703  31.829  22.385  1.00  0.00     0.179 HD
ENDBRANCH  26  28
ENDBRANCH  19  20
ENDBRANCH  18  19
ENDBRANCH  15  18
ENDBRANCH  12  14
ENDBRANCH   9  12
ENDBRANCH   4   9
BRANCH   1  31
HETATM   31  N3  UNL     1       2.366  24.596  29.374  1.00  0.00    -0.326 N 
ATOM     32  H3  UNL     1       1.771  24.534  30.200  1.00  0.00     0.169 HD
BRANCH  31  33
HETATM   33  C5  UNL     1       3.733  24.682  29.660  1.00  0.00     0.108 C 
HETATM   34  N2  UNL     1       4.191  25.845  30.061  1.00  0.00    -0.387 N 
ATOM     35  H22 UNL     1       5.187  25.908  30.270  1.00  0.00     0.157 HD
ATOM     36  H21 UNL     1       3.587  26.659  30.176  1.00  0.00     0.157 HD
BRANCH  33  37
HETATM   37  C4  UNL     1       4.600  23.514  29.495  1.00  0.00     0.263 C 
BRANCH  37  38
HETATM   38  C2  UNL     1       4.032  22.219  30.017  1.00  0.00     0.120 C 
HETATM   39  C1  UNL     1       4.719  21.690  31.224  1.00  0.00     0.024 C 
BRANCH  38  40
HETATM   40  C3  UNL     1       3.893  21.183  29.001  1.00  0.00     0.179 C 
HETATM   41  O1  UNL     1       4.835  20.376  28.798  1.00  0.00    -0.648 OA
HETATM   42  O2  UNL     1       2.715  21.076  28.244  1.00  0.00    -0.648 OA
ENDBRANCH  38  40
ENDBRANCH  37  38
BRANCH  37  43
HETATM   43  N1  UNL     1       4.956  23.410  28.087  1.00  0.00    -0.067 N 
ATOM     44  H13 UNL     1       5.954  23.240  27.966  1.00  0.00     0.275 HD
ATOM     45  H12 UNL     1       4.598  22.549  27.673  1.00  0.00     0.275 HD
ATOM     46  H11 UNL     1       4.651  24.230  27.563  1.00  0.00     0.275 HD
ENDBRANCH  37  43
ENDBRANCH  33  37
ENDBRANCH  31  33
ENDBRANCH   1  31
BRANCH   8  47
HETATM   47  N16 UNL     1       0.357  22.978  29.340  1.00  0.00    -0.336 N 
ATOM     48 2H16 UNL     1       1.137  22.662  29.915  1.00  0.00     0.177 HD
ATOM     49 1H16 UNL     1      -0.643  22.869  29.512  1.00  0.00     0.177 HD
ENDBRANCH   8  47
BRANCH   7  50
HETATM   50  C15 UNL     1      -1.158  22.538  27.351  1.00  0.00    -0.007 A 
HETATM   51  C16 UNL     1      -1.215  21.240  27.794  1.00  0.00     0.014 A 
HETATM   52  C17 UNL     1      -2.450  20.673  28.034  1.00  0.00     0.016 A 
HETATM   53  C18 UNL     1      -3.638  21.371  27.844  1.00  0.00     0.011 A 
HETATM   54  C21 UNL     1      -3.512  22.671  27.397  1.00  0.00     0.016 A 
HETATM   55  C22 UNL     1      -2.309  23.287  27.142  1.00  0.00     0.014 A 
BRANCH  53  56
HETATM   56  C19 UNL     1      -4.907  20.742  28.112  1.00  0.00     0.147 A 
HETATM   57  N11 UNL     1      -5.115  19.531  28.632  1.00  0.00    -0.268 N 
HETATM   58  N12 UNL     1      -6.445  19.327  28.722  1.00  0.00    -0.225 N 
ATOM     59  H11 UNL     1      -4.391  18.871  28.913  1.00  0.00     0.190 HD
HETATM   60  N13 UNL     1      -7.050  20.406  28.260  1.00  0.00    -0.223 N 
ATOM     61  H12 UNL     1      -6.901  18.489  29.082  1.00  0.00     0.210 HD
HETATM   62  C20 UNL     1      -8.474  20.594  28.186  1.00  0.00     0.202 C 
HETATM   63  N14 UNL     1      -6.119  21.267  27.889  1.00  0.00    -0.266 N 
ATOM     64  H14 UNL     1      -6.296  22.191  27.493  1.00  0.00     0.190 HD
ENDBRANCH  53  56
ENDBRANCH   7  50
TORSDOF 16
ENDMDL
MODEL 5
REMARK VINA RESULT: -9.543255165      1.563      2.067
REMARK  16 active torsions:
REMARK  status: ('A' for Active; 'I' for Inactive)
REMARK    1  A    between atoms: C2_2  and  C3_3 
REMARK    2  A    between atoms: C2_2  and  C4_6 
REMARK    3  A    between atoms: C4_6  and  N1_7 
REMARK    4  A    between atoms: C4_6  and  C5_11 
REMARK    5  A    between atoms: C5_11  and  N3_15 
REMARK    6  A    between atoms: N3_15  and  C6_17 
REMARK    7  A    between atoms: C8_20  and  S1_21 
REMARK    8  A    between atoms: S1_21  and  N4_24 
REMARK    9  A    between atoms: N4_24  and  N5_26 
REMARK       I    between atoms: N5_26  and  C9_28 
REMARK   10  A    between atoms: C9_28  and  C10_30 
REMARK   11  A    between atoms: C10_30  and  S2_31 
REMARK   12  A    between atoms: S2_31  and  C11_32 
REMARK   13  A    between atoms: N9_39  and  N10_40 
REMARK   14  A    between atoms: C14_45  and  C15_46 
REMARK   15  A    between atoms: C18_49  and  C19_50 
REMARK   16  A    between atoms: N15_61  and  N16_62 
ROOT
HETATM    1  C6  UNL     1       1.714  24.547  28.318  1.00  0.00     0.181 C 
HETATM    2  C7  UNL     1       2.069  25.445  27.340  1.00  0.00     0.240 C 
HETATM    3  O3  UNL     1       2.507  26.542  27.748  1.00  0.00    -0.283 OA
HETATM    4  C8  UNL     1       1.998  25.276  25.948  1.00  0.00     0.135 C 
HETATM    5  C12 UNL     1       1.391  24.253  25.254  1.00  0.00     0.032 C 
HETATM    6  C13 UNL     1       0.433  23.366  25.778  1.00  0.00     0.034 C 
HETATM    7  C14 UNL     1       0.066  23.207  27.096  1.00  0.00     0.068 C 
HETATM    8  N15 UNL     1       0.731  23.611  28.211  1.00  0.00    -0.242 N 
ENDROOT
BRANCH   4   9
HETATM    9  S1  UNL     1       2.745  26.489  24.969  1.00  0.00     0.280 S 
HETATM   10  O4  UNL     1       2.337  26.273  23.524  1.00  0.00    -0.199 OA
HETATM   11  O5  UNL     1       4.248  26.438  25.049  1.00  0.00    -0.199 OA
BRANCH   9  12
HETATM   12  N4  UNL     1       2.263  28.064  25.414  1.00  0.00    -0.220 N 
ATOM     13  H4  UNL     1       2.910  28.831  25.597  1.00  0.00     0.200 HD
BRANCH  12  14
HETATM   14  N5  UNL     1       0.858  28.175  25.496  1.00  0.00    -0.260 N 
HETATM   15  C9  UNL     1       0.227  29.399  25.816  1.00  0.00     0.246 C 
HETATM   16  O6  UNL     1       0.910  30.437  26.037  1.00  0.00    -0.271 OA
ATOM     17  H5  UNL     1       0.284  27.351  25.319  1.00  0.00     0.190 HD
BRANCH  15  18
HETATM   18  C10 UNL     1      -1.239  29.495  25.899  1.00  0.00     0.187 C 
BRANCH  18  19
HETATM   19  S2  UNL     1      -1.961  30.127  24.384  1.00  0.00    -0.080 SA
BRANCH  19  20
HETATM   20  C11 UNL     1      -1.842  31.890  24.278  1.00  0.00     0.200 A 
HETATM   21  N6  UNL     1      -2.766  32.824  24.608  1.00  0.00    -0.261 N 
HETATM   22  N7  UNL     1      -2.243  34.011  24.364  1.00  0.00    -0.225 N 
ATOM     23  H6  UNL     1      -3.699  32.642  24.978  1.00  0.00     0.190 HD
HETATM   24  N8  UNL     1      -1.026  33.828  23.896  1.00  0.00    -0.205 N 
ATOM     25  H7  UNL     1      -2.700  34.910  24.513  1.00  0.00     0.210 HD
HETATM   26  N9  UNL     1      -0.753  32.551  23.830  1.00  0.00    -0.162 N 
ATOM     27  H8  UNL     1      -0.388  34.575  23.622  1.00  0.00     0.212 HD
BRANCH  26  28
HETATM   28  N10 UNL     1       0.463  32.016  23.374  1.00  0.00    -0.321 N 
ATOM     29 2H10 UNL     1       0.547  31.195  22.774  1.00  0.00     0.179 HD
ATOM     30 1H10 UNL     1       1.408  32.348  23.561  1.00  0.00     0.179 HD
ENDBRANCH  26  28
ENDBRANCH  19  20
ENDBRANCH  18  19
ENDBRANCH  15  18
ENDBRANCH  12  14
ENDBRANCH   9  12
ENDBRANCH   4   9
BRANCH   1  31
HETATM   31  N3  UNL     1       2.335  24.558  29.406  1.00  0.00    -0.326 N 
ATOM     32  H3  UNL     1       1.737  24.636  30.228  1.00  0.00     0.169 HD
BRANCH  31  33
HETATM   33  C5  UNL     1       3.701  24.483  29.699  1.00  0.00     0.108 C 
HETATM   34  N2  UNL     1       4.297  25.590  30.075  1.00  0.00    -0.387 N 
ATOM     35  H22 UNL     1       5.293  25.536  30.290  1.00  0.00     0.157 HD
ATOM     36  H21 UNL     1       3.798  26.475  30.165  1.00  0.00     0.157 HD
BRANCH  33  37
HETATM   37  C4  UNL     1       4.418  23.213  29.570  1.00  0.00     0.263 C 
BRANCH  37  38
HETATM   38  C2  UNL     1       5.200  23.049  28.292  1.00  0.00     0.120 C 
HETATM   39  C1  UNL     1       4.409  22.519  27.152  1.00  0.00     0.024 C 
BRANCH  38  40
HETATM   40  C3  UNL     1       6.444  22.306  28.453  1.00  0.00     0.179 C 
HETATM   41  O1  UNL     1       6.414  21.057  28.587  1.00  0.00    -0.648 OA
HETATM   42  O2  UNL     1       7.680  22.973  28.459  1.00  0.00    -0.648 OA
ENDBRANCH  38  40
ENDBRANCH  37  38
BRANCH  37  43
HETATM   43  N1  UNL     1       5.270  23.053  30.740  1.00  0.00    -0.067 N 
ATOM     44  H13 UNL     1       5.542  22.079  30.873  1.00  0.00     0.275 HD
ATOM     45  H12 UNL     1       6.195  23.456  30.588  1.00  0.00     0.275 HD
ATOM     46  H11 UNL     1       4.830  23.436  31.577  1.00  0.00     0.275 HD
ENDBRANCH  37  43
ENDBRANCH  33  37
ENDBRANCH  31  33
ENDBRANCH   1  31
BRANCH   8  47
HETATM   47  N16 UNL     1       0.318  22.950  29.361  1.00  0.00    -0.336 N 
ATOM     48 2H16 UNL     1       0.183  23.575  30.155  1.00  0.00     0.177 HD
ATOM     49 1H16 UNL     1       0.186  21.939  29.320  1.00  0.00     0.177 HD
ENDBRANCH   8  47
BRANCH   7  50
HETATM   50  C15 UNL     1      -1.190  22.521  27.365  1.00  0.00    -0.007 A 
HETATM   51  C16 UNL     1      -1.257  21.214  27.778  1.00  0.00     0.014 A 
HETATM   52  C17 UNL     1      -2.495  20.653  28.014  1.00  0.00     0.016 A 
HETATM   53  C18 UNL     1      -3.677  21.366  27.850  1.00  0.00     0.011 A 
HETATM   54  C21 UNL     1      -3.543  22.676  27.433  1.00  0.00     0.016 A 
HETATM   55  C22 UNL     1      -2.336  23.286  27.183  1.00  0.00     0.014 A 
BRANCH  53  56
HETATM   56  C19 UNL     1      -4.950  20.743  28.113  1.00  0.00     0.147 A 
HETATM   57  N11 UNL     1      -5.166  19.530  28.626  1.00  0.00    -0.268 N 
HETATM   58  N12 UNL     1      -6.497  19.334  28.713  1.00  0.00    -0.225 N 
ATOM     59  H11 UNL     1      -4.446  18.864  28.905  1.00  0.00     0.190 HD
HETATM   60  N13 UNL     1      -7.096  20.418  28.257  1.00  0.00    -0.223 N 
ATOM     61  H12 UNL     1      -6.959  18.496  29.068  1.00  0.00     0.210 HD
HETATM   62  C20 UNL     1      -8.519  20.615  28.183  1.00  0.00     0.202 C 
HETATM   63  N14 UNL     1      -6.159  21.277  27.891  1.00  0.00    -0.266 N 
ATOM     64  H14 UNL     1      -6.330  22.203  27.501  1.00  0.00     0.190 HD
ENDBRANCH  53  56
ENDBRANCH   7  50
TORSDOF 16
ENDMDL
