MODEL 1
REMARK VINA RESULT: -8.146582297      0.000      0.000
REMARK  4 active torsions:
REMARK  status: ('A' for Active; 'I' for Inactive)
REMARK    1  A    between atoms: N1_1  and  C1_4 
REMARK    2  A    between atoms: C2_7  and  C3_8 
REMARK    3  A    between atoms: N4_16  and  C9_17 
REMARK    4  A    between atoms: N6_21  and  N7_23 
ROOT
HETATM    1  C9  UNL     1     -11.298 -33.295  18.790  1.00  0.00     0.160 A 
HETATM    2  N5  UNL     1     -12.551 -33.380  19.243  1.00  0.00    -0.319 N 
ATOM      3  H5  UNL     1     -12.953 -32.516  19.607  1.00  0.00     0.169 HD
HETATM    4  C10 UNL     1     -13.342 -34.448  19.280  1.00  0.00     0.166 A 
HETATM    5  N6  UNL     1     -14.544 -34.349  19.760  1.00  0.00    -0.286 N 
ATOM      6  H6  UNL     1     -14.904 -33.463  20.114  1.00  0.00     0.188 HD
HETATM    7  S1  UNL     1     -12.649 -35.875  18.669  1.00  0.00    -0.034 SA
HETATM    8  C11 UNL     1     -11.033 -35.629  18.118  1.00  0.00     0.091 A 
HETATM    9  N8  UNL     1     -10.284 -36.615  17.594  1.00  0.00    -0.359 N 
ATOM     10  H8  UNL     1     -10.687 -37.549  17.517  1.00  0.00     0.166 HD
HETATM   11  C12 UNL     1      -9.024 -36.418  17.165  1.00  0.00     0.089 A 
HETATM   12  C13 UNL     1      -8.506 -35.142  17.282  1.00  0.00     0.018 A 
HETATM   13  C14 UNL     1      -9.253 -34.114  17.816  1.00  0.00     0.019 A 
HETATM   14  C15 UNL     1     -10.561 -34.342  18.254  1.00  0.00     0.044 A 
ENDROOT
BRANCH   1  15
HETATM   15  N4  UNL     1     -10.605 -32.019  18.841  1.00  0.00    -0.067 N 
HETATM   16  C1  UNL     1      -9.884 -31.555  19.881  1.00  0.00     0.700 A 
HETATM   17  N2  UNL     1      -9.390 -30.340  19.568  1.00  0.00    -0.173 N 
HETATM   18  C2  UNL     1      -9.804 -30.044  18.334  1.00  0.00     0.146 A 
ATOM     19  H2  UNL     1      -8.808 -29.753  20.166  1.00  0.00     0.186 HD
HETATM   20  N3  UNL     1     -10.542 -31.084  17.915  1.00  0.00    -0.261 N 
ATOM     21  H3  UNL     1     -10.994 -31.141  17.003  1.00  0.00     0.190 HD
BRANCH  16  22
HETATM   22  N1  UNL     1      -9.691 -32.170  20.997  1.00  0.00    -0.233 N 
ATOM     23  H12 UNL     1      -9.859 -31.785  21.927  1.00  0.00     0.174 HD
ATOM     24  H11 UNL     1      -9.344 -33.125  21.090  1.00  0.00     0.174 HD
ENDBRANCH  16  22
BRANCH  18  25
HETATM   25  C3  UNL     1      -9.503 -28.819  17.593  1.00  0.00     0.010 A 
HETATM   26  C4  UNL     1     -10.520 -27.945  17.274  1.00  0.00     0.015 A 
HETATM   27  C5  UNL     1     -10.263 -26.780  16.574  1.00  0.00     0.001 A 
HETATM   28  C6  UNL     1      -8.960 -26.484  16.186  1.00  0.00     0.000 A 
HETATM   29  C7  UNL     1      -7.926 -27.339  16.492  1.00  0.00     0.001 A 
HETATM   30  C8  UNL     1      -8.237 -28.485  17.190  1.00  0.00     0.015 A 
ENDBRANCH  18  25
ENDBRANCH   1  15
BRANCH   5  31
HETATM   31  N7  UNL     1     -15.321 -35.506  19.770  1.00  0.00    -0.343 N 
ATOM     32  H72 UNL     1     -14.943 -36.381  20.132  1.00  0.00     0.176 HD
ATOM     33  H71 UNL     1     -16.270 -35.432  19.403  1.00  0.00     0.176 HD
ENDBRANCH   5  31
TORSDOF 4
ENDMDL
MODEL 2
REMARK VINA RESULT: -8.087938978      3.056      4.243
REMARK  4 active torsions:
REMARK  status: ('A' for Active; 'I' for Inactive)
REMARK    1  A    between atoms: N1_1  and  C1_4 
REMARK    2  A    between atoms: C2_7  and  C3_8 
REMARK    3  A    between atoms: N4_16  and  C9_17 
REMARK    4  A    between atoms: N6_21  and  N7_23 
ROOT
HETATM    1  C9  UNL     1      -9.553 -30.116  18.349  1.00  0.00     0.160 A 
HETATM    2  N5  UNL     1      -9.891 -30.389  19.611  1.00  0.00    -0.319 N 
ATOM      3  H5  UNL     1     -10.278 -29.612  20.147  1.00  0.00     0.169 HD
HETATM    4  C10 UNL     1      -9.789 -31.545  20.259  1.00  0.00     0.166 A 
HETATM    5  N6  UNL     1     -10.170 -31.632  21.497  1.00  0.00    -0.286 N 
ATOM      6  H6  UNL     1     -10.550 -30.826  21.994  1.00  0.00     0.188 HD
HETATM    7  S1  UNL     1      -9.142 -32.825  19.345  1.00  0.00    -0.034 SA
HETATM    8  C11 UNL     1      -8.747 -32.340  17.736  1.00  0.00     0.091 A 
HETATM    9  N8  UNL     1      -8.222 -33.182  16.830  1.00  0.00    -0.359 N 
ATOM     10  H8  UNL     1      -8.048 -34.150  17.103  1.00  0.00     0.166 HD
HETATM   11  C12 UNL     1      -7.916 -32.800  15.577  1.00  0.00     0.089 A 
HETATM   12  C13 UNL     1      -8.163 -31.483  15.237  1.00  0.00     0.018 A 
HETATM   13  C14 UNL     1      -8.700 -30.600  16.148  1.00  0.00     0.019 A 
HETATM   14  C15 UNL     1      -9.011 -31.020  17.445  1.00  0.00     0.044 A 
ENDROOT
BRANCH   1  15
HETATM   15  N4  UNL     1      -9.748 -28.772  17.832  1.00  0.00    -0.067 N 
HETATM   16  C1  UNL     1     -10.892 -28.289  17.308  1.00  0.00     0.700 A 
HETATM   17  N2  UNL     1     -10.699 -27.007  16.933  1.00  0.00    -0.173 N 
HETATM   18  C2  UNL     1      -9.435 -26.691  17.222  1.00  0.00     0.146 A 
ATOM     19  H2  UNL     1     -11.392 -26.393  16.506  1.00  0.00     0.186 HD
HETATM   20  N3  UNL     1      -8.879 -27.785  17.768  1.00  0.00    -0.261 N 
ATOM     21  H3  UNL     1      -7.913 -27.843  18.090  1.00  0.00     0.190 HD
BRANCH  16  22
HETATM   22  N1  UNL     1     -11.998 -28.939  17.182  1.00  0.00    -0.233 N 
ATOM     23  H12 UNL     1     -12.230 -29.581  16.424  1.00  0.00     0.174 HD
ATOM     24  H11 UNL     1     -12.784 -28.893  17.831  1.00  0.00     0.174 HD
ENDBRANCH  16  22
BRANCH  18  25
HETATM   25  C3  UNL     1      -8.791 -25.399  16.985  1.00  0.00     0.010 A 
HETATM   26  C4  UNL     1      -9.111 -24.319  17.778  1.00  0.00     0.015 A 
HETATM   27  C5  UNL     1      -8.517 -23.086  17.574  1.00  0.00     0.001 A 
HETATM   28  C6  UNL     1      -7.584 -22.933  16.554  1.00  0.00     0.000 A 
HETATM   29  C7  UNL     1      -7.246 -23.995  15.748  1.00  0.00     0.001 A 
HETATM   30  C8  UNL     1      -7.867 -25.200  15.993  1.00  0.00     0.015 A 
ENDBRANCH  18  25
ENDBRANCH   1  15
BRANCH   5  31
HETATM   31  N7  UNL     1     -10.036 -32.873  22.117  1.00  0.00    -0.343 N 
ATOM     32  H72 UNL     1     -10.840 -33.321  22.557  1.00  0.00     0.176 HD
ATOM     33  H71 UNL     1      -9.110 -33.300  22.108  1.00  0.00     0.176 HD
ENDBRANCH   5  31
TORSDOF 4
ENDMDL
MODEL 3
REMARK VINA RESULT: -7.784414436      1.147      3.344
REMARK  4 active torsions:
REMARK  status: ('A' for Active; 'I' for Inactive)
REMARK    1  A    between atoms: N1_1  and  C1_4 
REMARK    2  A    between atoms: C2_7  and  C3_8 
REMARK    3  A    between atoms: N4_16  and  C9_17 
REMARK    4  A    between atoms: N6_21  and  N7_23 
ROOT
HETATM    1  C9  UNL     1     -10.787 -33.059  18.234  1.00  0.00     0.160 A 
HETATM    2  N5  UNL     1      -9.968 -34.058  17.899  1.00  0.00    -0.319 N 
ATOM      3  H5  UNL     1      -8.990 -33.804  17.758  1.00  0.00     0.169 HD
HETATM    4  C10 UNL     1     -10.265 -35.342  17.723  1.00  0.00     0.166 A 
HETATM    5  N6  UNL     1      -9.334 -36.184  17.393  1.00  0.00    -0.286 N 
ATOM      6  H6  UNL     1      -8.368 -35.885  17.263  1.00  0.00     0.188 HD
HETATM    7  S1  UNL     1     -11.901 -35.739  17.962  1.00  0.00    -0.034 SA
HETATM    8  C11 UNL     1     -12.849 -34.362  18.390  1.00  0.00     0.091 A 
HETATM    9  N8  UNL     1     -14.170 -34.432  18.627  1.00  0.00    -0.359 N 
ATOM     10  H8  UNL     1     -14.634 -35.338  18.552  1.00  0.00     0.166 HD
HETATM   11  C12 UNL     1     -14.904 -33.356  18.961  1.00  0.00     0.089 A 
HETATM   12  C13 UNL     1     -14.247 -32.144  19.056  1.00  0.00     0.018 A 
HETATM   13  C14 UNL     1     -12.893 -32.045  18.816  1.00  0.00     0.019 A 
HETATM   14  C15 UNL     1     -12.150 -33.178  18.471  1.00  0.00     0.044 A 
ENDROOT
BRANCH   1  15
HETATM   15  N4  UNL     1     -10.254 -31.715  18.375  1.00  0.00    -0.067 N 
HETATM   16  C1  UNL     1      -9.742 -31.185  19.504  1.00  0.00     0.700 A 
HETATM   17  N2  UNL     1      -9.347 -29.919  19.258  1.00  0.00    -0.173 N 
HETATM   18  C2  UNL     1      -9.613 -29.658  17.976  1.00  0.00     0.146 A 
ATOM     19  H2  UNL     1      -8.924 -29.278  19.929  1.00  0.00     0.186 HD
HETATM   20  N3  UNL     1     -10.165 -30.769  17.463  1.00  0.00    -0.261 N 
ATOM     21  H3  UNL     1     -10.475 -30.867  16.496  1.00  0.00     0.190 HD
BRANCH  16  22
HETATM   22  N1  UNL     1      -9.641 -31.786  20.640  1.00  0.00    -0.233 N 
ATOM     23  H12 UNL     1      -9.477 -32.784  20.775  1.00  0.00     0.174 HD
ATOM     24  H11 UNL     1      -9.713 -31.333  21.552  1.00  0.00     0.174 HD
ENDBRANCH  16  22
BRANCH  18  25
HETATM   25  C3  UNL     1      -9.349 -28.400  17.278  1.00  0.00     0.010 A 
HETATM   26  C4  UNL     1      -8.051 -28.027  17.008  1.00  0.00     0.015 A 
HETATM   27  C5  UNL     1      -7.774 -26.843  16.349  1.00  0.00     0.001 A 
HETATM   28  C6  UNL     1      -8.820 -26.015  15.953  1.00  0.00     0.000 A 
HETATM   29  C7  UNL     1     -10.125 -26.363  16.210  1.00  0.00     0.001 A 
HETATM   30  C8  UNL     1     -10.346 -27.553  16.869  1.00  0.00     0.015 A 
ENDBRANCH  18  25
ENDBRANCH   1  15
BRANCH   5  31
HETATM   31  N7  UNL     1      -9.712 -37.515  17.225  1.00  0.00    -0.343 N 
ATOM     32  H72 UNL     1     -10.173 -38.023  17.981  1.00  0.00     0.176 HD
ATOM     33  H71 UNL     1      -9.507 -37.947  16.324  1.00  0.00     0.176 HD
ENDBRANCH   5  31
TORSDOF 4
ENDMDL
MODEL 4
REMARK VINA RESULT: -7.745902419      3.010      4.489
REMARK  4 active torsions:
REMARK  status: ('A' for Active; 'I' for Inactive)
REMARK    1  A    between atoms: N1_1  and  C1_4 
REMARK    2  A    between atoms: C2_7  and  C3_8 
REMARK    3  A    between atoms: N4_16  and  C9_17 
REMARK    4  A    between atoms: N6_21  and  N7_23 
ROOT
HETATM    1  C9  UNL     1      -9.709 -30.031  18.322  1.00  0.00     0.160 A 
HETATM    2  N5  UNL     1      -9.457 -30.391  19.582  1.00  0.00    -0.319 N 
ATOM      3  H5  UNL     1      -8.730 -29.859  20.060  1.00  0.00     0.169 HD
HETATM    4  C10 UNL     1     -10.033 -31.356  20.293  1.00  0.00     0.166 A 
HETATM    5  N6  UNL     1      -9.659 -31.570  21.517  1.00  0.00    -0.286 N 
ATOM      6  H6  UNL     1      -8.926 -31.013  21.955  1.00  0.00     0.188 HD
HETATM    7  S1  UNL     1     -11.241 -32.228  19.473  1.00  0.00    -0.034 SA
HETATM    8  C11 UNL     1     -11.467 -31.664  17.858  1.00  0.00     0.091 A 
HETATM    9  N8  UNL     1     -12.368 -32.202  17.018  1.00  0.00    -0.359 N 
ATOM     10  H8  UNL     1     -12.944 -32.977  17.348  1.00  0.00     0.166 HD
HETATM   11  C12 UNL     1     -12.541 -31.759  15.760  1.00  0.00     0.089 A 
HETATM   12  C13 UNL     1     -11.747 -30.708  15.342  1.00  0.00     0.018 A 
HETATM   13  C14 UNL     1     -10.815 -30.139  16.184  1.00  0.00     0.019 A 
HETATM   14  C15 UNL     1     -10.653 -30.616  17.488  1.00  0.00     0.044 A 
ENDROOT
BRANCH   1  15
HETATM   15  N4  UNL     1      -8.958 -28.939  17.727  1.00  0.00    -0.067 N 
HETATM   16  C1  UNL     1      -7.832 -29.063  16.996  1.00  0.00     0.700 A 
HETATM   17  N2  UNL     1      -7.417 -27.839  16.612  1.00  0.00    -0.173 N 
HETATM   18  C2  UNL     1      -8.283 -26.950  17.103  1.00  0.00     0.146 A 
ATOM     19  H2  UNL     1      -6.592 -27.630  16.050  1.00  0.00     0.186 HD
HETATM   20  N3  UNL     1      -9.211 -27.647  17.778  1.00  0.00    -0.261 N 
ATOM     21  H3  UNL     1     -10.005 -27.232  18.265  1.00  0.00     0.190 HD
BRANCH  16  22
HETATM   22  N1  UNL     1      -7.240 -30.172  16.706  1.00  0.00    -0.233 N 
ATOM     23  H12 UNL     1      -6.563 -30.658  17.294  1.00  0.00     0.174 HD
ATOM     24  H11 UNL     1      -7.378 -30.703  15.846  1.00  0.00     0.174 HD
ENDBRANCH  16  22
BRANCH  18  25
HETATM   25  C3  UNL     1      -8.222 -25.498  16.931  1.00  0.00     0.010 A 
HETATM   26  C4  UNL     1      -8.819 -24.673  17.859  1.00  0.00     0.015 A 
HETATM   27  C5  UNL     1      -8.775 -23.298  17.721  1.00  0.00     0.001 A 
HETATM   28  C6  UNL     1      -8.120 -22.737  16.629  1.00  0.00     0.000 A 
HETATM   29  C7  UNL     1      -7.515 -23.537  15.687  1.00  0.00     0.001 A 
HETATM   30  C8  UNL     1      -7.589 -24.901  15.873  1.00  0.00     0.015 A 
ENDBRANCH  18  25
ENDBRANCH   1  15
BRANCH   5  31
HETATM   31  N7  UNL     1     -10.304 -32.596  22.207  1.00  0.00    -0.343 N 
ATOM     32  H72 UNL     1     -10.047 -32.814  23.170  1.00  0.00     0.176 HD
ATOM     33  H71 UNL     1     -11.031 -33.107  21.708  1.00  0.00     0.176 HD
ENDBRANCH   5  31
TORSDOF 4
ENDMDL
MODEL 5
REMARK VINA RESULT: -7.671303801      3.610      4.996
REMARK  4 active torsions:
REMARK  status: ('A' for Active; 'I' for Inactive)
REMARK    1  A    between atoms: N1_1  and  C1_4 
REMARK    2  A    between atoms: C2_7  and  C3_8 
REMARK    3  A    between atoms: N4_16  and  C9_17 
REMARK    4  A    between atoms: N6_21  and  N7_23 
ROOT
HETATM    1  C9  UNL     1      -9.174 -30.309  16.631  1.00  0.00     0.160 A 
HETATM    2  N5  UNL     1      -8.695 -30.996  17.670  1.00  0.00    -0.319 N 
ATOM      3  H5  UNL     1      -8.563 -30.466  18.531  1.00  0.00     0.169 HD
HETATM    4  C10 UNL     1      -8.367 -32.283  17.726  1.00  0.00     0.166 A 
HETATM    5  N6  UNL     1      -7.911 -32.789  18.830  1.00  0.00    -0.286 N 
ATOM      6  H6  UNL     1      -7.795 -32.220  19.668  1.00  0.00     0.188 HD
HETATM    7  S1  UNL     1      -8.595 -33.144  16.277  1.00  0.00    -0.034 SA
HETATM    8  C11 UNL     1      -9.217 -32.144  15.016  1.00  0.00     0.091 A 
HETATM    9  N8  UNL     1      -9.477 -32.606  13.781  1.00  0.00    -0.359 N 
ATOM     10  H8  UNL     1      -9.300 -33.590  13.579  1.00  0.00     0.166 HD
HETATM   11  C12 UNL     1      -9.962 -31.821  12.802  1.00  0.00     0.089 A 
HETATM   12  C13 UNL     1     -10.191 -30.493  13.107  1.00  0.00     0.018 A 
HETATM   13  C14 UNL     1      -9.932 -29.995  14.365  1.00  0.00     0.019 A 
HETATM   14  C15 UNL     1      -9.429 -30.829  15.368  1.00  0.00     0.044 A 
ENDROOT
BRANCH   1  15
HETATM   15  N4  UNL     1      -9.470 -28.895  16.783  1.00  0.00    -0.067 N 
HETATM   16  C1  UNL     1     -10.662 -28.373  17.134  1.00  0.00     0.700 A 
HETATM   17  N2  UNL     1     -10.560 -27.028  17.174  1.00  0.00    -0.173 N 
HETATM   18  C2  UNL     1      -9.305 -26.711  16.849  1.00  0.00     0.146 A 
ATOM     19  H2  UNL     1     -11.306 -26.374  17.410  1.00  0.00     0.186 HD
HETATM   20  N3  UNL     1      -8.663 -27.867  16.616  1.00  0.00    -0.261 N 
ATOM     21  H3  UNL     1      -7.683 -27.939  16.345  1.00  0.00     0.190 HD
BRANCH  16  22
HETATM   22  N1  UNL     1     -11.732 -29.043  17.391  1.00  0.00    -0.233 N 
ATOM     23  H12 UNL     1     -12.666 -28.834  17.038  1.00  0.00     0.174 HD
ATOM     24  H11 UNL     1     -11.777 -29.873  17.983  1.00  0.00     0.174 HD
ENDBRANCH  16  22
BRANCH  18  25
HETATM   25  C3  UNL     1      -8.749 -25.360  16.766  1.00  0.00     0.010 A 
HETATM   26  C4  UNL     1      -9.189 -24.385  17.634  1.00  0.00     0.015 A 
HETATM   27  C5  UNL     1      -8.679 -23.100  17.577  1.00  0.00     0.001 A 
HETATM   28  C6  UNL     1      -7.709 -22.786  16.631  1.00  0.00     0.000 A 
HETATM   29  C7  UNL     1      -7.252 -23.741  15.752  1.00  0.00     0.001 A 
HETATM   30  C8  UNL     1      -7.792 -25.005  15.852  1.00  0.00     0.015 A 
ENDBRANCH  18  25
ENDBRANCH   1  15
BRANCH   5  31
HETATM   31  N7  UNL     1      -7.586 -34.145  18.821  1.00  0.00    -0.343 N 
ATOM     32  H72 UNL     1      -8.133 -34.805  18.268  1.00  0.00     0.176 HD
ATOM     33  H71 UNL     1      -6.789 -34.436  19.386  1.00  0.00     0.176 HD
ENDBRANCH   5  31
TORSDOF 4
ENDMDL
