MODEL 1
REMARK VINA RESULT: -5.755179905      0.000      0.000
REMARK  3 active torsions:
REMARK  status: ('A' for Active; 'I' for Inactive)
REMARK    1  A    between atoms: O1_2  and  C2_3 
REMARK    2  A    between atoms: C4_9  and  C5_10 
REMARK    3  A    between atoms: N3_11  and  N4_13 
ROOT
HETATM    1  C2  UNL     1      46.257  42.400  59.734  1.00  0.00     0.114 A 
HETATM    2  C3  UNL     1      46.187  43.763  59.921  1.00  0.00     0.146 A 
HETATM    3  N1  UNL     1      44.908  44.154  59.728  1.00  0.00    -0.309 N 
ATOM      4  H1  UNL     1      44.560  45.110  59.801  1.00  0.00     0.186 HD
HETATM    5  N2  UNL     1      44.190  43.103  59.433  1.00  0.00    -0.297 N 
ATOM      6  H2  UNL     1      43.188  43.112  59.239  1.00  0.00     0.187 HD
HETATM    7  C4  UNL     1      44.977  41.998  59.425  1.00  0.00     0.099 A 
ENDROOT
BRANCH   7   8
HETATM    8  C5  UNL     1      44.502  40.654  59.135  1.00  0.00     0.141 C 
HETATM    9  N3  UNL     1      45.310  39.758  58.685  1.00  0.00    -0.307 N 
ATOM     10  H3  UNL     1      46.287  40.011  58.539  1.00  0.00     0.186 HD
BRANCH   9  11
HETATM   11  N4  UNL     1      44.906  38.455  58.391  1.00  0.00    -0.276 N 
HETATM   12  C6  UNL     1      44.838  38.111  57.159  1.00  0.00     0.215 C 
HETATM   13  N5  UNL     1      45.159  39.010  56.115  1.00  0.00    -0.065 NA
HETATM   14  N6  UNL     1      44.429  36.790  56.851  1.00  0.00    -0.065 NA
ATOM     15  H4  UNL     1      44.673  37.796  59.134  1.00  0.00     0.189 HD
ENDBRANCH   9  11
ENDBRANCH   7   8
BRANCH   1  16
HETATM   16  O1  UNL     1      47.344  41.580  59.826  1.00  0.00    -0.352 OA
HETATM   17  C1  UNL     1      48.568  41.907  60.414  1.00  0.00     0.210 C 
ENDBRANCH   1  16
TORSDOF 3
ENDMDL
MODEL 2
REMARK VINA RESULT: -5.632369518      2.249      2.999
REMARK  3 active torsions:
REMARK  status: ('A' for Active; 'I' for Inactive)
REMARK    1  A    between atoms: O1_2  and  C2_3 
REMARK    2  A    between atoms: C4_9  and  C5_10 
REMARK    3  A    between atoms: N3_11  and  N4_13 
ROOT
HETATM    1  C2  UNL     1      46.779  43.197  60.696  1.00  0.00     0.114 A 
HETATM    2  C3  UNL     1      47.458  43.857  61.696  1.00  0.00     0.146 A 
HETATM    3  N1  UNL     1      48.778  43.605  61.552  1.00  0.00    -0.309 N 
ATOM      4  H1  UNL     1      49.521  43.964  62.152  1.00  0.00     0.186 HD
HETATM    5  N2  UNL     1      48.944  42.826  60.516  1.00  0.00    -0.297 N 
ATOM      6  H2  UNL     1      49.843  42.480  60.180  1.00  0.00     0.187 HD
HETATM    7  C4  UNL     1      47.740  42.547  59.955  1.00  0.00     0.099 A 
ENDROOT
BRANCH   7   8
HETATM    8  C5  UNL     1      47.557  41.707  58.782  1.00  0.00     0.141 C 
HETATM    9  N3  UNL     1      46.422  41.144  58.553  1.00  0.00    -0.307 N 
ATOM     10  H3  UNL     1      45.658  41.300  59.209  1.00  0.00     0.186 HD
BRANCH   9  11
HETATM   11  N4  UNL     1      46.193  40.329  57.443  1.00  0.00    -0.276 N 
HETATM   12  C6  UNL     1      45.215  39.504  57.497  1.00  0.00     0.215 C 
HETATM   13  N5  UNL     1      44.381  39.408  58.635  1.00  0.00    -0.065 NA
HETATM   14  N6  UNL     1      44.975  38.672  56.375  1.00  0.00    -0.065 NA
ATOM     15  H4  UNL     1      46.786  40.388  56.616  1.00  0.00     0.189 HD
ENDBRANCH   9  11
ENDBRANCH   7   8
BRANCH   1  16
HETATM   16  O1  UNL     1      45.437  43.166  60.451  1.00  0.00    -0.352 OA
HETATM   17  C1  UNL     1      44.733  44.056  59.635  1.00  0.00     0.210 C 
ENDBRANCH   1  16
TORSDOF 3
ENDMDL
MODEL 3
REMARK VINA RESULT: -5.499269276      2.169      3.326
REMARK  3 active torsions:
REMARK  status: ('A' for Active; 'I' for Inactive)
REMARK    1  A    between atoms: O1_2  and  C2_3 
REMARK    2  A    between atoms: C4_9  and  C5_10 
REMARK    3  A    between atoms: N3_11  and  N4_13 
ROOT
HETATM    1  C2  UNL     1      44.681  41.533  58.339  1.00  0.00     0.114 A 
HETATM    2  C3  UNL     1      45.358  42.249  59.303  1.00  0.00     0.146 A 
HETATM    3  N1  UNL     1      46.414  41.513  59.716  1.00  0.00    -0.309 N 
ATOM      4  H1  UNL     1      47.093  41.793  60.425  1.00  0.00     0.186 HD
HETATM    5  N2  UNL     1      46.421  40.385  59.058  1.00  0.00    -0.297 N 
ATOM      6  H2  UNL     1      47.110  39.642  59.173  1.00  0.00     0.187 HD
HETATM    7  C4  UNL     1      45.372  40.351  58.197  1.00  0.00     0.099 A 
ENDROOT
BRANCH   7   8
HETATM    8  C5  UNL     1      45.078  39.239  57.306  1.00  0.00     0.141 C 
HETATM    9  N3  UNL     1      44.709  38.101  57.781  1.00  0.00    -0.307 N 
ATOM     10  H3  UNL     1      44.628  37.997  58.792  1.00  0.00     0.186 HD
BRANCH   9  11
HETATM   11  N4  UNL     1      44.415  37.003  56.971  1.00  0.00    -0.276 N 
HETATM   12  C6  UNL     1      43.937  35.955  57.531  1.00  0.00     0.215 C 
HETATM   13  N5  UNL     1      43.706  35.894  58.926  1.00  0.00    -0.065 NA
HETATM   14  N6  UNL     1      43.636  34.835  56.717  1.00  0.00    -0.065 NA
ATOM     15  H4  UNL     1      44.575  37.034  55.965  1.00  0.00     0.189 HD
ENDBRANCH   9  11
ENDBRANCH   7   8
BRANCH   1  16
HETATM   16  O1  UNL     1      43.560  41.884  57.645  1.00  0.00    -0.352 OA
HETATM   17  C1  UNL     1      42.260  41.453  57.920  1.00  0.00     0.210 C 
ENDBRANCH   1  16
TORSDOF 3
ENDMDL
MODEL 4
REMARK VINA RESULT: -5.469267722      2.089      3.254
REMARK  3 active torsions:
REMARK  status: ('A' for Active; 'I' for Inactive)
REMARK    1  A    between atoms: O1_2  and  C2_3 
REMARK    2  A    between atoms: C4_9  and  C5_10 
REMARK    3  A    between atoms: N3_11  and  N4_13 
ROOT
HETATM    1  C2  UNL     1      47.793  42.503  60.114  1.00  0.00     0.114 A 
HETATM    2  C3  UNL     1      48.812  42.823  60.986  1.00  0.00     0.146 A 
HETATM    3  N1  UNL     1      48.372  43.791  61.819  1.00  0.00    -0.309 N 
ATOM      4  H1  UNL     1      48.913  44.223  62.568  1.00  0.00     0.186 HD
HETATM    5  N2  UNL     1      47.137  44.082  61.505  1.00  0.00    -0.297 N 
ATOM      6  H2  UNL     1      46.561  44.781  61.974  1.00  0.00     0.187 HD
HETATM    7  C4  UNL     1      46.737  43.314  60.460  1.00  0.00     0.099 A 
ENDROOT
BRANCH   7   8
HETATM    8  C5  UNL     1      45.415  43.377  59.854  1.00  0.00     0.141 C 
HETATM    9  N3  UNL     1      44.770  42.298  59.581  1.00  0.00    -0.307 N 
ATOM     10  H3  UNL     1      45.203  41.401  59.798  1.00  0.00     0.186 HD
BRANCH   9  11
HETATM   11  N4  UNL     1      43.501  42.302  59.000  1.00  0.00    -0.276 N 
HETATM   12  C6  UNL     1      43.260  41.447  58.077  1.00  0.00     0.215 C 
HETATM   13  N5  UNL     1      44.236  40.518  57.648  1.00  0.00    -0.065 NA
HETATM   14  N6  UNL     1      41.974  41.444  57.482  1.00  0.00    -0.065 NA
ATOM     15  H4  UNL     1      42.787  42.966  59.300  1.00  0.00     0.189 HD
ENDBRANCH   9  11
ENDBRANCH   7   8
BRANCH   1  16
HETATM   16  O1  UNL     1      47.788  41.582  59.107  1.00  0.00    -0.352 OA
HETATM   17  C1  UNL     1      47.812  41.865  57.740  1.00  0.00     0.210 C 
ENDBRANCH   1  16
TORSDOF 3
ENDMDL
MODEL 5
REMARK VINA RESULT: -5.260872797      1.621      2.341
REMARK  3 active torsions:
REMARK  status: ('A' for Active; 'I' for Inactive)
REMARK    1  A    between atoms: O1_2  and  C2_3 
REMARK    2  A    between atoms: C4_9  and  C5_10 
REMARK    3  A    between atoms: N3_11  and  N4_13 
ROOT
HETATM    1  C2  UNL     1      45.655  41.270  58.689  1.00  0.00     0.114 A 
HETATM    2  C3  UNL     1      45.076  42.290  59.413  1.00  0.00     0.146 A 
HETATM    3  N1  UNL     1      43.734  42.161  59.331  1.00  0.00    -0.309 N 
ATOM      4  H1  UNL     1      43.049  42.777  59.770  1.00  0.00     0.186 HD
HETATM    5  N2  UNL     1      43.458  41.117  58.595  1.00  0.00    -0.297 N 
ATOM      6  H2  UNL     1      42.519  40.789  58.370  1.00  0.00     0.187 HD
HETATM    7  C4  UNL     1      44.611  40.535  58.177  1.00  0.00     0.099 A 
ENDROOT
BRANCH   7   8
HETATM    8  C5  UNL     1      44.672  39.347  57.338  1.00  0.00     0.141 C 
HETATM    9  N3  UNL     1      44.375  38.191  57.820  1.00  0.00    -0.307 N 
ATOM     10  H3  UNL     1      44.096  38.127  58.798  1.00  0.00     0.186 HD
BRANCH   9  11
HETATM   11  N4  UNL     1      44.418  37.022  57.059  1.00  0.00    -0.276 N 
HETATM   12  C6  UNL     1      43.918  35.957  57.567  1.00  0.00     0.215 C 
HETATM   13  N5  UNL     1      43.335  35.948  58.856  1.00  0.00    -0.065 NA
HETATM   14  N6  UNL     1      43.957  34.765  56.802  1.00  0.00    -0.065 NA
ATOM     15  H4  UNL     1      44.835  37.015  56.129  1.00  0.00     0.189 HD
ENDBRANCH   9  11
ENDBRANCH   7   8
BRANCH   1  16
HETATM   16  O1  UNL     1      46.980  41.005  58.495  1.00  0.00    -0.352 OA
HETATM   17  C1  UNL     1      47.984  41.957  58.301  1.00  0.00     0.210 C 
ENDBRANCH   1  16
TORSDOF 3
ENDMDL
