MODEL 1
REMARK VINA RESULT: -4.746444014      0.000      0.000
REMARK  6 active torsions:
REMARK  status: ('A' for Active; 'I' for Inactive)
REMARK    1  A    between atoms: C3_6  and  C4_7 
REMARK    2  A    between atoms: C4_7  and  N2_8 
REMARK    3  A    between atoms: N2_8  and  C5_11 
REMARK    4  A    between atoms: C5_11  and  C6_12 
REMARK    5  A    between atoms: C6_12  and  C7_13 
REMARK    6  A    between atoms: C7_13  and  N3_14 
ROOT
HETATM    1  C4  UNL     1      25.767  -4.770  15.527  1.00  0.00     0.293 C 
ENDROOT
BRANCH   1   2
HETATM    2  C3  UNL     1      25.834  -4.409  14.090  1.00  0.00     0.347 C 
HETATM    3  N1  UNL     1      24.500  -4.581  13.449  1.00  0.00    -0.041 N 
HETATM    4  C2  UNL     1      24.924  -4.312  12.065  1.00  0.00     0.213 C 
ATOM      5  H12 UNL     1      23.734  -4.016  13.816  1.00  0.00     0.280 HD
ATOM      6  H11 UNL     1      24.013  -5.461  13.621  1.00  0.00     0.280 HD
HETATM    7  C1  UNL     1      23.882  -4.609  11.072  1.00  0.00     0.043 C 
HETATM    8  C8  UNL     1      26.237  -4.962  11.970  1.00  0.00     0.150 C 
HETATM    9  O1  UNL     1      26.658  -5.160  13.300  1.00  0.00    -0.351 OA
HETATM   10  C9  UNL     1      26.358  -6.253  11.267  1.00  0.00     0.042 C 
ENDBRANCH   1   2
BRANCH   1  11
HETATM   11  N2  UNL     1      24.765  -5.797  15.729  1.00  0.00    -0.071 N 
ATOM     12  H22 UNL     1      24.203  -5.617  16.561  1.00  0.00     0.277 HD
ATOM     13  H21 UNL     1      24.025  -5.743  15.029  1.00  0.00     0.277 HD
BRANCH  11  14
HETATM   14  C5  UNL     1      25.363  -7.097  15.766  1.00  0.00     0.234 C 
BRANCH  14  15
HETATM   15  C6  UNL     1      24.969  -7.977  14.592  1.00  0.00     0.055 C 
BRANCH  15  16
HETATM   16  C7  UNL     1      26.188  -8.714  14.062  1.00  0.00     0.231 C 
BRANCH  16  17
HETATM   17  N3  UNL     1      27.367  -7.895  14.365  1.00  0.00    -0.079 N 
ATOM     18  H33 UNL     1      27.147  -7.075  14.930  1.00  0.00     0.274 HD
ATOM     19  H32 UNL     1      28.004  -8.344  15.023  1.00  0.00     0.274 HD
ATOM     20  H31 UNL     1      27.814  -7.658  13.479  1.00  0.00     0.274 HD
ENDBRANCH  16  17
ENDBRANCH  15  16
ENDBRANCH  14  15
ENDBRANCH  11  14
ENDBRANCH   1  11
TORSDOF 6
ENDMDL
MODEL 2
REMARK VINA RESULT: -4.677816279      0.865      1.037
REMARK  6 active torsions:
REMARK  status: ('A' for Active; 'I' for Inactive)
REMARK    1  A    between atoms: C3_6  and  C4_7 
REMARK    2  A    between atoms: C4_7  and  N2_8 
REMARK    3  A    between atoms: N2_8  and  C5_11 
REMARK    4  A    between atoms: C5_11  and  C6_12 
REMARK    5  A    between atoms: C6_12  and  C7_13 
REMARK    6  A    between atoms: C7_13  and  N3_14 
ROOT
HETATM    1  C4  UNL     1      25.829  -4.765  15.536  1.00  0.00     0.293 C 
ENDROOT
BRANCH   1   2
HETATM    2  C3  UNL     1      25.932  -4.536  14.074  1.00  0.00     0.347 C 
HETATM    3  N1  UNL     1      24.579  -4.550  13.449  1.00  0.00    -0.041 N 
HETATM    4  C2  UNL     1      25.022  -4.463  12.048  1.00  0.00     0.213 C 
ATOM      5  H12 UNL     1      23.915  -3.845  13.769  1.00  0.00     0.280 HD
ATOM      6  H11 UNL     1      23.965  -5.327  13.693  1.00  0.00     0.280 HD
HETATM    7  C1  UNL     1      23.934  -4.673  11.083  1.00  0.00     0.043 C 
HETATM    8  C8  UNL     1      26.217  -5.315  12.007  1.00  0.00     0.150 C 
HETATM    9  O1  UNL     1      26.619  -5.467  13.348  1.00  0.00    -0.351 OA
HETATM   10  C9  UNL     1      26.128  -6.661  11.411  1.00  0.00     0.042 C 
ENDBRANCH   1   2
BRANCH   1  11
HETATM   11  N2  UNL     1      24.750  -5.693  15.812  1.00  0.00    -0.071 N 
ATOM     12  H22 UNL     1      24.289  -5.483  16.697  1.00  0.00     0.277 HD
ATOM     13  H21 UNL     1      23.958  -5.545  15.187  1.00  0.00     0.277 HD
BRANCH  11  14
HETATM   14  C5  UNL     1      25.214  -7.046  15.766  1.00  0.00     0.234 C 
BRANCH  14  15
HETATM   15  C6  UNL     1      26.529  -7.259  16.497  1.00  0.00     0.055 C 
BRANCH  15  16
HETATM   16  C7  UNL     1      27.457  -8.120  15.657  1.00  0.00     0.231 C 
BRANCH  16  17
HETATM   17  N3  UNL     1      28.516  -7.250  15.133  1.00  0.00    -0.079 N 
ATOM     18  H33 UNL     1      28.247  -6.267  15.110  1.00  0.00     0.274 HD
ATOM     19  H32 UNL     1      29.307  -7.159  15.770  1.00  0.00     0.274 HD
ATOM     20  H31 UNL     1      28.784  -7.609  14.216  1.00  0.00     0.274 HD
ENDBRANCH  16  17
ENDBRANCH  15  16
ENDBRANCH  14  15
ENDBRANCH  11  14
ENDBRANCH   1  11
TORSDOF 6
ENDMDL
MODEL 3
REMARK VINA RESULT: -4.645290436      3.302      4.600
REMARK  6 active torsions:
REMARK  status: ('A' for Active; 'I' for Inactive)
REMARK    1  A    between atoms: C3_6  and  C4_7 
REMARK    2  A    between atoms: C4_7  and  N2_8 
REMARK    3  A    between atoms: N2_8  and  C5_11 
REMARK    4  A    between atoms: C5_11  and  C6_12 
REMARK    5  A    between atoms: C6_12  and  C7_13 
REMARK    6  A    between atoms: C7_13  and  N3_14 
ROOT
HETATM    1  C4  UNL     1      24.567  -3.153  10.781  1.00  0.00     0.293 C 
ENDROOT
BRANCH   1   2
HETATM    2  C3  UNL     1      25.856  -3.386  10.084  1.00  0.00     0.347 C 
HETATM    3  N1  UNL     1      26.934  -2.560  10.698  1.00  0.00    -0.041 N 
HETATM    4  C2  UNL     1      27.990  -2.882   9.723  1.00  0.00     0.213 C 
ATOM      5  H12 UNL     1      27.145  -2.731  11.681  1.00  0.00     0.280 HD
ATOM      6  H11 UNL     1      26.731  -1.572  10.850  1.00  0.00     0.280 HD
HETATM    7  C1  UNL     1      29.194  -2.054   9.880  1.00  0.00     0.043 C 
HETATM    8  C8  UNL     1      27.280  -2.914   8.438  1.00  0.00     0.150 C 
HETATM    9  O1  UNL     1      25.916  -3.043   8.763  1.00  0.00    -0.351 OA
HETATM   10  C9  UNL     1      27.412  -1.776   7.509  1.00  0.00     0.042 C 
ENDBRANCH   1   2
BRANCH   1  11
HETATM   11  N2  UNL     1      24.694  -3.512  12.180  1.00  0.00    -0.071 N 
ATOM     12  H22 UNL     1      25.593  -3.218  12.564  1.00  0.00     0.277 HD
ATOM     13  H21 UNL     1      24.083  -2.948  12.770  1.00  0.00     0.277 HD
BRANCH  11  14
HETATM   14  C5  UNL     1      24.469  -4.912  12.372  1.00  0.00     0.234 C 
BRANCH  14  15
HETATM   15  C6  UNL     1      25.142  -5.465  13.617  1.00  0.00     0.055 C 
BRANCH  15  16
HETATM   16  C7  UNL     1      25.357  -4.353  14.630  1.00  0.00     0.231 C 
BRANCH  16  17
HETATM   17  N3  UNL     1      24.627  -4.716  15.849  1.00  0.00    -0.079 N 
ATOM     18  H33 UNL     1      24.405  -3.910  16.434  1.00  0.00     0.274 HD
ATOM     19  H32 UNL     1      23.670  -5.015  15.665  1.00  0.00     0.274 HD
ATOM     20  H31 UNL     1      25.176  -5.422  16.340  1.00  0.00     0.274 HD
ENDBRANCH  16  17
ENDBRANCH  15  16
ENDBRANCH  14  15
ENDBRANCH  11  14
ENDBRANCH   1  11
TORSDOF 6
ENDMDL
MODEL 4
REMARK VINA RESULT: -4.537373521      1.769      4.720
REMARK  6 active torsions:
REMARK  status: ('A' for Active; 'I' for Inactive)
REMARK    1  A    between atoms: C3_6  and  C4_7 
REMARK    2  A    between atoms: C4_7  and  N2_8 
REMARK    3  A    between atoms: N2_8  and  C5_11 
REMARK    4  A    between atoms: C5_11  and  C6_12 
REMARK    5  A    between atoms: C6_12  and  C7_13 
REMARK    6  A    between atoms: C7_13  and  N3_14 
ROOT
HETATM    1  C4  UNL     1      25.582  -4.370  14.390  1.00  0.00     0.293 C 
ENDROOT
BRANCH   1   2
HETATM    2  C3  UNL     1      26.010  -5.568  15.154  1.00  0.00     0.347 C 
HETATM    3  N1  UNL     1      27.312  -6.076  14.638  1.00  0.00    -0.041 N 
HETATM    4  C2  UNL     1      27.370  -7.299  15.456  1.00  0.00     0.213 C 
ATOM      5  H12 UNL     1      28.110  -5.444  14.694  1.00  0.00     0.280 HD
ATOM      6  H11 UNL     1      27.396  -6.191  13.628  1.00  0.00     0.280 HD
HETATM    7  C1  UNL     1      28.453  -8.210  15.059  1.00  0.00     0.043 C 
HETATM    8  C8  UNL     1      25.980  -7.772  15.475  1.00  0.00     0.150 C 
HETATM    9  O1  UNL     1      25.199  -6.666  15.087  1.00  0.00    -0.351 OA
HETATM   10  C9  UNL     1      25.591  -8.914  14.626  1.00  0.00     0.042 C 
ENDBRANCH   1   2
BRANCH   1  11
HETATM   11  N2  UNL     1      24.418  -4.690  13.588  1.00  0.00    -0.071 N 
ATOM     12  H22 UNL     1      23.812  -5.364  14.056  1.00  0.00     0.277 HD
ATOM     13  H21 UNL     1      23.768  -3.906  13.539  1.00  0.00     0.277 HD
BRANCH  11  14
HETATM   14  C5  UNL     1      24.802  -5.139  12.284  1.00  0.00     0.234 C 
BRANCH  14  15
HETATM   15  C6  UNL     1      24.035  -4.461  11.162  1.00  0.00     0.055 C 
BRANCH  15  16
HETATM   16  C7  UNL     1      24.565  -3.053  10.947  1.00  0.00     0.231 C 
BRANCH  16  17
HETATM   17  N3  UNL     1      23.434  -2.128  11.078  1.00  0.00    -0.079 N 
ATOM     18  H33 UNL     1      22.530  -2.592  10.987  1.00  0.00     0.274 HD
ATOM     19  H32 UNL     1      23.312  -1.782  12.030  1.00  0.00     0.274 HD
ATOM     20  H31 UNL     1      23.567  -1.380  10.398  1.00  0.00     0.274 HD
ENDBRANCH  16  17
ENDBRANCH  15  16
ENDBRANCH  14  15
ENDBRANCH  11  14
ENDBRANCH   1  11
TORSDOF 6
ENDMDL
MODEL 5
REMARK VINA RESULT: -4.515883641      1.016      1.062
REMARK  6 active torsions:
REMARK  status: ('A' for Active; 'I' for Inactive)
REMARK    1  A    between atoms: C3_6  and  C4_7 
REMARK    2  A    between atoms: C4_7  and  N2_8 
REMARK    3  A    between atoms: N2_8  and  C5_11 
REMARK    4  A    between atoms: C5_11  and  C6_12 
REMARK    5  A    between atoms: C6_12  and  C7_13 
REMARK    6  A    between atoms: C7_13  and  N3_14 
ROOT
HETATM    1  C4  UNL     1      25.219  -4.636  15.625  1.00  0.00     0.293 C 
ENDROOT
BRANCH   1   2
HETATM    2  C3  UNL     1      25.409  -4.143  14.239  1.00  0.00     0.347 C 
HETATM    3  N1  UNL     1      24.385  -4.735  13.332  1.00  0.00    -0.041 N 
HETATM    4  C2  UNL     1      24.925  -4.200  12.071  1.00  0.00     0.213 C 
ATOM      5  H12 UNL     1      23.408  -4.530  13.541  1.00  0.00     0.280 HD
ATOM      6  H11 UNL     1      24.248  -5.745  13.386  1.00  0.00     0.280 HD
HETATM    7  C1  UNL     1      24.279  -4.767  10.879  1.00  0.00     0.043 C 
HETATM    8  C8  UNL     1      26.379  -4.307  12.241  1.00  0.00     0.150 C 
HETATM    9  O1  UNL     1      26.588  -4.459  13.626  1.00  0.00    -0.351 OA
HETATM   10  C9  UNL     1      27.111  -5.390  11.557  1.00  0.00     0.042 C 
ENDBRANCH   1   2
BRANCH   1  11
HETATM   11  N2  UNL     1      24.900  -6.049  15.603  1.00  0.00    -0.071 N 
ATOM     12  H22 UNL     1      24.032  -6.248  16.103  1.00  0.00     0.277 HD
ATOM     13  H21 UNL     1      24.616  -6.357  14.673  1.00  0.00     0.277 HD
BRANCH  11  14
HETATM   14  C5  UNL     1      25.989  -6.829  16.108  1.00  0.00     0.234 C 
BRANCH  14  15
HETATM   15  C6  UNL     1      26.724  -7.607  15.030  1.00  0.00     0.055 C 
BRANCH  15  16
HETATM   16  C7  UNL     1      25.741  -8.090  13.976  1.00  0.00     0.231 C 
BRANCH  16  17
HETATM   17  N3  UNL     1      25.329  -9.449  14.343  1.00  0.00    -0.079 N 
ATOM     18  H33 UNL     1      24.447  -9.726  13.914  1.00  0.00     0.274 HD
ATOM     19  H32 UNL     1      25.916 -10.170  13.922  1.00  0.00     0.274 HD
ATOM     20  H31 UNL     1      25.308  -9.501  15.362  1.00  0.00     0.274 HD
ENDBRANCH  16  17
ENDBRANCH  15  16
ENDBRANCH  14  15
ENDBRANCH  11  14
ENDBRANCH   1  11
TORSDOF 6
ENDMDL
