MODEL 1
REMARK VINA RESULT: 5.119039063      0.000      0.000
REMARK  2 active torsions:
REMARK  status: ('A' for Active; 'I' for Inactive)
REMARK    1  A    between atoms: C5_5  and  C6_6 
REMARK    2  A    between atoms: C7_7  and  C8_8 
ROOT
HETATM    1  C8  UNL     1      27.406   2.573   3.567  1.00  0.00     0.018 A 
HETATM    2  C9  UNL     1      27.952   3.708   3.006  1.00  0.00     0.021 A 
HETATM    3  C10 UNL     1      27.334   4.936   3.050  1.00  0.00     0.015 A 
HETATM    4  C11 UNL     1      26.111   5.049   3.681  1.00  0.00    -0.009 A 
HETATM    5  C12 UNL     1      25.547   3.925   4.249  1.00  0.00    -0.008 A 
HETATM    6  C13 UNL     1      24.325   4.074   4.872  1.00  0.00     0.102 A 
HETATM    7  N1  UNL     1      23.690   5.277   4.930  1.00  0.00    -0.350 N 
ATOM      8  H1  UNL     1      22.787   5.339   5.401  1.00  0.00     0.166 HD
HETATM    9  C14 UNL     1      24.221   6.388   4.384  1.00  0.00     0.132 A 
HETATM   10  N2  UNL     1      23.855   7.679   4.277  1.00  0.00    -0.285 N 
ATOM     11  H2  UNL     1      22.990   8.069   4.651  1.00  0.00     0.188 HD
HETATM   12  N3  UNL     1      24.771   8.371   3.621  1.00  0.00    -0.309 N 
ATOM     13  H3  UNL     1      24.735   9.367   3.406  1.00  0.00     0.186 HD
HETATM   14  C15 UNL     1      25.754   7.527   3.291  1.00  0.00     0.123 A 
HETATM   15  C16 UNL     1      25.442   6.254   3.758  1.00  0.00     0.037 A 
HETATM   16  C17 UNL     1      26.189   2.683   4.195  1.00  0.00     0.034 A 
ENDROOT
BRANCH   1  17
HETATM   17  C7  UNL     1      28.057   1.295   3.517  1.00  0.00    -0.061 C 
HETATM   18  C6  UNL     1      28.602   0.198   3.491  1.00  0.00    -0.061 C 
BRANCH  18  19
HETATM   19  C5  UNL     1      29.233  -1.091   3.485  1.00  0.00     0.018 A 
HETATM   20  C4  UNL     1      28.493  -2.230   3.723  1.00  0.00     0.021 A 
HETATM   21  C3  UNL     1      29.052  -3.483   3.728  1.00  0.00     0.008 A 
HETATM   22  C2  UNL     1      30.393  -3.627   3.491  1.00  0.00    -0.062 A 
HETATM   23  C1  UNL     1      31.072  -4.949   3.480  1.00  0.00     0.048 C 
HETATM   24  C19 UNL     1      31.176  -2.517   3.248  1.00  0.00     0.008 A 
HETATM   25  C18 UNL     1      30.580  -1.261   3.249  1.00  0.00     0.021 A 
ENDBRANCH  18  19
ENDBRANCH   1  17
TORSDOF 2
ENDMDL
MODEL 2
REMARK VINA RESULT: 5.619343256      0.309      1.038
REMARK  2 active torsions:
REMARK  status: ('A' for Active; 'I' for Inactive)
REMARK    1  A    between atoms: C5_5  and  C6_6 
REMARK    2  A    between atoms: C7_7  and  C8_8 
ROOT
HETATM    1  C8  UNL     1      27.323   2.565   3.577  1.00  0.00     0.018 A 
HETATM    2  C9  UNL     1      27.734   3.578   2.739  1.00  0.00     0.021 A 
HETATM    3  C10 UNL     1      27.149   4.823   2.728  1.00  0.00     0.015 A 
HETATM    4  C11 UNL     1      26.102   5.081   3.591  1.00  0.00    -0.009 A 
HETATM    5  C12 UNL     1      25.676   4.079   4.439  1.00  0.00    -0.008 A 
HETATM    6  C13 UNL     1      24.629   4.370   5.288  1.00  0.00     0.102 A 
HETATM    7  N1  UNL     1      24.031   5.594   5.299  1.00  0.00    -0.350 N 
ATOM      8  H1  UNL     1      23.259   5.762   5.945  1.00  0.00     0.166 HD
HETATM    9  C14 UNL     1      24.430   6.587   4.482  1.00  0.00     0.132 A 
HETATM   10  N2  UNL     1      24.057   7.861   4.260  1.00  0.00    -0.285 N 
ATOM     11  H2  UNL     1      23.302   8.338   4.752  1.00  0.00     0.188 HD
HETATM   12  N3  UNL     1      24.804   8.408   3.316  1.00  0.00    -0.309 N 
ATOM     13  H3  UNL     1      24.726   9.361   2.962  1.00  0.00     0.186 HD
HETATM   14  C15 UNL     1      25.681   7.484   2.910  1.00  0.00     0.123 A 
HETATM   15  C16 UNL     1      25.476   6.310   3.627  1.00  0.00     0.037 A 
HETATM   16  C17 UNL     1      26.282   2.818   4.437  1.00  0.00     0.034 A 
ENDROOT
BRANCH   1  17
HETATM   17  C7  UNL     1      27.938   1.268   3.583  1.00  0.00    -0.061 C 
HETATM   18  C6  UNL     1      28.471   0.165   3.571  1.00  0.00    -0.061 C 
BRANCH  18  19
HETATM   19  C5  UNL     1      29.100  -1.125   3.531  1.00  0.00     0.018 A 
HETATM   20  C4  UNL     1      30.474  -1.231   3.577  1.00  0.00     0.021 A 
HETATM   21  C3  UNL     1      31.121  -2.440   3.541  1.00  0.00     0.008 A 
HETATM   22  C2  UNL     1      30.391  -3.596   3.455  1.00  0.00    -0.062 A 
HETATM   23  C1  UNL     1      31.016  -4.943   3.411  1.00  0.00     0.048 C 
HETATM   24  C19 UNL     1      29.012  -3.542   3.406  1.00  0.00     0.008 A 
HETATM   25  C18 UNL     1      28.387  -2.300   3.445  1.00  0.00     0.021 A 
ENDBRANCH  18  19
ENDBRANCH   1  17
TORSDOF 2
ENDMDL
MODEL 3
REMARK VINA RESULT: 6.398967036      4.385     10.263
REMARK  2 active torsions:
REMARK  status: ('A' for Active; 'I' for Inactive)
REMARK    1  A    between atoms: C5_5  and  C6_6 
REMARK    2  A    between atoms: C7_7  and  C8_8 
ROOT
HETATM    1  C8  UNL     1      25.217   6.419   5.219  1.00  0.00     0.018 A 
HETATM    2  C9  UNL     1      24.323   5.740   4.420  1.00  0.00     0.021 A 
HETATM    3  C10 UNL     1      24.651   4.591   3.739  1.00  0.00     0.015 A 
HETATM    4  C11 UNL     1      25.931   4.085   3.854  1.00  0.00    -0.009 A 
HETATM    5  C12 UNL     1      26.841   4.750   4.649  1.00  0.00    -0.008 A 
HETATM    6  C13 UNL     1      28.111   4.218   4.742  1.00  0.00     0.102 A 
HETATM    7  N1  UNL     1      28.463   3.081   4.079  1.00  0.00    -0.350 N 
ATOM      8  H1  UNL     1      29.414   2.725   4.178  1.00  0.00     0.166 HD
HETATM    9  C14 UNL     1      27.592   2.415   3.297  1.00  0.00     0.132 A 
HETATM   10  N2  UNL     1      27.633   1.304   2.539  1.00  0.00    -0.285 N 
ATOM     11  H2  UNL     1      28.453   0.710   2.424  1.00  0.00     0.188 HD
HETATM   12  N3  UNL     1      26.462   1.090   1.962  1.00  0.00    -0.309 N 
ATOM     13  H3  UNL     1      26.229   0.317   1.338  1.00  0.00     0.186 HD
HETATM   14  C15 UNL     1      25.638   2.071   2.345  1.00  0.00     0.123 A 
HETATM   15  C16 UNL     1      26.320   2.936   3.195  1.00  0.00     0.037 A 
HETATM   16  C17 UNL     1      26.491   5.919   5.334  1.00  0.00     0.034 A 
ENDROOT
BRANCH   1  17
HETATM   17  C7  UNL     1      24.868   7.618   5.926  1.00  0.00    -0.061 C 
HETATM   18  C6  UNL     1      24.584   8.638   6.544  1.00  0.00    -0.061 C 
BRANCH  18  19
HETATM   19  C5  UNL     1      24.262   9.821   7.289  1.00  0.00     0.018 A 
HETATM   20  C4  UNL     1      24.115  11.031   6.643  1.00  0.00     0.021 A 
HETATM   21  C3  UNL     1      23.809  12.189   7.312  1.00  0.00     0.008 A 
HETATM   22  C2  UNL     1      23.640  12.162   8.671  1.00  0.00    -0.062 A 
HETATM   23  C1  UNL     1      23.307  13.373   9.467  1.00  0.00     0.048 C 
HETATM   24  C19 UNL     1      23.777  10.975   9.362  1.00  0.00     0.008 A 
HETATM   25  C18 UNL     1      24.087   9.819   8.655  1.00  0.00     0.021 A 
ENDBRANCH  18  19
ENDBRANCH   1  17
TORSDOF 2
ENDMDL
MODEL 4
REMARK VINA RESULT: 6.566110359      0.985      1.717
REMARK  2 active torsions:
REMARK  status: ('A' for Active; 'I' for Inactive)
REMARK    1  A    between atoms: C5_5  and  C6_6 
REMARK    2  A    between atoms: C7_7  and  C8_8 
ROOT
HETATM    1  C8  UNL     1      27.063   2.314   3.916  1.00  0.00     0.018 A 
HETATM    2  C9  UNL     1      25.701   2.403   3.725  1.00  0.00     0.021 A 
HETATM    3  C10 UNL     1      25.003   3.581   3.852  1.00  0.00     0.015 A 
HETATM    4  C11 UNL     1      25.688   4.733   4.185  1.00  0.00    -0.009 A 
HETATM    5  C12 UNL     1      27.052   4.666   4.380  1.00  0.00    -0.008 A 
HETATM    6  C13 UNL     1      27.704   5.835   4.712  1.00  0.00     0.102 A 
HETATM    7  N1  UNL     1      27.039   7.016   4.845  1.00  0.00    -0.350 N 
ATOM      8  H1  UNL     1      27.564   7.856   5.092  1.00  0.00     0.166 HD
HETATM    9  C14 UNL     1      25.708   7.107   4.659  1.00  0.00     0.132 A 
HETATM   10  N2  UNL     1      24.793   8.092   4.714  1.00  0.00    -0.285 N 
ATOM     11  H2  UNL     1      25.000   9.065   4.938  1.00  0.00     0.188 HD
HETATM   12  N3  UNL     1      23.587   7.624   4.437  1.00  0.00    -0.309 N 
ATOM     13  H3  UNL     1      22.721   8.164   4.412  1.00  0.00     0.186 HD
HETATM   14  C15 UNL     1      23.708   6.315   4.195  1.00  0.00     0.123 A 
HETATM   15  C16 UNL     1      25.043   5.946   4.327  1.00  0.00     0.037 A 
HETATM   16  C17 UNL     1      27.746   3.458   4.248  1.00  0.00     0.034 A 
ENDROOT
BRANCH   1  17
HETATM   17  C7  UNL     1      27.785   1.080   3.781  1.00  0.00    -0.061 C 
HETATM   18  C6  UNL     1      28.398   0.024   3.686  1.00  0.00    -0.061 C 
BRANCH  18  19
HETATM   19  C5  UNL     1      29.120  -1.214   3.601  1.00  0.00     0.018 A 
HETATM   20  C4  UNL     1      28.457  -2.416   3.731  1.00  0.00     0.021 A 
HETATM   21  C3  UNL     1      29.102  -3.624   3.658  1.00  0.00     0.008 A 
HETATM   22  C2  UNL     1      30.456  -3.657   3.448  1.00  0.00    -0.062 A 
HETATM   23  C1  UNL     1      31.227  -4.924   3.356  1.00  0.00     0.048 C 
HETATM   24  C19 UNL     1      31.163  -2.480   3.310  1.00  0.00     0.008 A 
HETATM   25  C18 UNL     1      30.480  -1.272   3.389  1.00  0.00     0.021 A 
ENDBRANCH  18  19
ENDBRANCH   1  17
TORSDOF 2
ENDMDL
MODEL 5
REMARK VINA RESULT: 6.578137138      0.927      2.028
REMARK  2 active torsions:
REMARK  status: ('A' for Active; 'I' for Inactive)
REMARK    1  A    between atoms: C5_5  and  C6_6 
REMARK    2  A    between atoms: C7_7  and  C8_8 
ROOT
HETATM    1  C8  UNL     1      27.145   2.636   4.125  1.00  0.00     0.018 A 
HETATM    2  C9  UNL     1      26.417   3.019   5.231  1.00  0.00     0.021 A 
HETATM    3  C10 UNL     1      25.789   4.239   5.328  1.00  0.00     0.015 A 
HETATM    4  C11 UNL     1      25.884   5.128   4.275  1.00  0.00    -0.009 A 
HETATM    5  C12 UNL     1      26.608   4.764   3.159  1.00  0.00    -0.008 A 
HETATM    6  C13 UNL     1      26.684   5.676   2.126  1.00  0.00     0.102 A 
HETATM    7  N1  UNL     1      26.072   6.891   2.195  1.00  0.00    -0.350 N 
ATOM      8  H1  UNL     1      26.156   7.533   1.406  1.00  0.00     0.166 HD
HETATM    9  C14 UNL     1      25.359   7.268   3.274  1.00  0.00     0.132 A 
HETATM   10  N2  UNL     1      24.662   8.361   3.633  1.00  0.00    -0.285 N 
ATOM     11  H2  UNL     1      24.550   9.194   3.056  1.00  0.00     0.188 HD
HETATM   12  N3  UNL     1      24.141   8.206   4.839  1.00  0.00    -0.309 N 
ATOM     13  H3  UNL     1      23.570   8.886   5.341  1.00  0.00     0.186 HD
HETATM   14  C15 UNL     1      24.498   6.996   5.281  1.00  0.00     0.123 A 
HETATM   15  C16 UNL     1      25.276   6.366   4.313  1.00  0.00     0.037 A 
HETATM   16  C17 UNL     1      27.242   3.519   3.077  1.00  0.00     0.034 A 
ENDROOT
BRANCH   1  17
HETATM   17  C7  UNL     1      27.798   1.361   4.031  1.00  0.00    -0.061 C 
HETATM   18  C6  UNL     1      28.357   0.276   3.931  1.00  0.00    -0.061 C 
BRANCH  18  19
HETATM   19  C5  UNL     1      29.006  -0.996   3.788  1.00  0.00     0.018 A 
HETATM   20  C4  UNL     1      30.369  -1.063   3.588  1.00  0.00     0.021 A 
HETATM   21  C3  UNL     1      31.034  -2.255   3.445  1.00  0.00     0.008 A 
HETATM   22  C2  UNL     1      30.334  -3.432   3.500  1.00  0.00    -0.062 A 
HETATM   23  C1  UNL     1      30.981  -4.762   3.355  1.00  0.00     0.048 C 
HETATM   24  C19 UNL     1      28.969  -3.416   3.699  1.00  0.00     0.008 A 
HETATM   25  C18 UNL     1      28.324  -2.192   3.840  1.00  0.00     0.021 A 
ENDBRANCH  18  19
ENDBRANCH   1  17
TORSDOF 2
ENDMDL
