MODEL 1
REMARK VINA RESULT: -7.744778763      0.000      0.000
REMARK  12 active torsions:
REMARK  status: ('A' for Active; 'I' for Inactive)
REMARK    1  A    between atoms: C2_2  and  C3_3 
REMARK    2  A    between atoms: C3_3  and  C4_4 
REMARK    3  A    between atoms: C4_4  and  C5_5 
REMARK    4  A    between atoms: C5_5  and  C6_6 
REMARK    5  A    between atoms: C6_6  and  C7_7 
REMARK    6  A    between atoms: C7_7  and  C8_8 
REMARK    7  A    between atoms: C8_8  and  C9_9 
REMARK    8  A    between atoms: C9_9  and  C10_10 
REMARK    9  A    between atoms: C10_10  and  C11_11 
REMARK   10  A    between atoms: C11_11  and  C12_12 
REMARK   11  A    between atoms: C12_12  and  C13_13 
REMARK   12  A    between atoms: N1_22  and  C19_23 
ROOT
HETATM    1  C13 UNL     1      30.770  30.913  16.770  1.00  0.00     0.187 C 
HETATM    2  C14 UNL     1      31.282  30.529  18.098  1.00  0.00     0.284 C 
HETATM    3  O1  UNL     1      32.453  30.722  18.418  1.00  0.00    -0.263 OA
HETATM    4  O2  UNL     1      30.390  29.940  18.967  1.00  0.00    -0.286 OA
HETATM    5  C15 UNL     1      29.119  29.496  18.464  1.00  0.00     0.292 C 
HETATM    6  O3  UNL     1      28.761  28.390  19.221  1.00  0.00    -0.359 OA
HETATM    7  C16 UNL     1      28.552  27.310  18.414  1.00  0.00     0.173 C 
HETATM    8  C17 UNL     1      29.516  27.566  17.247  1.00  0.00     0.057 C 
HETATM    9  C18 UNL     1      29.197  29.036  17.029  1.00  0.00     0.145 C 
HETATM   10  N1  UNL     1      30.164  29.720  16.228  1.00  0.00    -0.336 N 
ENDROOT
BRANCH   1  11
HETATM   11  C12 UNL     1      31.755  31.543  15.853  1.00  0.00     0.035 C 
BRANCH  11  12
HETATM   12  C11 UNL     1      31.393  32.952  15.434  1.00  0.00     0.002 C 
BRANCH  12  13
HETATM   13  C10 UNL     1      30.212  33.005  14.540  1.00  0.00     0.000 C 
BRANCH  13  14
HETATM   14  C9  UNL     1      30.277  34.206  13.631  1.00  0.00     0.000 C 
BRANCH  14  15
HETATM   15  C8  UNL     1      31.574  34.283  12.922  1.00  0.00     0.000 C 
BRANCH  15  16
HETATM   16  C7  UNL     1      32.120  35.697  12.728  1.00  0.00     0.004 C 
BRANCH  16  17
HETATM   17  C6  UNL     1      32.080  36.457  14.011  1.00  0.00     0.027 C 
BRANCH  17  18
HETATM   18  C5  UNL     1      33.345  37.007  14.520  1.00  0.00    -0.031 C 
BRANCH  18  19
HETATM   19  C4  UNL     1      33.869  38.311  14.141  1.00  0.00    -0.031 C 
BRANCH  19  20
HETATM   20  C3  UNL     1      32.990  39.419  13.722  1.00  0.00     0.026 C 
BRANCH  20  21
HETATM   21  C2  UNL     1      32.590  40.155  15.034  1.00  0.00    -0.001 C 
HETATM   22  C1  UNL     1      33.852  40.695  15.671  1.00  0.00     0.005 C 
ENDBRANCH  20  21
ENDBRANCH  19  20
ENDBRANCH  18  19
ENDBRANCH  17  18
ENDBRANCH  16  17
ENDBRANCH  15  16
ENDBRANCH  14  15
ENDBRANCH  13  14
ENDBRANCH  12  13
ENDBRANCH  11  12
ENDBRANCH   1  11
BRANCH  10  23
HETATM   23  C19 UNL     1      30.519  29.255  14.956  1.00  0.00     0.352 C 
HETATM   24  O4  UNL     1      29.756  29.364  13.948  1.00  0.00    -0.283 OA
ENDBRANCH  10  23
TORSDOF 12
ENDMDL
MODEL 2
REMARK VINA RESULT: -7.685705919      1.376      2.650
REMARK  12 active torsions:
REMARK  status: ('A' for Active; 'I' for Inactive)
REMARK    1  A    between atoms: C2_2  and  C3_3 
REMARK    2  A    between atoms: C3_3  and  C4_4 
REMARK    3  A    between atoms: C4_4  and  C5_5 
REMARK    4  A    between atoms: C5_5  and  C6_6 
REMARK    5  A    between atoms: C6_6  and  C7_7 
REMARK    6  A    between atoms: C7_7  and  C8_8 
REMARK    7  A    between atoms: C8_8  and  C9_9 
REMARK    8  A    between atoms: C9_9  and  C10_10 
REMARK    9  A    between atoms: C10_10  and  C11_11 
REMARK   10  A    between atoms: C11_11  and  C12_12 
REMARK   11  A    between atoms: C12_12  and  C13_13 
REMARK   12  A    between atoms: N1_22  and  C19_23 
ROOT
HETATM    1  C13 UNL     1      31.157  31.350  15.357  1.00  0.00     0.187 C 
HETATM    2  C14 UNL     1      29.696  31.415  15.167  1.00  0.00     0.284 C 
HETATM    3  O1  UNL     1      29.137  32.453  14.820  1.00  0.00    -0.263 OA
HETATM    4  O2  UNL     1      28.983  30.260  15.399  1.00  0.00    -0.286 OA
HETATM    5  C15 UNL     1      29.636  29.158  16.052  1.00  0.00     0.292 C 
HETATM    6  O3  UNL     1      28.658  28.499  16.783  1.00  0.00    -0.359 OA
HETATM    7  C16 UNL     1      29.008  28.442  18.100  1.00  0.00     0.173 C 
HETATM    8  C17 UNL     1      29.830  29.725  18.288  1.00  0.00     0.057 C 
HETATM    9  C18 UNL     1      30.684  29.613  17.037  1.00  0.00     0.145 C 
HETATM   10  N1  UNL     1      31.353  30.829  16.688  1.00  0.00    -0.336 N 
ENDROOT
BRANCH   1  11
HETATM   11  C12 UNL     1      31.900  32.613  15.103  1.00  0.00     0.035 C 
BRANCH  11  12
HETATM   12  C11 UNL     1      32.927  32.510  13.996  1.00  0.00     0.002 C 
BRANCH  12  13
HETATM   13  C10 UNL     1      32.607  33.365  12.828  1.00  0.00     0.000 C 
BRANCH  13  14
HETATM   14  C9  UNL     1      31.543  34.376  13.175  1.00  0.00     0.000 C 
BRANCH  14  15
HETATM   15  C8  UNL     1      32.072  35.758  13.140  1.00  0.00     0.000 C 
BRANCH  15  16
HETATM   16  C7  UNL     1      32.461  36.334  14.501  1.00  0.00     0.004 C 
BRANCH  16  17
HETATM   17  C6  UNL     1      33.516  37.378  14.349  1.00  0.00     0.027 C 
BRANCH  17  18
HETATM   18  C5  UNL     1      33.163  38.606  13.621  1.00  0.00    -0.031 C 
BRANCH  18  19
HETATM   19  C4  UNL     1      33.126  39.925  14.234  1.00  0.00    -0.031 C 
BRANCH  19  20
HETATM   20  C3  UNL     1      32.163  40.271  15.296  1.00  0.00     0.026 C 
BRANCH  20  21
HETATM   21  C2  UNL     1      32.845  41.394  16.130  1.00  0.00    -0.001 C 
HETATM   22  C1  UNL     1      34.334  41.122  16.154  1.00  0.00     0.005 C 
ENDBRANCH  20  21
ENDBRANCH  19  20
ENDBRANCH  18  19
ENDBRANCH  17  18
ENDBRANCH  16  17
ENDBRANCH  15  16
ENDBRANCH  14  15
ENDBRANCH  13  14
ENDBRANCH  12  13
ENDBRANCH  11  12
ENDBRANCH   1  11
BRANCH  10  23
HETATM   23  C19 UNL     1      32.173  31.499  17.603  1.00  0.00     0.352 C 
HETATM   24  O4  UNL     1      32.751  30.910  18.567  1.00  0.00    -0.283 OA
ENDBRANCH  10  23
TORSDOF 12
ENDMDL
MODEL 3
REMARK VINA RESULT: -7.613078338      1.183      2.635
REMARK  12 active torsions:
REMARK  status: ('A' for Active; 'I' for Inactive)
REMARK    1  A    between atoms: C2_2  and  C3_3 
REMARK    2  A    between atoms: C3_3  and  C4_4 
REMARK    3  A    between atoms: C4_4  and  C5_5 
REMARK    4  A    between atoms: C5_5  and  C6_6 
REMARK    5  A    between atoms: C6_6  and  C7_7 
REMARK    6  A    between atoms: C7_7  and  C8_8 
REMARK    7  A    between atoms: C8_8  and  C9_9 
REMARK    8  A    between atoms: C9_9  and  C10_10 
REMARK    9  A    between atoms: C10_10  and  C11_11 
REMARK   10  A    between atoms: C11_11  and  C12_12 
REMARK   11  A    between atoms: C12_12  and  C13_13 
REMARK   12  A    between atoms: N1_22  and  C19_23 
ROOT
HETATM    1  C13 UNL     1      30.366  30.219  15.583  1.00  0.00     0.187 C 
HETATM    2  C14 UNL     1      29.372  29.820  14.569  1.00  0.00     0.284 C 
HETATM    3  O1  UNL     1      28.666  30.647  13.999  1.00  0.00    -0.263 OA
HETATM    4  O2  UNL     1      29.268  28.475  14.292  1.00  0.00    -0.286 OA
HETATM    5  C15 UNL     1      29.915  27.532  15.163  1.00  0.00     0.292 C 
HETATM    6  O3  UNL     1      29.134  26.385  15.149  1.00  0.00    -0.359 OA
HETATM    7  C16 UNL     1      28.741  26.063  16.415  1.00  0.00     0.173 C 
HETATM    8  C17 UNL     1      28.652  27.434  17.101  1.00  0.00     0.057 C 
HETATM    9  C18 UNL     1      29.963  28.010  16.593  1.00  0.00     0.145 C 
HETATM   10  N1  UNL     1      30.068  29.428  16.752  1.00  0.00    -0.336 N 
ENDROOT
BRANCH   1  11
HETATM   11  C12 UNL     1      30.455  31.676  15.865  1.00  0.00     0.035 C 
BRANCH  11  12
HETATM   12  C11 UNL     1      31.825  32.269  15.615  1.00  0.00     0.002 C 
BRANCH  12  13
HETATM   13  C10 UNL     1      32.064  32.593  14.188  1.00  0.00     0.000 C 
BRANCH  13  14
HETATM   14  C9  UNL     1      31.266  33.802  13.769  1.00  0.00     0.000 C 
BRANCH  14  15
HETATM   15  C8  UNL     1      31.846  34.448  12.570  1.00  0.00     0.000 C 
BRANCH  15  16
HETATM   16  C7  UNL     1      32.066  35.956  12.692  1.00  0.00     0.004 C 
BRANCH  16  17
HETATM   17  C6  UNL     1      32.125  36.365  14.125  1.00  0.00     0.027 C 
BRANCH  17  18
HETATM   18  C5  UNL     1      33.353  37.021  14.599  1.00  0.00    -0.031 C 
BRANCH  18  19
HETATM   19  C4  UNL     1      33.848  38.283  14.073  1.00  0.00    -0.031 C 
BRANCH  19  20
HETATM   20  C3  UNL     1      32.955  39.425  13.799  1.00  0.00     0.026 C 
BRANCH  20  21
HETATM   21  C2  UNL     1      32.642  40.053  15.188  1.00  0.00    -0.001 C 
HETATM   22  C1  UNL     1      33.902  40.721  15.696  1.00  0.00     0.005 C 
ENDBRANCH  20  21
ENDBRANCH  19  20
ENDBRANCH  18  19
ENDBRANCH  17  18
ENDBRANCH  16  17
ENDBRANCH  15  16
ENDBRANCH  14  15
ENDBRANCH  13  14
ENDBRANCH  12  13
ENDBRANCH  11  12
ENDBRANCH   1  11
BRANCH  10  23
HETATM   23  C19 UNL     1      29.888  30.037  18.000  1.00  0.00     0.352 C 
HETATM   24  O4  UNL     1      30.730  29.931  18.943  1.00  0.00    -0.283 OA
ENDBRANCH  10  23
TORSDOF 12
ENDMDL
MODEL 4
REMARK VINA RESULT: -7.611031240      1.445      3.150
REMARK  12 active torsions:
REMARK  status: ('A' for Active; 'I' for Inactive)
REMARK    1  A    between atoms: C2_2  and  C3_3 
REMARK    2  A    between atoms: C3_3  and  C4_4 
REMARK    3  A    between atoms: C4_4  and  C5_5 
REMARK    4  A    between atoms: C5_5  and  C6_6 
REMARK    5  A    between atoms: C6_6  and  C7_7 
REMARK    6  A    between atoms: C7_7  and  C8_8 
REMARK    7  A    between atoms: C8_8  and  C9_9 
REMARK    8  A    between atoms: C9_9  and  C10_10 
REMARK    9  A    between atoms: C10_10  and  C11_11 
REMARK   10  A    between atoms: C11_11  and  C12_12 
REMARK   11  A    between atoms: C12_12  and  C13_13 
REMARK   12  A    between atoms: N1_22  and  C19_23 
ROOT
HETATM    1  C13 UNL     1      29.376  30.260  14.671  1.00  0.00     0.187 C 
HETATM    2  C14 UNL     1      28.665  29.440  13.673  1.00  0.00     0.284 C 
HETATM    3  O1  UNL     1      27.667  29.855  13.091  1.00  0.00    -0.263 OA
HETATM    4  O2  UNL     1      29.168  28.182  13.425  1.00  0.00    -0.286 OA
HETATM    5  C15 UNL     1      30.164  27.643  14.310  1.00  0.00     0.292 C 
HETATM    6  O3  UNL     1      29.973  26.269  14.326  1.00  0.00    -0.359 OA
HETATM    7  C16 UNL     1      29.761  25.834  15.602  1.00  0.00     0.173 C 
HETATM    8  C17 UNL     1      29.072  27.038  16.259  1.00  0.00     0.057 C 
HETATM    9  C18 UNL     1      29.993  28.124  15.729  1.00  0.00     0.145 C 
HETATM   10  N1  UNL     1      29.457  29.444  15.859  1.00  0.00    -0.336 N 
ENDROOT
BRANCH   1  11
HETATM   11  C12 UNL     1      28.809  31.611  14.922  1.00  0.00     0.035 C 
BRANCH  11  12
HETATM   12  C11 UNL     1      29.693  32.747  14.452  1.00  0.00     0.002 C 
BRANCH  12  13
HETATM   13  C10 UNL     1      31.115  32.567  14.829  1.00  0.00     0.000 C 
BRANCH  13  14
HETATM   14  C9  UNL     1      32.023  33.307  13.880  1.00  0.00     0.000 C 
BRANCH  14  15
HETATM   15  C8  UNL     1      31.311  34.404  13.187  1.00  0.00     0.000 C 
BRANCH  15  16
HETATM   16  C7  UNL     1      32.112  35.695  13.029  1.00  0.00     0.004 C 
BRANCH  16  17
HETATM   17  C6  UNL     1      32.451  36.272  14.362  1.00  0.00     0.027 C 
BRANCH  17  18
HETATM   18  C5  UNL     1      33.382  37.409  14.399  1.00  0.00    -0.031 C 
BRANCH  18  19
HETATM   19  C4  UNL     1      33.224  38.608  13.590  1.00  0.00    -0.031 C 
BRANCH  19  20
HETATM   20  C3  UNL     1      33.063  39.946  14.191  1.00  0.00     0.026 C 
BRANCH  20  21
HETATM   21  C2  UNL     1      33.919  39.926  15.491  1.00  0.00    -0.001 C 
HETATM   22  C1  UNL     1      34.054  41.351  15.984  1.00  0.00     0.005 C 
ENDBRANCH  20  21
ENDBRANCH  19  20
ENDBRANCH  18  19
ENDBRANCH  17  18
ENDBRANCH  16  17
ENDBRANCH  15  16
ENDBRANCH  14  15
ENDBRANCH  13  14
ENDBRANCH  12  13
ENDBRANCH  11  12
ENDBRANCH   1  11
BRANCH  10  23
HETATM   23  C19 UNL     1      29.023  29.938  17.094  1.00  0.00     0.352 C 
HETATM   24  O4  UNL     1      29.814  30.158  18.062  1.00  0.00    -0.283 OA
ENDBRANCH  10  23
TORSDOF 12
ENDMDL
MODEL 5
REMARK VINA RESULT: -7.605710007      1.412      2.673
REMARK  12 active torsions:
REMARK  status: ('A' for Active; 'I' for Inactive)
REMARK    1  A    between atoms: C2_2  and  C3_3 
REMARK    2  A    between atoms: C3_3  and  C4_4 
REMARK    3  A    between atoms: C4_4  and  C5_5 
REMARK    4  A    between atoms: C5_5  and  C6_6 
REMARK    5  A    between atoms: C6_6  and  C7_7 
REMARK    6  A    between atoms: C7_7  and  C8_8 
REMARK    7  A    between atoms: C8_8  and  C9_9 
REMARK    8  A    between atoms: C9_9  and  C10_10 
REMARK    9  A    between atoms: C10_10  and  C11_11 
REMARK   10  A    between atoms: C11_11  and  C12_12 
REMARK   11  A    between atoms: C12_12  and  C13_13 
REMARK   12  A    between atoms: N1_22  and  C19_23 
ROOT
HETATM    1  C13 UNL     1      30.805  29.598  15.143  1.00  0.00     0.187 C 
HETATM    2  C14 UNL     1      29.381  29.252  14.982  1.00  0.00     0.284 C 
HETATM    3  O1  UNL     1      28.673  29.810  14.148  1.00  0.00    -0.263 OA
HETATM    4  O2  UNL     1      28.877  28.275  15.811  1.00  0.00    -0.286 OA
HETATM    5  C15 UNL     1      29.661  27.844  16.936  1.00  0.00     0.292 C 
HETATM    6  O3  UNL     1      28.760  27.485  17.929  1.00  0.00    -0.359 OA
HETATM    7  C16 UNL     1      28.994  28.203  19.065  1.00  0.00     0.173 C 
HETATM    8  C17 UNL     1      29.544  29.529  18.520  1.00  0.00     0.057 C 
HETATM    9  C18 UNL     1      30.513  28.953  17.502  1.00  0.00     0.145 C 
HETATM   10  N1  UNL     1      30.974  29.909  16.542  1.00  0.00    -0.336 N 
ENDROOT
BRANCH   1  11
HETATM   11  C12 UNL     1      31.321  30.657  14.238  1.00  0.00     0.035 C 
BRANCH  11  12
HETATM   12  C11 UNL     1      32.439  30.197  13.326  1.00  0.00     0.002 C 
BRANCH  12  13
HETATM   13  C10 UNL     1      33.344  31.298  12.919  1.00  0.00     0.000 C 
BRANCH  13  14
HETATM   14  C9  UNL     1      32.958  32.591  13.591  1.00  0.00     0.000 C 
BRANCH  14  15
HETATM   15  C8  UNL     1      32.572  33.625  12.605  1.00  0.00     0.000 C 
BRANCH  15  16
HETATM   16  C7  UNL     1      31.558  34.651  13.109  1.00  0.00     0.004 C 
BRANCH  16  17
HETATM   17  C6  UNL     1      32.142  36.024  13.087  1.00  0.00     0.027 C 
BRANCH  17  18
HETATM   18  C5  UNL     1      32.931  36.450  14.252  1.00  0.00    -0.031 C 
BRANCH  18  19
HETATM   19  C4  UNL     1      33.561  37.757  14.365  1.00  0.00    -0.031 C 
BRANCH  19  20
HETATM   20  C3  UNL     1      33.148  38.903  13.532  1.00  0.00     0.026 C 
BRANCH  20  21
HETATM   21  C2  UNL     1      33.186  40.140  14.475  1.00  0.00    -0.001 C 
HETATM   22  C1  UNL     1      31.958  40.094  15.358  1.00  0.00     0.005 C 
ENDBRANCH  20  21
ENDBRANCH  19  20
ENDBRANCH  18  19
ENDBRANCH  17  18
ENDBRANCH  16  17
ENDBRANCH  15  16
ENDBRANCH  14  15
ENDBRANCH  13  14
ENDBRANCH  12  13
ENDBRANCH  11  12
ENDBRANCH   1  11
BRANCH  10  23
HETATM   23  C19 UNL     1      31.570  31.111  16.939  1.00  0.00     0.352 C 
HETATM   24  O4  UNL     1      32.444  31.174  17.856  1.00  0.00    -0.283 OA
ENDBRANCH  10  23
TORSDOF 12
ENDMDL
