MODEL 1
REMARK VINA RESULT: -7.693140095      0.000      0.000
REMARK  12 active torsions:
REMARK  status: ('A' for Active; 'I' for Inactive)
REMARK    1  A    between atoms: C2_2  and  C3_3 
REMARK    2  A    between atoms: C3_3  and  C4_4 
REMARK    3  A    between atoms: C4_4  and  C5_5 
REMARK    4  A    between atoms: C5_5  and  C6_6 
REMARK    5  A    between atoms: C6_6  and  C7_7 
REMARK    6  A    between atoms: C7_7  and  C8_8 
REMARK    7  A    between atoms: C8_8  and  C9_9 
REMARK    8  A    between atoms: C9_9  and  C10_10 
REMARK    9  A    between atoms: N2_12  and  C11_14 
REMARK   10  A    between atoms: C11_14  and  C12_15 
REMARK   11  A    between atoms: C12_15  and  N3_16 
REMARK   12  A    between atoms: C15_19  and  N4_20 
ROOT
HETATM    1  N3  UNL     1      15.387  -5.873  18.474  1.00  0.00     0.088 N 
HETATM    2  C13 UNL     1      15.219  -7.194  19.113  1.00  0.00     0.310 C 
HETATM    3  C14 UNL     1      14.223  -5.120  18.682  1.00  0.00     0.298 C 
HETATM    4  C15 UNL     1      13.141  -5.040  17.697  1.00  0.00     0.140 C 
HETATM    5  C17 UNL     1      13.047  -6.105  16.671  1.00  0.00     0.300 C 
HETATM    6  N7  UNL     1      14.022  -5.757  15.652  1.00  0.00     0.114 N 
HETATM    7  C18 UNL     1      14.094  -6.718  14.579  1.00  0.00     0.312 C 
HETATM    8  C19 UNL     1      15.250  -5.290  16.159  1.00  0.00     0.541 C 
HETATM    9  N8  UNL     1      15.919  -5.971  17.215  1.00  0.00     0.106 N 
HETATM   10  C20 UNL     1      16.244  -7.364  16.858  1.00  0.00     0.311 C 
HETATM   11  C21 UNL     1      17.282  -5.370  17.123  1.00  0.00     0.311 C 
ENDROOT
BRANCH   1  12
HETATM   12  C12 UNL     1      16.408  -5.291  19.383  1.00  0.00     0.291 C 
BRANCH  12  13
HETATM   13  C11 UNL     1      15.733  -4.543  20.542  1.00  0.00     0.150 C 
BRANCH  13  14
HETATM   14  N2  UNL     1      16.156  -5.255  21.735  1.00  0.00    -0.380 N 
HETATM   15  C10 UNL     1      15.234  -5.724  22.504  1.00  0.00     0.088 C 
HETATM   16  N1  UNL     1      13.835  -5.575  22.233  1.00  0.00    -0.088 NA
ATOM     17  H2  UNL     1      17.143  -5.378  21.956  1.00  0.00     0.160 HD
BRANCH  15  18
HETATM   18  C9  UNL     1      15.560  -6.473  23.758  1.00  0.00     0.073 C 
BRANCH  18  19
HETATM   19  C8  UNL     1      15.005  -7.862  23.632  1.00  0.00     0.007 C 
BRANCH  19  20
HETATM   20  C7  UNL     1      15.473  -8.522  22.374  1.00  0.00     0.000 C 
BRANCH  20  21
HETATM   21  C6  UNL     1      16.630  -9.446  22.569  1.00  0.00     0.000 C 
BRANCH  21  22
HETATM   22  C5  UNL     1      17.904  -8.618  22.360  1.00  0.00     0.000 C 
BRANCH  22  23
HETATM   23  C4  UNL     1      18.955  -9.016  23.382  1.00  0.00     0.000 C 
BRANCH  23  24
HETATM   24  C3  UNL     1      18.448  -8.640  24.744  1.00  0.00    -0.000 C 
BRANCH  24  25
HETATM   25  C2  UNL     1      18.674  -9.731  25.757  1.00  0.00    -0.005 C 
HETATM   26  C1  UNL     1      17.400 -10.408  26.150  1.00  0.00     0.005 C 
ENDBRANCH  24  25
ENDBRANCH  23  24
ENDBRANCH  22  23
ENDBRANCH  21  22
ENDBRANCH  20  21
ENDBRANCH  19  20
ENDBRANCH  18  19
ENDBRANCH  15  18
ENDBRANCH  13  14
ENDBRANCH  12  13
ENDBRANCH   1  12
BRANCH   4  27
HETATM   27  N4  UNL     1      11.837  -4.860  18.292  1.00  0.00    -0.359 N 
HETATM   28  C16 UNL     1      10.969  -3.991  18.066  1.00  0.00     0.197 C 
HETATM   29  N5  UNL     1      11.167  -2.975  17.108  1.00  0.00    -0.067 NA
HETATM   30  N6  UNL     1       9.750  -4.026  18.793  1.00  0.00    -0.067 NA
ATOM     31  H4  UNL     1      11.588  -5.546  19.004  1.00  0.00     0.162 HD
ENDBRANCH   4  27
TORSDOF 12
ENDMDL
MODEL 2
REMARK VINA RESULT: -7.607675933      5.048      8.738
REMARK  12 active torsions:
REMARK  status: ('A' for Active; 'I' for Inactive)
REMARK    1  A    between atoms: C2_2  and  C3_3 
REMARK    2  A    between atoms: C3_3  and  C4_4 
REMARK    3  A    between atoms: C4_4  and  C5_5 
REMARK    4  A    between atoms: C5_5  and  C6_6 
REMARK    5  A    between atoms: C6_6  and  C7_7 
REMARK    6  A    between atoms: C7_7  and  C8_8 
REMARK    7  A    between atoms: C8_8  and  C9_9 
REMARK    8  A    between atoms: C9_9  and  C10_10 
REMARK    9  A    between atoms: N2_12  and  C11_14 
REMARK   10  A    between atoms: C11_14  and  C12_15 
REMARK   11  A    between atoms: C12_15  and  N3_16 
REMARK   12  A    between atoms: C15_19  and  N4_20 
ROOT
HETATM    1  N3  UNL     1       7.382  -2.919  15.401  1.00  0.00     0.088 N 
HETATM    2  C13 UNL     1       7.925  -1.658  15.946  1.00  0.00     0.310 C 
HETATM    3  C14 UNL     1       7.162  -2.757  14.026  1.00  0.00     0.298 C 
HETATM    4  C15 UNL     1       5.857  -2.392  13.466  1.00  0.00     0.140 C 
HETATM    5  C17 UNL     1       4.869  -1.743  14.359  1.00  0.00     0.300 C 
HETATM    6  N7  UNL     1       4.259  -2.820  15.119  1.00  0.00     0.114 N 
HETATM    7  C18 UNL     1       3.285  -2.362  16.079  1.00  0.00     0.312 C 
HETATM    8  C19 UNL     1       5.165  -3.801  15.566  1.00  0.00     0.541 C 
HETATM    9  N8  UNL     1       6.392  -3.441  16.192  1.00  0.00     0.106 N 
HETATM   10  C20 UNL     1       6.179  -2.642  17.412  1.00  0.00     0.311 C 
HETATM   11  C21 UNL     1       6.786  -4.739  16.815  1.00  0.00     0.311 C 
ENDROOT
BRANCH   1  12
HETATM   12  C12 UNL     1       8.591  -3.774  15.515  1.00  0.00     0.291 C 
BRANCH  12  13
HETATM   13  C11 UNL     1       9.717  -3.022  16.239  1.00  0.00     0.150 C 
BRANCH  13  14
HETATM   14  N2  UNL     1      10.638  -4.060  16.666  1.00  0.00    -0.380 N 
HETATM   15  C10 UNL     1      10.584  -4.431  17.899  1.00  0.00     0.088 C 
HETATM   16  N1  UNL     1       9.668  -3.870  18.848  1.00  0.00    -0.088 NA
ATOM     17  H2  UNL     1      11.302  -4.480  16.016  1.00  0.00     0.160 HD
BRANCH  15  18
HETATM   18  C9  UNL     1      11.488  -5.493  18.443  1.00  0.00     0.073 C 
BRANCH  18  19
HETATM   19  C8  UNL     1      12.857  -5.283  17.867  1.00  0.00     0.007 C 
BRANCH  19  20
HETATM   20  C7  UNL     1      13.916  -5.857  18.754  1.00  0.00     0.000 C 
BRANCH  20  21
HETATM   21  C6  UNL     1      13.418  -6.282  20.096  1.00  0.00     0.000 C 
BRANCH  21  22
HETATM   22  C5  UNL     1      14.170  -5.445  21.137  1.00  0.00     0.000 C 
BRANCH  22  23
HETATM   23  C4  UNL     1      13.350  -4.222  21.511  1.00  0.00     0.000 C 
BRANCH  23  24
HETATM   24  C3  UNL     1      14.288  -3.059  21.662  1.00  0.00    -0.000 C 
BRANCH  24  25
HETATM   25  C2  UNL     1      14.890  -2.639  20.348  1.00  0.00    -0.005 C 
HETATM   26  C1  UNL     1      13.867  -2.078  19.413  1.00  0.00     0.005 C 
ENDBRANCH  24  25
ENDBRANCH  23  24
ENDBRANCH  22  23
ENDBRANCH  21  22
ENDBRANCH  20  21
ENDBRANCH  19  20
ENDBRANCH  18  19
ENDBRANCH  15  18
ENDBRANCH  13  14
ENDBRANCH  12  13
ENDBRANCH   1  12
BRANCH   4  27
HETATM   27  N4  UNL     1       5.953  -1.619  12.250  1.00  0.00    -0.359 N 
HETATM   28  C16 UNL     1       5.644  -1.931  11.080  1.00  0.00     0.197 C 
HETATM   29  N5  UNL     1       5.111  -3.198  10.764  1.00  0.00    -0.067 NA
HETATM   30  N6  UNL     1       5.836  -0.984  10.039  1.00  0.00    -0.067 NA
ATOM     31  H4  UNL     1       6.328  -0.678  12.363  1.00  0.00     0.162 HD
ENDBRANCH   4  27
TORSDOF 12
ENDMDL
MODEL 3
REMARK VINA RESULT: -7.560140172      5.156      8.756
REMARK  12 active torsions:
REMARK  status: ('A' for Active; 'I' for Inactive)
REMARK    1  A    between atoms: C2_2  and  C3_3 
REMARK    2  A    between atoms: C3_3  and  C4_4 
REMARK    3  A    between atoms: C4_4  and  C5_5 
REMARK    4  A    between atoms: C5_5  and  C6_6 
REMARK    5  A    between atoms: C6_6  and  C7_7 
REMARK    6  A    between atoms: C7_7  and  C8_8 
REMARK    7  A    between atoms: C8_8  and  C9_9 
REMARK    8  A    between atoms: C9_9  and  C10_10 
REMARK    9  A    between atoms: N2_12  and  C11_14 
REMARK   10  A    between atoms: C11_14  and  C12_15 
REMARK   11  A    between atoms: C12_15  and  N3_16 
REMARK   12  A    between atoms: C15_19  and  N4_20 
ROOT
HETATM    1  N3  UNL     1       7.052  -2.954  15.472  1.00  0.00     0.088 N 
HETATM    2  C13 UNL     1       7.571  -1.712  16.079  1.00  0.00     0.310 C 
HETATM    3  C14 UNL     1       6.900  -2.753  14.093  1.00  0.00     0.298 C 
HETATM    4  C15 UNL     1       5.626  -2.365  13.481  1.00  0.00     0.140 C 
HETATM    5  C17 UNL     1       4.598  -1.737  14.342  1.00  0.00     0.300 C 
HETATM    6  N7  UNL     1       3.946  -2.832  15.040  1.00  0.00     0.114 N 
HETATM    7  C18 UNL     1       2.928  -2.396  15.963  1.00  0.00     0.312 C 
HETATM    8  C19 UNL     1       4.826  -3.830  15.503  1.00  0.00     0.541 C 
HETATM    9  N8  UNL     1       6.022  -3.493  16.199  1.00  0.00     0.106 N 
HETATM   10  C20 UNL     1       5.751  -2.728  17.428  1.00  0.00     0.311 C 
HETATM   11  C21 UNL     1       6.380  -4.810  16.803  1.00  0.00     0.311 C 
ENDROOT
BRANCH   1  12
HETATM   12  C12 UNL     1       8.250  -3.819  15.621  1.00  0.00     0.291 C 
BRANCH  12  13
HETATM   13  C11 UNL     1       9.403  -3.034  16.263  1.00  0.00     0.150 C 
BRANCH  13  14
HETATM   14  N2  UNL     1      10.403  -4.040  16.579  1.00  0.00    -0.380 N 
HETATM   15  C10 UNL     1      10.501  -4.413  17.808  1.00  0.00     0.088 C 
HETATM   16  N1  UNL     1       9.679  -3.885  18.857  1.00  0.00    -0.088 NA
ATOM     17  H2  UNL     1      11.002  -4.436  15.855  1.00  0.00     0.160 HD
BRANCH  15  18
HETATM   18  C9  UNL     1      11.497  -5.444  18.242  1.00  0.00     0.073 C 
BRANCH  18  19
HETATM   19  C8  UNL     1      12.289  -4.878  19.384  1.00  0.00     0.007 C 
BRANCH  19  20
HETATM   20  C7  UNL     1      13.488  -4.128  18.897  1.00  0.00     0.000 C 
BRANCH  20  21
HETATM   21  C6  UNL     1      13.466  -2.671  19.222  1.00  0.00     0.000 C 
BRANCH  21  22
HETATM   22  C5  UNL     1      14.740  -2.372  20.021  1.00  0.00     0.000 C 
BRANCH  22  23
HETATM   23  C4  UNL     1      14.622  -2.953  21.420  1.00  0.00     0.000 C 
BRANCH  23  24
HETATM   24  C3  UNL     1      15.845  -3.783  21.686  1.00  0.00    -0.000 C 
BRANCH  24  25
HETATM   25  C2  UNL     1      15.500  -5.200  22.061  1.00  0.00    -0.005 C 
HETATM   26  C1  UNL     1      14.114  -5.316  22.609  1.00  0.00     0.005 C 
ENDBRANCH  24  25
ENDBRANCH  23  24
ENDBRANCH  22  23
ENDBRANCH  21  22
ENDBRANCH  20  21
ENDBRANCH  19  20
ENDBRANCH  18  19
ENDBRANCH  15  18
ENDBRANCH  13  14
ENDBRANCH  12  13
ENDBRANCH   1  12
BRANCH   4  27
HETATM   27  N4  UNL     1       5.784  -1.559  12.293  1.00  0.00    -0.359 N 
HETATM   28  C16 UNL     1       5.601  -1.859  11.094  1.00  0.00     0.197 C 
HETATM   29  N5  UNL     1       5.175  -3.147  10.707  1.00  0.00    -0.067 NA
HETATM   30  N6  UNL     1       5.829  -0.878  10.093  1.00  0.00    -0.067 NA
ATOM     31  H4  UNL     1       6.091  -0.601  12.457  1.00  0.00     0.162 HD
ENDBRANCH   4  27
TORSDOF 12
ENDMDL
MODEL 4
REMARK VINA RESULT: -7.511254931      5.333      9.287
REMARK  12 active torsions:
REMARK  status: ('A' for Active; 'I' for Inactive)
REMARK    1  A    between atoms: C2_2  and  C3_3 
REMARK    2  A    between atoms: C3_3  and  C4_4 
REMARK    3  A    between atoms: C4_4  and  C5_5 
REMARK    4  A    between atoms: C5_5  and  C6_6 
REMARK    5  A    between atoms: C6_6  and  C7_7 
REMARK    6  A    between atoms: C7_7  and  C8_8 
REMARK    7  A    between atoms: C8_8  and  C9_9 
REMARK    8  A    between atoms: C9_9  and  C10_10 
REMARK    9  A    between atoms: N2_12  and  C11_14 
REMARK   10  A    between atoms: C11_14  and  C12_15 
REMARK   11  A    between atoms: C12_15  and  N3_16 
REMARK   12  A    between atoms: C15_19  and  N4_20 
ROOT
HETATM    1  N3  UNL     1       5.974  -3.296  16.552  1.00  0.00     0.088 N 
HETATM    2  C13 UNL     1       6.609  -2.318  17.459  1.00  0.00     0.310 C 
HETATM    3  C14 UNL     1       6.148  -2.864  15.230  1.00  0.00     0.298 C 
HETATM    4  C15 UNL     1       5.132  -2.096  14.504  1.00  0.00     0.140 C 
HETATM    5  C17 UNL     1       4.105  -1.374  15.291  1.00  0.00     0.300 C 
HETATM    6  N7  UNL     1       3.114  -2.372  15.654  1.00  0.00     0.114 N 
HETATM    7  C18 UNL     1       2.045  -1.845  16.466  1.00  0.00     0.312 C 
HETATM    8  C19 UNL     1       3.655  -3.609  16.056  1.00  0.00     0.541 C 
HETATM    9  N8  UNL     1       4.731  -3.675  16.988  1.00  0.00     0.106 N 
HETATM   10  C20 UNL     1       4.384  -3.056  18.279  1.00  0.00     0.311 C 
HETATM   11  C21 UNL     1       4.678  -5.113  17.382  1.00  0.00     0.311 C 
ENDROOT
BRANCH   1  12
HETATM   12  C12 UNL     1       6.912  -4.435  16.727  1.00  0.00     0.291 C 
BRANCH  12  13
HETATM   13  C11 UNL     1       8.181  -4.221  15.891  1.00  0.00     0.150 C 
BRANCH  13  14
HETATM   14  N2  UNL     1       9.236  -4.871  16.649  1.00  0.00    -0.380 N 
HETATM   15  C10 UNL     1      10.280  -4.172  16.933  1.00  0.00     0.088 C 
HETATM   16  N1  UNL     1      10.440  -2.803  16.539  1.00  0.00    -0.088 NA
ATOM     17  H2  UNL     1       9.153  -5.843  16.945  1.00  0.00     0.160 HD
BRANCH  15  18
HETATM   18  C9  UNL     1      11.425  -4.744  17.710  1.00  0.00     0.073 C 
BRANCH  18  19
HETATM   19  C8  UNL     1      12.537  -3.736  17.716  1.00  0.00     0.007 C 
BRANCH  19  20
HETATM   20  C7  UNL     1      12.887  -3.321  19.110  1.00  0.00     0.000 C 
BRANCH  20  21
HETATM   21  C6  UNL     1      13.845  -2.178  19.180  1.00  0.00     0.000 C 
BRANCH  21  22
HETATM   22  C5  UNL     1      14.883  -2.529  20.252  1.00  0.00     0.000 C 
BRANCH  22  23
HETATM   23  C4  UNL     1      14.198  -3.175  21.445  1.00  0.00     0.000 C 
BRANCH  23  24
HETATM   24  C3  UNL     1      15.033  -4.343  21.887  1.00  0.00    -0.000 C 
BRANCH  24  25
HETATM   25  C2  UNL     1      14.199  -5.566  22.165  1.00  0.00    -0.005 C 
HETATM   26  C1  UNL     1      13.840  -6.300  20.913  1.00  0.00     0.005 C 
ENDBRANCH  24  25
ENDBRANCH  23  24
ENDBRANCH  22  23
ENDBRANCH  21  22
ENDBRANCH  20  21
ENDBRANCH  19  20
ENDBRANCH  18  19
ENDBRANCH  15  18
ENDBRANCH  13  14
ENDBRANCH  12  13
ENDBRANCH   1  12
BRANCH   4  27
HETATM   27  N4  UNL     1       5.690  -1.186  13.532  1.00  0.00    -0.359 N 
HETATM   28  C16 UNL     1       5.624  -1.211  12.284  1.00  0.00     0.197 C 
HETATM   29  N5  UNL     1       4.931  -2.229  11.598  1.00  0.00    -0.067 NA
HETATM   30  N6  UNL     1       6.265  -0.188  11.537  1.00  0.00    -0.067 NA
ATOM     31  H4  UNL     1       6.215  -0.404  13.922  1.00  0.00     0.162 HD
ENDBRANCH   4  27
TORSDOF 12
ENDMDL
MODEL 5
REMARK VINA RESULT: -7.490733516      3.541      9.411
REMARK  12 active torsions:
REMARK  status: ('A' for Active; 'I' for Inactive)
REMARK    1  A    between atoms: C2_2  and  C3_3 
REMARK    2  A    between atoms: C3_3  and  C4_4 
REMARK    3  A    between atoms: C4_4  and  C5_5 
REMARK    4  A    between atoms: C5_5  and  C6_6 
REMARK    5  A    between atoms: C6_6  and  C7_7 
REMARK    6  A    between atoms: C7_7  and  C8_8 
REMARK    7  A    between atoms: C8_8  and  C9_9 
REMARK    8  A    between atoms: C9_9  and  C10_10 
REMARK    9  A    between atoms: N2_12  and  C11_14 
REMARK   10  A    between atoms: C11_14  and  C12_15 
REMARK   11  A    between atoms: C12_15  and  N3_16 
REMARK   12  A    between atoms: C15_19  and  N4_20 
ROOT
HETATM    1  N3  UNL     1      14.994  -6.392  18.682  1.00  0.00     0.088 N 
HETATM    2  C13 UNL     1      14.912  -7.510  19.644  1.00  0.00     0.310 C 
HETATM    3  C14 UNL     1      16.345  -6.124  18.419  1.00  0.00     0.298 C 
HETATM    4  C15 UNL     1      17.100  -5.082  19.121  1.00  0.00     0.140 C 
HETATM    5  C17 UNL     1      16.589  -4.607  20.428  1.00  0.00     0.300 C 
HETATM    6  N7  UNL     1      15.537  -3.655  20.117  1.00  0.00     0.114 N 
HETATM    7  C18 UNL     1      14.893  -3.112  21.288  1.00  0.00     0.312 C 
HETATM    8  C19 UNL     1      14.690  -4.051  19.063  1.00  0.00     0.541 C 
HETATM    9  N8  UNL     1      14.146  -5.366  19.008  1.00  0.00     0.106 N 
HETATM   10  C20 UNL     1      13.328  -5.678  20.193  1.00  0.00     0.311 C 
HETATM   11  C21 UNL     1      13.060  -5.183  18.001  1.00  0.00     0.311 C 
ENDROOT
BRANCH   1  12
HETATM   12  C12 UNL     1      14.479  -7.076  17.468  1.00  0.00     0.291 C 
BRANCH  12  13
HETATM   13  C11 UNL     1      15.638  -7.505  16.558  1.00  0.00     0.150 C 
BRANCH  13  14
HETATM   14  N2  UNL     1      15.000  -7.930  15.324  1.00  0.00    -0.380 N 
HETATM   15  C10 UNL     1      15.428  -9.015  14.779  1.00  0.00     0.088 C 
HETATM   16  N1  UNL     1      16.488  -9.807  15.330  1.00  0.00    -0.088 NA
ATOM     17  H2  UNL     1      14.243  -7.389  14.907  1.00  0.00     0.160 HD
BRANCH  15  18
HETATM   18  C9  UNL     1      14.840  -9.543  13.506  1.00  0.00     0.073 C 
BRANCH  18  19
HETATM   19  C8  UNL     1      14.823  -8.428  12.502  1.00  0.00     0.007 C 
BRANCH  19  20
HETATM   20  C7  UNL     1      16.207  -7.961  12.184  1.00  0.00     0.000 C 
BRANCH  20  21
HETATM   21  C6  UNL     1      16.333  -6.478  12.057  1.00  0.00     0.000 C 
BRANCH  21  22
HETATM   22  C5  UNL     1      16.051  -6.129  10.591  1.00  0.00     0.000 C 
BRANCH  22  23
HETATM   23  C4  UNL     1      16.448  -4.689  10.315  1.00  0.00     0.000 C 
BRANCH  23  24
HETATM   24  C3  UNL     1      15.610  -4.183   9.177  1.00  0.00    -0.000 C 
BRANCH  24  25
HETATM   25  C2  UNL     1      15.560  -5.158   8.030  1.00  0.00    -0.005 C 
HETATM   26  C1  UNL     1      16.138  -4.583   6.776  1.00  0.00     0.005 C 
ENDBRANCH  24  25
ENDBRANCH  23  24
ENDBRANCH  22  23
ENDBRANCH  21  22
ENDBRANCH  20  21
ENDBRANCH  19  20
ENDBRANCH  18  19
ENDBRANCH  15  18
ENDBRANCH  13  14
ENDBRANCH  12  13
ENDBRANCH   1  12
BRANCH   4  27
HETATM   27  N4  UNL     1      18.504  -5.389  19.262  1.00  0.00    -0.359 N 
HETATM   28  C16 UNL     1      19.461  -5.115  18.507  1.00  0.00     0.197 C 
HETATM   29  N5  UNL     1      19.278  -4.401  17.305  1.00  0.00    -0.067 NA
HETATM   30  N6  UNL     1      20.769  -5.534  18.868  1.00  0.00    -0.067 NA
ATOM     31  H4  UNL     1      18.752  -5.908  20.104  1.00  0.00     0.162 HD
ENDBRANCH   4  27
TORSDOF 12
ENDMDL
