MODEL 1
REMARK VINA RESULT: -6.359404606      0.000      0.000
REMARK  1 active torsions:
REMARK  status: ('A' for Active; 'I' for Inactive)
REMARK    1  A    between atoms: C8_11  and  O2_13 
ROOT
HETATM    1  C1  UNL     1      -2.607  67.507   9.046  1.00  0.00     0.043 C 
HETATM    2  C2  UNL     1      -2.993  67.879  10.254  1.00  0.00     0.027 A 
HETATM    3  C3  UNL     1      -3.867  67.107  11.006  1.00  0.00     0.059 A 
HETATM    4  C4  UNL     1      -4.262  67.502  12.260  1.00  0.00     0.054 A 
HETATM    5  C5  UNL     1      -3.770  68.707  12.787  1.00  0.00     0.078 A 
HETATM    6  C6  UNL     1      -2.910  69.419  11.988  1.00  0.00     0.259 A 
HETATM    7  O1  UNL     1      -2.432  70.499  12.387  1.00  0.00    -0.267 OA
HETATM    8  N1  UNL     1      -2.524  69.025  10.752  1.00  0.00    -0.324 N 
ATOM      9  H1  UNL     1      -1.881  69.598  10.206  1.00  0.00     0.169 HD
HETATM   10  C7  UNL     1      -4.262  68.908  13.987  1.00  0.00     0.098 A 
HETATM   11  C8  UNL     1      -4.078  69.962  14.925  1.00  0.00     0.166 C 
HETATM   12  N2  UNL     1      -5.375  70.668  15.107  1.00  0.00    -0.074 NA
HETATM   13  C9  UNL     1      -5.152  67.755  14.291  1.00  0.00     0.261 A 
HETATM   14  O3  UNL     1      -5.814  67.570  15.342  1.00  0.00    -0.267 OA
HETATM   15  N3  UNL     1      -5.129  66.899  13.194  1.00  0.00    -0.322 N 
ATOM     16  H3  UNL     1      -5.634  66.019  13.089  1.00  0.00     0.169 HD
ENDROOT
BRANCH  11  17
HETATM   17  O2  UNL     1      -3.127  70.866  14.960  1.00  0.00    -0.348 OA
ATOM     18  H2  UNL     1      -2.704  71.248  15.720  1.00  0.00     0.219 HD
ENDBRANCH  11  17
TORSDOF 1
ENDMDL
MODEL 2
REMARK VINA RESULT: -6.290112164      1.035      1.051
REMARK  1 active torsions:
REMARK  status: ('A' for Active; 'I' for Inactive)
REMARK    1  A    between atoms: C8_11  and  O2_13 
ROOT
HETATM    1  C1  UNL     1      -2.696  66.614   9.589  1.00  0.00     0.043 C 
HETATM    2  C2  UNL     1      -3.040  67.430  10.570  1.00  0.00     0.027 A 
HETATM    3  C3  UNL     1      -3.951  67.047  11.545  1.00  0.00     0.059 A 
HETATM    4  C4  UNL     1      -4.301  67.901  12.561  1.00  0.00     0.054 A 
HETATM    5  C5  UNL     1      -3.727  69.181  12.611  1.00  0.00     0.078 A 
HETATM    6  C6  UNL     1      -2.834  69.491  11.614  1.00  0.00     0.259 A 
HETATM    7  O1  UNL     1      -2.283  70.609  11.592  1.00  0.00    -0.267 OA
HETATM    8  N1  UNL     1      -2.492  68.645  10.615  1.00  0.00    -0.324 N 
ATOM      9  H1  UNL     1      -1.821  68.934   9.902  1.00  0.00     0.169 HD
HETATM   10  C7  UNL     1      -4.188  69.842  13.647  1.00  0.00     0.098 A 
HETATM   11  C8  UNL     1      -3.924  71.153  14.132  1.00  0.00     0.166 C 
HETATM   12  N2  UNL     1      -5.170  71.958  14.028  1.00  0.00    -0.074 NA
HETATM   13  C9  UNL     1      -5.145  68.942  14.346  1.00  0.00     0.261 A 
HETATM   14  O3  UNL     1      -5.802  69.201  15.384  1.00  0.00    -0.267 OA
HETATM   15  N3  UNL     1      -5.192  67.742  13.643  1.00  0.00    -0.322 N 
ATOM     16  H3  UNL     1      -5.753  66.920  13.864  1.00  0.00     0.169 HD
ENDROOT
BRANCH  11  17
HETATM   17  O2  UNL     1      -2.916  71.943  13.841  1.00  0.00    -0.348 OA
ATOM     18  H2  UNL     1      -2.828  72.874  14.011  1.00  0.00     0.219 HD
ENDBRANCH  11  17
TORSDOF 1
ENDMDL
MODEL 3
REMARK VINA RESULT: -5.982435660      3.998      5.317
REMARK  1 active torsions:
REMARK  status: ('A' for Active; 'I' for Inactive)
REMARK    1  A    between atoms: C8_11  and  O2_13 
ROOT
HETATM    1  C1  UNL     1      -6.738  63.383   7.406  1.00  0.00     0.043 C 
HETATM    2  C2  UNL     1      -5.923  64.294   7.910  1.00  0.00     0.027 A 
HETATM    3  C3  UNL     1      -4.965  63.964   8.858  1.00  0.00     0.059 A 
HETATM    4  C4  UNL     1      -4.123  64.917   9.375  1.00  0.00     0.054 A 
HETATM    5  C5  UNL     1      -4.237  66.245   8.935  1.00  0.00     0.078 A 
HETATM    6  C6  UNL     1      -5.207  66.498   7.997  1.00  0.00     0.259 A 
HETATM    7  O1  UNL     1      -5.369  67.654   7.559  1.00  0.00    -0.267 OA
HETATM    8  N1  UNL     1      -6.034  65.555   7.490  1.00  0.00    -0.324 N 
ATOM      9  H1  UNL     1      -6.736  65.806   6.794  1.00  0.00     0.169 HD
HETATM   10  C7  UNL     1      -3.352  66.999   9.545  1.00  0.00     0.098 A 
HETATM   11  C8  UNL     1      -3.064  68.389   9.453  1.00  0.00     0.166 C 
HETATM   12  N2  UNL     1      -3.379  69.027  10.759  1.00  0.00    -0.074 NA
HETATM   13  C9  UNL     1      -2.586  66.115  10.464  1.00  0.00     0.261 A 
HETATM   14  O3  UNL     1      -1.649  66.452  11.229  1.00  0.00    -0.267 OA
HETATM   15  N3  UNL     1      -3.092  64.825  10.334  1.00  0.00    -0.322 N 
ATOM     16  H3  UNL     1      -2.782  63.988  10.828  1.00  0.00     0.169 HD
ENDROOT
BRANCH  11  17
HETATM   17  O2  UNL     1      -3.408  69.233   8.507  1.00  0.00    -0.348 OA
ATOM     18  H2  UNL     1      -3.484  69.074   7.574  1.00  0.00     0.219 HD
ENDBRANCH  11  17
TORSDOF 1
ENDMDL
MODEL 4
REMARK VINA RESULT: -5.968561258      1.369      2.976
REMARK  1 active torsions:
REMARK  status: ('A' for Active; 'I' for Inactive)
REMARK    1  A    between atoms: C8_11  and  O2_13 
ROOT
HETATM    1  C1  UNL     1      -3.614  65.835   9.509  1.00  0.00     0.043 C 
HETATM    2  C2  UNL     1      -3.678  66.733  10.477  1.00  0.00     0.027 A 
HETATM    3  C3  UNL     1      -3.008  67.945  10.387  1.00  0.00     0.059 A 
HETATM    4  C4  UNL     1      -3.081  68.872  11.397  1.00  0.00     0.054 A 
HETATM    5  C5  UNL     1      -3.847  68.585  12.538  1.00  0.00     0.078 A 
HETATM    6  C6  UNL     1      -4.482  67.367  12.559  1.00  0.00     0.259 A 
HETATM    7  O1  UNL     1      -5.180  67.041  13.539  1.00  0.00    -0.267 OA
HETATM    8  N1  UNL     1      -4.407  66.457  11.560  1.00  0.00    -0.324 N 
ATOM      9  H1  UNL     1      -4.902  65.569  11.634  1.00  0.00     0.169 HD
HETATM   10  C7  UNL     1      -3.789  69.587  13.384  1.00  0.00     0.098 A 
HETATM   11  C8  UNL     1      -4.380  69.786  14.662  1.00  0.00     0.166 C 
HETATM   12  N2  UNL     1      -3.297  69.862  15.679  1.00  0.00    -0.074 NA
HETATM   13  C9  UNL     1      -2.919  70.626  12.769  1.00  0.00     0.261 A 
HETATM   14  O3  UNL     1      -2.611  71.739  13.261  1.00  0.00    -0.267 OA
HETATM   15  N3  UNL     1      -2.495  70.148  11.532  1.00  0.00    -0.322 N 
ATOM     16  H3  UNL     1      -1.888  70.621  10.864  1.00  0.00     0.169 HD
ENDROOT
BRANCH  11  17
HETATM   17  O2  UNL     1      -5.388  69.143  15.205  1.00  0.00    -0.348 OA
ATOM     18  H2  UNL     1      -5.916  69.397  15.952  1.00  0.00     0.219 HD
ENDBRANCH  11  17
TORSDOF 1
ENDMDL
MODEL 5
REMARK VINA RESULT: -5.814545280      4.865      6.052
REMARK  1 active torsions:
REMARK  status: ('A' for Active; 'I' for Inactive)
REMARK    1  A    between atoms: C8_11  and  O2_13 
ROOT
HETATM    1  C1  UNL     1      -0.845  66.793  10.951  1.00  0.00     0.043 C 
HETATM    2  C2  UNL     1      -1.921  66.641  10.199  1.00  0.00     0.027 A 
HETATM    3  C3  UNL     1      -2.679  65.479  10.244  1.00  0.00     0.059 A 
HETATM    4  C4  UNL     1      -3.796  65.331   9.460  1.00  0.00     0.054 A 
HETATM    5  C5  UNL     1      -4.173  66.374   8.600  1.00  0.00     0.078 A 
HETATM    6  C6  UNL     1      -3.377  67.493   8.607  1.00  0.00     0.259 A 
HETATM    7  O1  UNL     1      -3.649  68.460   7.869  1.00  0.00    -0.267 OA
HETATM    8  N1  UNL     1      -2.277  67.634   9.383  1.00  0.00    -0.324 N 
ATOM      9  H1  UNL     1      -1.726  68.491   9.343  1.00  0.00     0.169 HD
HETATM   10  C7  UNL     1      -5.258  66.042   7.937  1.00  0.00     0.098 A 
HETATM   11  C8  UNL     1      -6.026  66.737   6.963  1.00  0.00     0.166 C 
HETATM   12  N2  UNL     1      -5.934  66.002   5.673  1.00  0.00    -0.074 NA
HETATM   13  C9  UNL     1      -5.638  64.674   8.383  1.00  0.00     0.261 A 
HETATM   14  O3  UNL     1      -6.618  63.997   7.987  1.00  0.00    -0.267 OA
HETATM   15  N3  UNL     1      -4.706  64.261   9.331  1.00  0.00    -0.322 N 
ATOM     16  H3  UNL     1      -4.686  63.371   9.828  1.00  0.00     0.169 HD
ENDROOT
BRANCH  11  17
HETATM   17  O2  UNL     1      -6.026  68.021   6.688  1.00  0.00    -0.348 OA
ATOM     18  H2  UNL     1      -5.822  68.448   5.864  1.00  0.00     0.219 HD
ENDBRANCH  11  17
TORSDOF 1
ENDMDL
