MODEL 1
REMARK VINA RESULT: -7.664702403      0.000      0.000
REMARK  10 active torsions:
REMARK  status: ('A' for Active; 'I' for Inactive)
REMARK    1  A    between atoms: C1_4  and  C2_5 
REMARK    2  A    between atoms: C1_4  and  N4_19 
REMARK    3  A    between atoms: C2_5  and  C3_6 
REMARK    4  A    between atoms: C3_6  and  C4_7 
REMARK    5  A    between atoms: C4_7  and  C5_8 
REMARK    6  A    between atoms: C5_8  and  C6_9 
REMARK    7  A    between atoms: C6_9  and  C7_10 
REMARK    8  A    between atoms: C7_10  and  C8_11 
REMARK    9  A    between atoms: C8_11  and  N2_12 
REMARK   10  A    between atoms: C14_25  and  O2_26 
ROOT
HETATM    1  C2  UNL     1      28.354  60.508  51.679  1.00  0.00     0.076 C 
ENDROOT
BRANCH   1   2
HETATM    2  C1  UNL     1      28.208  59.652  52.860  1.00  0.00     0.081 C 
HETATM    3  N1  UNL     1      28.852  58.545  52.935  1.00  0.00    -0.389 N 
ATOM      4  H12 UNL     1      29.483  58.300  52.172  1.00  0.00     0.157 HD
ATOM      5  H11 UNL     1      28.751  57.950  53.757  1.00  0.00     0.157 HD
BRANCH   2   6
HETATM    6  N4  UNL     1      27.317  59.999  53.938  1.00  0.00    -0.285 N 
HETATM    7  C12 UNL     1      27.635  61.023  54.876  1.00  0.00     0.177 C 
HETATM    8  S1  UNL     1      28.972  61.988  54.884  1.00  0.00    -0.041 SA
HETATM    9  N5  UNL     1      26.560  61.060  55.825  1.00  0.00    -0.363 N 
HETATM   10  C13 UNL     1      25.922  59.757  55.756  1.00  0.00     0.176 C 
ATOM     11  H5  UNL     1      26.297  61.842  56.425  1.00  0.00     0.162 HD
HETATM   12  C14 UNL     1      26.037  59.444  54.274  1.00  0.00     0.246 C 
BRANCH  12  13
HETATM   13  O2  UNL     1      24.987  60.146  53.648  1.00  0.00    -0.374 OA
ATOM     14  H2  UNL     1      24.898  59.900  52.735  1.00  0.00     0.212 HD
ENDBRANCH  12  13
ENDBRANCH   2   6
ENDBRANCH   1   2
BRANCH   1  15
HETATM   15  C3  UNL     1      27.915  59.924  50.383  1.00  0.00     0.007 C 
BRANCH  15  16
HETATM   16  C4  UNL     1      26.436  59.797  50.274  1.00  0.00     0.000 C 
BRANCH  16  17
HETATM   17  C5  UNL     1      25.987  58.367  50.092  1.00  0.00     0.000 C 
BRANCH  17  18
HETATM   18  C6  UNL     1      25.639  58.031  48.673  1.00  0.00     0.002 C 
BRANCH  18  19
HETATM   19  C7  UNL     1      24.705  56.813  48.745  1.00  0.00     0.020 C 
BRANCH  19  20
HETATM   20  C8  UNL     1      24.928  55.895  47.559  1.00  0.00     0.127 C 
BRANCH  20  21
HETATM   21  N2  UNL     1      25.395  54.603  47.953  1.00  0.00    -0.333 N 
HETATM   22  C9  UNL     1      24.939  53.341  47.395  1.00  0.00     0.147 C 
HETATM   23  C10 UNL     1      25.948  52.298  47.846  1.00  0.00     0.144 C 
HETATM   24  N3  UNL     1      26.359  52.854  49.133  1.00  0.00    -0.341 N 
HETATM   25  C11 UNL     1      26.370  54.276  48.938  1.00  0.00     0.318 C 
ATOM     26  H3  UNL     1      26.588  52.343  49.986  1.00  0.00     0.164 HD
HETATM   27  O1  UNL     1      27.134  55.094  49.551  1.00  0.00    -0.247 OA
ENDBRANCH  20  21
ENDBRANCH  19  20
ENDBRANCH  18  19
ENDBRANCH  17  18
ENDBRANCH  16  17
ENDBRANCH  15  16
ENDBRANCH   1  15
TORSDOF 10
ENDMDL
MODEL 2
REMARK VINA RESULT: -7.636445033      1.676      1.900
REMARK  10 active torsions:
REMARK  status: ('A' for Active; 'I' for Inactive)
REMARK    1  A    between atoms: C1_4  and  C2_5 
REMARK    2  A    between atoms: C1_4  and  N4_19 
REMARK    3  A    between atoms: C2_5  and  C3_6 
REMARK    4  A    between atoms: C3_6  and  C4_7 
REMARK    5  A    between atoms: C4_7  and  C5_8 
REMARK    6  A    between atoms: C5_8  and  C6_9 
REMARK    7  A    between atoms: C6_9  and  C7_10 
REMARK    8  A    between atoms: C7_10  and  C8_11 
REMARK    9  A    between atoms: C8_11  and  N2_12 
REMARK   10  A    between atoms: C14_25  and  O2_26 
ROOT
HETATM    1  C2  UNL     1      27.295  59.889  51.065  1.00  0.00     0.076 C 
ENDROOT
BRANCH   1   2
HETATM    2  C1  UNL     1      27.379  59.106  52.301  1.00  0.00     0.081 C 
HETATM    3  N1  UNL     1      27.788  57.890  52.265  1.00  0.00    -0.389 N 
ATOM      4  H12 UNL     1      28.078  57.504  51.366  1.00  0.00     0.157 HD
ATOM      5  H11 UNL     1      27.847  57.345  53.125  1.00  0.00     0.157 HD
BRANCH   2   6
HETATM    6  N4  UNL     1      26.970  59.652  53.570  1.00  0.00    -0.285 N 
HETATM    7  C12 UNL     1      27.773  60.590  54.279  1.00  0.00     0.177 C 
HETATM    8  S1  UNL     1      29.211  61.237  53.798  1.00  0.00    -0.041 SA
HETATM    9  N5  UNL     1      27.088  60.873  55.508  1.00  0.00    -0.363 N 
HETATM   10  C13 UNL     1      26.208  59.742  55.743  1.00  0.00     0.176 C 
ATOM     11  H5  UNL     1      27.197  61.700  56.095  1.00  0.00     0.162 HD
HETATM   12  C14 UNL     1      25.778  59.396  54.328  1.00  0.00     0.246 C 
BRANCH  12  13
HETATM   13  O2  UNL     1      24.751  60.306  54.003  1.00  0.00    -0.374 OA
ATOM     14  H2  UNL     1      24.051  60.287  54.644  1.00  0.00     0.212 HD
ENDBRANCH  12  13
ENDBRANCH   2   6
ENDBRANCH   1   2
BRANCH   1  15
HETATM   15  C3  UNL     1      27.085  59.120  49.810  1.00  0.00     0.007 C 
BRANCH  15  16
HETATM   16  C4  UNL     1      25.661  59.087  49.379  1.00  0.00     0.000 C 
BRANCH  16  17
HETATM   17  C5  UNL     1      25.115  57.683  49.280  1.00  0.00     0.000 C 
BRANCH  17  18
HETATM   18  C6  UNL     1      25.519  56.977  48.020  1.00  0.00     0.002 C 
BRANCH  18  19
HETATM   19  C7  UNL     1      25.742  55.508  48.413  1.00  0.00     0.020 C 
BRANCH  19  20
HETATM   20  C8  UNL     1      24.829  54.597  47.616  1.00  0.00     0.127 C 
BRANCH  20  21
HETATM   21  N2  UNL     1      25.358  53.276  47.485  1.00  0.00    -0.333 N 
HETATM   22  C9  UNL     1      26.293  52.652  48.407  1.00  0.00     0.147 C 
HETATM   23  C10 UNL     1      26.284  51.171  48.070  1.00  0.00     0.144 C 
HETATM   24  N3  UNL     1      26.012  51.219  46.635  1.00  0.00    -0.341 N 
HETATM   25  C11 UNL     1      25.102  52.315  46.466  1.00  0.00     0.318 C 
ATOM     26  H3  UNL     1      26.387  50.606  45.911  1.00  0.00     0.164 HD
HETATM   27  O1  UNL     1      24.216  52.399  45.550  1.00  0.00    -0.247 OA
ENDBRANCH  20  21
ENDBRANCH  19  20
ENDBRANCH  18  19
ENDBRANCH  17  18
ENDBRANCH  16  17
ENDBRANCH  15  16
ENDBRANCH   1  15
TORSDOF 10
ENDMDL
MODEL 3
REMARK VINA RESULT: -7.546449300      2.852      4.110
REMARK  10 active torsions:
REMARK  status: ('A' for Active; 'I' for Inactive)
REMARK    1  A    between atoms: C1_4  and  C2_5 
REMARK    2  A    between atoms: C1_4  and  N4_19 
REMARK    3  A    between atoms: C2_5  and  C3_6 
REMARK    4  A    between atoms: C3_6  and  C4_7 
REMARK    5  A    between atoms: C4_7  and  C5_8 
REMARK    6  A    between atoms: C5_8  and  C6_9 
REMARK    7  A    between atoms: C6_9  and  C7_10 
REMARK    8  A    between atoms: C7_10  and  C8_11 
REMARK    9  A    between atoms: C8_11  and  N2_12 
REMARK   10  A    between atoms: C14_25  and  O2_26 
ROOT
HETATM    1  C2  UNL     1      26.409  58.899  50.802  1.00  0.00     0.076 C 
ENDROOT
BRANCH   1   2
HETATM    2  C1  UNL     1      27.585  59.761  50.949  1.00  0.00     0.081 C 
HETATM    3  N1  UNL     1      27.451  60.966  51.368  1.00  0.00    -0.389 N 
ATOM      4  H12 UNL     1      26.517  61.289  51.622  1.00  0.00     0.157 HD
ATOM      5  H11 UNL     1      28.270  61.565  51.471  1.00  0.00     0.157 HD
BRANCH   2   6
HETATM    6  N4  UNL     1      28.904  59.305  50.591  1.00  0.00    -0.285 N 
HETATM    7  C12 UNL     1      29.946  59.185  51.555  1.00  0.00     0.177 C 
HETATM    8  S1  UNL     1      29.844  59.475  53.175  1.00  0.00    -0.041 SA
HETATM    9  N5  UNL     1      31.117  58.759  50.846  1.00  0.00    -0.363 N 
HETATM   10  C13 UNL     1      30.906  59.142  49.460  1.00  0.00     0.176 C 
ATOM     11  H5  UNL     1      31.932  58.284  51.235  1.00  0.00     0.162 HD
HETATM   12  C14 UNL     1      29.413  58.908  49.309  1.00  0.00     0.246 C 
BRANCH  12  13
HETATM   13  O2  UNL     1      29.258  57.523  49.095  1.00  0.00    -0.374 OA
ATOM     14  H2  UNL     1      29.952  57.174  48.549  1.00  0.00     0.212 HD
ENDBRANCH  12  13
ENDBRANCH   2   6
ENDBRANCH   1   2
BRANCH   1  15
HETATM   15  C3  UNL     1      25.576  59.121  49.590  1.00  0.00     0.007 C 
BRANCH  15  16
HETATM   16  C4  UNL     1      24.840  57.902  49.159  1.00  0.00     0.000 C 
BRANCH  16  17
HETATM   17  C5  UNL     1      25.582  57.117  48.104  1.00  0.00     0.000 C 
BRANCH  17  18
HETATM   18  C6  UNL     1      25.711  55.659  48.431  1.00  0.00     0.002 C 
BRANCH  18  19
HETATM   19  C7  UNL     1      24.777  54.924  47.457  1.00  0.00     0.020 C 
BRANCH  19  20
HETATM   20  C8  UNL     1      24.330  53.598  48.041  1.00  0.00     0.127 C 
BRANCH  20  21
HETATM   21  N2  UNL     1      25.228  52.533  47.724  1.00  0.00    -0.333 N 
HETATM   22  C9  UNL     1      26.392  52.156  48.509  1.00  0.00     0.147 C 
HETATM   23  C10 UNL     1      26.811  50.788  48.001  1.00  0.00     0.144 C 
HETATM   24  N3  UNL     1      26.405  50.880  46.600  1.00  0.00    -0.341 N 
HETATM   25  C11 UNL     1      25.188  51.641  46.616  1.00  0.00     0.318 C 
ATOM     26  H3  UNL     1      26.882  50.489  45.788  1.00  0.00     0.164 HD
HETATM   27  O1  UNL     1      24.239  51.523  45.770  1.00  0.00    -0.247 OA
ENDBRANCH  20  21
ENDBRANCH  19  20
ENDBRANCH  18  19
ENDBRANCH  17  18
ENDBRANCH  16  17
ENDBRANCH  15  16
ENDBRANCH   1  15
TORSDOF 10
ENDMDL
MODEL 4
REMARK VINA RESULT: -7.364171842      1.384      1.479
REMARK  10 active torsions:
REMARK  status: ('A' for Active; 'I' for Inactive)
REMARK    1  A    between atoms: C1_4  and  C2_5 
REMARK    2  A    between atoms: C1_4  and  N4_19 
REMARK    3  A    between atoms: C2_5  and  C3_6 
REMARK    4  A    between atoms: C3_6  and  C4_7 
REMARK    5  A    between atoms: C4_7  and  C5_8 
REMARK    6  A    between atoms: C5_8  and  C6_9 
REMARK    7  A    between atoms: C6_9  and  C7_10 
REMARK    8  A    between atoms: C7_10  and  C8_11 
REMARK    9  A    between atoms: C8_11  and  N2_12 
REMARK   10  A    between atoms: C14_25  and  O2_26 
ROOT
HETATM    1  C2  UNL     1      28.176  59.306  50.984  1.00  0.00     0.076 C 
ENDROOT
BRANCH   1   2
HETATM    2  C1  UNL     1      27.914  58.685  52.285  1.00  0.00     0.081 C 
HETATM    3  N1  UNL     1      27.573  57.450  52.351  1.00  0.00    -0.389 N 
ATOM      4  H12 UNL     1      27.522  56.916  51.484  1.00  0.00     0.157 HD
ATOM      5  H11 UNL     1      27.391  57.018  53.257  1.00  0.00     0.157 HD
BRANCH   2   6
HETATM    6  N4  UNL     1      27.986  59.441  53.510  1.00  0.00    -0.285 N 
HETATM    7  C12 UNL     1      29.184  59.517  54.277  1.00  0.00     0.177 C 
HETATM    8  S1  UNL     1      30.645  58.844  53.914  1.00  0.00    -0.041 SA
HETATM    9  N5  UNL     1      28.880  60.299  55.440  1.00  0.00    -0.363 N 
HETATM   10  C13 UNL     1      27.439  60.217  55.610  1.00  0.00     0.176 C 
ATOM     11  H5  UNL     1      29.540  60.809  56.028  1.00  0.00     0.162 HD
HETATM   12  C14 UNL     1      26.967  60.209  54.167  1.00  0.00     0.246 C 
BRANCH  12  13
HETATM   13  O2  UNL     1      26.981  61.555  53.747  1.00  0.00    -0.374 OA
ATOM     14  H2  UNL     1      27.841  61.945  53.853  1.00  0.00     0.212 HD
ENDBRANCH  12  13
ENDBRANCH   2   6
ENDBRANCH   1   2
BRANCH   1  15
HETATM   15  C3  UNL     1      27.157  60.274  50.497  1.00  0.00     0.007 C 
BRANCH  15  16
HETATM   16  C4  UNL     1      25.918  59.614  50.001  1.00  0.00     0.000 C 
BRANCH  16  17
HETATM   17  C5  UNL     1      26.207  58.432  49.107  1.00  0.00     0.000 C 
BRANCH  17  18
HETATM   18  C6  UNL     1      24.995  57.598  48.817  1.00  0.00     0.002 C 
BRANCH  18  19
HETATM   19  C7  UNL     1      25.427  56.584  47.747  1.00  0.00     0.020 C 
BRANCH  19  20
HETATM   20  C8  UNL     1      24.509  55.377  47.752  1.00  0.00     0.127 C 
BRANCH  20  21
HETATM   21  N2  UNL     1      25.216  54.157  47.983  1.00  0.00    -0.333 N 
HETATM   22  C9  UNL     1      24.981  52.905  47.282  1.00  0.00     0.147 C 
HETATM   23  C10 UNL     1      26.177  52.022  47.594  1.00  0.00     0.144 C 
HETATM   24  N3  UNL     1      26.520  52.491  48.935  1.00  0.00    -0.341 N 
HETATM   25  C11 UNL     1      26.266  53.903  48.912  1.00  0.00     0.318 C 
ATOM     26  H3  UNL     1      26.865  51.936  49.718  1.00  0.00     0.164 HD
HETATM   27  O1  UNL     1      26.886  54.772  49.612  1.00  0.00    -0.247 OA
ENDBRANCH  20  21
ENDBRANCH  19  20
ENDBRANCH  18  19
ENDBRANCH  17  18
ENDBRANCH  16  17
ENDBRANCH  15  16
ENDBRANCH   1  15
TORSDOF 10
ENDMDL
MODEL 5
REMARK VINA RESULT: -7.318661425      2.101      3.120
REMARK  10 active torsions:
REMARK  status: ('A' for Active; 'I' for Inactive)
REMARK    1  A    between atoms: C1_4  and  C2_5 
REMARK    2  A    between atoms: C1_4  and  N4_19 
REMARK    3  A    between atoms: C2_5  and  C3_6 
REMARK    4  A    between atoms: C3_6  and  C4_7 
REMARK    5  A    between atoms: C4_7  and  C5_8 
REMARK    6  A    between atoms: C5_8  and  C6_9 
REMARK    7  A    between atoms: C6_9  and  C7_10 
REMARK    8  A    between atoms: C7_10  and  C8_11 
REMARK    9  A    between atoms: C8_11  and  N2_12 
REMARK   10  A    between atoms: C14_25  and  O2_26 
ROOT
HETATM    1  C2  UNL     1      26.559  57.544  50.320  1.00  0.00     0.076 C 
ENDROOT
BRANCH   1   2
HETATM    2  C1  UNL     1      26.493  58.907  50.852  1.00  0.00     0.081 C 
HETATM    3  N1  UNL     1      25.654  59.748  50.365  1.00  0.00    -0.389 N 
ATOM      4  H12 UNL     1      25.024  59.430  49.629  1.00  0.00     0.157 HD
ATOM      5  H11 UNL     1      25.609  60.697  50.736  1.00  0.00     0.157 HD
BRANCH   2   6
HETATM    6  N4  UNL     1      27.384  59.355  51.892  1.00  0.00    -0.285 N 
HETATM    7  C12 UNL     1      28.722  59.755  51.615  1.00  0.00     0.177 C 
HETATM    8  S1  UNL     1      29.455  59.832  50.140  1.00  0.00    -0.041 SA
HETATM    9  N5  UNL     1      29.323  60.086  52.875  1.00  0.00    -0.363 N 
HETATM   10  C13 UNL     1      28.544  59.388  53.883  1.00  0.00     0.176 C 
ATOM     11  H5  UNL     1      30.132  60.688  53.031  1.00  0.00     0.162 HD
HETATM   12  C14 UNL     1      27.145  59.485  53.302  1.00  0.00     0.246 C 
BRANCH  12  13
HETATM   13  O2  UNL     1      26.677  60.773  53.632  1.00  0.00    -0.374 OA
ATOM     14  H2  UNL     1      27.379  61.330  53.948  1.00  0.00     0.212 HD
ENDBRANCH  12  13
ENDBRANCH   2   6
ENDBRANCH   1   2
BRANCH   1  15
HETATM   15  C3  UNL     1      26.920  57.413  48.883  1.00  0.00     0.007 C 
BRANCH  15  16
HETATM   16  C4  UNL     1      25.734  57.292  47.993  1.00  0.00     0.000 C 
BRANCH  16  17
HETATM   17  C5  UNL     1      24.978  56.002  48.202  1.00  0.00     0.000 C 
BRANCH  17  18
HETATM   18  C6  UNL     1      24.527  55.364  46.922  1.00  0.00     0.002 C 
BRANCH  18  19
HETATM   19  C7  UNL     1      24.277  53.885  47.254  1.00  0.00     0.020 C 
BRANCH  19  20
HETATM   20  C8  UNL     1      25.226  52.994  46.477  1.00  0.00     0.127 C 
BRANCH  20  21
HETATM   21  N2  UNL     1      25.979  52.128  47.330  1.00  0.00    -0.333 N 
HETATM   22  C9  UNL     1      26.457  50.803  46.969  1.00  0.00     0.147 C 
HETATM   23  C10 UNL     1      27.483  50.430  48.024  1.00  0.00     0.144 C 
HETATM   24  N3  UNL     1      26.948  51.133  49.188  1.00  0.00    -0.341 N 
HETATM   25  C11 UNL     1      26.410  52.358  48.667  1.00  0.00     0.318 C 
ATOM     26  H3  UNL     1      26.954  50.822  50.159  1.00  0.00     0.164 HD
HETATM   27  O1  UNL     1      26.339  53.459  49.309  1.00  0.00    -0.247 OA
ENDBRANCH  20  21
ENDBRANCH  19  20
ENDBRANCH  18  19
ENDBRANCH  17  18
ENDBRANCH  16  17
ENDBRANCH  15  16
ENDBRANCH   1  15
TORSDOF 10
ENDMDL
