MODEL 1
REMARK VINA RESULT: -6.731105921      0.000      0.000
REMARK  9 active torsions:
REMARK  status: ('A' for Active; 'I' for Inactive)
REMARK    1  A    between atoms: N3_4  and  C2_6 
REMARK    2  A    between atoms: C2_6  and  C3_7 
REMARK    3  A    between atoms: C3_7  and  C4_8 
REMARK    4  A    between atoms: C4_8  and  C5_9 
REMARK    5  A    between atoms: C5_9  and  C6_10 
REMARK    6  A    between atoms: C5_9  and  N7_23 
REMARK    7  A    between atoms: C6_10  and  N4_11 
REMARK    8  A    between atoms: C6_10  and  C7_15 
REMARK    9  A    between atoms: C7_15  and  C8_16 
ROOT
HETATM    1  C5  UNL     1      27.905  58.394  49.799  1.00  0.00     0.256 C 
ENDROOT
BRANCH   1   2
HETATM    2  C4  UNL     1      26.713  58.778  49.011  1.00  0.00     0.040 C 
BRANCH   2   3
HETATM    3  C3  UNL     1      26.207  57.908  47.925  1.00  0.00     0.022 C 
BRANCH   3   4
HETATM    4  C2  UNL     1      25.110  57.051  48.612  1.00  0.00     0.122 C 
BRANCH   4   5
HETATM    5  N3  UNL     1      25.103  55.725  48.080  1.00  0.00    -0.367 N 
HETATM    6  C1  UNL     1      25.841  54.840  48.650  1.00  0.00     0.196 C 
HETATM    7  N1  UNL     1      26.664  55.085  49.774  1.00  0.00    -0.067 NA
HETATM    8  N2  UNL     1      25.826  53.528  48.111  1.00  0.00    -0.067 NA
ATOM      9  H3  UNL     1      24.530  55.488  47.271  1.00  0.00     0.161 HD
ENDBRANCH   4   5
ENDBRANCH   3   4
ENDBRANCH   2   3
ENDBRANCH   1   2
BRANCH   1  10
HETATM   10  C6  UNL     1      27.510  58.497  51.229  1.00  0.00     0.222 C 
BRANCH  10  11
HETATM   11  N4  UNL     1      27.318  57.351  52.004  1.00  0.00    -0.073 N 
ATOM     12  H43 UNL     1      26.938  56.621  51.402  1.00  0.00     0.274 HD
ATOM     13  H42 UNL     1      28.234  56.970  52.240  1.00  0.00     0.274 HD
ATOM     14  H41 UNL     1      26.758  57.382  52.856  1.00  0.00     0.274 HD
ENDBRANCH  10  11
BRANCH  10  15
HETATM   15  C7  UNL     1      26.332  59.420  51.451  1.00  0.00     0.093 C 
BRANCH  15  16
HETATM   16  C8  UNL     1      26.224  59.731  52.936  1.00  0.00     0.027 A 
HETATM   17  C9  UNL     1      27.262  60.016  53.799  1.00  0.00     0.114 A 
HETATM   18  N5  UNL     1      26.737  60.231  55.022  1.00  0.00    -0.360 N 
HETATM   19  C10 UNL     1      25.403  60.088  54.947  1.00  0.00     0.180 A 
ATOM     20  H5  UNL     1      27.264  60.462  55.864  1.00  0.00     0.166 HD
HETATM   21  N6  UNL     1      25.107  59.784  53.674  1.00  0.00    -0.355 N 
ATOM     22  H6  UNL     1      24.165  59.618  53.318  1.00  0.00     0.166 HD
ENDBRANCH  15  16
ENDBRANCH  10  15
ENDBRANCH   1  10
BRANCH   1  23
HETATM   23  N7  UNL     1      29.154  58.955  49.437  1.00  0.00     0.120 N 
HETATM   24  C11 UNL     1      29.883  59.416  50.603  1.00  0.00     0.301 C 
HETATM   25  C12 UNL     1      31.361  59.297  50.242  1.00  0.00     0.200 C 
HETATM   26  O1  UNL     1      31.364  58.266  49.375  1.00  0.00    -0.361 OA
HETATM   27  C13 UNL     1      30.087  58.079  48.841  1.00  0.00     0.441 C 
ENDBRANCH   1  23
TORSDOF 9
ENDMDL
MODEL 2
REMARK VINA RESULT: -6.711406025      2.081      4.750
REMARK  9 active torsions:
REMARK  status: ('A' for Active; 'I' for Inactive)
REMARK    1  A    between atoms: N3_4  and  C2_6 
REMARK    2  A    between atoms: C2_6  and  C3_7 
REMARK    3  A    between atoms: C3_7  and  C4_8 
REMARK    4  A    between atoms: C4_8  and  C5_9 
REMARK    5  A    between atoms: C5_9  and  C6_10 
REMARK    6  A    between atoms: C5_9  and  N7_23 
REMARK    7  A    between atoms: C6_10  and  N4_11 
REMARK    8  A    between atoms: C6_10  and  C7_15 
REMARK    9  A    between atoms: C7_15  and  C8_16 
ROOT
HETATM    1  C5  UNL     1      26.713  57.937  49.519  1.00  0.00     0.256 C 
ENDROOT
BRANCH   1   2
HETATM    2  C4  UNL     1      28.190  57.907  49.605  1.00  0.00     0.040 C 
BRANCH   2   3
HETATM    3  C3  UNL     1      29.027  58.220  48.424  1.00  0.00     0.022 C 
BRANCH   3   4
HETATM    4  C2  UNL     1      30.452  58.403  49.014  1.00  0.00     0.122 C 
BRANCH   4   5
HETATM    5  N3  UNL     1      30.605  59.716  49.556  1.00  0.00    -0.367 N 
HETATM    6  C1  UNL     1      31.196  59.838  50.691  1.00  0.00     0.196 C 
HETATM    7  N1  UNL     1      31.709  58.759  51.448  1.00  0.00    -0.067 NA
HETATM    8  N2  UNL     1      31.342  61.147  51.218  1.00  0.00    -0.067 NA
ATOM      9  H3  UNL     1      30.256  60.534  49.056  1.00  0.00     0.161 HD
ENDBRANCH   4   5
ENDBRANCH   3   4
ENDBRANCH   2   3
ENDBRANCH   1   2
BRANCH   1  10
HETATM   10  C6  UNL     1      26.258  58.936  50.523  1.00  0.00     0.222 C 
BRANCH  10  11
HETATM   11  N4  UNL     1      25.537  60.068  50.131  1.00  0.00    -0.073 N 
ATOM     12  H43 UNL     1      25.038  59.844  49.271  1.00  0.00     0.274 HD
ATOM     13  H42 UNL     1      24.770  60.198  50.790  1.00  0.00     0.274 HD
ATOM     14  H41 UNL     1      26.003  60.966  50.004  1.00  0.00     0.274 HD
ENDBRANCH  10  11
BRANCH  10  15
HETATM   15  C7  UNL     1      27.361  59.379  51.458  1.00  0.00     0.093 C 
BRANCH  15  16
HETATM   16  C8  UNL     1      26.779  59.573  52.849  1.00  0.00     0.027 A 
HETATM   17  C9  UNL     1      27.476  59.612  54.039  1.00  0.00     0.114 A 
HETATM   18  N5  UNL     1      26.586  59.801  55.034  1.00  0.00    -0.360 N 
HETATM   19  C10 UNL     1      25.355  59.882  54.499  1.00  0.00     0.180 A 
ATOM     20  H5  UNL     1      26.809  59.872  56.026  1.00  0.00     0.166 HD
HETATM   21  N6  UNL     1      25.489  59.740  53.171  1.00  0.00    -0.355 N 
ATOM     22  H6  UNL     1      24.719  59.758  52.503  1.00  0.00     0.166 HD
ENDBRANCH  15  16
ENDBRANCH  10  15
ENDBRANCH   1  10
BRANCH   1  23
HETATM   23  N7  UNL     1      26.021  56.702  49.483  1.00  0.00     0.120 N 
HETATM   24  C11 UNL     1      25.449  56.456  48.173  1.00  0.00     0.301 C 
HETATM   25  C12 UNL     1      25.404  54.938  48.019  1.00  0.00     0.200 C 
HETATM   26  O1  UNL     1      26.448  54.541  48.772  1.00  0.00    -0.361 OA
HETATM   27  C13 UNL     1      26.796  55.540  49.684  1.00  0.00     0.441 C 
ENDBRANCH   1  23
TORSDOF 9
ENDMDL
MODEL 3
REMARK VINA RESULT: -6.632075347      2.288      4.891
REMARK  9 active torsions:
REMARK  status: ('A' for Active; 'I' for Inactive)
REMARK    1  A    between atoms: N3_4  and  C2_6 
REMARK    2  A    between atoms: C2_6  and  C3_7 
REMARK    3  A    between atoms: C3_7  and  C4_8 
REMARK    4  A    between atoms: C4_8  and  C5_9 
REMARK    5  A    between atoms: C5_9  and  C6_10 
REMARK    6  A    between atoms: C5_9  and  N7_23 
REMARK    7  A    between atoms: C6_10  and  N4_11 
REMARK    8  A    between atoms: C6_10  and  C7_15 
REMARK    9  A    between atoms: C7_15  and  C8_16 
ROOT
HETATM    1  C5  UNL     1      26.793  58.013  49.319  1.00  0.00     0.256 C 
ENDROOT
BRANCH   1   2
HETATM    2  C4  UNL     1      28.262  57.975  49.495  1.00  0.00     0.040 C 
BRANCH   2   3
HETATM    3  C3  UNL     1      29.171  58.164  48.342  1.00  0.00     0.022 C 
BRANCH   3   4
HETATM    4  C2  UNL     1      30.563  58.383  48.996  1.00  0.00     0.122 C 
BRANCH   4   5
HETATM    5  N3  UNL     1      30.655  59.697  49.550  1.00  0.00    -0.367 N 
HETATM    6  C1  UNL     1      31.124  59.821  50.740  1.00  0.00     0.196 C 
HETATM    7  N1  UNL     1      31.560  58.743  51.546  1.00  0.00    -0.067 NA
HETATM    8  N2  UNL     1      31.211  61.130  51.278  1.00  0.00    -0.067 NA
ATOM      9  H3  UNL     1      30.357  60.513  49.016  1.00  0.00     0.161 HD
ENDBRANCH   4   5
ENDBRANCH   3   4
ENDBRANCH   2   3
ENDBRANCH   1   2
BRANCH   1  10
HETATM   10  C6  UNL     1      26.301  59.135  50.164  1.00  0.00     0.222 C 
BRANCH  10  11
HETATM   11  N4  UNL     1      25.090  59.770  49.878  1.00  0.00    -0.073 N 
ATOM     12  H43 UNL     1      24.361  59.059  49.834  1.00  0.00     0.274 HD
ATOM     13  H42 UNL     1      24.810  60.305  50.700  1.00  0.00     0.274 HD
ATOM     14  H41 UNL     1      24.995  60.372  49.060  1.00  0.00     0.274 HD
ENDBRANCH  10  11
BRANCH  10  15
HETATM   15  C7  UNL     1      27.349  60.201  50.397  1.00  0.00     0.093 C 
BRANCH  15  16
HETATM   16  C8  UNL     1      27.586  60.339  51.893  1.00  0.00     0.027 A 
HETATM   17  C9  UNL     1      27.250  59.425  52.871  1.00  0.00     0.114 A 
HETATM   18  N5  UNL     1      27.632  59.931  54.060  1.00  0.00    -0.360 N 
HETATM   19  C10 UNL     1      28.197  61.133  53.853  1.00  0.00     0.180 A 
ATOM     20  H5  UNL     1      27.513  59.478  54.966  1.00  0.00     0.166 HD
HETATM   21  N6  UNL     1      28.161  61.366  52.532  1.00  0.00    -0.355 N 
ATOM     22  H6  UNL     1      28.520  62.207  52.079  1.00  0.00     0.166 HD
ENDBRANCH  15  16
ENDBRANCH  10  15
ENDBRANCH   1  10
BRANCH   1  23
HETATM   23  N7  UNL     1      26.078  56.793  49.396  1.00  0.00     0.120 N 
HETATM   24  C11 UNL     1      25.481  56.452  48.118  1.00  0.00     0.301 C 
HETATM   25  C12 UNL     1      25.407  54.928  48.090  1.00  0.00     0.200 C 
HETATM   26  O1  UNL     1      26.456  54.573  48.857  1.00  0.00    -0.361 OA
HETATM   27  C13 UNL     1      26.836  55.637  49.679  1.00  0.00     0.441 C 
ENDBRANCH   1  23
TORSDOF 9
ENDMDL
MODEL 4
REMARK VINA RESULT: -6.611585012      2.905      5.136
REMARK  9 active torsions:
REMARK  status: ('A' for Active; 'I' for Inactive)
REMARK    1  A    between atoms: N3_4  and  C2_6 
REMARK    2  A    between atoms: C2_6  and  C3_7 
REMARK    3  A    between atoms: C3_7  and  C4_8 
REMARK    4  A    between atoms: C4_8  and  C5_9 
REMARK    5  A    between atoms: C5_9  and  C6_10 
REMARK    6  A    between atoms: C5_9  and  N7_23 
REMARK    7  A    between atoms: C6_10  and  N4_11 
REMARK    8  A    between atoms: C6_10  and  C7_15 
REMARK    9  A    between atoms: C7_15  and  C8_16 
ROOT
HETATM    1  C5  UNL     1      27.444  58.191  49.447  1.00  0.00     0.256 C 
ENDROOT
BRANCH   1   2
HETATM    2  C4  UNL     1      28.712  57.833  48.773  1.00  0.00     0.040 C 
BRANCH   2   3
HETATM    3  C3  UNL     1      29.898  58.714  48.866  1.00  0.00     0.022 C 
BRANCH   3   4
HETATM    4  C2  UNL     1      30.665  58.449  47.542  1.00  0.00     0.122 C 
BRANCH   4   5
HETATM    5  N3  UNL     1      31.315  59.639  47.093  1.00  0.00    -0.367 N 
HETATM    6  C1  UNL     1      31.840  59.637  45.919  1.00  0.00     0.196 C 
HETATM    7  N1  UNL     1      31.820  58.534  45.034  1.00  0.00    -0.067 NA
HETATM    8  N2  UNL     1      32.482  60.825  45.485  1.00  0.00    -0.067 NA
ATOM      9  H3  UNL     1      31.361  60.467  47.686  1.00  0.00     0.161 HD
ENDBRANCH   4   5
ENDBRANCH   3   4
ENDBRANCH   2   3
ENDBRANCH   1   2
BRANCH   1  10
HETATM   10  C6  UNL     1      27.822  58.788  50.756  1.00  0.00     0.222 C 
BRANCH  10  11
HETATM   11  N4  UNL     1      27.483  58.158  51.956  1.00  0.00    -0.073 N 
ATOM     12  H43 UNL     1      26.739  58.698  52.399  1.00  0.00     0.274 HD
ATOM     13  H42 UNL     1      27.003  57.287  51.732  1.00  0.00     0.274 HD
ATOM     14  H41 UNL     1      28.192  57.958  52.661  1.00  0.00     0.274 HD
ENDBRANCH  10  11
BRANCH  10  15
HETATM   15  C7  UNL     1      27.449  60.250  50.868  1.00  0.00     0.093 C 
BRANCH  15  16
HETATM   16  C8  UNL     1      28.284  60.888  51.967  1.00  0.00     0.027 A 
HETATM   17  C9  UNL     1      29.659  60.855  52.086  1.00  0.00     0.114 A 
HETATM   18  N5  UNL     1      29.995  61.541  53.197  1.00  0.00    -0.360 N 
HETATM   19  C10 UNL     1      28.871  62.001  53.773  1.00  0.00     0.180 A 
ATOM     20  H5  UNL     1      30.943  61.686  53.542  1.00  0.00     0.166 HD
HETATM   21  N6  UNL     1      27.841  61.596  53.015  1.00  0.00    -0.355 N 
ATOM     22  H6  UNL     1      26.860  61.798  53.208  1.00  0.00     0.166 HD
ENDBRANCH  15  16
ENDBRANCH  10  15
ENDBRANCH   1  10
BRANCH   1  23
HETATM   23  N7  UNL     1      26.399  57.237  49.456  1.00  0.00     0.120 N 
HETATM   24  C11 UNL     1      25.661  57.251  48.207  1.00  0.00     0.301 C 
HETATM   25  C12 UNL     1      25.128  55.833  48.025  1.00  0.00     0.200 C 
HETATM   26  O1  UNL     1      26.058  55.091  48.656  1.00  0.00    -0.361 OA
HETATM   27  C13 UNL     1      26.785  55.882  49.549  1.00  0.00     0.441 C 
ENDBRANCH   1  23
TORSDOF 9
ENDMDL
MODEL 5
REMARK VINA RESULT: -6.601416733      2.446      4.448
REMARK  9 active torsions:
REMARK  status: ('A' for Active; 'I' for Inactive)
REMARK    1  A    between atoms: N3_4  and  C2_6 
REMARK    2  A    between atoms: C2_6  and  C3_7 
REMARK    3  A    between atoms: C3_7  and  C4_8 
REMARK    4  A    between atoms: C4_8  and  C5_9 
REMARK    5  A    between atoms: C5_9  and  C6_10 
REMARK    6  A    between atoms: C5_9  and  N7_23 
REMARK    7  A    between atoms: C6_10  and  N4_11 
REMARK    8  A    between atoms: C6_10  and  C7_15 
REMARK    9  A    between atoms: C7_15  and  C8_16 
ROOT
HETATM    1  C5  UNL     1      27.086  58.914  49.940  1.00  0.00     0.256 C 
ENDROOT
BRANCH   1   2
HETATM    2  C4  UNL     1      28.543  58.720  49.768  1.00  0.00     0.040 C 
BRANCH   2   3
HETATM    3  C3  UNL     1      29.350  59.678  48.979  1.00  0.00     0.022 C 
BRANCH   3   4
HETATM    4  C2  UNL     1      30.563  58.836  48.496  1.00  0.00     0.122 C 
BRANCH   4   5
HETATM    5  N3  UNL     1      31.035  59.315  47.236  1.00  0.00    -0.367 N 
HETATM    6  C1  UNL     1      31.443  58.453  46.374  1.00  0.00     0.196 C 
HETATM    7  N1  UNL     1      31.457  57.054  46.585  1.00  0.00    -0.067 NA
HETATM    8  N2  UNL     1      31.909  58.941  45.127  1.00  0.00    -0.067 NA
ATOM      9  H3  UNL     1      31.048  60.313  47.026  1.00  0.00     0.161 HD
ENDBRANCH   4   5
ENDBRANCH   3   4
ENDBRANCH   2   3
ENDBRANCH   1   2
BRANCH   1  10
HETATM   10  C6  UNL     1      26.917  59.737  51.167  1.00  0.00     0.222 C 
BRANCH  10  11
HETATM   11  N4  UNL     1      27.365  61.060  51.210  1.00  0.00    -0.073 N 
ATOM     12  H43 UNL     1      27.460  61.332  52.188  1.00  0.00     0.274 HD
ATOM     13  H42 UNL     1      28.335  61.077  50.894  1.00  0.00     0.274 HD
ATOM     14  H41 UNL     1      26.860  61.800  50.723  1.00  0.00     0.274 HD
ENDBRANCH  10  11
BRANCH  10  15
HETATM   15  C7  UNL     1      27.396  59.036  52.419  1.00  0.00     0.093 C 
BRANCH  15  16
HETATM   16  C8  UNL     1      26.575  59.527  53.602  1.00  0.00     0.027 A 
HETATM   17  C9  UNL     1      27.047  59.862  54.854  1.00  0.00     0.114 A 
HETATM   18  N5  UNL     1      25.996  60.247  55.604  1.00  0.00    -0.360 N 
HETATM   19  C10 UNL     1      24.882  60.162  54.857  1.00  0.00     0.180 A 
ATOM     20  H5  UNL     1      26.038  60.551  56.577  1.00  0.00     0.166 HD
HETATM   21  N6  UNL     1      25.250  59.723  53.643  1.00  0.00    -0.355 N 
ATOM     22  H6  UNL     1      24.613  59.562  52.864  1.00  0.00     0.166 HD
ENDBRANCH  15  16
ENDBRANCH  10  15
ENDBRANCH   1  10
BRANCH   1  23
HETATM   23  N7  UNL     1      26.241  57.786  49.804  1.00  0.00     0.120 N 
HETATM   24  C11 UNL     1      25.536  57.806  48.536  1.00  0.00     0.301 C 
HETATM   25  C12 UNL     1      25.285  56.343  48.179  1.00  0.00     0.200 C 
HETATM   26  O1  UNL     1      26.329  55.721  48.760  1.00  0.00    -0.361 OA
HETATM   27  C13 UNL     1      26.876  56.526  49.762  1.00  0.00     0.441 C 
ENDBRANCH   1  23
TORSDOF 9
ENDMDL
