MODEL 1
REMARK VINA RESULT: -7.355132188      0.000      0.000
REMARK  5 active torsions:
REMARK  status: ('A' for Active; 'I' for Inactive)
REMARK    1  A    between atoms: N1_2  and  C3_4 
REMARK    2  A    between atoms: C4_7  and  N3_8 
REMARK    3  A    between atoms: C9_17  and  N6_18 
REMARK    4  A    between atoms: C10_21  and  N7_22 
REMARK    5  A    between atoms: N7_22  and  N8_23 
REMARK       I    between atoms: N7_22  and  C11_27 
ROOT
HETATM    1  C3  UNL     1      17.088  47.336 -52.666  1.00  0.00     0.169 A 
HETATM    2  N2  UNL     1      16.277  47.504 -51.564  1.00  0.00    -0.173 N 
ATOM      3  H2  UNL     1      16.605  48.110 -50.814  1.00  0.00     0.186 HD
HETATM    4  C4  UNL     1      15.087  46.917 -51.424  1.00  0.00     0.684 A 
HETATM    5  N5  UNL     1      14.700  46.125 -52.445  1.00  0.00    -0.174 N 
ATOM      6  H5  UNL     1      13.795  45.657 -52.374  1.00  0.00     0.186 HD
HETATM    7  C9  UNL     1      15.441  45.913 -53.557  1.00  0.00     0.165 A 
HETATM    8  C10 UNL     1      16.666  46.521 -53.691  1.00  0.00     0.323 A 
ENDROOT
BRANCH   8   9
HETATM    9  N7  UNL     1      17.450  46.367 -54.832  1.00  0.00     0.234 N 
HETATM   10  O1  UNL     1      17.481  45.079 -55.336  1.00  0.00    -0.027 OA
HETATM   11  C11 UNL     1      17.254  47.259 -55.911  1.00  0.00     0.521 C 
HETATM   12  N9  UNL     1      16.098  47.115 -56.720  1.00  0.00    -0.021 NA
HETATM   13  O2  UNL     1      18.044  48.195 -56.229  1.00  0.00    -0.230 OA
BRANCH   9  14
HETATM   14  N8  UNL     1      18.812  46.557 -54.434  1.00  0.00    -0.196 N 
ATOM     15  H82 UNL     1      19.614  46.601 -55.062  1.00  0.00     0.193 HD
ATOM     16  H81 UNL     1      18.818  46.637 -53.418  1.00  0.00     0.193 HD
ENDBRANCH   9  14
ENDBRANCH   8   9
BRANCH   1  17
HETATM   17  N1  UNL     1      18.330  48.005 -52.638  1.00  0.00    -0.373 N 
HETATM   18  C1  UNL     1      19.546  47.429 -52.105  1.00  0.00     0.150 C 
HETATM   19  C2  UNL     1      18.410  49.352 -53.149  1.00  0.00     0.150 C 
ENDBRANCH   1  17
BRANCH   7  20
HETATM   20  N6  UNL     1      14.970  45.162 -54.497  1.00  0.00    -0.383 N 
ATOM     21  H62 UNL     1      14.227  44.491 -54.305  1.00  0.00     0.157 HD
ATOM     22  H61 UNL     1      15.367  45.229 -55.434  1.00  0.00     0.157 HD
ENDBRANCH   7  20
BRANCH   4  23
HETATM   23  N3  UNL     1      14.259  47.123 -50.288  1.00  0.00    -0.208 N 
HETATM   24  C5  UNL     1      14.112  48.438 -49.722  1.00  0.00     0.186 C 
HETATM   25  C6  UNL     1      14.610  48.354 -48.301  1.00  0.00     0.080 C 
HETATM   26  N4  UNL     1      13.887  47.389 -47.574  1.00  0.00    -0.379 N 
HETATM   27  C7  UNL     1      13.299  46.286 -48.199  1.00  0.00     0.080 C 
ATOM     28  H4  UNL     1      13.789  47.499 -46.564  1.00  0.00     0.164 HD
HETATM   29  C8  UNL     1      13.558  46.054 -49.647  1.00  0.00     0.186 C 
ENDBRANCH   4  23
TORSDOF 5
ENDMDL
MODEL 2
REMARK VINA RESULT: -7.210721697      0.887      1.096
REMARK  5 active torsions:
REMARK  status: ('A' for Active; 'I' for Inactive)
REMARK    1  A    between atoms: N1_2  and  C3_4 
REMARK    2  A    between atoms: C4_7  and  N3_8 
REMARK    3  A    between atoms: C9_17  and  N6_18 
REMARK    4  A    between atoms: C10_21  and  N7_22 
REMARK    5  A    between atoms: N7_22  and  N8_23 
REMARK       I    between atoms: N7_22  and  C11_27 
ROOT
HETATM    1  C3  UNL     1      17.312  47.317 -52.592  1.00  0.00     0.169 A 
HETATM    2  N2  UNL     1      16.543  47.603 -51.485  1.00  0.00    -0.173 N 
ATOM      3  H2  UNL     1      16.945  48.198 -50.762  1.00  0.00     0.186 HD
HETATM    4  C4  UNL     1      15.302  47.146 -51.307  1.00  0.00     0.684 A 
HETATM    5  N5  UNL     1      14.818  46.363 -52.293  1.00  0.00    -0.174 N 
ATOM      6  H5  UNL     1      13.873  45.993 -52.192  1.00  0.00     0.186 HD
HETATM    7  C9  UNL     1      15.514  46.041 -53.408  1.00  0.00     0.165 A 
HETATM    8  C10 UNL     1      16.791  46.516 -53.582  1.00  0.00     0.323 A 
ENDROOT
BRANCH   8   9
HETATM    9  N7  UNL     1      17.534  46.246 -54.729  1.00  0.00     0.234 N 
HETATM   10  O1  UNL     1      17.440  44.940 -55.177  1.00  0.00    -0.027 OA
HETATM   11  C11 UNL     1      17.394  47.105 -55.843  1.00  0.00     0.521 C 
HETATM   12  N9  UNL     1      16.213  47.031 -56.624  1.00  0.00    -0.021 NA
HETATM   13  O2  UNL     1      18.257  47.953 -56.215  1.00  0.00    -0.230 OA
BRANCH   9  14
HETATM   14  N8  UNL     1      18.915  46.330 -54.364  1.00  0.00    -0.196 N 
ATOM     15  H82 UNL     1      19.276  46.402 -53.413  1.00  0.00     0.193 HD
ATOM     16  H81 UNL     1      19.455  46.303 -55.229  1.00  0.00     0.193 HD
ENDBRANCH   9  14
ENDBRANCH   8   9
BRANCH   1  17
HETATM   17  N1  UNL     1      18.616  47.858 -52.608  1.00  0.00    -0.373 N 
HETATM   18  C1  UNL     1      19.781  47.170 -52.093  1.00  0.00     0.150 C 
HETATM   19  C2  UNL     1      18.818  49.181 -53.146  1.00  0.00     0.150 C 
ENDBRANCH   1  17
BRANCH   7  20
HETATM   20  N6  UNL     1      14.951  45.310 -54.314  1.00  0.00    -0.383 N 
ATOM     21  H62 UNL     1      15.441  45.084 -55.179  1.00  0.00     0.157 HD
ATOM     22  H61 UNL     1      13.997  44.981 -54.166  1.00  0.00     0.157 HD
ENDBRANCH   7  20
BRANCH   4  23
HETATM   23  N3  UNL     1      14.521  47.473 -50.166  1.00  0.00    -0.208 N 
HETATM   24  C5  UNL     1      13.098  47.650 -50.284  1.00  0.00     0.186 C 
HETATM   25  C6  UNL     1      12.803  49.064 -49.852  1.00  0.00     0.080 C 
HETATM   26  N4  UNL     1      13.249  49.290 -48.536  1.00  0.00    -0.379 N 
HETATM   27  C7  UNL     1      14.323  48.580 -47.992  1.00  0.00     0.080 C 
ATOM     28  H4  UNL     1      12.776  49.990 -47.964  1.00  0.00     0.164 HD
HETATM   29  C8  UNL     1      15.098  47.659 -48.870  1.00  0.00     0.186 C 
ENDBRANCH   4  23
TORSDOF 5
ENDMDL
MODEL 3
REMARK VINA RESULT: -6.871555867      1.376      1.728
REMARK  5 active torsions:
REMARK  status: ('A' for Active; 'I' for Inactive)
REMARK    1  A    between atoms: N1_2  and  C3_4 
REMARK    2  A    between atoms: C4_7  and  N3_8 
REMARK    3  A    between atoms: C9_17  and  N6_18 
REMARK    4  A    between atoms: C10_21  and  N7_22 
REMARK    5  A    between atoms: N7_22  and  N8_23 
REMARK       I    between atoms: N7_22  and  C11_27 
ROOT
HETATM    1  C3  UNL     1      17.417  47.623 -52.628  1.00  0.00     0.169 A 
HETATM    2  N2  UNL     1      16.976  47.255 -51.376  1.00  0.00    -0.173 N 
ATOM      3  H2  UNL     1      17.530  47.537 -50.568  1.00  0.00     0.186 HD
HETATM    4  C4  UNL     1      15.864  46.550 -51.160  1.00  0.00     0.684 A 
HETATM    5  N5  UNL     1      15.168  46.201 -52.262  1.00  0.00    -0.174 N 
ATOM      6  H5  UNL     1      14.312  45.659 -52.138  1.00  0.00     0.186 HD
HETATM    7  C9  UNL     1      15.539  46.528 -53.522  1.00  0.00     0.165 A 
HETATM    8  C10 UNL     1      16.686  47.253 -53.733  1.00  0.00     0.323 A 
ENDROOT
BRANCH   8   9
HETATM    9  N7  UNL     1      17.091  47.648 -55.006  1.00  0.00     0.234 N 
HETATM   10  O1  UNL     1      18.440  47.933 -55.115  1.00  0.00    -0.027 OA
HETATM   11  C11 UNL     1      16.717  46.851 -56.112  1.00  0.00     0.521 C 
HETATM   12  N9  UNL     1      17.375  45.611 -56.318  1.00  0.00    -0.021 NA
HETATM   13  O2  UNL     1      15.828  47.158 -56.958  1.00  0.00    -0.230 OA
BRANCH   9  14
HETATM   14  N8  UNL     1      16.503  48.930 -55.255  1.00  0.00    -0.196 N 
ATOM     15  H82 UNL     1      15.722  49.114 -55.884  1.00  0.00     0.193 HD
ATOM     16  H81 UNL     1      17.011  49.607 -54.687  1.00  0.00     0.193 HD
ENDBRANCH   9  14
ENDBRANCH   8   9
BRANCH   1  17
HETATM   17  N1  UNL     1      18.631  48.343 -52.679  1.00  0.00    -0.373 N 
HETATM   18  C1  UNL     1      19.934  47.720 -52.780  1.00  0.00     0.150 C 
HETATM   19  C2  UNL     1      18.594  49.783 -52.607  1.00  0.00     0.150 C 
ENDBRANCH   1  17
BRANCH   7  20
HETATM   20  N6  UNL     1      14.788  46.176 -54.513  1.00  0.00    -0.383 N 
ATOM     21  H62 UNL     1      13.993  46.750 -54.794  1.00  0.00     0.157 HD
ATOM     22  H61 UNL     1      14.982  45.301 -54.999  1.00  0.00     0.157 HD
ENDBRANCH   7  20
BRANCH   4  23
HETATM   23  N3  UNL     1      15.418  46.200 -49.858  1.00  0.00    -0.208 N 
HETATM   24  C5  UNL     1      14.024  45.945 -49.609  1.00  0.00     0.186 C 
HETATM   25  C6  UNL     1      13.578  46.954 -48.581  1.00  0.00     0.080 C 
HETATM   26  N4  UNL     1      14.345  46.845 -47.406  1.00  0.00    -0.379 N 
HETATM   27  C7  UNL     1      15.660  46.373 -47.429  1.00  0.00     0.080 C 
ATOM     28  H4  UNL     1      13.931  47.118 -46.514  1.00  0.00     0.164 HD
HETATM   29  C8  UNL     1      16.309  46.105 -48.742  1.00  0.00     0.186 C 
ENDBRANCH   4  23
TORSDOF 5
ENDMDL
MODEL 4
REMARK VINA RESULT: -6.685900601      1.471      1.906
REMARK  5 active torsions:
REMARK  status: ('A' for Active; 'I' for Inactive)
REMARK    1  A    between atoms: N1_2  and  C3_4 
REMARK    2  A    between atoms: C4_7  and  N3_8 
REMARK    3  A    between atoms: C9_17  and  N6_18 
REMARK    4  A    between atoms: C10_21  and  N7_22 
REMARK    5  A    between atoms: N7_22  and  N8_23 
REMARK       I    between atoms: N7_22  and  C11_27 
ROOT
HETATM    1  C3  UNL     1      17.397  46.663 -52.483  1.00  0.00     0.169 A 
HETATM    2  N2  UNL     1      17.245  47.064 -51.174  1.00  0.00    -0.173 N 
ATOM      3  H2  UNL     1      18.058  47.445 -50.691  1.00  0.00     0.186 HD
HETATM    4  C4  UNL     1      16.095  46.982 -50.503  1.00  0.00     0.684 A 
HETATM    5  N5  UNL     1      15.052  46.469 -51.187  1.00  0.00    -0.174 N 
ATOM      6  H5  UNL     1      14.154  46.389 -50.707  1.00  0.00     0.186 HD
HETATM    7  C9  UNL     1      15.125  46.056 -52.474  1.00  0.00     0.165 A 
HETATM    8  C10 UNL     1      16.314  46.144 -53.156  1.00  0.00     0.323 A 
ENDROOT
BRANCH   8   9
HETATM    9  N7  UNL     1      16.433  45.770 -54.493  1.00  0.00     0.234 N 
HETATM   10  O1  UNL     1      15.542  44.790 -54.893  1.00  0.00    -0.027 OA
HETATM   11  C11 UNL     1      16.449  46.782 -55.479  1.00  0.00     0.521 C 
HETATM   12  N9  UNL     1      15.238  47.446 -55.802  1.00  0.00    -0.021 NA
HETATM   13  O2  UNL     1      17.476  47.152 -56.119  1.00  0.00    -0.230 OA
BRANCH   9  14
HETATM   14  N8  UNL     1      17.688  45.095 -54.630  1.00  0.00    -0.196 N 
ATOM     15  H82 UNL     1      18.516  45.258 -54.058  1.00  0.00     0.193 HD
ATOM     16  H81 UNL     1      17.589  44.432 -55.398  1.00  0.00     0.193 HD
ENDBRANCH   9  14
ENDBRANCH   8   9
BRANCH   1  17
HETATM   17  N1  UNL     1      18.691  46.791 -53.033  1.00  0.00    -0.373 N 
HETATM   18  C1  UNL     1      19.655  45.712 -53.087  1.00  0.00     0.150 C 
HETATM   19  C2  UNL     1      19.104  48.068 -53.559  1.00  0.00     0.150 C 
ENDBRANCH   1  17
BRANCH   7  20
HETATM   20  N6  UNL     1      14.061  45.610 -53.056  1.00  0.00    -0.383 N 
ATOM     21  H62 UNL     1      13.231  45.373 -52.514  1.00  0.00     0.157 HD
ATOM     22  H61 UNL     1      14.066  45.474 -54.067  1.00  0.00     0.157 HD
ENDBRANCH   7  20
BRANCH   4  23
HETATM   23  N3  UNL     1      15.958  47.422 -49.159  1.00  0.00    -0.208 N 
HETATM   24  C5  UNL     1      14.889  46.923 -48.334  1.00  0.00     0.186 C 
HETATM   25  C6  UNL     1      14.065  48.119 -47.927  1.00  0.00     0.080 C 
HETATM   26  N4  UNL     1      14.855  49.063 -47.244  1.00  0.00    -0.379 N 
HETATM   27  C7  UNL     1      16.228  49.179 -47.478  1.00  0.00     0.080 C 
ATOM     28  H4  UNL     1      14.414  49.677 -46.559  1.00  0.00     0.164 HD
HETATM   29  C8  UNL     1      16.845  48.379 -48.572  1.00  0.00     0.186 C 
ENDBRANCH   4  23
TORSDOF 5
ENDMDL
MODEL 5
REMARK VINA RESULT: -6.641824773      1.690      1.850
REMARK  5 active torsions:
REMARK  status: ('A' for Active; 'I' for Inactive)
REMARK    1  A    between atoms: N1_2  and  C3_4 
REMARK    2  A    between atoms: C4_7  and  N3_8 
REMARK    3  A    between atoms: C9_17  and  N6_18 
REMARK    4  A    between atoms: C10_21  and  N7_22 
REMARK    5  A    between atoms: N7_22  and  N8_23 
REMARK       I    between atoms: N7_22  and  C11_27 
ROOT
HETATM    1  C3  UNL     1      17.399  46.696 -52.496  1.00  0.00     0.169 A 
HETATM    2  N2  UNL     1      17.247  47.123 -51.195  1.00  0.00    -0.173 N 
ATOM      3  H2  UNL     1      18.060  47.510 -50.718  1.00  0.00     0.186 HD
HETATM    4  C4  UNL     1      16.095  47.060 -50.524  1.00  0.00     0.684 A 
HETATM    5  N5  UNL     1      15.051  46.539 -51.200  1.00  0.00    -0.174 N 
ATOM      6  H5  UNL     1      14.152  46.472 -50.720  1.00  0.00     0.186 HD
HETATM    7  C9  UNL     1      15.124  46.101 -52.478  1.00  0.00     0.165 A 
HETATM    8  C10 UNL     1      16.315  46.169 -53.160  1.00  0.00     0.323 A 
ENDROOT
BRANCH   8   9
HETATM    9  N7  UNL     1      16.434  45.768 -54.489  1.00  0.00     0.234 N 
HETATM   10  O1  UNL     1      15.538  44.785 -54.872  1.00  0.00    -0.027 OA
HETATM   11  C11 UNL     1      16.457  46.761 -55.495  1.00  0.00     0.521 C 
HETATM   12  N9  UNL     1      15.250  47.425 -55.833  1.00  0.00    -0.021 NA
HETATM   13  O2  UNL     1      17.487  47.113 -56.140  1.00  0.00    -0.230 OA
BRANCH   9  14
HETATM   14  N8  UNL     1      17.685  45.084 -54.610  1.00  0.00    -0.196 N 
ATOM     15  H82 UNL     1      17.908  44.175 -54.205  1.00  0.00     0.193 HD
ATOM     16  H81 UNL     1      18.297  45.677 -55.172  1.00  0.00     0.193 HD
ENDBRANCH   9  14
ENDBRANCH   8   9
BRANCH   1  17
HETATM   17  N1  UNL     1      18.694  46.807 -53.046  1.00  0.00    -0.373 N 
HETATM   18  C1  UNL     1      19.652  45.722 -53.081  1.00  0.00     0.150 C 
HETATM   19  C2  UNL     1      19.116  48.073 -53.592  1.00  0.00     0.150 C 
ENDBRANCH   1  17
BRANCH   7  20
HETATM   20  N6  UNL     1      14.059  45.648 -53.053  1.00  0.00    -0.383 N 
ATOM     21  H62 UNL     1      13.264  45.328 -52.500  1.00  0.00     0.157 HD
ATOM     22  H61 UNL     1      14.028  45.590 -54.071  1.00  0.00     0.157 HD
ENDBRANCH   7  20
BRANCH   4  23
HETATM   23  N3  UNL     1      15.958  47.527 -49.189  1.00  0.00    -0.208 N 
HETATM   24  C5  UNL     1      16.644  48.717 -48.760  1.00  0.00     0.186 C 
HETATM   25  C6  UNL     1      17.558  48.306 -47.634  1.00  0.00     0.080 C 
HETATM   26  N4  UNL     1      16.827  47.718 -46.584  1.00  0.00    -0.379 N 
HETATM   27  C7  UNL     1      15.620  47.052 -46.813  1.00  0.00     0.080 C 
ATOM     28  H4  UNL     1      17.188  47.780 -45.632  1.00  0.00     0.164 HD
HETATM   29  C8  UNL     1      15.164  46.843 -48.215  1.00  0.00     0.186 C 
ENDBRANCH   4  23
TORSDOF 5
ENDMDL
