MODEL 1
REMARK VINA RESULT: -6.751744034      0.000      0.000
REMARK  14 active torsions:
REMARK  status: ('A' for Active; 'I' for Inactive)
REMARK    1  A    between atoms: O1_2  and  C2_3 
REMARK    2  A    between atoms: C2_3  and  C4_5 
REMARK    3  A    between atoms: C5_6  and  O2_7 
REMARK    4  A    between atoms: C6_9  and  O3_10 
REMARK    5  A    between atoms: O3_10  and  C7_11 
REMARK    6  A    between atoms: C7_11  and  C8_12 
REMARK    7  A    between atoms: C8_12  and  O4_13 
REMARK    8  A    between atoms: C8_12  and  C9_15 
REMARK    9  A    between atoms: C9_15  and  C10_16 
REMARK   10  A    between atoms: C9_15  and  C11_24 
REMARK   11  A    between atoms: C11_24  and  O5_26 
REMARK   12  A    between atoms: C15_30  and  O6_31 
REMARK   13  A    between atoms: C16_33  and  N5_34 
REMARK   14  A    between atoms: N5_34  and  O7_36 
ROOT
HETATM    1  C4  UNL     1      19.671  35.257   8.405  1.00  0.00     0.038 A 
HETATM    2  C5  UNL     1      19.947  36.472   9.104  1.00  0.00     0.111 A 
HETATM    3  C6  UNL     1      19.622  36.645  10.434  1.00  0.00     0.111 A 
HETATM    4  C13 UNL     1      19.003  35.612  11.153  1.00  0.00     0.010 A 
HETATM    5  C14 UNL     1      18.680  35.822  12.597  1.00  0.00     0.054 C 
HETATM    6  C15 UNL     1      18.741  34.461  10.495  1.00  0.00     0.103 A 
HETATM    7  C16 UNL     1      19.068  34.266   9.120  1.00  0.00     0.102 A 
ENDROOT
BRANCH   3   8
HETATM    8  O3  UNL     1      19.871  37.797  11.116  1.00  0.00    -0.345 OA
BRANCH   8   9
HETATM    9  C7  UNL     1      20.850  38.229  11.942  1.00  0.00     0.208 C 
BRANCH   9  10
HETATM   10  C8  UNL     1      22.287  38.013  11.720  1.00  0.00     0.156 C 
BRANCH  10  11
HETATM   11  O4  UNL     1      22.793  39.117  10.964  1.00  0.00    -0.393 OA
ATOM     12  H4  UNL     1      22.807  39.882  11.528  1.00  0.00     0.210 HD
ENDBRANCH  10  11
BRANCH  10  13
HETATM   13  C9  UNL     1      23.160  37.967  12.956  1.00  0.00     0.115 C 
BRANCH  13  14
HETATM   14  C10 UNL     1      24.536  38.390  12.509  1.00  0.00     0.119 A 
HETATM   15  N1  UNL     1      25.111  39.600  12.612  1.00  0.00    -0.270 N 
HETATM   16  N2  UNL     1      26.348  39.534  12.101  1.00  0.00    -0.005 NA
ATOM     17  H1  UNL     1      24.677  40.432  13.013  1.00  0.00     0.185 HD
HETATM   18  N3  UNL     1      26.569  38.303  11.675  1.00  0.00    -0.225 N 
HETATM   19  N4  UNL     1      25.493  37.622  11.915  1.00  0.00    -0.275 N 
ATOM     20  H3  UNL     1      27.424  37.955  11.241  1.00  0.00     0.205 HD
ATOM     21  H4  UNL     1      25.377  36.634  11.688  1.00  0.00     0.189 HD
ENDBRANCH  13  14
BRANCH  13  22
HETATM   22  C11 UNL     1      22.685  38.811  14.086  1.00  0.00     0.128 C 
HETATM   23  C12 UNL     1      21.614  38.253  14.945  1.00  0.00     0.040 C 
BRANCH  22  24
HETATM   24  O5  UNL     1      22.175  39.999  13.510  1.00  0.00    -0.395 OA
ATOM     25  H5  UNL     1      22.241  40.670  14.179  1.00  0.00     0.210 HD
ENDBRANCH  22  24
ENDBRANCH  13  22
ENDBRANCH  10  13
ENDBRANCH   9  10
ENDBRANCH   8   9
ENDBRANCH   3   8
BRANCH   2  26
HETATM   26  O2  UNL     1      20.557  37.461   8.407  1.00  0.00    -0.357 OA
ATOM     27  H2  UNL     1      21.008  38.131   8.909  1.00  0.00     0.217 HD
ENDBRANCH   2  26
BRANCH   1  28
HETATM   28  C2  UNL     1      19.934  35.213   6.961  1.00  0.00     0.155 C 
HETATM   29  C3  UNL     1      19.103  36.128   6.078  1.00  0.00     0.045 C 
BRANCH  28  30
HETATM   30  O1  UNL     1      21.283  35.644   6.731  1.00  0.00    -0.386 OA
HETATM   31  C1  UNL     1      21.680  35.311   5.478  1.00  0.00     0.202 C 
ENDBRANCH  28  30
ENDBRANCH   1  28
BRANCH   6  32
HETATM   32  O6  UNL     1      18.133  33.431  11.194  1.00  0.00    -0.358 OA
ATOM     33  H6  UNL     1      17.884  32.649  10.715  1.00  0.00     0.217 HD
ENDBRANCH   6  32
BRANCH   7  34
HETATM   34  N5  UNL     1      18.703  32.983   8.605  1.00  0.00    -0.260 N 
HETATM   35  C17 UNL     1      17.373  32.413   8.673  1.00  0.00     0.186 C 
BRANCH  34  36
HETATM   36  O7  UNL     1      19.659  32.243   8.023  1.00  0.00    -0.283 OA
HETATM   37  C18 UNL     1      20.744  31.989   8.804  1.00  0.00     0.237 C 
ENDBRANCH  34  36
ENDBRANCH   7  34
TORSDOF 14
ENDMDL
MODEL 2
REMARK VINA RESULT: -6.553770869      0.929      1.330
REMARK  14 active torsions:
REMARK  status: ('A' for Active; 'I' for Inactive)
REMARK    1  A    between atoms: O1_2  and  C2_3 
REMARK    2  A    between atoms: C2_3  and  C4_5 
REMARK    3  A    between atoms: C5_6  and  O2_7 
REMARK    4  A    between atoms: C6_9  and  O3_10 
REMARK    5  A    between atoms: O3_10  and  C7_11 
REMARK    6  A    between atoms: C7_11  and  C8_12 
REMARK    7  A    between atoms: C8_12  and  O4_13 
REMARK    8  A    between atoms: C8_12  and  C9_15 
REMARK    9  A    between atoms: C9_15  and  C10_16 
REMARK   10  A    between atoms: C9_15  and  C11_24 
REMARK   11  A    between atoms: C11_24  and  O5_26 
REMARK   12  A    between atoms: C15_30  and  O6_31 
REMARK   13  A    between atoms: C16_33  and  N5_34 
REMARK   14  A    between atoms: N5_34  and  O7_36 
ROOT
HETATM    1  C4  UNL     1      19.699  35.333   8.507  1.00  0.00     0.038 A 
HETATM    2  C5  UNL     1      19.958  36.553   9.203  1.00  0.00     0.111 A 
HETATM    3  C6  UNL     1      19.615  36.731  10.528  1.00  0.00     0.111 A 
HETATM    4  C13 UNL     1      18.993  35.698  11.244  1.00  0.00     0.010 A 
HETATM    5  C14 UNL     1      18.651  35.912  12.683  1.00  0.00     0.054 C 
HETATM    6  C15 UNL     1      18.748  34.541  10.588  1.00  0.00     0.103 A 
HETATM    7  C16 UNL     1      19.093  34.342   9.219  1.00  0.00     0.102 A 
ENDROOT
BRANCH   3   8
HETATM    8  O3  UNL     1      19.848  37.888  11.207  1.00  0.00    -0.345 OA
BRANCH   8   9
HETATM    9  C7  UNL     1      20.872  38.378  11.942  1.00  0.00     0.208 C 
BRANCH   9  10
HETATM   10  C8  UNL     1      22.043  37.601  12.368  1.00  0.00     0.156 C 
BRANCH  10  11
HETATM   11  O4  UNL     1      22.929  37.478  11.250  1.00  0.00    -0.393 OA
ATOM     12  H4  UNL     1      22.895  36.580  10.943  1.00  0.00     0.210 HD
ENDBRANCH  10  11
BRANCH  10  13
HETATM   13  C9  UNL     1      22.895  38.208  13.462  1.00  0.00     0.115 C 
BRANCH  13  14
HETATM   14  C10 UNL     1      24.185  38.624  12.803  1.00  0.00     0.119 A 
HETATM   15  N1  UNL     1      25.426  38.164  13.035  1.00  0.00    -0.270 N 
HETATM   16  N2  UNL     1      26.280  38.796  12.218  1.00  0.00    -0.005 NA
ATOM     17  H1  UNL     1      25.678  37.451  13.720  1.00  0.00     0.185 HD
HETATM   18  N3  UNL     1      25.602  39.650  11.470  1.00  0.00    -0.225 N 
HETATM   19  N4  UNL     1      24.358  39.550  11.817  1.00  0.00    -0.275 N 
ATOM     20  H3  UNL     1      25.986  40.269  10.756  1.00  0.00     0.205 HD
ATOM     21  H4  UNL     1      23.601  40.097  11.405  1.00  0.00     0.189 HD
ENDBRANCH  13  14
BRANCH  13  22
HETATM   22  C11 UNL     1      22.268  39.355  14.174  1.00  0.00     0.128 C 
HETATM   23  C12 UNL     1      23.135  40.517  14.481  1.00  0.00     0.040 C 
BRANCH  22  24
HETATM   24  O5  UNL     1      21.803  38.850  15.411  1.00  0.00    -0.395 OA
ATOM     25  H5  UNL     1      22.029  39.499  16.067  1.00  0.00     0.210 HD
ENDBRANCH  22  24
ENDBRANCH  13  22
ENDBRANCH  10  13
ENDBRANCH   9  10
ENDBRANCH   8   9
ENDBRANCH   3   8
BRANCH   2  26
HETATM   26  O2  UNL     1      20.572  37.543   8.509  1.00  0.00    -0.357 OA
ATOM     27  H2  UNL     1      20.851  38.308   9.000  1.00  0.00     0.217 HD
ENDBRANCH   2  26
BRANCH   1  28
HETATM   28  C2  UNL     1      19.981  35.284   7.066  1.00  0.00     0.155 C 
HETATM   29  C3  UNL     1      19.240  36.272   6.182  1.00  0.00     0.045 C 
BRANCH  28  30
HETATM   30  O1  UNL     1      21.364  35.608   6.862  1.00  0.00    -0.386 OA
HETATM   31  C1  UNL     1      21.720  35.372   5.575  1.00  0.00     0.202 C 
ENDBRANCH  28  30
ENDBRANCH   1  28
BRANCH   6  32
HETATM   32  O6  UNL     1      18.137  33.511  11.285  1.00  0.00    -0.358 OA
ATOM     33  H6  UNL     1      18.175  33.526  12.233  1.00  0.00     0.217 HD
ENDBRANCH   6  32
BRANCH   7  34
HETATM   34  N5  UNL     1      18.743  33.054   8.705  1.00  0.00    -0.260 N 
HETATM   35  C17 UNL     1      19.675  32.131   8.088  1.00  0.00     0.186 C 
BRANCH  34  36
HETATM   36  O7  UNL     1      17.461  32.669   8.789  1.00  0.00    -0.283 OA
HETATM   37  C18 UNL     1      17.173  31.492   8.172  1.00  0.00     0.237 C 
ENDBRANCH  34  36
ENDBRANCH   7  34
TORSDOF 14
ENDMDL
MODEL 3
REMARK VINA RESULT: -5.736524037      1.774      2.290
REMARK  14 active torsions:
REMARK  status: ('A' for Active; 'I' for Inactive)
REMARK    1  A    between atoms: O1_2  and  C2_3 
REMARK    2  A    between atoms: C2_3  and  C4_5 
REMARK    3  A    between atoms: C5_6  and  O2_7 
REMARK    4  A    between atoms: C6_9  and  O3_10 
REMARK    5  A    between atoms: O3_10  and  C7_11 
REMARK    6  A    between atoms: C7_11  and  C8_12 
REMARK    7  A    between atoms: C8_12  and  O4_13 
REMARK    8  A    between atoms: C8_12  and  C9_15 
REMARK    9  A    between atoms: C9_15  and  C10_16 
REMARK   10  A    between atoms: C9_15  and  C11_24 
REMARK   11  A    between atoms: C11_24  and  O5_26 
REMARK   12  A    between atoms: C15_30  and  O6_31 
REMARK   13  A    between atoms: C16_33  and  N5_34 
REMARK   14  A    between atoms: N5_34  and  O7_36 
ROOT
HETATM    1  C4  UNL     1      19.550  35.447   8.757  1.00  0.00     0.038 A 
HETATM    2  C5  UNL     1      19.850  36.643   9.478  1.00  0.00     0.111 A 
HETATM    3  C6  UNL     1      19.614  36.764  10.832  1.00  0.00     0.111 A 
HETATM    4  C13 UNL     1      19.066  35.694  11.554  1.00  0.00     0.010 A 
HETATM    5  C14 UNL     1      18.839  35.847  13.024  1.00  0.00     0.054 C 
HETATM    6  C15 UNL     1      18.781  34.560  10.875  1.00  0.00     0.103 A 
HETATM    7  C16 UNL     1      19.016  34.419   9.476  1.00  0.00     0.102 A 
ENDROOT
BRANCH   3   8
HETATM    8  O3  UNL     1      19.888  37.897  11.536  1.00  0.00    -0.345 OA
BRANCH   8   9
HETATM    9  C7  UNL     1      20.969  38.384  12.186  1.00  0.00     0.208 C 
BRANCH   9  10
HETATM   10  C8  UNL     1      22.344  37.899  12.002  1.00  0.00     0.156 C 
BRANCH  10  11
HETATM   11  O4  UNL     1      22.556  37.677  10.605  1.00  0.00    -0.393 OA
ATOM     12  H4  UNL     1      23.486  37.538  10.464  1.00  0.00     0.210 HD
ENDBRANCH  10  11
BRANCH  10  13
HETATM   13  C9  UNL     1      23.453  38.846  12.409  1.00  0.00     0.115 C 
BRANCH  13  14
HETATM   14  C10 UNL     1      23.013  39.466  13.711  1.00  0.00     0.119 A 
HETATM   15  N1  UNL     1      23.089  40.754  14.088  1.00  0.00    -0.270 N 
HETATM   16  N2  UNL     1      22.571  40.873  15.319  1.00  0.00    -0.005 NA
ATOM     17  H1  UNL     1      23.476  41.516  13.530  1.00  0.00     0.185 HD
HETATM   18  N3  UNL     1      22.169  39.683  15.730  1.00  0.00    -0.225 N 
HETATM   19  N4  UNL     1      22.432  38.846  14.776  1.00  0.00    -0.275 N 
ATOM     20  H3  UNL     1      21.734  39.466  16.626  1.00  0.00     0.205 HD
ATOM     21  H4  UNL     1      22.229  37.847  14.818  1.00  0.00     0.189 HD
ENDBRANCH  13  14
BRANCH  13  22
HETATM   22  C11 UNL     1      24.792  38.212  12.547  1.00  0.00     0.128 C 
HETATM   23  C12 UNL     1      25.969  39.023  12.154  1.00  0.00     0.040 C 
BRANCH  22  24
HETATM   24  O5  UNL     1      24.782  37.070  11.713  1.00  0.00    -0.395 OA
ATOM     25  H5  UNL     1      25.106  37.353  10.867  1.00  0.00     0.210 HD
ENDBRANCH  22  24
ENDBRANCH  13  22
ENDBRANCH  10  13
ENDBRANCH   9  10
ENDBRANCH   8   9
ENDBRANCH   3   8
BRANCH   2  26
HETATM   26  O2  UNL     1      20.393  37.669   8.777  1.00  0.00    -0.357 OA
ATOM     27  H2  UNL     1      21.022  38.219   9.230  1.00  0.00     0.217 HD
ENDBRANCH   2  26
BRANCH   1  28
HETATM   28  C2  UNL     1      19.714  35.458   7.298  1.00  0.00     0.155 C 
HETATM   29  C3  UNL     1      18.909  36.484   6.518  1.00  0.00     0.045 C 
BRANCH  28  30
HETATM   30  O1  UNL     1      21.078  35.789   6.995  1.00  0.00    -0.386 OA
HETATM   31  C1  UNL     1      21.393  35.392   5.738  1.00  0.00     0.202 C 
ENDBRANCH  28  30
ENDBRANCH   1  28
BRANCH   6  32
HETATM   32  O6  UNL     1      18.242  33.495  11.577  1.00  0.00    -0.358 OA
ATOM     33  H6  UNL     1      17.446  33.097  11.247  1.00  0.00     0.217 HD
ENDBRANCH   6  32
BRANCH   7  34
HETATM   34  N5  UNL     1      18.642  33.147   8.941  1.00  0.00    -0.260 N 
HETATM   35  C17 UNL     1      17.300  32.788   8.527  1.00  0.00     0.186 C 
BRANCH  34  36
HETATM   36  O7  UNL     1      19.594  32.210   8.820  1.00  0.00    -0.283 OA
HETATM   37  C18 UNL     1      20.432  32.376   7.761  1.00  0.00     0.237 C 
ENDBRANCH  34  36
ENDBRANCH   7  34
TORSDOF 14
ENDMDL
MODEL 4
REMARK VINA RESULT: -3.980994172      1.701      2.047
REMARK  14 active torsions:
REMARK  status: ('A' for Active; 'I' for Inactive)
REMARK    1  A    between atoms: O1_2  and  C2_3 
REMARK    2  A    between atoms: C2_3  and  C4_5 
REMARK    3  A    between atoms: C5_6  and  O2_7 
REMARK    4  A    between atoms: C6_9  and  O3_10 
REMARK    5  A    between atoms: O3_10  and  C7_11 
REMARK    6  A    between atoms: C7_11  and  C8_12 
REMARK    7  A    between atoms: C8_12  and  O4_13 
REMARK    8  A    between atoms: C8_12  and  C9_15 
REMARK    9  A    between atoms: C9_15  and  C10_16 
REMARK   10  A    between atoms: C9_15  and  C11_24 
REMARK   11  A    between atoms: C11_24  and  O5_26 
REMARK   12  A    between atoms: C15_30  and  O6_31 
REMARK   13  A    between atoms: C16_33  and  N5_34 
REMARK   14  A    between atoms: N5_34  and  O7_36 
ROOT
HETATM    1  C4  UNL     1      19.888  34.796   8.017  1.00  0.00     0.038 A 
HETATM    2  C5  UNL     1      19.949  36.065   8.672  1.00  0.00     0.111 A 
HETATM    3  C6  UNL     1      19.442  36.262   9.940  1.00  0.00     0.111 A 
HETATM    4  C13 UNL     1      18.845  35.202  10.638  1.00  0.00     0.010 A 
HETATM    5  C14 UNL     1      18.323  35.441  12.018  1.00  0.00     0.054 C 
HETATM    6  C15 UNL     1      18.787  34.000  10.021  1.00  0.00     0.103 A 
HETATM    7  C16 UNL     1      19.303  33.780   8.710  1.00  0.00     0.102 A 
ENDROOT
BRANCH   3   8
HETATM    8  O3  UNL     1      19.485  37.464  10.579  1.00  0.00    -0.345 OA
BRANCH   8   9
HETATM    9  C7  UNL     1      20.451  38.197  11.177  1.00  0.00     0.208 C 
BRANCH   9  10
HETATM   10  C8  UNL     1      21.715  37.655  11.692  1.00  0.00     0.156 C 
BRANCH  10  11
HETATM   11  O4  UNL     1      22.774  38.527  11.286  1.00  0.00    -0.393 OA
ATOM     12  H4  UNL     1      22.431  39.127  10.634  1.00  0.00     0.210 HD
ENDBRANCH  10  11
BRANCH  10  13
HETATM   13  C9  UNL     1      21.849  37.569  13.197  1.00  0.00     0.115 C 
BRANCH  13  14
HETATM   14  C10 UNL     1      22.234  38.952  13.660  1.00  0.00     0.119 A 
HETATM   15  N1  UNL     1      23.250  39.309  14.463  1.00  0.00    -0.270 N 
HETATM   16  N2  UNL     1      23.238  40.643  14.605  1.00  0.00    -0.005 NA
ATOM     17  H1  UNL     1      23.920  38.673  14.894  1.00  0.00     0.185 HD
HETATM   18  N3  UNL     1      22.232  41.137  13.905  1.00  0.00    -0.225 N 
HETATM   19  N4  UNL     1      21.633  40.134  13.344  1.00  0.00    -0.275 N 
ATOM     20  H3  UNL     1      21.975  42.121  13.822  1.00  0.00     0.205 HD
ATOM     21  H4  UNL     1      20.814  40.219  12.741  1.00  0.00     0.189 HD
ENDBRANCH  13  14
BRANCH  13  22
HETATM   22  C11 UNL     1      20.630  37.092  13.905  1.00  0.00     0.128 C 
HETATM   23  C12 UNL     1      19.325  37.615  13.435  1.00  0.00     0.040 C 
BRANCH  22  24
HETATM   24  O5  UNL     1      20.771  37.491  15.255  1.00  0.00    -0.395 OA
ATOM     25  H5  UNL     1      20.997  36.708  15.744  1.00  0.00     0.210 HD
ENDBRANCH  22  24
ENDBRANCH  13  22
ENDBRANCH  10  13
ENDBRANCH   9  10
ENDBRANCH   8   9
ENDBRANCH   3   8
BRANCH   2  26
HETATM   26  O2  UNL     1      20.539  37.082   7.997  1.00  0.00    -0.357 OA
ATOM     27  H2  UNL     1      21.350  37.425   8.354  1.00  0.00     0.217 HD
ENDBRANCH   2  26
BRANCH   1  28
HETATM   28  C2  UNL     1      20.335  34.716   6.620  1.00  0.00     0.155 C 
HETATM   29  C3  UNL     1      19.491  35.434   5.581  1.00  0.00     0.045 C 
BRANCH  28  30
HETATM   30  O1  UNL     1      21.620  35.347   6.516  1.00  0.00    -0.386 OA
HETATM   31  C1  UNL     1      21.969  35.499   5.215  1.00  0.00     0.202 C 
ENDBRANCH  28  30
ENDBRANCH   1  28
BRANCH   6  32
HETATM   32  O6  UNL     1      18.203  32.944  10.700  1.00  0.00    -0.358 OA
ATOM     33  H6  UNL     1      17.257  32.929  10.779  1.00  0.00     0.217 HD
ENDBRANCH   6  32
BRANCH   7  34
HETATM   34  N5  UNL     1      19.139  32.443   8.230  1.00  0.00    -0.260 N 
HETATM   35  C17 UNL     1      17.900  31.898   7.710  1.00  0.00     0.186 C 
BRANCH  34  36
HETATM   36  O7  UNL     1      20.201  31.624   8.269  1.00  0.00    -0.283 OA
HETATM   37  C18 UNL     1      21.239  32.067   9.030  1.00  0.00     0.237 C 
ENDBRANCH  34  36
ENDBRANCH   7  34
TORSDOF 14
ENDMDL
MODEL 5
REMARK VINA RESULT: -3.754243984      2.480      7.674
REMARK  14 active torsions:
REMARK  status: ('A' for Active; 'I' for Inactive)
REMARK    1  A    between atoms: O1_2  and  C2_3 
REMARK    2  A    between atoms: C2_3  and  C4_5 
REMARK    3  A    between atoms: C5_6  and  O2_7 
REMARK    4  A    between atoms: C6_9  and  O3_10 
REMARK    5  A    between atoms: O3_10  and  C7_11 
REMARK    6  A    between atoms: C7_11  and  C8_12 
REMARK    7  A    between atoms: C8_12  and  O4_13 
REMARK    8  A    between atoms: C8_12  and  C9_15 
REMARK    9  A    between atoms: C9_15  and  C10_16 
REMARK   10  A    between atoms: C9_15  and  C11_24 
REMARK   11  A    between atoms: C11_24  and  O5_26 
REMARK   12  A    between atoms: C15_30  and  O6_31 
REMARK   13  A    between atoms: C16_33  and  N5_34 
REMARK   14  A    between atoms: N5_34  and  O7_36 
ROOT
HETATM    1  C4  UNL     1      22.245  37.944  11.949  1.00  0.00     0.038 A 
HETATM    2  C5  UNL     1      21.322  37.337  11.043  1.00  0.00     0.111 A 
HETATM    3  C6  UNL     1      20.121  36.805  11.463  1.00  0.00     0.111 A 
HETATM    4  C13 UNL     1      19.761  36.849  12.818  1.00  0.00     0.010 A 
HETATM    5  C14 UNL     1      18.444  36.282  13.241  1.00  0.00     0.054 C 
HETATM    6  C15 UNL     1      20.631  37.424  13.678  1.00  0.00     0.103 A 
HETATM    7  C16 UNL     1      21.878  37.976  13.262  1.00  0.00     0.102 A 
ENDROOT
BRANCH   3   8
HETATM    8  O3  UNL     1      19.231  36.217  10.616  1.00  0.00    -0.345 OA
BRANCH   8   9
HETATM    9  C7  UNL     1      19.326  35.402   9.541  1.00  0.00     0.208 C 
BRANCH   9  10
HETATM   10  C8  UNL     1      19.102  35.823   8.151  1.00  0.00     0.156 C 
BRANCH  10  11
HETATM   11  O4  UNL     1      20.346  36.289   7.620  1.00  0.00    -0.393 OA
ATOM     12  H4  UNL     1      20.363  36.095   6.690  1.00  0.00     0.210 HD
ENDBRANCH  10  11
BRANCH  10  13
HETATM   13  C9  UNL     1      18.656  34.747   7.185  1.00  0.00     0.115 C 
BRANCH  13  14
HETATM   14  C10 UNL     1      18.295  35.460   5.906  1.00  0.00     0.119 A 
HETATM   15  N1  UNL     1      18.514  35.064   4.641  1.00  0.00    -0.270 N 
HETATM   16  N2  UNL     1      18.020  35.992   3.808  1.00  0.00    -0.005 NA
ATOM     17  H1  UNL     1      18.979  34.201   4.359  1.00  0.00     0.185 HD
HETATM   18  N3  UNL     1      17.491  36.969   4.524  1.00  0.00    -0.225 N 
HETATM   19  N4  UNL     1      17.655  36.656   5.770  1.00  0.00    -0.275 N 
ATOM     20  H3  UNL     1      17.040  37.810   4.163  1.00  0.00     0.205 HD
ATOM     21  H4  UNL     1      17.343  37.232   6.552  1.00  0.00     0.189 HD
ENDBRANCH  13  14
BRANCH  13  22
HETATM   22  C11 UNL     1      19.662  33.680   6.932  1.00  0.00     0.128 C 
HETATM   23  C12 UNL     1      20.031  32.812   8.076  1.00  0.00     0.040 C 
BRANCH  22  24
HETATM   24  O5  UNL     1      20.844  34.337   6.516  1.00  0.00    -0.395 OA
ATOM     25  H5  UNL     1      20.639  34.758   5.690  1.00  0.00     0.210 HD
ENDBRANCH  22  24
ENDBRANCH  13  22
ENDBRANCH  10  13
ENDBRANCH   9  10
ENDBRANCH   8   9
ENDBRANCH   3   8
BRANCH   2  26
HETATM   26  O2  UNL     1      21.670  37.309   9.733  1.00  0.00    -0.357 OA
ATOM     27  H2  UNL     1      21.059  37.692   9.114  1.00  0.00     0.217 HD
ENDBRANCH   2  26
BRANCH   1  28
HETATM   28  C2  UNL     1      23.553  38.363  11.430  1.00  0.00     0.155 C 
HETATM   29  C3  UNL     1      24.135  39.655  11.979  1.00  0.00     0.045 C 
BRANCH  28  30
HETATM   30  O1  UNL     1      24.524  37.369  11.785  1.00  0.00    -0.386 OA
HETATM   31  C1  UNL     1      25.754  37.928  11.899  1.00  0.00     0.202 C 
ENDBRANCH  28  30
ENDBRANCH   1  28
BRANCH   6  32
HETATM   32  O6  UNL     1      20.286  37.477  15.019  1.00  0.00    -0.358 OA
ATOM     33  H6  UNL     1      19.631  38.109  15.289  1.00  0.00     0.217 HD
ENDBRANCH   6  32
BRANCH   7  34
HETATM   34  N5  UNL     1      22.660  38.531  14.322  1.00  0.00    -0.260 N 
HETATM   35  C17 UNL     1      24.016  38.133  14.644  1.00  0.00     0.186 C 
BRANCH  34  36
HETATM   36  O7  UNL     1      22.101  39.482  15.086  1.00  0.00    -0.283 OA
HETATM   37  C18 UNL     1      22.681  40.709  14.990  1.00  0.00     0.237 C 
ENDBRANCH  34  36
ENDBRANCH   7  34
TORSDOF 14
ENDMDL
