MODEL 1
REMARK VINA RESULT: -6.081806364      0.000      0.000
REMARK  15 active torsions:
REMARK  status: ('A' for Active; 'I' for Inactive)
REMARK    1  A    between atoms: N1_2  and  C2_4 
REMARK    2  A    between atoms: C2_4  and  C3_6 
REMARK    3  A    between atoms: C4_7  and  C5_8 
REMARK    4  A    between atoms: N2_10  and  C7_11 
REMARK    5  A    between atoms: C7_11  and  C8_12 
REMARK       I    between atoms: C8_12  and  N3_14 
REMARK    6  A    between atoms: N3_14  and  C9_16 
REMARK    7  A    between atoms: C9_16  and  C10_17 
REMARK    8  A    between atoms: C10_17  and  N4_18 
REMARK    9  A    between atoms: C10_17  and  C11_22 
REMARK       I    between atoms: C11_22  and  N5_24 
REMARK   10  A    between atoms: N5_24  and  C12_26 
REMARK   11  A    between atoms: C12_26  and  C13_27 
REMARK   12  A    between atoms: C12_26  and  C14_29 
REMARK   13  A    between atoms: C14_29  and  O4_31 
REMARK   14  A    between atoms: C16_35  and  N7_36 
REMARK       I    between atoms: N7_36  and  C17_38 
REMARK   15  A    between atoms: C17_38  and  O6_40 
ROOT
HETATM    1  C8  UNL     1      47.641   2.086  -0.110  1.00  0.00     0.237 C 
HETATM    2  O1  UNL     1      47.247   2.965   0.695  1.00  0.00    -0.272 OA
HETATM    3  N3  UNL     1      49.034   1.809  -0.164  1.00  0.00    -0.357 N 
ATOM      4  H3  UNL     1      49.368   1.097  -0.814  1.00  0.00     0.162 HD
ENDROOT
BRANCH   1   5
HETATM    5  C7  UNL     1      46.664   1.394  -0.950  1.00  0.00     0.250 C 
BRANCH   5   6
HETATM    6  N2  UNL     1      47.312   0.726  -2.063  1.00  0.00    -0.291 N 
HETATM    7  C6  UNL     1      47.240  -0.590  -2.333  1.00  0.00     0.135 A 
HETATM    8  C5  UNL     1      47.979  -0.880  -3.471  1.00  0.00     0.080 A 
HETATM    9  C16 UNL     1      48.501   0.332  -3.870  1.00  0.00     0.145 A 
HETATM   10  N6  UNL     1      48.065   1.253  -2.987  1.00  0.00    -0.282 N 
ATOM     11  H6  UNL     1      48.298   2.245  -3.036  1.00  0.00     0.189 HD
BRANCH   8  12
HETATM   12  C4  UNL     1      48.157  -2.176  -4.092  1.00  0.00    -0.054 C 
HETATM   13  C3  UNL     1      48.314  -3.250  -4.624  1.00  0.00    -0.032 C 
BRANCH  13  14
HETATM   14  C2  UNL     1      48.518  -4.514  -5.268  1.00  0.00     0.151 C 
HETATM   15  S1  UNL     1      49.990  -5.165  -5.532  1.00  0.00    -0.051 SA
BRANCH  14  16
HETATM   16  N1  UNL     1      47.382  -5.243  -5.700  1.00  0.00    -0.378 N 
HETATM   17  C1  UNL     1      47.446  -6.640  -6.082  1.00  0.00     0.147 C 
ATOM     18  H1  UNL     1      46.482  -4.765  -5.743  1.00  0.00     0.160 HD
ENDBRANCH  14  16
ENDBRANCH  13  14
ENDBRANCH   8  12
BRANCH   9  19
HETATM   19  N7  UNL     1      49.334   0.519  -5.004  1.00  0.00    -0.286 N 
HETATM   20  C17 UNL     1      50.442   1.416  -4.983  1.00  0.00     0.365 C 
HETATM   21  O5  UNL     1      50.700   2.070  -3.928  1.00  0.00    -0.238 OA
ATOM     22  H7  UNL     1      49.135  -0.003  -5.857  1.00  0.00     0.172 HD
BRANCH  20  23
HETATM   23  O6  UNL     1      51.254   1.606  -6.072  1.00  0.00    -0.309 OA
HETATM   24  C18 UNL     1      52.642   1.811  -5.982  1.00  0.00     0.215 C 
ENDBRANCH  20  23
ENDBRANCH   9  19
ENDBRANCH   5   6
ENDBRANCH   1   5
BRANCH   3  25
HETATM   25  C9  UNL     1      49.994   2.499   0.667  1.00  0.00     0.165 C 
BRANCH  25  26
HETATM   26  C10 UNL     1      51.268   2.737  -0.125  1.00  0.00     0.292 C 
BRANCH  26  27
HETATM   27  N4  UNL     1      50.851   3.332  -1.391  1.00  0.00    -0.065 N 
ATOM     28  H43 UNL     1      49.910   3.063  -1.676  1.00  0.00     0.275 HD
ATOM     29  H42 UNL     1      50.681   4.337  -1.332  1.00  0.00     0.275 HD
ATOM     30  H41 UNL     1      51.569   3.081  -2.071  1.00  0.00     0.275 HD
ENDBRANCH  26  27
BRANCH  26  31
HETATM   31  C11 UNL     1      51.945   1.458  -0.450  1.00  0.00     0.250 C 
HETATM   32  O2  UNL     1      52.890   1.084   0.293  1.00  0.00    -0.271 OA
HETATM   33  N5  UNL     1      51.569   0.655  -1.558  1.00  0.00    -0.346 N 
ATOM     34  H5  UNL     1      50.802   0.977  -2.149  1.00  0.00     0.163 HD
BRANCH  33  35
HETATM   35  C12 UNL     1      52.205  -0.581  -1.893  1.00  0.00     0.174 C 
BRANCH  35  36
HETATM   36  C13 UNL     1      53.188  -0.339  -2.975  1.00  0.00     0.258 C 
HETATM   37  O3  UNL     1      54.293   0.107  -2.748  1.00  0.00    -0.305 OA
ENDBRANCH  35  36
BRANCH  35  38
HETATM   38  C14 UNL     1      51.207  -1.661  -2.270  1.00  0.00     0.143 C 
HETATM   39  C15 UNL     1      51.957  -2.930  -2.609  1.00  0.00     0.042 C 
BRANCH  38  40
HETATM   40  O4  UNL     1      50.374  -1.917  -1.207  1.00  0.00    -0.393 OA
ATOM     41  H4  UNL     1      49.468  -1.829  -1.480  1.00  0.00     0.210 HD
ENDBRANCH  38  40
ENDBRANCH  35  38
ENDBRANCH  33  35
ENDBRANCH  26  31
ENDBRANCH  25  26
ENDBRANCH   3  25
TORSDOF 15
ENDMDL
MODEL 2
REMARK VINA RESULT: -6.028294658      3.341      5.911
REMARK  15 active torsions:
REMARK  status: ('A' for Active; 'I' for Inactive)
REMARK    1  A    between atoms: N1_2  and  C2_4 
REMARK    2  A    between atoms: C2_4  and  C3_6 
REMARK    3  A    between atoms: C4_7  and  C5_8 
REMARK    4  A    between atoms: N2_10  and  C7_11 
REMARK    5  A    between atoms: C7_11  and  C8_12 
REMARK       I    between atoms: C8_12  and  N3_14 
REMARK    6  A    between atoms: N3_14  and  C9_16 
REMARK    7  A    between atoms: C9_16  and  C10_17 
REMARK    8  A    between atoms: C10_17  and  N4_18 
REMARK    9  A    between atoms: C10_17  and  C11_22 
REMARK       I    between atoms: C11_22  and  N5_24 
REMARK   10  A    between atoms: N5_24  and  C12_26 
REMARK   11  A    between atoms: C12_26  and  C13_27 
REMARK   12  A    between atoms: C12_26  and  C14_29 
REMARK   13  A    between atoms: C14_29  and  O4_31 
REMARK   14  A    between atoms: C16_35  and  N7_36 
REMARK       I    between atoms: N7_36  and  C17_38 
REMARK   15  A    between atoms: C17_38  and  O6_40 
ROOT
HETATM    1  C8  UNL     1      48.142  -2.241  -4.567  1.00  0.00     0.237 C 
HETATM    2  O1  UNL     1      46.953  -2.277  -4.968  1.00  0.00    -0.272 OA
HETATM    3  N3  UNL     1      48.383  -1.809  -3.234  1.00  0.00    -0.357 N 
ATOM      4  H3  UNL     1      49.344  -1.775  -2.895  1.00  0.00     0.162 HD
ENDROOT
BRANCH   1   5
HETATM    5  C7  UNL     1      49.217  -2.639  -5.475  1.00  0.00     0.250 C 
BRANCH   5   6
HETATM    6  N2  UNL     1      49.762  -3.932  -5.104  1.00  0.00    -0.291 N 
HETATM    7  C6  UNL     1      49.107  -5.104  -5.177  1.00  0.00     0.135 A 
HETATM    8  C5  UNL     1      49.931  -6.134  -4.744  1.00  0.00     0.080 A 
HETATM    9  C16 UNL     1      51.116  -5.516  -4.405  1.00  0.00     0.145 A 
HETATM   10  N6  UNL     1      50.951  -4.200  -4.644  1.00  0.00    -0.282 N 
ATOM     11  H6  UNL     1      51.673  -3.497  -4.482  1.00  0.00     0.189 HD
BRANCH   8  12
HETATM   12  C4  UNL     1      49.604  -7.542  -4.667  1.00  0.00    -0.054 C 
HETATM   13  C3  UNL     1      49.314  -8.714  -4.603  1.00  0.00    -0.032 C 
BRANCH  13  14
HETATM   14  C2  UNL     1      48.947 -10.098  -4.535  1.00  0.00     0.151 C 
HETATM   15  S1  UNL     1      49.988 -11.322  -4.815  1.00  0.00    -0.051 SA
BRANCH  14  16
HETATM   16  N1  UNL     1      47.609 -10.426  -4.206  1.00  0.00    -0.378 N 
HETATM   17  C1  UNL     1      46.474  -9.656  -4.677  1.00  0.00     0.147 C 
ATOM     18  H1  UNL     1      47.437 -11.237  -3.613  1.00  0.00     0.160 HD
ENDBRANCH  14  16
ENDBRANCH  13  14
ENDBRANCH   8  12
BRANCH   9  19
HETATM   19  N7  UNL     1      52.262  -6.188  -3.905  1.00  0.00    -0.286 N 
HETATM   20  C17 UNL     1      53.583  -5.786  -4.260  1.00  0.00     0.365 C 
HETATM   21  O5  UNL     1      53.751  -4.804  -5.043  1.00  0.00    -0.238 OA
ATOM     22  H7  UNL     1      52.138  -6.979  -3.274  1.00  0.00     0.172 HD
BRANCH  20  23
HETATM   23  O6  UNL     1      54.698  -6.427  -3.784  1.00  0.00    -0.309 OA
HETATM   24  C18 UNL     1      55.826  -6.717  -4.573  1.00  0.00     0.215 C 
ENDBRANCH  20  23
ENDBRANCH   9  19
ENDBRANCH   5   6
ENDBRANCH   1   5
BRANCH   3  25
HETATM   25  C9  UNL     1      47.315  -1.416  -2.342  1.00  0.00     0.165 C 
BRANCH  25  26
HETATM   26  C10 UNL     1      47.211   0.099  -2.317  1.00  0.00     0.292 C 
BRANCH  26  27
HETATM   27  N4  UNL     1      46.471   0.474  -3.517  1.00  0.00    -0.065 N 
ATOM     28  H43 UNL     1      46.558  -0.202  -4.276  1.00  0.00     0.275 HD
ATOM     29  H42 UNL     1      45.458   0.409  -3.408  1.00  0.00     0.275 HD
ATOM     30  H41 UNL     1      46.792   1.409  -3.768  1.00  0.00     0.275 HD
ENDBRANCH  26  27
BRANCH  26  31
HETATM   31  C11 UNL     1      48.550   0.730  -2.419  1.00  0.00     0.250 C 
HETATM   32  O2  UNL     1      48.946   1.097  -3.556  1.00  0.00    -0.271 OA
HETATM   33  N5  UNL     1      49.388   0.931  -1.291  1.00  0.00    -0.346 N 
ATOM     34  H5  UNL     1      49.049   0.626  -0.378  1.00  0.00     0.163 HD
BRANCH  33  35
HETATM   35  C12 UNL     1      50.681   1.536  -1.362  1.00  0.00     0.174 C 
BRANCH  35  36
HETATM   36  C13 UNL     1      51.706   0.472  -1.465  1.00  0.00     0.258 C 
HETATM   37  O3  UNL     1      51.512  -0.648  -1.039  1.00  0.00    -0.305 OA
ENDBRANCH  35  36
BRANCH  35  38
HETATM   38  C14 UNL     1      50.949   2.466  -0.193  1.00  0.00     0.143 C 
HETATM   39  C15 UNL     1      49.712   2.539   0.675  1.00  0.00     0.042 C 
BRANCH  38  40
HETATM   40  O4  UNL     1      51.984   1.974   0.565  1.00  0.00    -0.393 OA
ATOM     41  H4  UNL     1      51.841   1.053   0.749  1.00  0.00     0.210 HD
ENDBRANCH  38  40
ENDBRANCH  35  38
ENDBRANCH  33  35
ENDBRANCH  26  31
ENDBRANCH  25  26
ENDBRANCH   3  25
TORSDOF 15
ENDMDL
MODEL 3
REMARK VINA RESULT: -5.903180152      2.592      4.361
REMARK  15 active torsions:
REMARK  status: ('A' for Active; 'I' for Inactive)
REMARK    1  A    between atoms: N1_2  and  C2_4 
REMARK    2  A    between atoms: C2_4  and  C3_6 
REMARK    3  A    between atoms: C4_7  and  C5_8 
REMARK    4  A    between atoms: N2_10  and  C7_11 
REMARK    5  A    between atoms: C7_11  and  C8_12 
REMARK       I    between atoms: C8_12  and  N3_14 
REMARK    6  A    between atoms: N3_14  and  C9_16 
REMARK    7  A    between atoms: C9_16  and  C10_17 
REMARK    8  A    between atoms: C10_17  and  N4_18 
REMARK    9  A    between atoms: C10_17  and  C11_22 
REMARK       I    between atoms: C11_22  and  N5_24 
REMARK   10  A    between atoms: N5_24  and  C12_26 
REMARK   11  A    between atoms: C12_26  and  C13_27 
REMARK   12  A    between atoms: C12_26  and  C14_29 
REMARK   13  A    between atoms: C14_29  and  O4_31 
REMARK   14  A    between atoms: C16_35  and  N7_36 
REMARK       I    between atoms: N7_36  and  C17_38 
REMARK   15  A    between atoms: C17_38  and  O6_40 
ROOT
HETATM    1  C8  UNL     1      47.191  -0.304  -2.693  1.00  0.00     0.237 C 
HETATM    2  O1  UNL     1      46.635  -1.093  -1.891  1.00  0.00    -0.272 OA
HETATM    3  N3  UNL     1      47.290   1.064  -2.320  1.00  0.00    -0.357 N 
ATOM      4  H3  UNL     1      47.740   1.717  -2.961  1.00  0.00     0.162 HD
ENDROOT
BRANCH   1   5
HETATM    5  C7  UNL     1      47.706  -0.817  -3.963  1.00  0.00     0.250 C 
BRANCH   5   6
HETATM    6  N2  UNL     1      49.049  -1.344  -3.806  1.00  0.00    -0.291 N 
HETATM    7  C6  UNL     1      49.443  -2.587  -4.137  1.00  0.00     0.135 A 
HETATM    8  C5  UNL     1      50.792  -2.747  -3.852  1.00  0.00     0.080 A 
HETATM    9  C16 UNL     1      51.187  -1.533  -3.330  1.00  0.00     0.145 A 
HETATM   10  N6  UNL     1      50.100  -0.737  -3.329  1.00  0.00    -0.282 N 
ATOM     11  H6  UNL     1      50.099   0.227  -2.995  1.00  0.00     0.189 HD
BRANCH   8  12
HETATM   12  C4  UNL     1      51.595  -3.934  -4.060  1.00  0.00    -0.054 C 
HETATM   13  C3  UNL     1      52.264  -4.922  -4.252  1.00  0.00    -0.032 C 
BRANCH  13  14
HETATM   14  C2  UNL     1      53.064  -6.085  -4.501  1.00  0.00     0.151 C 
HETATM   15  S1  UNL     1      52.944  -6.990  -5.853  1.00  0.00    -0.051 SA
BRANCH  14  16
HETATM   16  N1  UNL     1      54.013  -6.473  -3.524  1.00  0.00    -0.378 N 
HETATM   17  C1  UNL     1      55.375  -6.843  -3.856  1.00  0.00     0.147 C 
ATOM     18  H1  UNL     1      53.726  -6.493  -2.545  1.00  0.00     0.160 HD
ENDBRANCH  14  16
ENDBRANCH  13  14
ENDBRANCH   8  12
BRANCH   9  19
HETATM   19  N7  UNL     1      52.504  -1.233  -2.893  1.00  0.00    -0.286 N 
HETATM   20  C17 UNL     1      53.279  -0.200  -3.497  1.00  0.00     0.365 C 
HETATM   21  O5  UNL     1      52.789   0.475  -4.451  1.00  0.00    -0.238 OA
ATOM     22  H7  UNL     1      52.907  -1.771  -2.126  1.00  0.00     0.172 HD
BRANCH  20  23
HETATM   23  O6  UNL     1      54.552   0.099  -3.084  1.00  0.00    -0.309 OA
HETATM   24  C18 UNL     1      55.443   0.896  -3.825  1.00  0.00     0.215 C 
ENDBRANCH  20  23
ENDBRANCH   9  19
ENDBRANCH   5   6
ENDBRANCH   1   5
BRANCH   3  25
HETATM   25  C9  UNL     1      46.777   1.564  -1.064  1.00  0.00     0.165 C 
BRANCH  25  26
HETATM   26  C10 UNL     1      47.910   1.649  -0.055  1.00  0.00     0.292 C 
BRANCH  26  27
HETATM   27  N4  UNL     1      47.710   2.900   0.671  1.00  0.00    -0.065 N 
ATOM     28  H43 UNL     1      47.770   3.728   0.078  1.00  0.00     0.275 HD
ATOM     29  H42 UNL     1      46.749   3.040   0.984  1.00  0.00     0.275 HD
ATOM     30  H41 UNL     1      48.389   2.896   1.433  1.00  0.00     0.275 HD
ENDBRANCH  26  27
BRANCH  26  31
HETATM   31  C11 UNL     1      49.226   1.748  -0.733  1.00  0.00     0.250 C 
HETATM   32  O2  UNL     1      49.933   0.710  -0.805  1.00  0.00    -0.271 OA
HETATM   33  N5  UNL     1      49.707   2.960  -1.294  1.00  0.00    -0.346 N 
ATOM     34  H5  UNL     1      49.119   3.790  -1.223  1.00  0.00     0.163 HD
BRANCH  33  35
HETATM   35  C12 UNL     1      50.970   3.082  -1.951  1.00  0.00     0.174 C 
BRANCH  35  36
HETATM   36  C13 UNL     1      51.747   4.166  -1.307  1.00  0.00     0.258 C 
HETATM   37  O3  UNL     1      51.926   4.200  -0.107  1.00  0.00    -0.305 OA
ENDBRANCH  35  36
BRANCH  35  38
HETATM   38  C14 UNL     1      50.825   3.304  -3.445  1.00  0.00     0.143 C 
HETATM   39  C15 UNL     1      52.125   3.850  -3.994  1.00  0.00     0.042 C 
BRANCH  38  40
HETATM   40  O4  UNL     1      50.556   2.110  -4.070  1.00  0.00    -0.393 OA
ATOM     41  H4  UNL     1      51.264   1.890  -4.665  1.00  0.00     0.210 HD
ENDBRANCH  38  40
ENDBRANCH  35  38
ENDBRANCH  33  35
ENDBRANCH  26  31
ENDBRANCH  25  26
ENDBRANCH   3  25
TORSDOF 15
ENDMDL
MODEL 4
REMARK VINA RESULT: -5.878678604      3.868      6.899
REMARK  15 active torsions:
REMARK  status: ('A' for Active; 'I' for Inactive)
REMARK    1  A    between atoms: N1_2  and  C2_4 
REMARK    2  A    between atoms: C2_4  and  C3_6 
REMARK    3  A    between atoms: C4_7  and  C5_8 
REMARK    4  A    between atoms: N2_10  and  C7_11 
REMARK    5  A    between atoms: C7_11  and  C8_12 
REMARK       I    between atoms: C8_12  and  N3_14 
REMARK    6  A    between atoms: N3_14  and  C9_16 
REMARK    7  A    between atoms: C9_16  and  C10_17 
REMARK    8  A    between atoms: C10_17  and  N4_18 
REMARK    9  A    between atoms: C10_17  and  C11_22 
REMARK       I    between atoms: C11_22  and  N5_24 
REMARK   10  A    between atoms: N5_24  and  C12_26 
REMARK   11  A    between atoms: C12_26  and  C13_27 
REMARK   12  A    between atoms: C12_26  and  C14_29 
REMARK   13  A    between atoms: C14_29  and  O4_31 
REMARK   14  A    between atoms: C16_35  and  N7_36 
REMARK       I    between atoms: N7_36  and  C17_38 
REMARK   15  A    between atoms: C17_38  and  O6_40 
ROOT
HETATM    1  C8  UNL     1      48.472  -2.181  -4.544  1.00  0.00     0.237 C 
HETATM    2  O1  UNL     1      47.317  -2.350  -5.005  1.00  0.00    -0.272 OA
HETATM    3  N3  UNL     1      48.592  -1.710  -3.208  1.00  0.00    -0.357 N 
ATOM      4  H3  UNL     1      49.524  -1.568  -2.819  1.00  0.00     0.162 HD
ENDROOT
BRANCH   1   5
HETATM    5  C7  UNL     1      49.631  -2.469  -5.388  1.00  0.00     0.250 C 
BRANCH   5   6
HETATM    6  N2  UNL     1      50.224  -3.748  -5.041  1.00  0.00    -0.291 N 
HETATM    7  C6  UNL     1      51.523  -3.953  -4.756  1.00  0.00     0.135 A 
HETATM    8  C5  UNL     1      51.737  -5.295  -4.469  1.00  0.00     0.080 A 
HETATM    9  C16 UNL     1      50.496  -5.884  -4.598  1.00  0.00     0.145 A 
HETATM   10  N6  UNL     1      49.635  -4.906  -4.941  1.00  0.00    -0.282 N 
ATOM     11  H6  UNL     1      48.639  -5.055  -5.105  1.00  0.00     0.189 HD
BRANCH   8  12
HETATM   12  C4  UNL     1      52.992  -5.924  -4.114  1.00  0.00    -0.054 C 
HETATM   13  C3  UNL     1      54.031  -6.457  -3.804  1.00  0.00    -0.032 C 
BRANCH  13  14
HETATM   14  C2  UNL     1      55.251  -7.106  -3.423  1.00  0.00     0.151 C 
HETATM   15  S1  UNL     1      56.673  -6.876  -4.189  1.00  0.00    -0.051 SA
BRANCH  14  16
HETATM   16  N1  UNL     1      55.226  -7.996  -2.321  1.00  0.00    -0.378 N 
HETATM   17  C1  UNL     1      56.351  -8.162  -1.421  1.00  0.00     0.147 C 
ATOM     18  H1  UNL     1      54.382  -8.543  -2.153  1.00  0.00     0.160 HD
ENDBRANCH  14  16
ENDBRANCH  13  14
ENDBRANCH   8  12
BRANCH   9  19
HETATM   19  N7  UNL     1      50.233  -7.264  -4.396  1.00  0.00    -0.286 N 
HETATM   20  C17 UNL     1      48.933  -7.817  -4.586  1.00  0.00     0.365 C 
HETATM   21  O5  UNL     1      47.978  -7.064  -4.945  1.00  0.00    -0.238 OA
ATOM     22  H7  UNL     1      50.995  -7.877  -4.107  1.00  0.00     0.172 HD
BRANCH  20  23
HETATM   23  O6  UNL     1      48.666  -9.148  -4.393  1.00  0.00    -0.309 OA
HETATM   24  C18 UNL     1      47.368  -9.666  -4.232  1.00  0.00     0.215 C 
ENDBRANCH  20  23
ENDBRANCH   9  19
ENDBRANCH   5   6
ENDBRANCH   1   5
BRANCH   3  25
HETATM   25  C9  UNL     1      47.442  -1.425  -2.380  1.00  0.00     0.165 C 
BRANCH  25  26
HETATM   26  C10 UNL     1      47.216   0.076  -2.329  1.00  0.00     0.292 C 
BRANCH  26  27
HETATM   27  N4  UNL     1      46.491   0.417  -3.550  1.00  0.00    -0.065 N 
ATOM     28  H43 UNL     1      45.727  -0.225  -3.761  1.00  0.00     0.275 HD
ATOM     29  H42 UNL     1      45.924   1.261  -3.463  1.00  0.00     0.275 HD
ATOM     30  H41 UNL     1      47.191   0.473  -4.289  1.00  0.00     0.275 HD
ENDBRANCH  26  27
BRANCH  26  31
HETATM   31  C11 UNL     1      48.502   0.814  -2.370  1.00  0.00     0.250 C 
HETATM   32  O2  UNL     1      48.891   1.263  -3.478  1.00  0.00    -0.271 OA
HETATM   33  N5  UNL     1      49.297   1.025  -1.213  1.00  0.00    -0.346 N 
ATOM     34  H5  UNL     1      48.965   0.651  -0.324  1.00  0.00     0.163 HD
BRANCH  33  35
HETATM   35  C12 UNL     1      50.539   1.732  -1.225  1.00  0.00     0.174 C 
BRANCH  35  36
HETATM   36  C13 UNL     1      51.650   0.755  -1.314  1.00  0.00     0.258 C 
HETATM   37  O3  UNL     1      51.505  -0.409  -1.003  1.00  0.00    -0.305 OA
ENDBRANCH  35  36
BRANCH  35  38
HETATM   38  C14 UNL     1      50.693   2.651  -0.026  1.00  0.00     0.143 C 
HETATM   39  C15 UNL     1      49.419   2.617   0.790  1.00  0.00     0.042 C 
BRANCH  38  40
HETATM   40  O4  UNL     1      51.729   2.216   0.765  1.00  0.00    -0.393 OA
ATOM     41  H4  UNL     1      52.001   2.913   1.351  1.00  0.00     0.210 HD
ENDBRANCH  38  40
ENDBRANCH  35  38
ENDBRANCH  33  35
ENDBRANCH  26  31
ENDBRANCH  25  26
ENDBRANCH   3  25
TORSDOF 15
ENDMDL
MODEL 5
REMARK VINA RESULT: -5.851177635      3.483      6.640
REMARK  15 active torsions:
REMARK  status: ('A' for Active; 'I' for Inactive)
REMARK    1  A    between atoms: N1_2  and  C2_4 
REMARK    2  A    between atoms: C2_4  and  C3_6 
REMARK    3  A    between atoms: C4_7  and  C5_8 
REMARK    4  A    between atoms: N2_10  and  C7_11 
REMARK    5  A    between atoms: C7_11  and  C8_12 
REMARK       I    between atoms: C8_12  and  N3_14 
REMARK    6  A    between atoms: N3_14  and  C9_16 
REMARK    7  A    between atoms: C9_16  and  C10_17 
REMARK    8  A    between atoms: C10_17  and  N4_18 
REMARK    9  A    between atoms: C10_17  and  C11_22 
REMARK       I    between atoms: C11_22  and  N5_24 
REMARK   10  A    between atoms: N5_24  and  C12_26 
REMARK   11  A    between atoms: C12_26  and  C13_27 
REMARK   12  A    between atoms: C12_26  and  C14_29 
REMARK   13  A    between atoms: C14_29  and  O4_31 
REMARK   14  A    between atoms: C16_35  and  N7_36 
REMARK       I    between atoms: N7_36  and  C17_38 
REMARK   15  A    between atoms: C17_38  and  O6_40 
ROOT
HETATM    1  C8  UNL     1      49.657  -1.658  -5.946  1.00  0.00     0.237 C 
HETATM    2  O1  UNL     1      50.171  -1.439  -4.822  1.00  0.00    -0.272 OA
HETATM    3  N3  UNL     1      48.527  -0.883  -6.324  1.00  0.00    -0.357 N 
ATOM      4  H3  UNL     1      48.100  -1.048  -7.235  1.00  0.00     0.162 HD
ENDROOT
BRANCH   1   5
HETATM    5  C7  UNL     1      50.234  -2.688  -6.809  1.00  0.00     0.250 C 
BRANCH   5   6
HETATM    6  N2  UNL     1      50.509  -3.901  -6.062  1.00  0.00    -0.291 N 
HETATM    7  C6  UNL     1      49.740  -5.005  -6.057  1.00  0.00     0.135 A 
HETATM    8  C5  UNL     1      50.305  -5.970  -5.234  1.00  0.00     0.080 A 
HETATM    9  C16 UNL     1      51.454  -5.386  -4.745  1.00  0.00     0.145 A 
HETATM   10  N6  UNL     1      51.519  -4.149  -5.278  1.00  0.00    -0.282 N 
ATOM     11  H6  UNL     1      52.271  -3.486  -5.088  1.00  0.00     0.189 HD
BRANCH   8  12
HETATM   12  C4  UNL     1      49.790  -7.295  -4.958  1.00  0.00    -0.054 C 
HETATM   13  C3  UNL     1      49.359  -8.396  -4.710  1.00  0.00    -0.032 C 
BRANCH  13  14
HETATM   14  C2  UNL     1      48.838  -9.694  -4.395  1.00  0.00     0.151 C 
HETATM   15  S1  UNL     1      49.654 -11.082  -4.654  1.00  0.00    -0.051 SA
BRANCH  14  16
HETATM   16  N1  UNL     1      47.543  -9.781  -3.826  1.00  0.00    -0.378 N 
HETATM   17  C1  UNL     1      46.341  -9.428  -4.555  1.00  0.00     0.147 C 
ATOM     18  H1  UNL     1      47.454 -10.106  -2.863  1.00  0.00     0.160 HD
ENDBRANCH  14  16
ENDBRANCH  13  14
ENDBRANCH   8  12
BRANCH   9  19
HETATM   19  N7  UNL     1      52.362  -6.013  -3.852  1.00  0.00    -0.286 N 
HETATM   20  C17 UNL     1      53.767  -6.024  -4.093  1.00  0.00     0.365 C 
HETATM   21  O5  UNL     1      54.230  -5.461  -5.130  1.00  0.00    -0.238 OA
ATOM     22  H7  UNL     1      51.999  -6.469  -3.015  1.00  0.00     0.172 HD
BRANCH  20  23
HETATM   23  O6  UNL     1      54.654  -6.628  -3.238  1.00  0.00    -0.309 OA
HETATM   24  C18 UNL     1      56.021  -6.793  -3.525  1.00  0.00     0.215 C 
ENDBRANCH  20  23
ENDBRANCH   9  19
ENDBRANCH   5   6
ENDBRANCH   1   5
BRANCH   3  25
HETATM   25  C9  UNL     1      47.962   0.133  -5.464  1.00  0.00     0.165 C 
BRANCH  25  26
HETATM   26  C10 UNL     1      46.839  -0.472  -4.640  1.00  0.00     0.292 C 
BRANCH  26  27
HETATM   27  N4  UNL     1      45.644   0.307  -4.952  1.00  0.00    -0.065 N 
ATOM     28  H43 UNL     1      45.801   1.314  -4.939  1.00  0.00     0.275 HD
ATOM     29  H42 UNL     1      45.357   0.238  -5.928  1.00  0.00     0.275 HD
ATOM     30  H41 UNL     1      44.926  -0.001  -4.295  1.00  0.00     0.275 HD
ENDBRANCH  26  27
BRANCH  26  31
HETATM   31  C11 UNL     1      47.092  -0.312  -3.187  1.00  0.00     0.250 C 
HETATM   32  O2  UNL     1      46.660  -1.201  -2.410  1.00  0.00    -0.271 OA
HETATM   33  N5  UNL     1      47.797   0.799  -2.653  1.00  0.00    -0.346 N 
ATOM     34  H5  UNL     1      48.138   1.510  -3.300  1.00  0.00     0.163 HD
BRANCH  33  35
HETATM   35  C12 UNL     1      48.055   0.977  -1.258  1.00  0.00     0.174 C 
BRANCH  35  36
HETATM   36  C13 UNL     1      47.028   1.880  -0.690  1.00  0.00     0.258 C 
HETATM   37  O3  UNL     1      45.947   1.470  -0.320  1.00  0.00    -0.305 OA
ENDBRANCH  35  36
BRANCH  35  38
HETATM   38  C14 UNL     1      49.461   1.482  -0.990  1.00  0.00     0.143 C 
HETATM   39  C15 UNL     1      49.464   2.276   0.298  1.00  0.00     0.042 C 
BRANCH  38  40
HETATM   40  O4  UNL     1      50.319   0.419  -0.850  1.00  0.00    -0.393 OA
ATOM     41  H4  UNL     1      51.130   0.709  -0.447  1.00  0.00     0.210 HD
ENDBRANCH  38  40
ENDBRANCH  35  38
ENDBRANCH  33  35
ENDBRANCH  26  31
ENDBRANCH  25  26
ENDBRANCH   3  25
TORSDOF 15
ENDMDL
