MODEL 1
REMARK VINA RESULT: -8.168456121      0.000      0.000
REMARK  13 active torsions:
REMARK  status: ('A' for Active; 'I' for Inactive)
REMARK    1  A    between atoms: N1_2  and  C4_5 
REMARK    2  A    between atoms: C4_5  and  C5_6 
REMARK    3  A    between atoms: C7_8  and  N2_9 
REMARK    4  A    between atoms: N4_15  and  C9_16 
REMARK    5  A    between atoms: C9_16  and  C10_17 
REMARK    6  A    between atoms: C10_17  and  C11_18 
REMARK    7  A    between atoms: C11_18  and  C12_19 
REMARK    8  A    between atoms: C12_19  and  C13_20 
REMARK    9  A    between atoms: C13_20  and  C14_21 
REMARK   10  A    between atoms: C14_21  and  N5_22 
REMARK   11  A    between atoms: C17_25  and  C18_26 
REMARK       I    between atoms: C18_26  and  N6_28 
REMARK   12  A    between atoms: N6_28  and  N7_30 
REMARK       I    between atoms: C19_32  and  N9_34 
REMARK   13  A    between atoms: N9_34  and  N10_36 
ROOT
HETATM    1  N5  UNL     1      42.058  24.923  50.034  1.00  0.00    -0.366 N 
HETATM    2  C15 UNL     1      43.077  24.346  49.415  1.00  0.00     0.091 A 
HETATM    3  C16 UNL     1      43.852  23.418  50.082  1.00  0.00     0.034 A 
HETATM    4  C17 UNL     1      43.612  23.057  51.381  1.00  0.00     0.036 A 
HETATM    5  C20 UNL     1      42.536  23.668  52.029  1.00  0.00     0.034 A 
HETATM    6  C21 UNL     1      41.803  24.582  51.316  1.00  0.00     0.091 A 
ENDROOT
BRANCH   1   7
HETATM    7  C14 UNL     1      41.188  25.907  49.429  1.00  0.00     0.128 C 
BRANCH   7   8
HETATM    8  C13 UNL     1      39.785  25.843  50.038  1.00  0.00     0.020 C 
BRANCH   8   9
HETATM    9  C12 UNL     1      39.384  27.243  50.373  1.00  0.00     0.002 C 
BRANCH   9  10
HETATM   10  C11 UNL     1      39.861  27.678  51.746  1.00  0.00     0.005 C 
BRANCH  10  11
HETATM   11  C10 UNL     1      39.019  27.177  52.846  1.00  0.00     0.045 C 
BRANCH  11  12
HETATM   12  C9  UNL     1      39.828  26.544  53.945  1.00  0.00     0.071 C 
BRANCH  12  13
HETATM   13  N4  UNL     1      39.058  25.785  54.848  1.00  0.00    -0.324 N 
HETATM   14  C5  UNL     1      39.549  24.968  55.778  1.00  0.00     0.046 A 
HETATM   15  C6  UNL     1      38.655  24.351  56.638  1.00  0.00     0.075 A 
HETATM   16  C7  UNL     1      37.295  24.535  56.580  1.00  0.00     0.101 A 
HETATM   17  N3  UNL     1      36.846  25.370  55.620  1.00  0.00    -0.339 N 
HETATM   18  C8  UNL     1      37.715  25.962  54.795  1.00  0.00     0.189 A 
ATOM     19  H3  UNL     1      35.846  25.549  55.524  1.00  0.00     0.168 HD
BRANCH  14  20
HETATM   20  C4  UNL     1      40.980  24.627  55.932  1.00  0.00     0.293 C 
BRANCH  20  21
HETATM   21  N1  UNL     1      41.605  25.353  57.019  1.00  0.00    -0.073 N 
HETATM   22  C1  UNL     1      40.914  26.568  57.368  1.00  0.00     0.272 C 
HETATM   23  C2  UNL     1      41.731  24.545  58.214  1.00  0.00     0.272 C 
HETATM   24  C3  UNL     1      42.941  25.724  56.607  1.00  0.00     0.272 C 
ENDBRANCH  20  21
ENDBRANCH  14  20
BRANCH  16  25
HETATM   25  N2  UNL     1      36.480  23.937  57.406  1.00  0.00    -0.385 N 
ATOM     26  H22 UNL     1      36.756  23.706  58.361  1.00  0.00     0.157 HD
ATOM     27  H21 UNL     1      35.532  23.674  57.135  1.00  0.00     0.157 HD
ENDBRANCH  16  25
ENDBRANCH  12  13
ENDBRANCH  11  12
ENDBRANCH  10  11
ENDBRANCH   9  10
ENDBRANCH   8   9
ENDBRANCH   7   8
ENDBRANCH   1   7
BRANCH   4  28
HETATM   28  C18 UNL     1      44.399  22.091  52.116  1.00  0.00     0.270 C 
HETATM   29  O1  UNL     1      44.390  22.114  53.365  1.00  0.00    -0.266 OA
HETATM   30  N6  UNL     1      45.170  21.132  51.441  1.00  0.00    -0.263 N 
ATOM     31  H6  UNL     1      45.180  21.109  50.421  1.00  0.00     0.190 HD
BRANCH  30  32
HETATM   32  N7  UNL     1      45.921  20.211  52.165  1.00  0.00    -0.270 N 
HETATM   33  C19 UNL     1      45.495  19.014  52.357  1.00  0.00     0.223 C 
HETATM   34  N8  UNL     1      44.238  18.643  51.816  1.00  0.00    -0.061 NA
HETATM   35  N9  UNL     1      46.228  18.040  53.089  1.00  0.00    -0.258 N 
ATOM     36  H9  UNL     1      46.480  17.160  52.639  1.00  0.00     0.191 HD
ATOM     37  H7  UNL     1      46.823  20.490  52.549  1.00  0.00     0.190 HD
BRANCH  35  38
HETATM   38  N10 UNL     1      46.608  18.265  54.414  1.00  0.00    -0.247 N 
HETATM   39  N11 UNL     1      45.830  17.982  55.382  1.00  0.00    -0.331 N 
ATOM     40 2H11 UNL     1      44.916  17.583  55.169  1.00  0.00     0.178 HD
ATOM     41 1H11 UNL     1      46.107  18.147  56.350  1.00  0.00     0.178 HD
ATOM     42  H10 UNL     1      47.526  18.665  54.610  1.00  0.00     0.207 HD
ENDBRANCH  35  38
ENDBRANCH  30  32
ENDBRANCH   4  28
TORSDOF 13
ENDMDL
MODEL 2
REMARK VINA RESULT: -7.914437037      0.628      1.040
REMARK  13 active torsions:
REMARK  status: ('A' for Active; 'I' for Inactive)
REMARK    1  A    between atoms: N1_2  and  C4_5 
REMARK    2  A    between atoms: C4_5  and  C5_6 
REMARK    3  A    between atoms: C7_8  and  N2_9 
REMARK    4  A    between atoms: N4_15  and  C9_16 
REMARK    5  A    between atoms: C9_16  and  C10_17 
REMARK    6  A    between atoms: C10_17  and  C11_18 
REMARK    7  A    between atoms: C11_18  and  C12_19 
REMARK    8  A    between atoms: C12_19  and  C13_20 
REMARK    9  A    between atoms: C13_20  and  C14_21 
REMARK   10  A    between atoms: C14_21  and  N5_22 
REMARK   11  A    between atoms: C17_25  and  C18_26 
REMARK       I    between atoms: C18_26  and  N6_28 
REMARK   12  A    between atoms: N6_28  and  N7_30 
REMARK       I    between atoms: C19_32  and  N9_34 
REMARK   13  A    between atoms: N9_34  and  N10_36 
ROOT
HETATM    1  N5  UNL     1      42.049  24.832  50.094  1.00  0.00    -0.366 N 
HETATM    2  C15 UNL     1      43.066  24.260  49.465  1.00  0.00     0.091 A 
HETATM    3  C16 UNL     1      43.852  23.337  50.125  1.00  0.00     0.034 A 
HETATM    4  C17 UNL     1      43.627  22.977  51.428  1.00  0.00     0.036 A 
HETATM    5  C20 UNL     1      42.553  23.582  52.085  1.00  0.00     0.034 A 
HETATM    6  C21 UNL     1      41.808  24.491  51.378  1.00  0.00     0.091 A 
ENDROOT
BRANCH   1   7
HETATM    7  C14 UNL     1      41.168  25.810  49.496  1.00  0.00     0.128 C 
BRANCH   7   8
HETATM    8  C13 UNL     1      39.860  25.920  50.284  1.00  0.00     0.020 C 
BRANCH   8   9
HETATM    9  C12 UNL     1      39.577  27.375  50.468  1.00  0.00     0.002 C 
BRANCH   9  10
HETATM   10  C11 UNL     1      38.926  27.682  51.805  1.00  0.00     0.005 C 
BRANCH  10  11
HETATM   11  C10 UNL     1      39.411  26.828  52.903  1.00  0.00     0.045 C 
BRANCH  11  12
HETATM   12  C9  UNL     1      39.081  27.395  54.257  1.00  0.00     0.071 C 
BRANCH  12  13
HETATM   13  N4  UNL     1      38.710  26.420  55.203  1.00  0.00    -0.324 N 
HETATM   14  C5  UNL     1      39.394  26.118  56.304  1.00  0.00     0.046 A 
HETATM   15  C6  UNL     1      38.851  25.182  57.171  1.00  0.00     0.075 A 
HETATM   16  C7  UNL     1      37.650  24.552  56.952  1.00  0.00     0.101 A 
HETATM   17  N3  UNL     1      36.995  24.890  55.822  1.00  0.00    -0.339 N 
HETATM   18  C8  UNL     1      37.526  25.793  54.992  1.00  0.00     0.189 A 
ATOM     19  H3  UNL     1      36.098  24.457  55.602  1.00  0.00     0.168 HD
BRANCH  14  20
HETATM   20  C4  UNL     1      40.722  26.669  56.651  1.00  0.00     0.293 C 
BRANCH  20  21
HETATM   21  N1  UNL     1      41.806  25.873  56.111  1.00  0.00    -0.073 N 
HETATM   22  C1  UNL     1      41.364  24.656  55.481  1.00  0.00     0.272 C 
HETATM   23  C2  UNL     1      42.603  26.614  55.154  1.00  0.00     0.272 C 
HETATM   24  C3  UNL     1      42.680  25.499  57.201  1.00  0.00     0.272 C 
ENDBRANCH  20  21
ENDBRANCH  14  20
BRANCH  16  25
HETATM   25  N2  UNL     1      37.167  23.675  57.790  1.00  0.00    -0.385 N 
ATOM     26  H22 UNL     1      37.359  23.725  58.791  1.00  0.00     0.157 HD
ATOM     27  H21 UNL     1      36.578  22.901  57.482  1.00  0.00     0.157 HD
ENDBRANCH  16  25
ENDBRANCH  12  13
ENDBRANCH  11  12
ENDBRANCH  10  11
ENDBRANCH   9  10
ENDBRANCH   8   9
ENDBRANCH   7   8
ENDBRANCH   1   7
BRANCH   4  28
HETATM   28  C18 UNL     1      44.426  22.016  52.156  1.00  0.00     0.270 C 
HETATM   29  O1  UNL     1      44.418  22.031  53.405  1.00  0.00    -0.266 OA
HETATM   30  N6  UNL     1      45.208  21.070  51.475  1.00  0.00    -0.263 N 
ATOM     31  H6  UNL     1      45.217  21.054  50.455  1.00  0.00     0.190 HD
BRANCH  30  32
HETATM   32  N7  UNL     1      45.971  20.154  52.192  1.00  0.00    -0.270 N 
HETATM   33  C19 UNL     1      45.557  18.954  52.384  1.00  0.00     0.223 C 
HETATM   34  N8  UNL     1      44.300  18.572  51.850  1.00  0.00    -0.061 NA
HETATM   35  N9  UNL     1      46.302  17.984  53.111  1.00  0.00    -0.258 N 
ATOM     36  H9  UNL     1      46.560  17.107  52.657  1.00  0.00     0.191 HD
ATOM     37  H7  UNL     1      46.873  20.441  52.572  1.00  0.00     0.190 HD
BRANCH  35  38
HETATM   38  N10 UNL     1      46.687  18.210  54.434  1.00  0.00    -0.247 N 
HETATM   39  N11 UNL     1      45.848  18.134  55.389  1.00  0.00    -0.331 N 
ATOM     40 2H11 UNL     1      44.880  17.902  55.166  1.00  0.00     0.178 HD
ATOM     41 1H11 UNL     1      46.129  18.300  56.355  1.00  0.00     0.178 HD
ATOM     42  H10 UNL     1      47.660  18.441  54.639  1.00  0.00     0.207 HD
ENDBRANCH  35  38
ENDBRANCH  30  32
ENDBRANCH   4  28
TORSDOF 13
ENDMDL
MODEL 3
REMARK VINA RESULT: -7.831560678      1.140      2.577
REMARK  13 active torsions:
REMARK  status: ('A' for Active; 'I' for Inactive)
REMARK    1  A    between atoms: N1_2  and  C4_5 
REMARK    2  A    between atoms: C4_5  and  C5_6 
REMARK    3  A    between atoms: C7_8  and  N2_9 
REMARK    4  A    between atoms: N4_15  and  C9_16 
REMARK    5  A    between atoms: C9_16  and  C10_17 
REMARK    6  A    between atoms: C10_17  and  C11_18 
REMARK    7  A    between atoms: C11_18  and  C12_19 
REMARK    8  A    between atoms: C12_19  and  C13_20 
REMARK    9  A    between atoms: C13_20  and  C14_21 
REMARK   10  A    between atoms: C14_21  and  N5_22 
REMARK   11  A    between atoms: C17_25  and  C18_26 
REMARK       I    between atoms: C18_26  and  N6_28 
REMARK   12  A    between atoms: N6_28  and  N7_30 
REMARK       I    between atoms: C19_32  and  N9_34 
REMARK   13  A    between atoms: N9_34  and  N10_36 
ROOT
HETATM    1  N5  UNL     1      41.997  24.944  49.901  1.00  0.00    -0.366 N 
HETATM    2  C15 UNL     1      43.152  24.549  49.385  1.00  0.00     0.091 A 
HETATM    3  C16 UNL     1      43.936  23.641  50.067  1.00  0.00     0.034 A 
HETATM    4  C17 UNL     1      43.570  23.118  51.279  1.00  0.00     0.036 A 
HETATM    5  C20 UNL     1      42.352  23.537  51.819  1.00  0.00     0.034 A 
HETATM    6  C21 UNL     1      41.616  24.441  51.095  1.00  0.00     0.091 A 
ENDROOT
BRANCH   1   7
HETATM    7  C14 UNL     1      41.105  25.891  49.270  1.00  0.00     0.128 C 
BRANCH   7   8
HETATM    8  C13 UNL     1      39.828  26.070  50.095  1.00  0.00     0.020 C 
BRANCH   8   9
HETATM    9  C12 UNL     1      39.655  27.536  50.328  1.00  0.00     0.002 C 
BRANCH   9  10
HETATM   10  C11 UNL     1      38.562  27.845  51.335  1.00  0.00     0.005 C 
BRANCH  10  11
HETATM   11  C10 UNL     1      39.070  28.092  52.695  1.00  0.00     0.045 C 
BRANCH  11  12
HETATM   12  C9  UNL     1      38.753  26.963  53.638  1.00  0.00     0.071 C 
BRANCH  12  13
HETATM   13  N4  UNL     1      39.895  26.319  54.152  1.00  0.00    -0.324 N 
HETATM   14  C5  UNL     1      39.886  25.207  54.884  1.00  0.00     0.046 A 
HETATM   15  C6  UNL     1      41.105  24.658  55.249  1.00  0.00     0.075 A 
HETATM   16  C7  UNL     1      42.317  25.201  54.898  1.00  0.00     0.101 A 
HETATM   17  N3  UNL     1      42.275  26.328  54.158  1.00  0.00    -0.339 N 
HETATM   18  C8  UNL     1      41.095  26.850  53.810  1.00  0.00     0.189 A 
ATOM     19  H3  UNL     1      43.141  26.781  53.865  1.00  0.00     0.168 HD
BRANCH  14  20
HETATM   20  C4  UNL     1      38.666  24.536  55.384  1.00  0.00     0.293 C 
BRANCH  20  21
HETATM   21  N1  UNL     1      38.373  24.882  56.761  1.00  0.00    -0.073 N 
HETATM   22  C1  UNL     1      39.522  24.810  57.626  1.00  0.00     0.272 C 
HETATM   23  C2  UNL     1      37.799  26.207  56.880  1.00  0.00     0.272 C 
HETATM   24  C3  UNL     1      37.397  23.943  57.266  1.00  0.00     0.272 C 
ENDBRANCH  20  21
ENDBRANCH  14  20
BRANCH  16  25
HETATM   25  N2  UNL     1      43.448  24.658  55.259  1.00  0.00    -0.385 N 
ATOM     26  H22 UNL     1      43.486  23.740  55.702  1.00  0.00     0.157 HD
ATOM     27  H21 UNL     1      44.343  25.127  55.115  1.00  0.00     0.157 HD
ENDBRANCH  16  25
ENDBRANCH  12  13
ENDBRANCH  11  12
ENDBRANCH  10  11
ENDBRANCH   9  10
ENDBRANCH   8   9
ENDBRANCH   7   8
ENDBRANCH   1   7
BRANCH   4  28
HETATM   28  C18 UNL     1      44.361  22.166  52.027  1.00  0.00     0.270 C 
HETATM   29  O1  UNL     1      44.355  22.207  53.276  1.00  0.00    -0.266 OA
HETATM   30  N6  UNL     1      45.135  21.199  51.366  1.00  0.00    -0.263 N 
ATOM     31  H6  UNL     1      45.143  21.161  50.346  1.00  0.00     0.190 HD
BRANCH  30  32
HETATM   32  N7  UNL     1      45.891  20.292  52.102  1.00  0.00    -0.270 N 
HETATM   33  C19 UNL     1      45.477  19.093  52.302  1.00  0.00     0.223 C 
HETATM   34  N8  UNL     1      44.226  18.704  51.757  1.00  0.00    -0.061 NA
HETATM   35  N9  UNL     1      46.214  18.132  53.048  1.00  0.00    -0.258 N 
ATOM     36  H9  UNL     1      46.478  17.251  52.606  1.00  0.00     0.191 HD
ATOM     37  H7  UNL     1      46.788  20.584  52.490  1.00  0.00     0.190 HD
BRANCH  35  38
HETATM   38  N10 UNL     1      46.583  18.373  54.373  1.00  0.00    -0.247 N 
HETATM   39  N11 UNL     1      45.857  17.981  55.343  1.00  0.00    -0.331 N 
ATOM     40 2H11 UNL     1      44.993  17.482  55.131  1.00  0.00     0.178 HD
ATOM     41 1H11 UNL     1      46.127  18.157  56.311  1.00  0.00     0.178 HD
ATOM     42  H10 UNL     1      47.451  18.873  54.567  1.00  0.00     0.207 HD
ENDBRANCH  35  38
ENDBRANCH  30  32
ENDBRANCH   4  28
TORSDOF 13
ENDMDL
MODEL 4
REMARK VINA RESULT: -7.549792460      1.293      1.576
REMARK  13 active torsions:
REMARK  status: ('A' for Active; 'I' for Inactive)
REMARK    1  A    between atoms: N1_2  and  C4_5 
REMARK    2  A    between atoms: C4_5  and  C5_6 
REMARK    3  A    between atoms: C7_8  and  N2_9 
REMARK    4  A    between atoms: N4_15  and  C9_16 
REMARK    5  A    between atoms: C9_16  and  C10_17 
REMARK    6  A    between atoms: C10_17  and  C11_18 
REMARK    7  A    between atoms: C11_18  and  C12_19 
REMARK    8  A    between atoms: C12_19  and  C13_20 
REMARK    9  A    between atoms: C13_20  and  C14_21 
REMARK   10  A    between atoms: C14_21  and  N5_22 
REMARK   11  A    between atoms: C17_25  and  C18_26 
REMARK       I    between atoms: C18_26  and  N6_28 
REMARK   12  A    between atoms: N6_28  and  N7_30 
REMARK       I    between atoms: C19_32  and  N9_34 
REMARK   13  A    between atoms: N9_34  and  N10_36 
ROOT
HETATM    1  N5  UNL     1      41.911  26.106  50.952  1.00  0.00    -0.366 N 
HETATM    2  C15 UNL     1      41.496  24.905  50.575  1.00  0.00     0.091 A 
HETATM    3  C16 UNL     1      42.180  23.780  50.987  1.00  0.00     0.034 A 
HETATM    4  C17 UNL     1      43.292  23.845  51.783  1.00  0.00     0.036 A 
HETATM    5  C20 UNL     1      43.726  25.113  52.179  1.00  0.00     0.034 A 
HETATM    6  C21 UNL     1      43.006  26.194  51.738  1.00  0.00     0.091 A 
ENDROOT
BRANCH   1   7
HETATM    7  C14 UNL     1      41.269  27.346  50.575  1.00  0.00     0.128 C 
BRANCH   7   8
HETATM    8  C13 UNL     1      39.889  27.465  51.225  1.00  0.00     0.020 C 
BRANCH   8   9
HETATM    9  C12 UNL     1      40.033  28.365  52.409  1.00  0.00     0.002 C 
BRANCH   9  10
HETATM   10  C11 UNL     1      39.959  27.618  53.727  1.00  0.00     0.005 C 
BRANCH  10  11
HETATM   11  C10 UNL     1      39.514  26.221  53.586  1.00  0.00     0.045 C 
BRANCH  11  12
HETATM   12  C9  UNL     1      40.191  25.302  54.567  1.00  0.00     0.071 C 
BRANCH  12  13
HETATM   13  N4  UNL     1      39.339  24.840  55.589  1.00  0.00    -0.324 N 
HETATM   14  C5  UNL     1      39.595  24.912  56.893  1.00  0.00     0.046 A 
HETATM   15  C6  UNL     1      38.615  24.478  57.773  1.00  0.00     0.075 A 
HETATM   16  C7  UNL     1      37.401  23.977  57.370  1.00  0.00     0.101 A 
HETATM   17  N3  UNL     1      37.190  23.923  56.038  1.00  0.00    -0.339 N 
HETATM   18  C8  UNL     1      38.139  24.344  55.198  1.00  0.00     0.189 A 
ATOM     19  H3  UNL     1      36.308  23.561  55.675  1.00  0.00     0.168 HD
BRANCH  14  20
HETATM   20  C4  UNL     1      40.871  25.375  57.479  1.00  0.00     0.293 C 
BRANCH  20  21
HETATM   21  N1  UNL     1      40.833  26.777  57.844  1.00  0.00    -0.073 N 
HETATM   22  C1  UNL     1      39.602  27.430  57.481  1.00  0.00     0.272 C 
HETATM   23  C2  UNL     1      41.050  26.977  59.263  1.00  0.00     0.272 C 
HETATM   24  C3  UNL     1      41.901  27.457  57.145  1.00  0.00     0.272 C 
ENDBRANCH  20  21
ENDBRANCH  14  20
BRANCH  16  25
HETATM   25  N2  UNL     1      36.500  23.576  58.226  1.00  0.00    -0.385 N 
ATOM     26  H22 UNL     1      35.619  24.075  58.351  1.00  0.00     0.157 HD
ATOM     27  H21 UNL     1      36.636  22.749  58.806  1.00  0.00     0.157 HD
ENDBRANCH  16  25
ENDBRANCH  12  13
ENDBRANCH  11  12
ENDBRANCH  10  11
ENDBRANCH   9  10
ENDBRANCH   8   9
ENDBRANCH   7   8
ENDBRANCH   1   7
BRANCH   4  28
HETATM   28  C18 UNL     1      44.038  22.692  52.237  1.00  0.00     0.270 C 
HETATM   29  O1  UNL     1      44.050  22.406  53.453  1.00  0.00    -0.266 OA
HETATM   30  N6  UNL     1      44.748  21.893  51.326  1.00  0.00    -0.263 N 
ATOM     31  H6  UNL     1      44.741  22.122  50.332  1.00  0.00     0.190 HD
BRANCH  30  32
HETATM   32  N7  UNL     1      45.460  20.788  51.781  1.00  0.00    -0.270 N 
HETATM   33  C19 UNL     1      45.010  19.597  51.619  1.00  0.00     0.223 C 
HETATM   34  N8  UNL     1      43.763  19.423  50.964  1.00  0.00    -0.061 NA
HETATM   35  N9  UNL     1      45.703  18.438  52.067  1.00  0.00    -0.258 N 
ATOM     36  H9  UNL     1      45.954  17.714  51.394  1.00  0.00     0.191 HD
ATOM     37  H7  UNL     1      46.355  20.927  52.251  1.00  0.00     0.190 HD
BRANCH  35  38
HETATM   38  N10 UNL     1      46.045  18.274  53.411  1.00  0.00    -0.247 N 
HETATM   39  N11 UNL     1      45.969  17.136  53.978  1.00  0.00    -0.331 N 
ATOM     40 2H11 UNL     1      45.651  16.340  53.426  1.00  0.00     0.178 HD
ATOM     41 1H11 UNL     1      46.219  17.016  54.960  1.00  0.00     0.178 HD
ATOM     42  H10 UNL     1      46.361  19.082  53.948  1.00  0.00     0.207 HD
ENDBRANCH  35  38
ENDBRANCH  30  32
ENDBRANCH   4  28
TORSDOF 13
ENDMDL
MODEL 5
REMARK VINA RESULT: -7.408574070      1.356      2.833
REMARK  13 active torsions:
REMARK  status: ('A' for Active; 'I' for Inactive)
REMARK    1  A    between atoms: N1_2  and  C4_5 
REMARK    2  A    between atoms: C4_5  and  C5_6 
REMARK    3  A    between atoms: C7_8  and  N2_9 
REMARK    4  A    between atoms: N4_15  and  C9_16 
REMARK    5  A    between atoms: C9_16  and  C10_17 
REMARK    6  A    between atoms: C10_17  and  C11_18 
REMARK    7  A    between atoms: C11_18  and  C12_19 
REMARK    8  A    between atoms: C12_19  and  C13_20 
REMARK    9  A    between atoms: C13_20  and  C14_21 
REMARK   10  A    between atoms: C14_21  and  N5_22 
REMARK   11  A    between atoms: C17_25  and  C18_26 
REMARK       I    between atoms: C18_26  and  N6_28 
REMARK   12  A    between atoms: N6_28  and  N7_30 
REMARK       I    between atoms: C19_32  and  N9_34 
REMARK   13  A    between atoms: N9_34  and  N10_36 
ROOT
HETATM    1  N5  UNL     1      41.943  24.921  49.922  1.00  0.00    -0.366 N 
HETATM    2  C15 UNL     1      43.114  24.561  49.417  1.00  0.00     0.091 A 
HETATM    3  C16 UNL     1      43.908  23.659  50.096  1.00  0.00     0.034 A 
HETATM    4  C17 UNL     1      43.536  23.106  51.293  1.00  0.00     0.036 A 
HETATM    5  C20 UNL     1      42.300  23.489  51.820  1.00  0.00     0.034 A 
HETATM    6  C21 UNL     1      41.555  24.388  51.101  1.00  0.00     0.091 A 
ENDROOT
BRANCH   1   7
HETATM    7  C14 UNL     1      41.039  25.859  49.294  1.00  0.00     0.128 C 
BRANCH   7   8
HETATM    8  C13 UNL     1      40.793  27.069  50.198  1.00  0.00     0.020 C 
BRANCH   8   9
HETATM    9  C12 UNL     1      39.319  27.156  50.429  1.00  0.00     0.002 C 
BRANCH   9  10
HETATM   10  C11 UNL     1      38.967  27.924  51.689  1.00  0.00     0.005 C 
BRANCH  10  11
HETATM   11  C10 UNL     1      39.232  27.172  52.929  1.00  0.00     0.045 C 
BRANCH  11  12
HETATM   12  C9  UNL     1      40.170  27.902  53.851  1.00  0.00     0.071 C 
BRANCH  12  13
HETATM   13  N4  UNL     1      41.229  27.103  54.326  1.00  0.00    -0.324 N 
HETATM   14  C5  UNL     1      41.243  26.459  55.491  1.00  0.00     0.046 A 
HETATM   15  C6  UNL     1      42.333  25.653  55.775  1.00  0.00     0.075 A 
HETATM   16  C7  UNL     1      43.397  25.486  54.923  1.00  0.00     0.101 A 
HETATM   17  N3  UNL     1      43.338  26.161  53.756  1.00  0.00    -0.339 N 
HETATM   18  C8  UNL     1      42.283  26.935  53.489  1.00  0.00     0.189 A 
ATOM     19  H3  UNL     1      44.098  26.080  53.079  1.00  0.00     0.168 HD
BRANCH  14  20
HETATM   20  C4  UNL     1      40.201  26.579  56.534  1.00  0.00     0.293 C 
BRANCH  20  21
HETATM   21  N1  UNL     1      39.263  25.474  56.504  1.00  0.00    -0.073 N 
HETATM   22  C1  UNL     1      39.508  24.543  55.433  1.00  0.00     0.272 C 
HETATM   23  C2  UNL     1      39.249  24.736  57.750  1.00  0.00     0.272 C 
HETATM   24  C3  UNL     1      37.935  26.012  56.308  1.00  0.00     0.272 C 
ENDBRANCH  20  21
ENDBRANCH  14  20
BRANCH  16  25
HETATM   25  N2  UNL     1      44.410  24.719  55.223  1.00  0.00    -0.385 N 
ATOM     26  H22 UNL     1      45.133  25.016  55.879  1.00  0.00     0.157 HD
ATOM     27  H21 UNL     1      44.525  23.792  54.814  1.00  0.00     0.157 HD
ENDBRANCH  16  25
ENDBRANCH  12  13
ENDBRANCH  11  12
ENDBRANCH  10  11
ENDBRANCH   9  10
ENDBRANCH   8   9
ENDBRANCH   7   8
ENDBRANCH   1   7
BRANCH   4  28
HETATM   28  C18 UNL     1      44.337  22.159  52.036  1.00  0.00     0.270 C 
HETATM   29  O1  UNL     1      44.325  22.190  53.285  1.00  0.00    -0.266 OA
HETATM   30  N6  UNL     1      45.125  21.208  51.370  1.00  0.00    -0.263 N 
ATOM     31  H6  UNL     1      45.138  21.178  50.350  1.00  0.00     0.190 HD
BRANCH  30  32
HETATM   32  N7  UNL     1      45.890  20.305  52.102  1.00  0.00    -0.270 N 
HETATM   33  C19 UNL     1      45.482  19.105  52.309  1.00  0.00     0.223 C 
HETATM   34  N8  UNL     1      44.228  18.711  51.776  1.00  0.00    -0.061 NA
HETATM   35  N9  UNL     1      46.229  18.149  53.051  1.00  0.00    -0.258 N 
ATOM     36  H9  UNL     1      46.491  17.267  52.609  1.00  0.00     0.191 HD
ATOM     37  H7  UNL     1      46.790  20.601  52.481  1.00  0.00     0.190 HD
BRANCH  35  38
HETATM   38  N10 UNL     1      46.609  18.395  54.372  1.00  0.00    -0.247 N 
HETATM   39  N11 UNL     1      45.906  17.981  55.350  1.00  0.00    -0.331 N 
ATOM     40 2H11 UNL     1      45.051  17.462  55.147  1.00  0.00     0.178 HD
ATOM     41 1H11 UNL     1      46.183  18.160  56.315  1.00  0.00     0.178 HD
ATOM     42  H10 UNL     1      47.467  18.915  54.556  1.00  0.00     0.207 HD
ENDBRANCH  35  38
ENDBRANCH  30  32
ENDBRANCH   4  28
TORSDOF 13
ENDMDL
