MODEL 1
REMARK VINA RESULT: -6.997676058      0.000      0.000
REMARK  5 active torsions:
REMARK  status: ('A' for Active; 'I' for Inactive)
REMARK    1  A    between atoms: C5_6  and  C6_7 
REMARK    2  A    between atoms: C6_7  and  N1_8 
REMARK    3  A    between atoms: C6_7  and  C10_19 
REMARK       I    between atoms: N1_8  and  C7_10 
REMARK       I    between atoms: C7_10  and  N2_12 
REMARK       I    between atoms: C8_14  and  N4_16 
REMARK    4  A    between atoms: C10_19  and  N6_20 
REMARK    5  A    between atoms: C10_19  and  C11_24 
ROOT
HETATM    1  C1  UNL     1      58.026  13.763  30.651  1.00  0.00     0.015 C 
HETATM    2  C2  UNL     1      58.901  14.518  30.915  1.00  0.00    -0.076 C 
HETATM    3  C3  UNL     1      59.983  15.461  31.258  1.00  0.00     0.147 A 
HETATM    4  C4  UNL     1      59.600  16.779  31.827  1.00  0.00     0.063 C 
HETATM    5  O1  UNL     1      61.151  14.905  31.782  1.00  0.00    -0.354 OA
HETATM    6  C5  UNL     1      61.225  15.244  30.435  1.00  0.00     0.195 A 
ENDROOT
BRANCH   6   7
HETATM    7  C6  UNL     1      61.964  16.437  29.983  1.00  0.00     0.150 C 
BRANCH   7   8
HETATM    8  N1  UNL     1      61.613  16.565  28.540  1.00  0.00    -0.333 N 
HETATM    9  C7  UNL     1      60.776  17.581  28.096  1.00  0.00     0.323 C 
HETATM   10  O2  UNL     1      60.334  18.434  28.879  1.00  0.00    -0.247 OA
HETATM   11  N2  UNL     1      60.420  17.606  26.657  1.00  0.00    -0.270 N 
HETATM   12  C8  UNL     1      59.605  18.597  26.248  1.00  0.00     0.283 C 
ATOM     13  H2  UNL     1      60.777  16.905  26.007  1.00  0.00     0.174 HD
HETATM   14  N3  UNL     1      59.567  17.981  24.564  1.00  0.00    -0.048 NA
HETATM   15  N4  UNL     1      58.891  19.465  25.888  1.00  0.00    -0.296 NA
HETATM   16  C9  UNL     1      58.159  20.507  25.888  1.00  0.00     0.271 C 
HETATM   17  N5  UNL     1      57.509  21.445  25.915  1.00  0.00    -0.156 NA
ATOM     18  H1  UNL     1      61.993  15.897  27.869  1.00  0.00     0.164 HD
ENDBRANCH   7   8
BRANCH   7  19
HETATM   19  C10 UNL     1      63.478  16.318  30.042  1.00  0.00     0.218 C 
BRANCH  19  20
HETATM   20  N6  UNL     1      63.820  15.105  30.772  1.00  0.00    -0.072 N 
ATOM     21  H63 UNL     1      63.174  14.340  30.581  1.00  0.00     0.274 HD
ATOM     22  H62 UNL     1      64.670  14.664  30.419  1.00  0.00     0.274 HD
ATOM     23  H61 UNL     1      63.880  15.328  31.765  1.00  0.00     0.274 HD
ENDBRANCH  19  20
BRANCH  19  24
HETATM   24  C11 UNL     1      64.146  17.478  30.701  1.00  0.00     0.121 C 
HETATM   25  S1  UNL     1      63.221  18.099  32.128  1.00  0.00    -0.095 SA
ENDBRANCH  19  24
ENDBRANCH   7  19
ENDBRANCH   6   7
TORSDOF 5
ENDMDL
MODEL 2
REMARK VINA RESULT: -6.199079954      1.675      2.028
REMARK  5 active torsions:
REMARK  status: ('A' for Active; 'I' for Inactive)
REMARK    1  A    between atoms: C5_6  and  C6_7 
REMARK    2  A    between atoms: C6_7  and  N1_8 
REMARK    3  A    between atoms: C6_7  and  C10_19 
REMARK       I    between atoms: N1_8  and  C7_10 
REMARK       I    between atoms: C7_10  and  N2_12 
REMARK       I    between atoms: C8_14  and  N4_16 
REMARK    4  A    between atoms: C10_19  and  N6_20 
REMARK    5  A    between atoms: C10_19  and  C11_24 
ROOT
HETATM    1  C1  UNL     1      57.518  14.210  30.772  1.00  0.00     0.015 C 
HETATM    2  C2  UNL     1      58.615  14.410  31.174  1.00  0.00    -0.076 C 
HETATM    3  C3  UNL     1      59.979  14.648  31.684  1.00  0.00     0.147 A 
HETATM    4  C4  UNL     1      60.167  14.711  33.157  1.00  0.00     0.063 C 
HETATM    5  O1  UNL     1      61.021  14.048  30.977  1.00  0.00    -0.354 OA
HETATM    6  C5  UNL     1      60.842  15.400  30.706  1.00  0.00     0.195 A 
ENDROOT
BRANCH   6   7
HETATM    7  C6  UNL     1      61.759  16.420  31.247  1.00  0.00     0.150 C 
BRANCH   7   8
HETATM    8  N1  UNL     1      61.370  17.677  30.546  1.00  0.00    -0.333 N 
HETATM    9  C7  UNL     1      60.796  17.641  29.281  1.00  0.00     0.323 C 
HETATM   10  O2  UNL     1      60.552  16.563  28.720  1.00  0.00    -0.247 OA
HETATM   11  N2  UNL     1      60.493  18.933  28.621  1.00  0.00    -0.270 N 
HETATM   12  C8  UNL     1      59.941  18.876  27.394  1.00  0.00     0.283 C 
ATOM     13  H2  UNL     1      60.694  19.824  29.075  1.00  0.00     0.174 HD
HETATM   14  N3  UNL     1      59.936  20.661  27.224  1.00  0.00    -0.048 NA
HETATM   15  N4  UNL     1      59.456  18.827  26.320  1.00  0.00    -0.296 NA
HETATM   16  C9  UNL     1      58.950  18.378  25.240  1.00  0.00     0.271 C 
HETATM   17  N5  UNL     1      58.499  17.951  24.283  1.00  0.00    -0.156 NA
ATOM     18  H1  UNL     1      61.526  18.576  31.002  1.00  0.00     0.164 HD
ENDBRANCH   7   8
BRANCH   7  19
HETATM   19  C10 UNL     1      63.229  16.196  30.931  1.00  0.00     0.218 C 
BRANCH  19  20
HETATM   20  N6  UNL     1      63.398  14.834  30.447  1.00  0.00    -0.072 N 
ATOM     21  H63 UNL     1      63.903  14.244  31.109  1.00  0.00     0.274 HD
ATOM     22  H62 UNL     1      62.521  14.312  30.434  1.00  0.00     0.274 HD
ATOM     23  H61 UNL     1      63.845  14.866  29.532  1.00  0.00     0.274 HD
ENDBRANCH  19  20
BRANCH  19  24
HETATM   24  C11 UNL     1      64.133  16.405  32.100  1.00  0.00     0.121 C 
HETATM   25  S1  UNL     1      65.749  15.618  31.883  1.00  0.00    -0.095 SA
ENDBRANCH  19  24
ENDBRANCH   7  19
ENDBRANCH   6   7
TORSDOF 5
ENDMDL
MODEL 3
REMARK VINA RESULT: -5.878071784      1.419      1.457
REMARK  5 active torsions:
REMARK  status: ('A' for Active; 'I' for Inactive)
REMARK    1  A    between atoms: C5_6  and  C6_7 
REMARK    2  A    between atoms: C6_7  and  N1_8 
REMARK    3  A    between atoms: C6_7  and  C10_19 
REMARK       I    between atoms: N1_8  and  C7_10 
REMARK       I    between atoms: C7_10  and  N2_12 
REMARK       I    between atoms: C8_14  and  N4_16 
REMARK    4  A    between atoms: C10_19  and  N6_20 
REMARK    5  A    between atoms: C10_19  and  C11_24 
ROOT
HETATM    1  C1  UNL     1      59.152  13.001  31.423  1.00  0.00     0.015 C 
HETATM    2  C2  UNL     1      59.567  14.103  31.560  1.00  0.00    -0.076 C 
HETATM    3  C3  UNL     1      60.070  15.479  31.737  1.00  0.00     0.147 A 
HETATM    4  C4  UNL     1      59.173  16.600  31.352  1.00  0.00     0.063 C 
HETATM    5  O1  UNL     1      60.863  15.713  32.860  1.00  0.00    -0.354 OA
HETATM    6  C5  UNL     1      61.572  15.562  31.673  1.00  0.00     0.195 A 
ENDROOT
BRANCH   6   7
HETATM    7  C6  UNL     1      62.165  16.720  30.980  1.00  0.00     0.150 C 
BRANCH   7   8
HETATM    8  N1  UNL     1      61.798  16.522  29.549  1.00  0.00    -0.333 N 
HETATM    9  C7  UNL     1      61.063  17.479  28.861  1.00  0.00     0.323 C 
HETATM   10  O2  UNL     1      60.731  18.543  29.404  1.00  0.00    -0.247 OA
HETATM   11  N2  UNL     1      60.682  17.184  27.459  1.00  0.00    -0.270 N 
HETATM   12  C8  UNL     1      59.967  18.124  26.811  1.00  0.00     0.283 C 
ATOM     13  H2  UNL     1      60.949  16.310  27.007  1.00  0.00     0.174 HD
HETATM   14  N3  UNL     1      59.828  17.117  25.334  1.00  0.00    -0.048 NA
HETATM   15  N4  UNL     1      59.342  18.947  26.242  1.00  0.00    -0.296 NA
HETATM   16  C9  UNL     1      58.724  20.029  25.979  1.00  0.00     0.271 C 
HETATM   17  N5  UNL     1      58.176  21.009  25.767  1.00  0.00    -0.156 NA
ATOM     18  H1  UNL     1      62.091  15.671  29.068  1.00  0.00     0.164 HD
ENDBRANCH   7   8
BRANCH   7  19
HETATM   19  C10 UNL     1      63.683  16.789  31.024  1.00  0.00     0.218 C 
BRANCH  19  20
HETATM   20  N6  UNL     1      64.148  17.539  29.867  1.00  0.00    -0.072 N 
ATOM     21  H63 UNL     1      64.889  17.055  29.360  1.00  0.00     0.274 HD
ATOM     22  H62 UNL     1      63.458  17.567  29.116  1.00  0.00     0.274 HD
ATOM     23  H61 UNL     1      64.428  18.470  30.174  1.00  0.00     0.274 HD
ENDBRANCH  19  20
BRANCH  19  24
HETATM   24  C11 UNL     1      64.344  15.451  31.025  1.00  0.00     0.121 C 
HETATM   25  S1  UNL     1      65.899  15.440  31.951  1.00  0.00    -0.095 SA
ENDBRANCH  19  24
ENDBRANCH   7  19
ENDBRANCH   6   7
TORSDOF 5
ENDMDL
MODEL 4
REMARK VINA RESULT: -5.435606645      1.395      1.522
REMARK  5 active torsions:
REMARK  status: ('A' for Active; 'I' for Inactive)
REMARK    1  A    between atoms: C5_6  and  C6_7 
REMARK    2  A    between atoms: C6_7  and  N1_8 
REMARK    3  A    between atoms: C6_7  and  C10_19 
REMARK       I    between atoms: N1_8  and  C7_10 
REMARK       I    between atoms: C7_10  and  N2_12 
REMARK       I    between atoms: C8_14  and  N4_16 
REMARK    4  A    between atoms: C10_19  and  N6_20 
REMARK    5  A    between atoms: C10_19  and  C11_24 
ROOT
HETATM    1  C1  UNL     1      57.933  12.224  31.434  1.00  0.00     0.015 C 
HETATM    2  C2  UNL     1      58.785  13.037  31.569  1.00  0.00    -0.076 C 
HETATM    3  C3  UNL     1      59.848  14.044  31.752  1.00  0.00     0.147 A 
HETATM    4  C4  UNL     1      59.851  14.827  33.015  1.00  0.00     0.063 C 
HETATM    5  O1  UNL     1      61.109  13.715  31.255  1.00  0.00    -0.354 OA
HETATM    6  C5  UNL     1      60.375  14.576  30.446  1.00  0.00     0.195 A 
ENDROOT
BRANCH   6   7
HETATM    7  C6  UNL     1      60.691  16.015  30.371  1.00  0.00     0.150 C 
BRANCH   7   8
HETATM    8  N1  UNL     1      60.727  16.309  28.910  1.00  0.00    -0.333 N 
HETATM    9  C7  UNL     1      60.038  17.393  28.382  1.00  0.00     0.323 C 
HETATM   10  O2  UNL     1      59.411  18.172  29.116  1.00  0.00    -0.247 OA
HETATM   11  N2  UNL     1      60.069  17.585  26.913  1.00  0.00    -0.270 N 
HETATM   12  C8  UNL     1      59.391  18.641  26.422  1.00  0.00     0.283 C 
ATOM     13  H2  UNL     1      60.580  16.948  26.302  1.00  0.00     0.174 HD
HETATM   14  N3  UNL     1      59.790  18.212  24.727  1.00  0.00    -0.048 NA
HETATM   15  N4  UNL     1      58.799  19.566  25.990  1.00  0.00    -0.296 NA
HETATM   16  C9  UNL     1      58.096  20.625  25.920  1.00  0.00     0.271 C 
HETATM   17  N5  UNL     1      57.464  21.576  25.883  1.00  0.00    -0.156 NA
ATOM     18  H1  UNL     1      61.266  15.705  28.289  1.00  0.00     0.164 HD
ENDBRANCH   7   8
BRANCH   7  19
HETATM   19  C10 UNL     1      62.055  16.404  30.916  1.00  0.00     0.218 C 
BRANCH  19  20
HETATM   20  N6  UNL     1      62.276  17.818  30.651  1.00  0.00    -0.072 N 
ATOM     21  H63 UNL     1      61.404  18.330  30.516  1.00  0.00     0.274 HD
ATOM     22  H62 UNL     1      62.610  18.321  31.473  1.00  0.00     0.274 HD
ATOM     23  H61 UNL     1      62.908  17.905  29.856  1.00  0.00     0.274 HD
ENDBRANCH  19  20
BRANCH  19  24
HETATM   24  C11 UNL     1      63.182  15.624  30.326  1.00  0.00     0.121 C 
HETATM   25  S1  UNL     1      64.734  15.842  31.232  1.00  0.00    -0.095 SA
ENDBRANCH  19  24
ENDBRANCH   7  19
ENDBRANCH   6   7
TORSDOF 5
ENDMDL
MODEL 5
REMARK VINA RESULT: -5.246573270      1.935      2.300
REMARK  5 active torsions:
REMARK  status: ('A' for Active; 'I' for Inactive)
REMARK    1  A    between atoms: C5_6  and  C6_7 
REMARK    2  A    between atoms: C6_7  and  N1_8 
REMARK    3  A    between atoms: C6_7  and  C10_19 
REMARK       I    between atoms: N1_8  and  C7_10 
REMARK       I    between atoms: C7_10  and  N2_12 
REMARK       I    between atoms: C8_14  and  N4_16 
REMARK    4  A    between atoms: C10_19  and  N6_20 
REMARK    5  A    between atoms: C10_19  and  C11_24 
ROOT
HETATM    1  C1  UNL     1      59.532  13.613  32.719  1.00  0.00     0.015 C 
HETATM    2  C2  UNL     1      59.908  14.720  32.517  1.00  0.00    -0.076 C 
HETATM    3  C3  UNL     1      60.362  16.101  32.269  1.00  0.00     0.147 A 
HETATM    4  C4  UNL     1      59.507  16.970  31.419  1.00  0.00     0.063 C 
HETATM    5  O1  UNL     1      60.995  16.749  33.330  1.00  0.00    -0.354 OA
HETATM    6  C5  UNL     1      61.857  16.247  32.361  1.00  0.00     0.195 A 
ENDROOT
BRANCH   6   7
HETATM    7  C6  UNL     1      62.520  17.136  31.389  1.00  0.00     0.150 C 
BRANCH   7   8
HETATM    8  N1  UNL     1      62.373  16.431  30.084  1.00  0.00    -0.333 N 
HETATM    9  C7  UNL     1      61.565  16.948  29.079  1.00  0.00     0.323 C 
HETATM   10  O2  UNL     1      60.980  18.032  29.222  1.00  0.00    -0.247 OA
HETATM   11  N2  UNL     1      61.418  16.159  27.833  1.00  0.00    -0.270 N 
HETATM   12  C8  UNL     1      60.628  16.677  26.873  1.00  0.00     0.283 C 
ATOM     13  H2  UNL     1      61.893  15.265  27.709  1.00  0.00     0.174 HD
HETATM   14  N3  UNL     1      60.857  15.256  25.803  1.00  0.00    -0.048 NA
HETATM   15  N4  UNL     1      59.937  17.130  26.030  1.00  0.00    -0.296 NA
HETATM   16  C9  UNL     1      59.169  17.920  25.392  1.00  0.00     0.271 C 
HETATM   17  N5  UNL     1      58.482  18.646  24.840  1.00  0.00    -0.156 NA
ATOM     18  H1  UNL     1      62.873  15.555  29.927  1.00  0.00     0.164 HD
ENDBRANCH   7   8
BRANCH   7  19
HETATM   19  C10 UNL     1      64.012  17.326  31.603  1.00  0.00     0.218 C 
BRANCH  19  20
HETATM   20  N6  UNL     1      64.667  17.368  30.304  1.00  0.00    -0.072 N 
ATOM     21  H63 UNL     1      65.094  18.273  30.111  1.00  0.00     0.274 HD
ATOM     22  H62 UNL     1      65.515  16.802  30.276  1.00  0.00     0.274 HD
ATOM     23  H61 UNL     1      63.992  17.094  29.590  1.00  0.00     0.274 HD
ENDBRANCH  19  20
BRANCH  19  24
HETATM   24  C11 UNL     1      64.642  16.250  32.423  1.00  0.00     0.121 C 
HETATM   25  S1  UNL     1      65.584  15.071  31.423  1.00  0.00    -0.095 SA
ENDBRANCH  19  24
ENDBRANCH   7  19
ENDBRANCH   6   7
TORSDOF 5
ENDMDL
