MODEL 1
REMARK VINA RESULT: -8.294757043      0.000      0.000
REMARK  12 active torsions:
REMARK  status: ('A' for Active; 'I' for Inactive)
REMARK       I    between atoms: N1_1  and  C1_4 
REMARK       I    between atoms: C1_4  and  N3_6 
REMARK    1  A    between atoms: C4_9  and  C5_10 
REMARK       I    between atoms: C5_10  and  N4_12 
REMARK    2  A    between atoms: C6_13  and  C7_14 
REMARK       I    between atoms: C7_14  and  N5_16 
REMARK    3  A    between atoms: N5_16  and  C8_17 
REMARK    4  A    between atoms: C16_27  and  C17_28 
REMARK       I    between atoms: C17_28  and  N7_30 
REMARK    5  A    between atoms: N7_30  and  C18_32 
REMARK       I    between atoms: N8_38  and  C24_39 
REMARK    6  A    between atoms: C24_39  and  C25_41 
REMARK    7  A    between atoms: C25_41  and  C26_42 
REMARK    8  A    between atoms: C26_42  and  C27_43 
REMARK    9  A    between atoms: C27_43  and  C28_44 
REMARK   10  A    between atoms: C28_44  and  C29_45 
REMARK   11  A    between atoms: C29_45  and  C30_46 
REMARK   12  A    between atoms: C30_46  and  N9_47 
REMARK       I    between atoms: N9_47  and  C31_49 
ROOT
HETATM    1  C5  UNL     1       5.399 -10.406  17.307  1.00  0.00     0.246 C 
HETATM    2  O1  UNL     1       5.182  -9.809  18.424  1.00  0.00    -0.271 OA
HETATM    3  N4  UNL     1       4.308 -10.989  16.695  1.00  0.00    -0.322 N 
HETATM    4  C6  UNL     1       3.080 -11.102  17.385  1.00  0.00     0.195 C 
HETATM    5  C13 UNL     1       1.887 -11.416  16.567  1.00  0.00     0.036 C 
HETATM    6  C14 UNL     1       2.079 -12.485  15.535  1.00  0.00     0.005 C 
HETATM    7  C15 UNL     1       3.533 -12.820  15.305  1.00  0.00     0.035 C 
HETATM    8  C16 UNL     1       4.384 -11.519  15.362  1.00  0.00     0.180 C 
ENDROOT
BRANCH   1   9
HETATM    9  C4  UNL     1       6.825 -10.364  16.900  1.00  0.00     0.205 C 
HETATM   10  C3  UNL     1       7.209 -11.830  16.522  1.00  0.00     0.059 C 
HETATM   11  C2  UNL     1       6.902 -12.481  17.865  1.00  0.00     0.155 C 
HETATM   12  N3  UNL     1       7.512 -11.491  18.791  1.00  0.00    -0.259 N 
HETATM   13  C1  UNL     1       7.853 -11.866  20.083  1.00  0.00     0.203 C 
HETATM   14  N8  UNL     1       7.689 -10.282  18.061  1.00  0.00    -0.242 N 
HETATM   15  N1  UNL     1       9.003 -12.359  20.395  1.00  0.00    -0.372 N 
HETATM   16  N2  UNL     1       6.992 -11.766  21.238  1.00  0.00    -0.062 NA
ATOM     17  H12 UNL     1       9.253 -12.635  21.344  1.00  0.00     0.158 HD
ATOM     18  H11 UNL     1       9.610 -12.430  19.579  1.00  0.00     0.158 HD
HETATM   19  C24 UNL     1       8.562  -9.239  18.544  1.00  0.00     0.239 C 
HETATM   20  O4  UNL     1       8.923  -9.215  19.716  1.00  0.00    -0.272 OA
BRANCH  19  21
HETATM   21  C25 UNL     1       9.014  -8.197  17.578  1.00  0.00     0.105 C 
BRANCH  21  22
HETATM   22  C26 UNL     1       8.922  -6.794  18.165  1.00  0.00     0.009 C 
BRANCH  22  23
HETATM   23  C27 UNL     1      10.065  -5.961  17.661  1.00  0.00     0.001 C 
BRANCH  23  24
HETATM   24  C28 UNL     1      10.287  -6.199  16.154  1.00  0.00     0.002 C 
BRANCH  24  25
HETATM   25  C29 UNL     1       9.913  -4.978  15.399  1.00  0.00     0.020 C 
BRANCH  25  26
HETATM   26  C30 UNL     1       8.570  -5.028  14.679  1.00  0.00     0.122 C 
BRANCH  26  27
HETATM   27  N9  UNL     1       7.781  -3.928  15.308  1.00  0.00    -0.365 N 
HETATM   28  C31 UNL     1       6.688  -4.414  15.966  1.00  0.00     0.181 C 
HETATM   29  N10 UNL     1       6.399  -5.736  15.989  1.00  0.00    -0.374 N 
HETATM   30  N11 UNL     1       6.000  -3.369  16.609  1.00  0.00    -0.064 NA
ATOM     31 2H10 UNL     1       6.898  -6.493  15.522  1.00  0.00     0.158 HD
ATOM     32 1H10 UNL     1       5.582  -6.098  16.481  1.00  0.00     0.158 HD
ATOM     33  H9  UNL     1       8.027  -2.940  15.253  1.00  0.00     0.162 HD
ENDBRANCH  26  27
ENDBRANCH  25  26
ENDBRANCH  24  25
ENDBRANCH  23  24
ENDBRANCH  22  23
ENDBRANCH  21  22
ENDBRANCH  19  21
ENDBRANCH   1   9
BRANCH   4  34
HETATM   34  C7  UNL     1       2.701  -9.915  18.305  1.00  0.00     0.315 C 
HETATM   35  O2  UNL     1       2.390 -10.161  19.490  1.00  0.00    -0.255 OA
HETATM   36  N5  UNL     1       2.740  -8.730  17.706  1.00  0.00    -0.369 NA
BRANCH  36  37
HETATM   37  C8  UNL     1       2.773  -7.686  17.179  1.00  0.00     0.113 A 
HETATM   38  C9  UNL     1       3.147  -6.762  18.356  1.00  0.00     0.062 A 
HETATM   39  C10 UNL     1       3.319  -5.471  18.149  1.00  0.00     0.091 A 
HETATM   40  N6  UNL     1       3.165  -4.898  16.856  1.00  0.00    -0.375 N 
HETATM   41  C11 UNL     1       2.840  -5.733  15.887  1.00  0.00     0.091 A 
ATOM     42  H6  UNL     1       3.298  -3.901  16.689  1.00  0.00     0.164 HD
HETATM   43  C12 UNL     1       2.657  -7.062  16.055  1.00  0.00     0.062 A 
ENDBRANCH  36  37
ENDBRANCH   4  34
BRANCH   8  44
HETATM   44  C17 UNL     1       3.840 -10.612  14.305  1.00  0.00     0.241 C 
HETATM   45  O3  UNL     1       3.676  -9.508  14.078  1.00  0.00    -0.271 OA
HETATM   46  N7  UNL     1       3.316 -11.535  13.161  1.00  0.00    -0.355 N 
ATOM     47  H7  UNL     1       3.442 -12.546  13.211  1.00  0.00     0.162 HD
BRANCH  46  48
HETATM   48  C18 UNL     1       2.661 -10.941  12.044  1.00  0.00     0.084 C 
HETATM   49  C19 UNL     1       1.354 -11.766  11.839  1.00  0.00     0.025 C 
HETATM   50  C20 UNL     1       1.699 -13.194  11.557  1.00  0.00     0.002 C 
HETATM   51  C21 UNL     1       2.393 -13.268  10.239  1.00  0.00     0.000 C 
HETATM   52  C22 UNL     1       2.735 -11.885   9.772  1.00  0.00     0.002 C 
HETATM   53  C23 UNL     1       3.447 -11.042  10.785  1.00  0.00     0.025 C 
ENDBRANCH  46  48
ENDBRANCH   8  44
TORSDOF 12
ENDMDL
MODEL 2
REMARK VINA RESULT: -7.953041887      3.542      8.838
REMARK  12 active torsions:
REMARK  status: ('A' for Active; 'I' for Inactive)
REMARK       I    between atoms: N1_1  and  C1_4 
REMARK       I    between atoms: C1_4  and  N3_6 
REMARK    1  A    between atoms: C4_9  and  C5_10 
REMARK       I    between atoms: C5_10  and  N4_12 
REMARK    2  A    between atoms: C6_13  and  C7_14 
REMARK       I    between atoms: C7_14  and  N5_16 
REMARK    3  A    between atoms: N5_16  and  C8_17 
REMARK    4  A    between atoms: C16_27  and  C17_28 
REMARK       I    between atoms: C17_28  and  N7_30 
REMARK    5  A    between atoms: N7_30  and  C18_32 
REMARK       I    between atoms: N8_38  and  C24_39 
REMARK    6  A    between atoms: C24_39  and  C25_41 
REMARK    7  A    between atoms: C25_41  and  C26_42 
REMARK    8  A    between atoms: C26_42  and  C27_43 
REMARK    9  A    between atoms: C27_43  and  C28_44 
REMARK   10  A    between atoms: C28_44  and  C29_45 
REMARK   11  A    between atoms: C29_45  and  C30_46 
REMARK   12  A    between atoms: C30_46  and  N9_47 
REMARK       I    between atoms: N9_47  and  C31_49 
ROOT
HETATM    1  C5  UNL     1       4.117  -3.831  15.078  1.00  0.00     0.246 C 
HETATM    2  O1  UNL     1       3.546  -2.681  15.044  1.00  0.00    -0.271 OA
HETATM    3  N4  UNL     1       5.491  -3.836  15.213  1.00  0.00    -0.322 N 
HETATM    4  C6  UNL     1       6.223  -2.635  15.092  1.00  0.00     0.195 C 
HETATM    5  C13 UNL     1       7.621  -2.659  15.580  1.00  0.00     0.036 C 
HETATM    6  C14 UNL     1       8.415  -3.869  15.193  1.00  0.00     0.005 C 
HETATM    7  C15 UNL     1       7.554  -4.984  14.650  1.00  0.00     0.035 C 
HETATM    8  C16 UNL     1       6.221  -5.051  15.451  1.00  0.00     0.180 C 
ENDROOT
BRANCH   1   9
HETATM    9  C4  UNL     1       3.157  -4.954  14.941  1.00  0.00     0.205 C 
HETATM   10  C3  UNL     1       1.767  -4.390  15.373  1.00  0.00     0.059 C 
HETATM   11  C2  UNL     1       2.139  -3.979  16.793  1.00  0.00     0.155 C 
HETATM   12  N3  UNL     1       2.916  -5.172  17.223  1.00  0.00    -0.259 N 
HETATM   13  C1  UNL     1       3.090  -5.437  18.574  1.00  0.00     0.203 C 
HETATM   14  N8  UNL     1       3.289  -5.881  16.047  1.00  0.00    -0.242 N 
HETATM   15  N1  UNL     1       2.266  -6.145  19.268  1.00  0.00    -0.372 N 
HETATM   16  N2  UNL     1       4.191  -4.967  19.384  1.00  0.00    -0.062 NA
ATOM     17  H12 UNL     1       2.395  -6.339  20.261  1.00  0.00     0.158 HD
ATOM     18  H11 UNL     1       1.489  -6.476  18.696  1.00  0.00     0.158 HD
HETATM   19  C24 UNL     1       3.743  -7.249  16.113  1.00  0.00     0.239 C 
HETATM   20  O4  UNL     1       4.120  -7.736  17.174  1.00  0.00    -0.272 OA
BRANCH  19  21
HETATM   21  C25 UNL     1       3.736  -8.053  14.857  1.00  0.00     0.105 C 
BRANCH  21  22
HETATM   22  C26 UNL     1       3.718  -9.551  15.136  1.00  0.00     0.009 C 
BRANCH  22  23
HETATM   23  C27 UNL     1       3.730 -10.306  13.838  1.00  0.00     0.001 C 
BRANCH  23  24
HETATM   24  C28 UNL     1       3.264 -11.761  14.053  1.00  0.00     0.002 C 
BRANCH  24  25
HETATM   25  C29 UNL     1       2.469 -12.203  12.881  1.00  0.00     0.020 C 
BRANCH  25  26
HETATM   26  C30 UNL     1       2.524 -11.292  11.659  1.00  0.00     0.122 C 
BRANCH  26  27
HETATM   27  N9  UNL     1       1.148 -11.372  11.086  1.00  0.00    -0.365 N 
HETATM   28  C31 UNL     1       0.919 -10.360  10.199  1.00  0.00     0.181 C 
HETATM   29  N10 UNL     1       1.855  -9.420   9.933  1.00  0.00    -0.374 N 
HETATM   30  N11 UNL     1      -0.356 -10.497   9.619  1.00  0.00    -0.064 NA
ATOM     31 2H10 UNL     1       2.779  -9.321  10.354  1.00  0.00     0.158 HD
ATOM     32 1H10 UNL     1       1.684  -8.664   9.270  1.00  0.00     0.158 HD
ATOM     33  H9  UNL     1       0.465 -12.091  11.326  1.00  0.00     0.162 HD
ENDBRANCH  26  27
ENDBRANCH  25  26
ENDBRANCH  24  25
ENDBRANCH  23  24
ENDBRANCH  22  23
ENDBRANCH  21  22
ENDBRANCH  19  21
ENDBRANCH   1   9
BRANCH   4  34
HETATM   34  C7  UNL     1       5.558  -1.367  15.683  1.00  0.00     0.315 C 
HETATM   35  O2  UNL     1       5.392  -1.308  16.920  1.00  0.00    -0.255 OA
HETATM   36  N5  UNL     1       5.218  -0.459  14.775  1.00  0.00    -0.369 NA
BRANCH  36  37
HETATM   37  C8  UNL     1       4.918   0.341  13.976  1.00  0.00     0.113 A 
HETATM   38  C9  UNL     1       6.301   0.828  13.495  1.00  0.00     0.062 A 
HETATM   39  C10 UNL     1       6.383   1.733  12.540  1.00  0.00     0.091 A 
HETATM   40  N6  UNL     1       5.220   2.283  11.934  1.00  0.00    -0.375 N 
HETATM   41  C11 UNL     1       4.063   1.835  12.386  1.00  0.00     0.091 A 
ATOM     42  H6  UNL     1       5.276   2.983  11.194  1.00  0.00     0.164 HD
HETATM   43  C12 UNL     1       3.933   0.907  13.361  1.00  0.00     0.062 A 
ENDBRANCH  36  37
ENDBRANCH   4  34
BRANCH   8  44
HETATM   44  C17 UNL     1       6.599  -5.273  16.880  1.00  0.00     0.241 C 
HETATM   45  O3  UNL     1       6.705  -4.719  17.870  1.00  0.00    -0.271 OA
HETATM   46  N7  UNL     1       6.986  -6.780  17.004  1.00  0.00    -0.355 N 
ATOM     47  H7  UNL     1       6.891  -7.407  16.204  1.00  0.00     0.162 HD
BRANCH  46  48
HETATM   48  C18 UNL     1       7.473  -7.265  18.251  1.00  0.00     0.084 C 
HETATM   49  C19 UNL     1       9.024  -7.137  18.173  1.00  0.00     0.025 C 
HETATM   50  C20 UNL     1       9.542  -7.965  17.040  1.00  0.00     0.002 C 
HETATM   51  C21 UNL     1       9.307  -9.404  17.352  1.00  0.00     0.000 C 
HETATM   52  C22 UNL     1       8.414  -9.520  18.551  1.00  0.00     0.002 C 
HETATM   53  C23 UNL     1       7.161  -8.702  18.478  1.00  0.00     0.025 C 
ENDBRANCH  46  48
ENDBRANCH   8  44
TORSDOF 12
ENDMDL
MODEL 3
REMARK VINA RESULT: -7.858822667      3.389      8.590
REMARK  12 active torsions:
REMARK  status: ('A' for Active; 'I' for Inactive)
REMARK       I    between atoms: N1_1  and  C1_4 
REMARK       I    between atoms: C1_4  and  N3_6 
REMARK    1  A    between atoms: C4_9  and  C5_10 
REMARK       I    between atoms: C5_10  and  N4_12 
REMARK    2  A    between atoms: C6_13  and  C7_14 
REMARK       I    between atoms: C7_14  and  N5_16 
REMARK    3  A    between atoms: N5_16  and  C8_17 
REMARK    4  A    between atoms: C16_27  and  C17_28 
REMARK       I    between atoms: C17_28  and  N7_30 
REMARK    5  A    between atoms: N7_30  and  C18_32 
REMARK       I    between atoms: N8_38  and  C24_39 
REMARK    6  A    between atoms: C24_39  and  C25_41 
REMARK    7  A    between atoms: C25_41  and  C26_42 
REMARK    8  A    between atoms: C26_42  and  C27_43 
REMARK    9  A    between atoms: C27_43  and  C28_44 
REMARK   10  A    between atoms: C28_44  and  C29_45 
REMARK   11  A    between atoms: C29_45  and  C30_46 
REMARK   12  A    between atoms: C30_46  and  N9_47 
REMARK       I    between atoms: N9_47  and  C31_49 
ROOT
HETATM    1  C5  UNL     1       4.114  -3.882  15.092  1.00  0.00     0.246 C 
HETATM    2  O1  UNL     1       3.553  -2.727  15.060  1.00  0.00    -0.271 OA
HETATM    3  N4  UNL     1       5.487  -3.900  15.232  1.00  0.00    -0.322 N 
HETATM    4  C6  UNL     1       6.230  -2.704  15.118  1.00  0.00     0.195 C 
HETATM    5  C13 UNL     1       7.626  -2.741  15.611  1.00  0.00     0.036 C 
HETATM    6  C14 UNL     1       8.411  -3.957  15.222  1.00  0.00     0.005 C 
HETATM    7  C15 UNL     1       7.543  -5.062  14.671  1.00  0.00     0.035 C 
HETATM    8  C16 UNL     1       6.206  -5.121  15.468  1.00  0.00     0.180 C 
ENDROOT
BRANCH   1   9
HETATM    9  C4  UNL     1       3.145  -4.996  14.947  1.00  0.00     0.205 C 
HETATM   10  C3  UNL     1       1.759  -4.422  15.378  1.00  0.00     0.059 C 
HETATM   11  C2  UNL     1       2.130  -4.021  16.801  1.00  0.00     0.155 C 
HETATM   12  N3  UNL     1       2.895  -5.223  17.227  1.00  0.00    -0.259 N 
HETATM   13  C1  UNL     1       3.064  -5.495  18.578  1.00  0.00     0.203 C 
HETATM   14  N8  UNL     1       3.266  -5.930  16.049  1.00  0.00    -0.242 N 
HETATM   15  N1  UNL     1       2.232  -6.200  19.266  1.00  0.00    -0.372 N 
HETATM   16  N2  UNL     1       4.166  -5.039  19.393  1.00  0.00    -0.062 NA
ATOM     17  H12 UNL     1       2.356  -6.400  20.258  1.00  0.00     0.158 HD
ATOM     18  H11 UNL     1       1.454  -6.522  18.690  1.00  0.00     0.158 HD
HETATM   19  C24 UNL     1       3.708  -7.302  16.110  1.00  0.00     0.239 C 
HETATM   20  O4  UNL     1       4.078  -7.796  17.170  1.00  0.00    -0.272 OA
BRANCH  19  21
HETATM   21  C25 UNL     1       3.699  -8.100  14.851  1.00  0.00     0.105 C 
BRANCH  21  22
HETATM   22  C26 UNL     1       4.103  -9.549  15.088  1.00  0.00     0.009 C 
BRANCH  22  23
HETATM   23  C27 UNL     1       3.652 -10.395  13.932  1.00  0.00     0.001 C 
BRANCH  23  24
HETATM   24  C28 UNL     1       2.909 -11.649  14.435  1.00  0.00     0.002 C 
BRANCH  24  25
HETATM   25  C29 UNL     1       3.358 -11.972  15.811  1.00  0.00     0.020 C 
BRANCH  25  26
HETATM   26  C30 UNL     1       2.265 -12.006  16.875  1.00  0.00     0.122 C 
BRANCH  26  27
HETATM   27  N9  UNL     1       2.538 -10.800  17.711  1.00  0.00    -0.365 N 
HETATM   28  C31 UNL     1       1.378 -10.222  18.143  1.00  0.00     0.181 C 
HETATM   29  N10 UNL     1       0.166 -10.716  17.802  1.00  0.00    -0.374 N 
HETATM   30  N11 UNL     1       1.659  -9.131  18.986  1.00  0.00    -0.064 NA
ATOM     31 2H10 UNL     1      -0.038 -11.507  17.190  1.00  0.00     0.158 HD
ATOM     32 1H10 UNL     1      -0.700 -10.284  18.125  1.00  0.00     0.158 HD
ATOM     33  H9  UNL     1       3.470 -10.451  17.933  1.00  0.00     0.162 HD
ENDBRANCH  26  27
ENDBRANCH  25  26
ENDBRANCH  24  25
ENDBRANCH  23  24
ENDBRANCH  22  23
ENDBRANCH  21  22
ENDBRANCH  19  21
ENDBRANCH   1   9
BRANCH   4  34
HETATM   34  C7  UNL     1       5.574  -1.432  15.712  1.00  0.00     0.315 C 
HETATM   35  O2  UNL     1       5.397  -1.380  16.948  1.00  0.00    -0.255 OA
HETATM   36  N5  UNL     1       5.252  -0.515  14.807  1.00  0.00    -0.369 NA
BRANCH  36  37
HETATM   37  C8  UNL     1       4.967   0.294  14.011  1.00  0.00     0.113 A 
HETATM   38  C9  UNL     1       6.359   0.777  13.555  1.00  0.00     0.062 A 
HETATM   39  C10 UNL     1       6.461   1.690  12.609  1.00  0.00     0.091 A 
HETATM   40  N6  UNL     1       5.309   2.252  11.992  1.00  0.00    -0.375 N 
HETATM   41  C11 UNL     1       4.143   1.806  12.423  1.00  0.00     0.091 A 
ATOM     42  H6  UNL     1       5.380   2.958  11.259  1.00  0.00     0.164 HD
HETATM   43  C12 UNL     1       3.995   0.870  13.387  1.00  0.00     0.062 A 
ENDBRANCH  36  37
ENDBRANCH   4  34
BRANCH   8  44
HETATM   44  C17 UNL     1       6.577  -5.353  16.897  1.00  0.00     0.241 C 
HETATM   45  O3  UNL     1       6.697  -4.801  17.886  1.00  0.00    -0.271 OA
HETATM   46  N7  UNL     1       6.925  -6.869  17.021  1.00  0.00    -0.355 N 
ATOM     47  H7  UNL     1       6.815  -7.494  16.222  1.00  0.00     0.162 HD
BRANCH  46  48
HETATM   48  C18 UNL     1       7.399  -7.366  18.269  1.00  0.00     0.084 C 
HETATM   49  C19 UNL     1       8.948  -7.201  18.225  1.00  0.00     0.025 C 
HETATM   50  C20 UNL     1       9.508  -7.995  17.088  1.00  0.00     0.002 C 
HETATM   51  C21 UNL     1       9.299  -9.445  17.369  1.00  0.00     0.000 C 
HETATM   52  C22 UNL     1       8.386  -9.603  18.548  1.00  0.00     0.002 C 
HETATM   53  C23 UNL     1       7.116  -8.814  18.464  1.00  0.00     0.025 C 
ENDBRANCH  46  48
ENDBRANCH   8  44
TORSDOF 12
ENDMDL
MODEL 4
REMARK VINA RESULT: -7.840768115      2.989      7.033
REMARK  12 active torsions:
REMARK  status: ('A' for Active; 'I' for Inactive)
REMARK       I    between atoms: N1_1  and  C1_4 
REMARK       I    between atoms: C1_4  and  N3_6 
REMARK    1  A    between atoms: C4_9  and  C5_10 
REMARK       I    between atoms: C5_10  and  N4_12 
REMARK    2  A    between atoms: C6_13  and  C7_14 
REMARK       I    between atoms: C7_14  and  N5_16 
REMARK    3  A    between atoms: N5_16  and  C8_17 
REMARK    4  A    between atoms: C16_27  and  C17_28 
REMARK       I    between atoms: C17_28  and  N7_30 
REMARK    5  A    between atoms: N7_30  and  C18_32 
REMARK       I    between atoms: N8_38  and  C24_39 
REMARK    6  A    between atoms: C24_39  and  C25_41 
REMARK    7  A    between atoms: C25_41  and  C26_42 
REMARK    8  A    between atoms: C26_42  and  C27_43 
REMARK    9  A    between atoms: C27_43  and  C28_44 
REMARK   10  A    between atoms: C28_44  and  C29_45 
REMARK   11  A    between atoms: C29_45  and  C30_46 
REMARK   12  A    between atoms: C30_46  and  N9_47 
REMARK       I    between atoms: N9_47  and  C31_49 
ROOT
HETATM    1  C5  UNL     1       5.089  -7.507  17.714  1.00  0.00     0.246 C 
HETATM    2  O1  UNL     1       3.951  -7.686  17.145  1.00  0.00    -0.271 OA
HETATM    3  N4  UNL     1       5.877  -8.627  17.888  1.00  0.00    -0.322 N 
HETATM    4  C6  UNL     1       5.348  -9.914  17.650  1.00  0.00     0.195 C 
HETATM    5  C13 UNL     1       6.324 -11.020  17.524  1.00  0.00     0.036 C 
HETATM    6  C14 UNL     1       7.427 -11.019  18.538  1.00  0.00     0.005 C 
HETATM    7  C15 UNL     1       7.521  -9.719  19.300  1.00  0.00     0.035 C 
HETATM    8  C16 UNL     1       7.238  -8.529  18.337  1.00  0.00     0.180 C 
ENDROOT
BRANCH   1   9
HETATM    9  C4  UNL     1       5.323  -6.094  18.099  1.00  0.00     0.205 C 
HETATM   10  C3  UNL     1       4.249  -5.757  19.181  1.00  0.00     0.059 C 
HETATM   11  C2  UNL     1       3.009  -6.039  18.342  1.00  0.00     0.155 C 
HETATM   12  N3  UNL     1       3.390  -5.376  17.068  1.00  0.00    -0.259 N 
HETATM   13  C1  UNL     1       2.410  -5.005  16.157  1.00  0.00     0.203 C 
HETATM   14  N8  UNL     1       4.801  -5.192  17.091  1.00  0.00    -0.242 N 
HETATM   15  N1  UNL     1       1.821  -3.859  16.182  1.00  0.00    -0.372 N 
HETATM   16  N2  UNL     1       1.915  -5.827  15.078  1.00  0.00    -0.062 NA
ATOM     17  H12 UNL     1       1.101  -3.586  15.514  1.00  0.00     0.158 HD
ATOM     18  H11 UNL     1       2.170  -3.278  16.945  1.00  0.00     0.158 HD
HETATM   19  C24 UNL     1       5.451  -4.280  16.181  1.00  0.00     0.239 C 
HETATM   20  O4  UNL     1       4.875  -3.882  15.173  1.00  0.00    -0.272 OA
BRANCH  19  21
HETATM   21  C25 UNL     1       6.836  -3.833  16.503  1.00  0.00     0.105 C 
BRANCH  21  22
HETATM   22  C26 UNL     1       7.042  -2.352  16.209  1.00  0.00     0.009 C 
BRANCH  22  23
HETATM   23  C27 UNL     1       7.543  -2.181  14.804  1.00  0.00     0.001 C 
BRANCH  23  24
HETATM   24  C28 UNL     1       8.369  -0.885  14.675  1.00  0.00     0.002 C 
BRANCH  24  25
HETATM   25  C29 UNL     1       7.846  -0.075  13.547  1.00  0.00     0.020 C 
BRANCH  25  26
HETATM   26  C30 UNL     1       6.947   1.095  13.931  1.00  0.00     0.122 C 
BRANCH  26  27
HETATM   27  N9  UNL     1       5.608   0.714  13.392  1.00  0.00    -0.365 N 
HETATM   28  C31 UNL     1       4.704   0.520  14.398  1.00  0.00     0.181 C 
HETATM   29  N10 UNL     1       5.047   0.652  15.700  1.00  0.00    -0.374 N 
HETATM   30  N11 UNL     1       3.434   0.232  13.865  1.00  0.00    -0.064 NA
ATOM     31 2H10 UNL     1       5.968   0.860  16.086  1.00  0.00     0.158 HD
ATOM     32 1H10 UNL     1       4.372   0.507  16.450  1.00  0.00     0.158 HD
ATOM     33  H9  UNL     1       5.394   0.611  12.401  1.00  0.00     0.162 HD
ENDBRANCH  26  27
ENDBRANCH  25  26
ENDBRANCH  24  25
ENDBRANCH  23  24
ENDBRANCH  22  23
ENDBRANCH  21  22
ENDBRANCH  19  21
ENDBRANCH   1   9
BRANCH   4  34
HETATM   34  C7  UNL     1       4.365 -10.040  16.459  1.00  0.00     0.315 C 
HETATM   35  O2  UNL     1       4.761  -9.694  15.326  1.00  0.00    -0.255 OA
HETATM   36  N5  UNL     1       3.166 -10.507  16.791  1.00  0.00    -0.369 NA
BRANCH  36  37
HETATM   37  C8  UNL     1       2.111 -10.918  17.082  1.00  0.00     0.113 A 
HETATM   38  C9  UNL     1       1.676  -9.905  18.162  1.00  0.00     0.062 A 
HETATM   39  C10 UNL     1       0.489 -10.013  18.725  1.00  0.00     0.091 A 
HETATM   40  N6  UNL     1      -0.414 -11.051  18.363  1.00  0.00    -0.375 N 
HETATM   41  C11 UNL     1       0.010 -11.893  17.438  1.00  0.00     0.091 A 
ATOM     42  H6  UNL     1      -1.334 -11.141  18.794  1.00  0.00     0.164 HD
HETATM   43  C12 UNL     1       1.217 -11.817  16.834  1.00  0.00     0.062 A 
ENDBRANCH  36  37
ENDBRANCH   4  34
BRANCH   8  44
HETATM   44  C17 UNL     1       8.256  -8.619  17.246  1.00  0.00     0.241 C 
HETATM   45  O3  UNL     1       8.845  -9.381  16.638  1.00  0.00    -0.271 OA
HETATM   46  N7  UNL     1       8.611  -7.150  16.854  1.00  0.00    -0.355 N 
ATOM     47  H7  UNL     1       8.123  -6.366  17.285  1.00  0.00     0.162 HD
BRANCH  46  48
HETATM   48  C18 UNL     1       9.629  -6.925  15.883  1.00  0.00     0.084 C 
HETATM   49  C19 UNL     1      10.871  -6.433  16.686  1.00  0.00     0.025 C 
HETATM   50  C20 UNL     1      10.535  -5.168  17.410  1.00  0.00     0.002 C 
HETATM   51  C21 UNL     1      10.294  -4.091  16.406  1.00  0.00     0.000 C 
HETATM   52  C22 UNL     1      10.217  -4.691  15.033  1.00  0.00     0.002 C 
HETATM   53  C23 UNL     1       9.280  -5.853  14.912  1.00  0.00     0.025 C 
ENDBRANCH  46  48
ENDBRANCH   8  44
TORSDOF 12
ENDMDL
MODEL 5
REMARK VINA RESULT: -7.646036392      3.407      8.620
REMARK  12 active torsions:
REMARK  status: ('A' for Active; 'I' for Inactive)
REMARK       I    between atoms: N1_1  and  C1_4 
REMARK       I    between atoms: C1_4  and  N3_6 
REMARK    1  A    between atoms: C4_9  and  C5_10 
REMARK       I    between atoms: C5_10  and  N4_12 
REMARK    2  A    between atoms: C6_13  and  C7_14 
REMARK       I    between atoms: C7_14  and  N5_16 
REMARK    3  A    between atoms: N5_16  and  C8_17 
REMARK    4  A    between atoms: C16_27  and  C17_28 
REMARK       I    between atoms: C17_28  and  N7_30 
REMARK    5  A    between atoms: N7_30  and  C18_32 
REMARK       I    between atoms: N8_38  and  C24_39 
REMARK    6  A    between atoms: C24_39  and  C25_41 
REMARK    7  A    between atoms: C25_41  and  C26_42 
REMARK    8  A    between atoms: C26_42  and  C27_43 
REMARK    9  A    between atoms: C27_43  and  C28_44 
REMARK   10  A    between atoms: C28_44  and  C29_45 
REMARK   11  A    between atoms: C29_45  and  C30_46 
REMARK   12  A    between atoms: C30_46  and  N9_47 
REMARK       I    between atoms: N9_47  and  C31_49 
ROOT
HETATM    1  C5  UNL     1       4.104  -3.820  15.088  1.00  0.00     0.246 C 
HETATM    2  O1  UNL     1       3.541  -2.667  15.056  1.00  0.00    -0.271 OA
HETATM    3  N4  UNL     1       5.478  -3.835  15.219  1.00  0.00    -0.322 N 
HETATM    4  C6  UNL     1       6.218  -2.639  15.097  1.00  0.00     0.195 C 
HETATM    5  C13 UNL     1       7.617  -2.672  15.582  1.00  0.00     0.036 C 
HETATM    6  C14 UNL     1       8.401  -3.888  15.192  1.00  0.00     0.005 C 
HETATM    7  C15 UNL     1       7.531  -4.996  14.651  1.00  0.00     0.035 C 
HETATM    8  C16 UNL     1       6.200  -5.054  15.455  1.00  0.00     0.180 C 
ENDROOT
BRANCH   1   9
HETATM    9  C4  UNL     1       3.136  -4.936  14.952  1.00  0.00     0.205 C 
HETATM   10  C3  UNL     1       1.752  -4.365  15.397  1.00  0.00     0.059 C 
HETATM   11  C2  UNL     1       2.136  -3.963  16.816  1.00  0.00     0.155 C 
HETATM   12  N3  UNL     1       2.908  -5.163  17.235  1.00  0.00    -0.259 N 
HETATM   13  C1  UNL     1       3.090  -5.435  18.584  1.00  0.00     0.203 C 
HETATM   14  N8  UNL     1       3.268  -5.869  16.054  1.00  0.00    -0.242 N 
HETATM   15  N1  UNL     1       2.266  -6.140  19.280  1.00  0.00    -0.372 N 
HETATM   16  N2  UNL     1       4.199  -4.975  19.389  1.00  0.00    -0.062 NA
ATOM     17  H12 UNL     1       2.400  -6.340  20.271  1.00  0.00     0.158 HD
ATOM     18  H11 UNL     1       1.483  -6.464  18.712  1.00  0.00     0.158 HD
HETATM   19  C24 UNL     1       3.714  -7.241  16.111  1.00  0.00     0.239 C 
HETATM   20  O4  UNL     1       4.096  -7.734  17.168  1.00  0.00    -0.272 OA
BRANCH  19  21
HETATM   21  C25 UNL     1       3.695  -8.039  14.852  1.00  0.00     0.105 C 
BRANCH  21  22
HETATM   22  C26 UNL     1       3.727  -9.538  15.124  1.00  0.00     0.009 C 
BRANCH  22  23
HETATM   23  C27 UNL     1       3.733 -10.287  13.822  1.00  0.00     0.001 C 
BRANCH  23  24
HETATM   24  C28 UNL     1       3.355 -11.766  14.046  1.00  0.00     0.002 C 
BRANCH  24  25
HETATM   25  C29 UNL     1       2.674 -11.910  15.356  1.00  0.00     0.020 C 
BRANCH  25  26
HETATM   26  C30 UNL     1       3.326 -12.877  16.339  1.00  0.00     0.122 C 
BRANCH  26  27
HETATM   27  N9  UNL     1       3.241 -12.171  17.651  1.00  0.00    -0.365 N 
HETATM   28  C31 UNL     1       4.467 -11.733  18.060  1.00  0.00     0.181 C 
HETATM   29  N10 UNL     1       5.585 -11.962  17.333  1.00  0.00    -0.374 N 
HETATM   30  N11 UNL     1       4.353 -11.010  19.262  1.00  0.00    -0.064 NA
ATOM     31 2H10 UNL     1       5.668 -12.487  16.462  1.00  0.00     0.158 HD
ATOM     32 1H10 UNL     1       6.501 -11.635  17.639  1.00  0.00     0.158 HD
ATOM     33  H9  UNL     1       2.377 -12.033  18.176  1.00  0.00     0.162 HD
ENDBRANCH  26  27
ENDBRANCH  25  26
ENDBRANCH  24  25
ENDBRANCH  23  24
ENDBRANCH  22  23
ENDBRANCH  21  22
ENDBRANCH  19  21
ENDBRANCH   1   9
BRANCH   4  34
HETATM   34  C7  UNL     1       5.563  -1.366  15.691  1.00  0.00     0.315 C 
HETATM   35  O2  UNL     1       5.399  -1.307  16.928  1.00  0.00    -0.255 OA
HETATM   36  N5  UNL     1       5.228  -0.455  14.784  1.00  0.00    -0.369 NA
BRANCH  36  37
HETATM   37  C8  UNL     1       4.931   0.348  13.987  1.00  0.00     0.113 A 
HETATM   38  C9  UNL     1       6.316   0.808  13.487  1.00  0.00     0.062 A 
HETATM   39  C10 UNL     1       6.403   1.708  12.527  1.00  0.00     0.091 A 
HETATM   40  N6  UNL     1       5.242   2.278  11.935  1.00  0.00    -0.375 N 
HETATM   41  C11 UNL     1       4.083   1.852  12.404  1.00  0.00     0.091 A 
ATOM     42  H6  UNL     1       5.302   2.974  11.192  1.00  0.00     0.164 HD
HETATM   43  C12 UNL     1       3.950   0.930  13.383  1.00  0.00     0.062 A 
ENDBRANCH  36  37
ENDBRANCH   4  34
BRANCH   8  44
HETATM   44  C17 UNL     1       6.580  -5.281  16.883  1.00  0.00     0.241 C 
HETATM   45  O3  UNL     1       6.697  -4.727  17.872  1.00  0.00    -0.271 OA
HETATM   46  N7  UNL     1       6.948  -6.792  17.006  1.00  0.00    -0.355 N 
ATOM     47  H7  UNL     1       6.843  -7.419  16.208  1.00  0.00     0.162 HD
BRANCH  46  48
HETATM   48  C18 UNL     1       7.433  -7.282  18.252  1.00  0.00     0.084 C 
HETATM   49  C19 UNL     1       8.985  -7.161  18.174  1.00  0.00     0.025 C 
HETATM   50  C20 UNL     1       9.500  -7.988  17.040  1.00  0.00     0.002 C 
HETATM   51  C21 UNL     1       9.257  -9.427  17.348  1.00  0.00     0.000 C 
HETATM   52  C22 UNL     1       8.365  -9.542  18.547  1.00  0.00     0.002 C 
HETATM   53  C23 UNL     1       7.115  -8.719  18.477  1.00  0.00     0.025 C 
ENDBRANCH  46  48
ENDBRANCH   8  44
TORSDOF 12
ENDMDL
