MODEL 1
REMARK VINA RESULT: -6.711074795      0.000      0.000
REMARK  13 active torsions:
REMARK  status: ('A' for Active; 'I' for Inactive)
REMARK    1  A    between atoms: C2_2  and  C3_3 
REMARK    2  A    between atoms: C5_8  and  C6_9 
REMARK    3  A    between atoms: C6_9  and  C7_10 
REMARK    4  A    between atoms: N3_14  and  C9_15 
REMARK    5  A    between atoms: C12_20  and  O2_21 
REMARK    6  A    between atoms: C13_23  and  C14_24 
REMARK    7  A    between atoms: C14_24  and  C15_25 
REMARK    8  A    between atoms: C15_25  and  C16_26 
REMARK    9  A    between atoms: C16_26  and  C17_27 
REMARK   10  A    between atoms: C17_27  and  C18_28 
REMARK   11  A    between atoms: C24_37  and  O4_38 
REMARK   12  A    between atoms: C25_42  and  C26_43 
REMARK   13  A    between atoms: C29_46  and  O5_47 
ROOT
HETATM    1  C3  UNL     1       2.903 -11.884  17.846  1.00  0.00     0.187 C 
HETATM    2  N1  UNL     1       3.188 -11.140  16.623  1.00  0.00    -0.338 N 
ATOM      3  H1  UNL     1       2.644 -11.399  15.800  1.00  0.00     0.164 HD
HETATM    4  C4  UNL     1       4.116 -10.120  16.451  1.00  0.00     0.242 C 
HETATM    5  O1  UNL     1       4.713 -10.042  15.344  1.00  0.00    -0.271 OA
HETATM    6  C5  UNL     1       4.460  -9.097  17.497  1.00  0.00     0.179 C 
HETATM    7  N4  UNL     1       5.450  -8.196  16.971  1.00  0.00    -0.360 N 
ATOM      8  H4  UNL     1       5.316  -7.950  15.990  1.00  0.00     0.162 HD
HETATM    9  C12 UNL     1       6.564  -7.596  17.570  1.00  0.00     0.125 C 
HETATM   10  C13 UNL     1       7.681  -8.213  18.327  1.00  0.00     0.152 C 
HETATM   11  C19 UNL     1       8.029  -9.575  17.949  1.00  0.00     0.232 C 
HETATM   12  O3  UNL     1       7.785  -9.903  16.735  1.00  0.00    -0.272 OA
HETATM   13  N5  UNL     1       8.605 -10.606  18.725  1.00  0.00    -0.339 N 
HETATM   14  C20 UNL     1       9.740 -11.507  18.597  1.00  0.00     0.127 C 
HETATM   15  C21 UNL     1      10.471 -11.321  19.892  1.00  0.00     0.022 C 
HETATM   16  C22 UNL     1       9.403 -10.836  20.840  1.00  0.00     0.035 C 
HETATM   17  C23 UNL     1       8.092 -11.022  20.057  1.00  0.00     0.161 C 
HETATM   18  C24 UNL     1       7.676 -12.441  20.092  1.00  0.00     0.135 C 
HETATM   19  N6  UNL     1       6.539 -13.099  19.702  1.00  0.00    -0.360 N 
ATOM     20  H6  UNL     1       6.697 -13.653  18.861  1.00  0.00     0.162 HD
HETATM   21  C25 UNL     1       5.186 -13.215  20.164  1.00  0.00     0.161 C 
HETATM   22  C29 UNL     1       4.274 -13.685  19.097  1.00  0.00     0.138 C 
HETATM   23  N7  UNL     1       3.749 -13.044  17.975  1.00  0.00    -0.347 N 
HETATM   24  C30 UNL     1       4.061 -13.658  16.656  1.00  0.00     0.153 C 
ENDROOT
BRANCH   6  25
HETATM   25  C6  UNL     1       3.125  -8.372  17.696  1.00  0.00     0.076 C 
BRANCH  25  26
HETATM   26  C7  UNL     1       3.203  -6.922  17.709  1.00  0.00    -0.022 A 
HETATM   27  C8  UNL     1       3.290  -6.101  18.814  1.00  0.00     0.115 A 
HETATM   28  N2  UNL     1       3.312  -4.821  18.391  1.00  0.00    -0.310 N 
HETATM   29  N3  UNL     1       3.242  -4.809  17.076  1.00  0.00    -0.304 N 
ATOM     30  H2  UNL     1       3.372  -3.998  18.989  1.00  0.00     0.186 HD
HETATM   31  C11 UNL     1       3.174  -6.075  16.634  1.00  0.00     0.118 A 
BRANCH  29  32
HETATM   32  C9  UNL     1       3.240  -3.629  16.245  1.00  0.00     0.143 C 
HETATM   33  C10 UNL     1       1.996  -3.524  15.402  1.00  0.00     0.028 C 
ENDBRANCH  29  32
ENDBRANCH  25  26
ENDBRANCH   6  25
BRANCH   9  34
HETATM   34  O2  UNL     1       6.719  -6.305  17.495  1.00  0.00    -0.349 OA
ATOM     35  H2  UNL     1       7.595  -5.939  17.458  1.00  0.00     0.219 HD
ENDBRANCH   9  34
BRANCH   1  36
HETATM   36  C2  UNL     1       1.481 -12.487  17.728  1.00  0.00     0.042 C 
HETATM   37  C1  UNL     1       0.611 -11.767  16.764  1.00  0.00     0.009 C 
ENDBRANCH   1  36
BRANCH  10  38
HETATM   38  C14 UNL     1       8.865  -7.287  18.134  1.00  0.00     0.022 C 
BRANCH  38  39
HETATM   39  C15 UNL     1       9.709  -7.465  16.963  1.00  0.00     0.001 C 
BRANCH  39  40
HETATM   40  C16 UNL     1      10.747  -6.323  16.973  1.00  0.00     0.001 C 
BRANCH  40  41
HETATM   41  C17 UNL     1      10.063  -4.994  17.070  1.00  0.00     0.011 C 
BRANCH  41  42
HETATM   42  C18 UNL     1       9.671  -4.562  15.670  1.00  0.00     0.086 C 
HETATM   43  S1  UNL     1      10.089  -2.797  15.420  1.00  0.00    -0.098 SA
ENDBRANCH  41  42
ENDBRANCH  40  41
ENDBRANCH  39  40
ENDBRANCH  38  39
ENDBRANCH  10  38
BRANCH  22  44
HETATM   44  O5  UNL     1       3.907 -14.945  19.257  1.00  0.00    -0.348 OA
ATOM     45  H5  UNL     1       3.398 -15.275  18.526  1.00  0.00     0.219 HD
ENDBRANCH  22  44
BRANCH  21  46
HETATM   46  C26 UNL     1       4.611 -12.100  20.945  1.00  0.00     0.008 C 
HETATM   47  C27 UNL     1       5.296 -11.994  22.328  1.00  0.00     0.012 C 
HETATM   48  C28 UNL     1       3.154 -12.363  21.342  1.00  0.00     0.012 C 
ENDBRANCH  21  46
BRANCH  18  49
HETATM   49  O4  UNL     1       8.607 -13.206  20.606  1.00  0.00    -0.348 OA
ATOM     50  H4  UNL     1       8.318 -13.618  21.412  1.00  0.00     0.219 HD
ENDBRANCH  18  49
TORSDOF 13
ENDMDL
MODEL 2
REMARK VINA RESULT: -6.614372975     11.367     16.731
REMARK  13 active torsions:
REMARK  status: ('A' for Active; 'I' for Inactive)
REMARK    1  A    between atoms: C2_2  and  C3_3 
REMARK    2  A    between atoms: C5_8  and  C6_9 
REMARK    3  A    between atoms: C6_9  and  C7_10 
REMARK    4  A    between atoms: N3_14  and  C9_15 
REMARK    5  A    between atoms: C12_20  and  O2_21 
REMARK    6  A    between atoms: C13_23  and  C14_24 
REMARK    7  A    between atoms: C14_24  and  C15_25 
REMARK    8  A    between atoms: C15_25  and  C16_26 
REMARK    9  A    between atoms: C16_26  and  C17_27 
REMARK   10  A    between atoms: C17_27  and  C18_28 
REMARK   11  A    between atoms: C24_37  and  O4_38 
REMARK   12  A    between atoms: C25_42  and  C26_43 
REMARK   13  A    between atoms: C29_46  and  O5_47 
ROOT
HETATM    1  C3  UNL     1       1.374   4.857   7.291  1.00  0.00     0.187 C 
HETATM    2  N1  UNL     1       1.160   4.868   8.735  1.00  0.00    -0.338 N 
ATOM      3  H1  UNL     1       0.410   5.470   9.075  1.00  0.00     0.164 HD
HETATM    4  C4  UNL     1       1.860   4.152   9.699  1.00  0.00     0.242 C 
HETATM    5  O1  UNL     1       2.051   4.697  10.819  1.00  0.00    -0.271 OA
HETATM    6  C5  UNL     1       2.407   2.766   9.499  1.00  0.00     0.179 C 
HETATM    7  N4  UNL     1       3.064   2.338  10.706  1.00  0.00    -0.360 N 
ATOM      8  H4  UNL     1       2.591   2.621  11.565  1.00  0.00     0.162 HD
HETATM    9  C12 UNL     1       4.237   1.602  10.907  1.00  0.00     0.125 C 
HETATM   10  C13 UNL     1       5.601   1.825  10.370  1.00  0.00     0.152 C 
HETATM   11  C19 UNL     1       5.959   3.210  10.100  1.00  0.00     0.232 C 
HETATM   12  O3  UNL     1       5.372   4.095  10.817  1.00  0.00    -0.272 OA
HETATM   13  N5  UNL     1       6.869   3.738   9.156  1.00  0.00    -0.339 N 
HETATM   14  C20 UNL     1       7.994   4.659   9.185  1.00  0.00     0.127 C 
HETATM   15  C21 UNL     1       9.081   3.891   8.495  1.00  0.00     0.022 C 
HETATM   16  C22 UNL     1       8.333   2.912   7.627  1.00  0.00     0.035 C 
HETATM   17  C23 UNL     1       6.868   3.374   7.715  1.00  0.00     0.161 C 
HETATM   18  C24 UNL     1       6.650   4.539   6.831  1.00  0.00     0.135 C 
HETATM   19  N6  UNL     1       5.530   5.217   6.425  1.00  0.00    -0.360 N 
ATOM     20  H6  UNL     1       5.467   6.133   6.868  1.00  0.00     0.162 HD
HETATM   21  C25 UNL     1       4.423   4.979   5.544  1.00  0.00     0.161 C 
HETATM   22  C29 UNL     1       3.272   5.859   5.848  1.00  0.00     0.138 C 
HETATM   23  N7  UNL     1       2.342   5.846   6.888  1.00  0.00    -0.347 N 
HETATM   24  C30 UNL     1       2.275   7.071   7.731  1.00  0.00     0.153 C 
ENDROOT
BRANCH   6  25
HETATM   25  C6  UNL     1       1.137   1.945   9.259  1.00  0.00     0.076 C 
BRANCH  25  26
HETATM   26  C7  UNL     1       0.378   1.612  10.451  1.00  0.00    -0.022 A 
HETATM   27  C8  UNL     1      -0.687   2.309  10.984  1.00  0.00     0.115 A 
HETATM   28  N2  UNL     1      -1.085   1.680  12.108  1.00  0.00    -0.310 N 
HETATM   29  N3  UNL     1      -0.318   0.627  12.298  1.00  0.00    -0.304 N 
ATOM     30  H2  UNL     1      -1.853   1.972  12.712  1.00  0.00     0.186 HD
HETATM   31  C11 UNL     1       0.583   0.562  11.304  1.00  0.00     0.118 A 
BRANCH  29  32
HETATM   32  C9  UNL     1      -0.426  -0.305  13.395  1.00  0.00     0.143 C 
HETATM   33  C10 UNL     1       0.906  -0.593  14.036  1.00  0.00     0.028 C 
ENDBRANCH  29  32
ENDBRANCH  25  26
ENDBRANCH   6  25
BRANCH   9  34
HETATM   34  O2  UNL     1       4.212   0.547  11.672  1.00  0.00    -0.349 OA
ATOM     35  H2  UNL     1       3.412   0.040  11.745  1.00  0.00     0.219 HD
ENDBRANCH   9  34
BRANCH   1  36
HETATM   36  C2  UNL     1       0.069   5.327   6.602  1.00  0.00     0.042 C 
HETATM   37  C1  UNL     1      -0.103   4.787   5.230  1.00  0.00     0.009 C 
ENDBRANCH   1  36
BRANCH  10  38
HETATM   38  C14 UNL     1       6.545   1.220  11.389  1.00  0.00     0.022 C 
BRANCH  38  39
HETATM   39  C15 UNL     1       7.836   0.722  10.939  1.00  0.00     0.001 C 
BRANCH  39  40
HETATM   40  C16 UNL     1       8.827   0.908  12.107  1.00  0.00     0.001 C 
BRANCH  40  41
HETATM   41  C17 UNL     1       8.099   0.925  13.415  1.00  0.00     0.011 C 
BRANCH  41  42
HETATM   42  C18 UNL     1       8.290  -0.424  14.080  1.00  0.00     0.086 C 
HETATM   43  S1  UNL     1       6.663  -1.198  14.406  1.00  0.00    -0.098 SA
ENDBRANCH  41  42
ENDBRANCH  40  41
ENDBRANCH  39  40
ENDBRANCH  38  39
ENDBRANCH  10  38
BRANCH  22  44
HETATM   44  O5  UNL     1       3.122   6.828   4.961  1.00  0.00    -0.348 OA
ATOM     45  H5  UNL     1       3.546   7.636   5.225  1.00  0.00     0.219 HD
ENDBRANCH  22  44
BRANCH  21  46
HETATM   46  C26 UNL     1       4.011   3.582   5.293  1.00  0.00     0.008 C 
HETATM   47  C27 UNL     1       5.183   2.768   4.696  1.00  0.00     0.012 C 
HETATM   48  C28 UNL     1       2.965   3.479   4.178  1.00  0.00     0.012 C 
ENDBRANCH  21  46
BRANCH  18  49
HETATM   49  O4  UNL     1       7.777   5.000   6.348  1.00  0.00    -0.348 OA
ATOM     50  H4  UNL     1       7.871   5.932   6.503  1.00  0.00     0.219 HD
ENDBRANCH  18  49
TORSDOF 13
ENDMDL
MODEL 3
REMARK VINA RESULT: -6.300008315     13.194     19.528
REMARK  13 active torsions:
REMARK  status: ('A' for Active; 'I' for Inactive)
REMARK    1  A    between atoms: C2_2  and  C3_3 
REMARK    2  A    between atoms: C5_8  and  C6_9 
REMARK    3  A    between atoms: C6_9  and  C7_10 
REMARK    4  A    between atoms: N3_14  and  C9_15 
REMARK    5  A    between atoms: C12_20  and  O2_21 
REMARK    6  A    between atoms: C13_23  and  C14_24 
REMARK    7  A    between atoms: C14_24  and  C15_25 
REMARK    8  A    between atoms: C15_25  and  C16_26 
REMARK    9  A    between atoms: C16_26  and  C17_27 
REMARK   10  A    between atoms: C17_27  and  C18_28 
REMARK   11  A    between atoms: C24_37  and  O4_38 
REMARK   12  A    between atoms: C25_42  and  C26_43 
REMARK   13  A    between atoms: C29_46  and  O5_47 
ROOT
HETATM    1  C3  UNL     1       8.903   4.985   5.730  1.00  0.00     0.187 C 
HETATM    2  N1  UNL     1       8.507   3.612   6.028  1.00  0.00    -0.338 N 
ATOM      3  H1  UNL     1       9.097   2.877   5.637  1.00  0.00     0.164 HD
HETATM    4  C4  UNL     1       7.419   3.191   6.783  1.00  0.00     0.242 C 
HETATM    5  O1  UNL     1       6.830   2.132   6.434  1.00  0.00    -0.271 OA
HETATM    6  C5  UNL     1       6.892   3.911   7.992  1.00  0.00     0.179 C 
HETATM    7  N4  UNL     1       5.767   3.187   8.521  1.00  0.00    -0.360 N 
ATOM      8  H4  UNL     1       5.867   2.172   8.491  1.00  0.00     0.162 HD
HETATM    9  C12 UNL     1       4.559   3.632   9.072  1.00  0.00     0.125 C 
HETATM   10  C13 UNL     1       3.557   4.578   8.523  1.00  0.00     0.152 C 
HETATM   11  C19 UNL     1       3.454   4.622   7.071  1.00  0.00     0.232 C 
HETATM   12  O3  UNL     1       3.765   3.545   6.451  1.00  0.00    -0.272 OA
HETATM   13  N5  UNL     1       3.056   5.684   6.228  1.00  0.00    -0.339 N 
HETATM   14  C20 UNL     1       2.096   5.865   5.151  1.00  0.00     0.127 C 
HETATM   15  C21 UNL     1       1.329   7.080   5.579  1.00  0.00     0.022 C 
HETATM   16  C22 UNL     1       2.286   7.806   6.490  1.00  0.00     0.035 C 
HETATM   17  C23 UNL     1       3.618   7.057   6.309  1.00  0.00     0.161 C 
HETATM   18  C24 UNL     1       4.273   7.483   5.053  1.00  0.00     0.135 C 
HETATM   19  N6  UNL     1       5.510   7.255   4.512  1.00  0.00    -0.360 N 
ATOM     20  H6  UNL     1       5.460   6.615   3.719  1.00  0.00     0.162 HD
HETATM   21  C25 UNL     1       6.858   7.677   4.764  1.00  0.00     0.161 C 
HETATM   22  C29 UNL     1       7.850   6.755   4.166  1.00  0.00     0.138 C 
HETATM   23  N7  UNL     1       8.268   5.476   4.533  1.00  0.00    -0.347 N 
HETATM   24  C30 UNL     1       8.082   4.402   3.519  1.00  0.00     0.153 C 
ENDROOT
BRANCH   6  25
HETATM   25  C6  UNL     1       8.079   3.839   8.958  1.00  0.00     0.076 C 
BRANCH  25  26
HETATM   26  C7  UNL     1       7.742   3.508  10.331  1.00  0.00    -0.022 A 
HETATM   27  C8  UNL     1       7.377   4.382  11.334  1.00  0.00     0.115 A 
HETATM   28  N2  UNL     1       7.178   3.672  12.463  1.00  0.00    -0.310 N 
HETATM   29  N3  UNL     1       7.403   2.400  12.207  1.00  0.00    -0.304 N 
ATOM     30  H2  UNL     1       6.900   4.056  13.365  1.00  0.00     0.186 HD
HETATM   31  C11 UNL     1       7.748   2.271  10.916  1.00  0.00     0.118 A 
BRANCH  29  32
HETATM   32  C9  UNL     1       7.295   1.319  13.159  1.00  0.00     0.143 C 
HETATM   33  C10 UNL     1       8.508   0.427  13.152  1.00  0.00     0.028 C 
ENDBRANCH  29  32
ENDBRANCH  25  26
ENDBRANCH   6  25
BRANCH   9  34
HETATM   34  O2  UNL     1       4.184   3.194  10.240  1.00  0.00    -0.349 OA
ATOM     35  H2  UNL     1       3.353   3.479  10.604  1.00  0.00     0.219 HD
ENDBRANCH   9  34
BRANCH   1  36
HETATM   36  C2  UNL     1      10.409   4.989   5.368  1.00  0.00     0.042 C 
HETATM   37  C1  UNL     1      11.271   5.567   6.430  1.00  0.00     0.009 C 
ENDBRANCH   1  36
BRANCH  10  38
HETATM   38  C14 UNL     1       2.234   4.174   9.140  1.00  0.00     0.022 C 
BRANCH  38  39
HETATM   39  C15 UNL     1       1.383   3.238   8.420  1.00  0.00     0.001 C 
BRANCH  39  40
HETATM   40  C16 UNL     1       0.906   2.182   9.439  1.00  0.00     0.001 C 
BRANCH  40  41
HETATM   41  C17 UNL     1      -0.119   2.766  10.360  1.00  0.00     0.011 C 
BRANCH  41  42
HETATM   42  C18 UNL     1       0.057   2.133  11.727  1.00  0.00     0.086 C 
HETATM   43  S1  UNL     1       1.527   1.040  11.725  1.00  0.00    -0.098 SA
ENDBRANCH  41  42
ENDBRANCH  40  41
ENDBRANCH  39  40
ENDBRANCH  38  39
ENDBRANCH  10  38
BRANCH  22  44
HETATM   44  O5  UNL     1       8.427   7.256   3.088  1.00  0.00    -0.348 OA
ATOM     45  H5  UNL     1       9.370   7.329   3.176  1.00  0.00     0.219 HD
ENDBRANCH  22  44
BRANCH  21  46
HETATM   46  C26 UNL     1       7.223   8.080   6.138  1.00  0.00     0.008 C 
HETATM   47  C27 UNL     1       6.537   9.414   6.514  1.00  0.00     0.012 C 
HETATM   48  C28 UNL     1       8.705   8.452   6.258  1.00  0.00     0.012 C 
ENDBRANCH  21  46
BRANCH  18  49
HETATM   49  O4  UNL     1       3.482   8.233   4.324  1.00  0.00    -0.348 OA
ATOM     50  H4  UNL     1       3.902   8.504   3.517  1.00  0.00     0.219 HD
ENDBRANCH  18  49
TORSDOF 13
ENDMDL
MODEL 4
REMARK VINA RESULT: -6.233204219      2.449      6.391
REMARK  13 active torsions:
REMARK  status: ('A' for Active; 'I' for Inactive)
REMARK    1  A    between atoms: C2_2  and  C3_3 
REMARK    2  A    between atoms: C5_8  and  C6_9 
REMARK    3  A    between atoms: C6_9  and  C7_10 
REMARK    4  A    between atoms: N3_14  and  C9_15 
REMARK    5  A    between atoms: C12_20  and  O2_21 
REMARK    6  A    between atoms: C13_23  and  C14_24 
REMARK    7  A    between atoms: C14_24  and  C15_25 
REMARK    8  A    between atoms: C15_25  and  C16_26 
REMARK    9  A    between atoms: C16_26  and  C17_27 
REMARK   10  A    between atoms: C17_27  and  C18_28 
REMARK   11  A    between atoms: C24_37  and  O4_38 
REMARK   12  A    between atoms: C25_42  and  C26_43 
REMARK   13  A    between atoms: C29_46  and  O5_47 
ROOT
HETATM    1  C3  UNL     1       9.081 -10.198  18.624  1.00  0.00     0.187 C 
HETATM    2  N1  UNL     1       9.198  -8.794  19.003  1.00  0.00    -0.338 N 
ATOM      3  H1  UNL     1       9.913  -8.571  19.695  1.00  0.00     0.164 HD
HETATM    4  C4  UNL     1       8.446  -7.725  18.529  1.00  0.00     0.242 C 
HETATM    5  O1  UNL     1       8.172  -6.792  19.331  1.00  0.00    -0.271 OA
HETATM    6  C5  UNL     1       7.935  -7.601  17.121  1.00  0.00     0.179 C 
HETATM    7  N4  UNL     1       7.206  -6.368  16.989  1.00  0.00    -0.360 N 
ATOM      8  H4  UNL     1       7.615  -5.581  17.492  1.00  0.00     0.162 HD
HETATM    9  C12 UNL     1       6.033  -6.060  16.289  1.00  0.00     0.125 C 
HETATM   10  C13 UNL     1       4.705  -6.718  16.327  1.00  0.00     0.152 C 
HETATM   11  C19 UNL     1       4.345  -7.350  17.588  1.00  0.00     0.232 C 
HETATM   12  O3  UNL     1       4.869  -6.844  18.642  1.00  0.00    -0.272 OA
HETATM   13  N5  UNL     1       3.492  -8.450  17.833  1.00  0.00    -0.339 N 
HETATM   14  C20 UNL     1       2.353  -8.723  18.696  1.00  0.00     0.127 C 
HETATM   15  C21 UNL     1       1.327  -9.262  17.745  1.00  0.00     0.022 C 
HETATM   16  C22 UNL     1       2.147  -9.807  16.604  1.00  0.00     0.035 C 
HETATM   17  C23 UNL     1       3.595  -9.750  17.120  1.00  0.00     0.161 C 
HETATM   18  C24 UNL     1       3.854 -10.884  18.032  1.00  0.00     0.135 C 
HETATM   19  N6  UNL     1       4.988 -11.378  18.622  1.00  0.00    -0.360 N 
ATOM     20  H6  UNL     1       5.007 -11.178  19.622  1.00  0.00     0.162 HD
HETATM   21  C25 UNL     1       6.155 -12.102  18.207  1.00  0.00     0.161 C 
HETATM   22  C29 UNL     1       7.268 -11.961  19.172  1.00  0.00     0.138 C 
HETATM   23  N7  UNL     1       8.127 -10.896  19.449  1.00  0.00    -0.347 N 
HETATM   24  C30 UNL     1       8.119 -10.386  20.847  1.00  0.00     0.153 C 
ENDROOT
BRANCH   6  25
HETATM   25  C6  UNL     1       9.231  -7.549  16.307  1.00  0.00     0.076 C 
BRANCH  25  26
HETATM   26  C7  UNL     1       9.518  -6.273  15.677  1.00  0.00    -0.022 A 
HETATM   27  C8  UNL     1       9.596  -6.007  14.326  1.00  0.00     0.115 A 
HETATM   28  N2  UNL     1       9.910  -4.706  14.167  1.00  0.00    -0.310 N 
HETATM   29  N3  UNL     1      10.030  -4.152  15.355  1.00  0.00    -0.304 N 
ATOM     30  H2  UNL     1      10.034  -4.230  13.274  1.00  0.00     0.186 HD
HETATM   31  C11 UNL     1       9.797  -5.083  16.293  1.00  0.00     0.118 A 
BRANCH  29  32
HETATM   32  C9  UNL     1      10.359  -2.769  15.608  1.00  0.00     0.143 C 
HETATM   33  C10 UNL     1       9.268  -1.830  15.165  1.00  0.00     0.028 C 
ENDBRANCH  29  32
ENDBRANCH  25  26
ENDBRANCH   6  25
BRANCH   9  34
HETATM   34  O2  UNL     1       6.024  -5.054  15.461  1.00  0.00    -0.349 OA
ATOM     35  H2  UNL     1       5.493  -5.100  14.673  1.00  0.00     0.219 HD
ENDBRANCH   9  34
BRANCH   1  36
HETATM   36  C2  UNL     1      10.422 -10.903  18.948  1.00  0.00     0.042 C 
HETATM   37  C1  UNL     1      10.755 -12.002  18.007  1.00  0.00     0.009 C 
ENDBRANCH   1  36
BRANCH  10  38
HETATM   38  C14 UNL     1       3.704  -5.639  15.966  1.00  0.00     0.022 C 
BRANCH  38  39
HETATM   39  C15 UNL     1       2.467  -6.024  15.304  1.00  0.00     0.001 C 
BRANCH  39  40
HETATM   40  C16 UNL     1       1.619  -4.744  15.148  1.00  0.00     0.001 C 
BRANCH  40  41
HETATM   41  C17 UNL     1       2.181  -3.637  15.984  1.00  0.00     0.011 C 
BRANCH  41  42
HETATM   42  C18 UNL     1       2.232  -2.382  15.134  1.00  0.00     0.086 C 
HETATM   43  S1  UNL     1       3.973  -1.939  14.777  1.00  0.00    -0.098 SA
ENDBRANCH  41  42
ENDBRANCH  40  41
ENDBRANCH  39  40
ENDBRANCH  38  39
ENDBRANCH  10  38
BRANCH  22  44
HETATM   44  O5  UNL     1       7.462 -13.052  19.892  1.00  0.00    -0.348 OA
ATOM     45  H5  UNL     1       7.893 -12.874  20.719  1.00  0.00     0.219 HD
ENDBRANCH  22  44
BRANCH  21  46
HETATM   46  C26 UNL     1       6.604 -11.967  16.806  1.00  0.00     0.008 C 
HETATM   47  C27 UNL     1       5.513 -12.473  15.833  1.00  0.00     0.012 C 
HETATM   48  C28 UNL     1       7.768 -12.909  16.478  1.00  0.00     0.012 C 
ENDBRANCH  21  46
BRANCH  18  49
HETATM   49  O4  UNL     1       2.754 -11.535  18.322  1.00  0.00    -0.348 OA
ATOM     50  H4  UNL     1       2.915 -12.463  18.440  1.00  0.00     0.219 HD
ENDBRANCH  18  49
TORSDOF 13
ENDMDL
MODEL 5
REMARK VINA RESULT: -6.098905470      0.978      1.068
REMARK  13 active torsions:
REMARK  status: ('A' for Active; 'I' for Inactive)
REMARK    1  A    between atoms: C2_2  and  C3_3 
REMARK    2  A    between atoms: C5_8  and  C6_9 
REMARK    3  A    between atoms: C6_9  and  C7_10 
REMARK    4  A    between atoms: N3_14  and  C9_15 
REMARK    5  A    between atoms: C12_20  and  O2_21 
REMARK    6  A    between atoms: C13_23  and  C14_24 
REMARK    7  A    between atoms: C14_24  and  C15_25 
REMARK    8  A    between atoms: C15_25  and  C16_26 
REMARK    9  A    between atoms: C16_26  and  C17_27 
REMARK   10  A    between atoms: C17_27  and  C18_28 
REMARK   11  A    between atoms: C24_37  and  O4_38 
REMARK   12  A    between atoms: C25_42  and  C26_43 
REMARK   13  A    between atoms: C29_46  and  O5_47 
ROOT
HETATM    1  C3  UNL     1       2.522 -12.195  17.298  1.00  0.00     0.187 C 
HETATM    2  N1  UNL     1       2.852 -11.298  16.196  1.00  0.00    -0.338 N 
ATOM      3  H1  UNL     1       2.298 -11.403  15.346  1.00  0.00     0.164 HD
HETATM    4  C4  UNL     1       3.835 -10.315  16.172  1.00  0.00     0.242 C 
HETATM    5  O1  UNL     1       4.440 -10.109  15.086  1.00  0.00    -0.271 OA
HETATM    6  C5  UNL     1       4.230  -9.476  17.355  1.00  0.00     0.179 C 
HETATM    7  N4  UNL     1       5.269  -8.563  16.962  1.00  0.00    -0.360 N 
ATOM      8  H4  UNL     1       5.154  -8.170  16.028  1.00  0.00     0.162 HD
HETATM    9  C12 UNL     1       6.412  -8.120  17.638  1.00  0.00     0.125 C 
HETATM   10  C13 UNL     1       7.490  -8.900  18.293  1.00  0.00     0.152 C 
HETATM   11  C19 UNL     1       7.765 -10.209  17.719  1.00  0.00     0.232 C 
HETATM   12  O3  UNL     1       7.509 -10.342  16.471  1.00  0.00    -0.272 OA
HETATM   13  N5  UNL     1       8.281 -11.372  18.334  1.00  0.00    -0.339 N 
HETATM   14  C20 UNL     1       9.366 -12.305  18.071  1.00  0.00     0.127 C 
HETATM   15  C21 UNL     1      10.100 -12.350  19.377  1.00  0.00     0.022 C 
HETATM   16  C22 UNL     1       9.057 -11.952  20.390  1.00  0.00     0.035 C 
HETATM   17  C23 UNL     1       7.740 -11.950  19.592  1.00  0.00     0.161 C 
HETATM   18  C24 UNL     1       7.248 -13.334  19.422  1.00  0.00     0.135 C 
HETATM   19  N6  UNL     1       6.079 -13.865  18.944  1.00  0.00    -0.360 N 
ATOM     20  H6  UNL     1       6.210 -14.297  18.030  1.00  0.00     0.162 HD
HETATM   21  C25 UNL     1       4.719 -13.974  19.389  1.00  0.00     0.161 C 
HETATM   22  C29 UNL     1       3.787 -14.232  18.269  1.00  0.00     0.138 C 
HETATM   23  N7  UNL     1       3.303 -13.406  17.254  1.00  0.00    -0.347 N 
HETATM   24  C30 UNL     1       3.587 -13.837  15.858  1.00  0.00     0.153 C 
ENDROOT
BRANCH   6  25
HETATM   25  C6  UNL     1       2.935  -8.716  17.662  1.00  0.00     0.076 C 
BRANCH  25  26
HETATM   26  C7  UNL     1       2.939  -7.312  17.294  1.00  0.00    -0.022 A 
HETATM   27  C8  UNL     1       3.162  -6.232  18.124  1.00  0.00     0.115 A 
HETATM   28  N2  UNL     1       3.048  -5.106  17.393  1.00  0.00    -0.310 N 
HETATM   29  N3  UNL     1       2.765  -5.434  16.150  1.00  0.00    -0.304 N 
ATOM     30  H2  UNL     1       3.162  -4.155  17.744  1.00  0.00     0.186 HD
HETATM   31  C11 UNL     1       2.692  -6.772  16.061  1.00  0.00     0.118 A 
BRANCH  29  32
HETATM   32  C9  UNL     1       2.566  -4.508  15.060  1.00  0.00     0.143 C 
HETATM   33  C10 UNL     1       3.843  -3.828  14.645  1.00  0.00     0.028 C 
ENDBRANCH  29  32
ENDBRANCH  25  26
ENDBRANCH   6  25
BRANCH   9  34
HETATM   34  O2  UNL     1       6.638  -6.841  17.752  1.00  0.00    -0.349 OA
ATOM     35  H2  UNL     1       7.289  -6.429  17.196  1.00  0.00     0.219 HD
ENDBRANCH   9  34
BRANCH   1  36
HETATM   36  C2  UNL     1       1.069 -12.696  17.099  1.00  0.00     0.042 C 
HETATM   37  C1  UNL     1       0.155 -12.317  18.206  1.00  0.00     0.009 C 
ENDBRANCH   1  36
BRANCH  10  38
HETATM   38  C14 UNL     1       8.724  -8.021  18.233  1.00  0.00     0.022 C 
BRANCH  38  39
HETATM   39  C15 UNL     1       9.573  -8.088  17.054  1.00  0.00     0.001 C 
BRANCH  39  40
HETATM   40  C16 UNL     1       9.926  -6.636  16.666  1.00  0.00     0.001 C 
BRANCH  40  41
HETATM   41  C17 UNL     1       9.391  -6.312  15.306  1.00  0.00     0.011 C 
BRANCH  41  42
HETATM   42  C18 UNL     1      10.010  -5.003  14.854  1.00  0.00     0.086 C 
HETATM   43  S1  UNL     1       9.985  -3.792  16.228  1.00  0.00    -0.098 SA
ENDBRANCH  41  42
ENDBRANCH  40  41
ENDBRANCH  39  40
ENDBRANCH  38  39
ENDBRANCH  10  38
BRANCH  22  44
HETATM   44  O5  UNL     1       3.351 -15.480  18.244  1.00  0.00    -0.348 OA
ATOM     45  H5  UNL     1       2.417 -15.539  18.083  1.00  0.00     0.219 HD
ENDBRANCH  22  44
BRANCH  21  46
HETATM   46  C26 UNL     1       4.202 -12.955  20.326  1.00  0.00     0.008 C 
HETATM   47  C27 UNL     1       4.919 -13.059  21.693  1.00  0.00     0.012 C 
HETATM   48  C28 UNL     1       2.745 -13.219  20.723  1.00  0.00     0.012 C 
ENDBRANCH  21  46
BRANCH  18  49
HETATM   49  O4  UNL     1       8.133 -14.216  19.815  1.00  0.00    -0.348 OA
ATOM     50  H4  UNL     1       8.599 -13.925  20.590  1.00  0.00     0.219 HD
ENDBRANCH  18  49
TORSDOF 13
ENDMDL
