MODEL 1
REMARK VINA RESULT: -4.262889778      0.000      0.000
REMARK  6 active torsions:
REMARK  status: ('A' for Active; 'I' for Inactive)
REMARK    1  A    between atoms: C1_4  and  N2_5 
REMARK    2  A    between atoms: N2_5  and  C2_7 
REMARK    3  A    between atoms: C3_13  and  N5_14 
REMARK    4  A    between atoms: N5_14  and  C4_16 
REMARK    5  A    between atoms: C4_16  and  C5_17 
REMARK    6  A    between atoms: C5_17  and  N6_18 
ROOT
HETATM    1  C2  UNL     1      10.673   3.577   5.033  1.00  0.00     0.174 A 
HETATM    2  N3  UNL     1      11.143   4.608   4.314  1.00  0.00    -0.222 N 
ATOM      3  H3  UNL     1      10.584   5.312   3.832  1.00  0.00     0.198 HD
HETATM    4  O1  UNL     1      12.441   4.544   4.345  1.00  0.00    -0.153 OA
HETATM    5  N4  UNL     1      12.836   3.524   5.046  1.00  0.00    -0.222 N 
ATOM      6  H4  UNL     1      13.809   3.267   5.213  1.00  0.00     0.198 HD
HETATM    7  C3  UNL     1      11.755   2.853   5.522  1.00  0.00     0.170 A 
ENDROOT
BRANCH   7   8
HETATM    8  N5  UNL     1      11.726   1.792   6.256  1.00  0.00    -0.370 N 
ATOM      9  H5  UNL     1      10.881   1.228   6.339  1.00  0.00     0.161 HD
BRANCH   8  10
HETATM   10  C4  UNL     1      12.937   1.435   6.956  1.00  0.00     0.148 C 
BRANCH  10  11
HETATM   11  C5  UNL     1      12.773   0.176   7.774  1.00  0.00     0.249 C 
BRANCH  11  12
HETATM   12  N6  UNL     1      11.410  -0.139   8.064  1.00  0.00    -0.078 N 
ATOM     13  H63 UNL     1      10.922  -0.443   7.221  1.00  0.00     0.274 HD
ATOM     14  H62 UNL     1      11.346  -0.997   8.614  1.00  0.00     0.274 HD
ATOM     15  H61 UNL     1      10.906   0.621   8.520  1.00  0.00     0.274 HD
ENDBRANCH  11  12
ENDBRANCH  10  11
ENDBRANCH   8  10
ENDBRANCH   7   8
BRANCH   1  16
HETATM   16  N2  UNL     1       9.425   3.294   5.243  1.00  0.00    -0.334 N 
ATOM     17  H2  UNL     1       8.978   3.575   6.116  1.00  0.00     0.168 HD
BRANCH  16  18
HETATM   18  C1  UNL     1       8.689   2.599   4.263  1.00  0.00     0.175 C 
HETATM   19  N1  UNL     1       7.459   2.892   4.071  1.00  0.00    -0.395 N 
ATOM     20  H12 UNL     1       7.029   3.627   4.632  1.00  0.00     0.156 HD
ATOM     21  H11 UNL     1       6.927   2.389   3.362  1.00  0.00     0.156 HD
ENDBRANCH  16  18
ENDBRANCH   1  16
TORSDOF 6
ENDMDL
MODEL 2
REMARK VINA RESULT: -4.257080607      3.653      4.984
REMARK  6 active torsions:
REMARK  status: ('A' for Active; 'I' for Inactive)
REMARK    1  A    between atoms: C1_4  and  N2_5 
REMARK    2  A    between atoms: N2_5  and  C2_7 
REMARK    3  A    between atoms: C3_13  and  N5_14 
REMARK    4  A    between atoms: N5_14  and  C4_16 
REMARK    5  A    between atoms: C4_16  and  C5_17 
REMARK    6  A    between atoms: C5_17  and  N6_18 
ROOT
HETATM    1  C2  UNL     1      10.286   3.158   1.087  1.00  0.00     0.174 A 
HETATM    2  N3  UNL     1       9.472   2.160   0.707  1.00  0.00    -0.222 N 
ATOM      3  H3  UNL     1       9.567   1.591  -0.134  1.00  0.00     0.198 HD
HETATM    4  O1  UNL     1       8.542   2.051   1.609  1.00  0.00    -0.153 OA
HETATM    5  N4  UNL     1       8.710   2.929   2.553  1.00  0.00    -0.222 N 
ATOM      6  H4  UNL     1       8.106   3.038   3.368  1.00  0.00     0.198 HD
HETATM    7  C3  UNL     1       9.812   3.678   2.287  1.00  0.00     0.170 A 
ENDROOT
BRANCH   7   8
HETATM    8  N5  UNL     1      10.311   4.647   2.977  1.00  0.00    -0.370 N 
ATOM      9  H5  UNL     1       9.929   5.591   2.919  1.00  0.00     0.161 HD
BRANCH   8  10
HETATM   10  C4  UNL     1      11.431   4.344   3.835  1.00  0.00     0.148 C 
BRANCH  10  11
HETATM   11  C5  UNL     1      11.066   3.365   4.927  1.00  0.00     0.249 C 
BRANCH  11  12
HETATM   12  N6  UNL     1      10.163   3.904   5.894  1.00  0.00    -0.078 N 
ATOM     13  H63 UNL     1      10.646   4.098   6.771  1.00  0.00     0.274 HD
ATOM     14  H62 UNL     1       9.886   4.853   5.640  1.00  0.00     0.274 HD
ATOM     15  H61 UNL     1       9.344   3.319   6.053  1.00  0.00     0.274 HD
ENDBRANCH  11  12
ENDBRANCH  10  11
ENDBRANCH   8  10
ENDBRANCH   7   8
BRANCH   1  16
HETATM   16  N2  UNL     1      11.336   3.575   0.452  1.00  0.00    -0.334 N 
ATOM     17  H2  UNL     1      12.170   3.851   0.970  1.00  0.00     0.168 HD
BRANCH  16  18
HETATM   18  C1  UNL     1      11.323   3.645  -0.956  1.00  0.00     0.175 C 
HETATM   19  N1  UNL     1      10.815   4.667  -1.532  1.00  0.00    -0.395 N 
ATOM     20  H12 UNL     1      10.427   5.418  -0.963  1.00  0.00     0.156 HD
ATOM     21  H11 UNL     1      10.806   4.718  -2.551  1.00  0.00     0.156 HD
ENDBRANCH  16  18
ENDBRANCH   1  16
TORSDOF 6
ENDMDL
MODEL 3
REMARK VINA RESULT: -4.207943921      3.000      3.997
REMARK  6 active torsions:
REMARK  status: ('A' for Active; 'I' for Inactive)
REMARK    1  A    between atoms: C1_4  and  N2_5 
REMARK    2  A    between atoms: N2_5  and  C2_7 
REMARK    3  A    between atoms: C3_13  and  N5_14 
REMARK    4  A    between atoms: N5_14  and  C4_16 
REMARK    5  A    between atoms: C4_16  and  C5_17 
REMARK    6  A    between atoms: C5_17  and  N6_18 
ROOT
HETATM    1  C2  UNL     1       9.069   2.391   2.300  1.00  0.00     0.174 A 
HETATM    2  N3  UNL     1       9.173   1.716   1.144  1.00  0.00    -0.222 N 
ATOM      3  H3  UNL     1       8.667   0.866   0.893  1.00  0.00     0.198 HD
HETATM    4  O1  UNL     1      10.036   2.345   0.402  1.00  0.00    -0.153 OA
HETATM    5  N4  UNL     1      10.498   3.391   1.019  1.00  0.00    -0.222 N 
ATOM      6  H4  UNL     1      11.188   4.040   0.639  1.00  0.00     0.198 HD
HETATM    7  C3  UNL     1       9.923   3.488   2.246  1.00  0.00     0.170 A 
ENDROOT
BRANCH   7   8
HETATM    8  N5  UNL     1      10.115   4.381   3.156  1.00  0.00    -0.370 N 
ATOM      9  H5  UNL     1       9.420   5.104   3.344  1.00  0.00     0.161 HD
BRANCH   8  10
HETATM   10  C4  UNL     1      11.351   4.321   3.898  1.00  0.00     0.148 C 
BRANCH  10  11
HETATM   11  C5  UNL     1      11.188   3.614   5.222  1.00  0.00     0.249 C 
BRANCH  11  12
HETATM   12  N6  UNL     1       9.923   3.851   5.841  1.00  0.00    -0.078 N 
ATOM     13  H63 UNL     1      10.033   4.406   6.689  1.00  0.00     0.274 HD
ATOM     14  H62 UNL     1       9.364   4.499   5.285  1.00  0.00     0.274 HD
ATOM     15  H61 UNL     1       9.399   2.997   6.034  1.00  0.00     0.274 HD
ENDBRANCH  11  12
ENDBRANCH  10  11
ENDBRANCH   8  10
ENDBRANCH   7   8
BRANCH   1  16
HETATM   16  N2  UNL     1       8.307   2.082   3.301  1.00  0.00    -0.334 N 
ATOM     17  H2  UNL     1       8.720   1.780   4.184  1.00  0.00     0.168 HD
BRANCH  16  18
HETATM   18  C1  UNL     1       6.906   2.166   3.169  1.00  0.00     0.175 C 
HETATM   19  N1  UNL     1       6.256   3.024   3.859  1.00  0.00    -0.395 N 
ATOM     20  H12 UNL     1       6.763   3.637   4.496  1.00  0.00     0.156 HD
ATOM     21  H11 UNL     1       5.243   3.084   3.763  1.00  0.00     0.156 HD
ENDBRANCH  16  18
ENDBRANCH   1  16
TORSDOF 6
ENDMDL
MODEL 4
REMARK VINA RESULT: -4.192043460      3.398      5.766
REMARK  6 active torsions:
REMARK  status: ('A' for Active; 'I' for Inactive)
REMARK    1  A    between atoms: C1_4  and  N2_5 
REMARK    2  A    between atoms: N2_5  and  C2_7 
REMARK    3  A    between atoms: C3_13  and  N5_14 
REMARK    4  A    between atoms: N5_14  and  C4_16 
REMARK    5  A    between atoms: C4_16  and  C5_17 
REMARK    6  A    between atoms: C5_17  and  N6_18 
ROOT
HETATM    1  C2  UNL     1       8.508   2.708   3.512  1.00  0.00     0.174 A 
HETATM    2  N3  UNL     1       7.282   2.882   4.030  1.00  0.00    -0.222 N 
ATOM      3  H3  UNL     1       7.002   3.611   4.687  1.00  0.00     0.198 HD
HETATM    4  O1  UNL     1       6.516   1.953   3.539  1.00  0.00    -0.153 OA
HETATM    5  N4  UNL     1       7.183   1.184   2.731  1.00  0.00    -0.222 N 
ATOM      6  H4  UNL     1       6.798   0.386   2.227  1.00  0.00     0.198 HD
HETATM    7  C3  UNL     1       8.473   1.607   2.662  1.00  0.00     0.170 A 
ENDROOT
BRANCH   7   8
HETATM    8  N5  UNL     1       9.445   1.113   1.973  1.00  0.00    -0.370 N 
ATOM      9  H5  UNL     1      10.115   0.466   2.391  1.00  0.00     0.161 HD
BRANCH   8  10
HETATM   10  C4  UNL     1       9.550   1.509   0.590  1.00  0.00     0.148 C 
BRANCH  10  11
HETATM   11  C5  UNL     1       9.098   0.419  -0.352  1.00  0.00     0.249 C 
BRANCH  11  12
HETATM   12  N6  UNL     1       7.798   0.644  -0.900  1.00  0.00    -0.078 N 
ATOM     13  H63 UNL     1       7.236  -0.206  -0.858  1.00  0.00     0.274 HD
ATOM     14  H62 UNL     1       7.246   1.243  -0.286  1.00  0.00     0.274 HD
ATOM     15  H61 UNL     1       7.817   1.019  -1.848  1.00  0.00     0.274 HD
ENDBRANCH  11  12
ENDBRANCH  10  11
ENDBRANCH   8  10
ENDBRANCH   7   8
BRANCH   1  16
HETATM   16  N2  UNL     1       9.553   3.434   3.755  1.00  0.00    -0.334 N 
ATOM     17  H2  UNL     1       9.798   4.203   3.130  1.00  0.00     0.168 HD
BRANCH  16  18
HETATM   18  C1  UNL     1      10.350   3.161   4.885  1.00  0.00     0.175 C 
HETATM   19  N1  UNL     1      10.229   3.884   5.933  1.00  0.00    -0.395 N 
ATOM     20  H12 UNL     1       9.555   4.649   5.935  1.00  0.00     0.156 HD
ATOM     21  H11 UNL     1      10.806   3.686   6.750  1.00  0.00     0.156 HD
ENDBRANCH  16  18
ENDBRANCH   1  16
TORSDOF 6
ENDMDL
MODEL 5
REMARK VINA RESULT: -4.188690344      3.566      5.551
REMARK  6 active torsions:
REMARK  status: ('A' for Active; 'I' for Inactive)
REMARK    1  A    between atoms: C1_4  and  N2_5 
REMARK    2  A    between atoms: N2_5  and  C2_7 
REMARK    3  A    between atoms: C3_13  and  N5_14 
REMARK    4  A    between atoms: N5_14  and  C4_16 
REMARK    5  A    between atoms: C4_16  and  C5_17 
REMARK    6  A    between atoms: C5_17  and  N6_18 
ROOT
HETATM    1  C2  UNL     1       9.385   3.320   2.433  1.00  0.00     0.174 A 
HETATM    2  N3  UNL     1       9.833   4.469   1.901  1.00  0.00    -0.222 N 
ATOM      3  H3  UNL     1       9.822   5.386   2.348  1.00  0.00     0.198 HD
HETATM    4  O1  UNL     1      10.286   4.197   0.713  1.00  0.00    -0.153 OA
HETATM    5  N4  UNL     1      10.152   2.932   0.446  1.00  0.00    -0.222 N 
ATOM      6  H4  UNL     1      10.434   2.482  -0.425  1.00  0.00     0.198 HD
HETATM    7  C3  UNL     1       9.580   2.302   1.506  1.00  0.00     0.170 A 
ENDROOT
BRANCH   7   8
HETATM    8  N5  UNL     1       9.282   1.053   1.633  1.00  0.00    -0.370 N 
ATOM      9  H5  UNL     1       9.893   0.412   2.138  1.00  0.00     0.161 HD
BRANCH   8  10
HETATM   10  C4  UNL     1       8.050   0.599   1.034  1.00  0.00     0.148 C 
BRANCH  10  11
HETATM   11  C5  UNL     1       8.287  -0.179  -0.239  1.00  0.00     0.249 C 
BRANCH  11  12
HETATM   12  N6  UNL     1       8.095   0.597  -1.423  1.00  0.00    -0.078 N 
ATOM     13  H63 UNL     1       8.344   1.573  -1.259  1.00  0.00     0.274 HD
ATOM     14  H62 UNL     1       8.793   0.360  -2.128  1.00  0.00     0.274 HD
ATOM     15  H61 UNL     1       7.154   0.524  -1.807  1.00  0.00     0.274 HD
ENDBRANCH  11  12
ENDBRANCH  10  11
ENDBRANCH   8  10
ENDBRANCH   7   8
BRANCH   1  16
HETATM   16  N2  UNL     1       8.858   3.174   3.608  1.00  0.00    -0.334 N 
ATOM     17  H2  UNL     1       7.847   3.235   3.726  1.00  0.00     0.168 HD
BRANCH  16  18
HETATM   18  C1  UNL     1       9.686   2.930   4.722  1.00  0.00     0.175 C 
HETATM   19  N1  UNL     1       9.601   3.687   5.749  1.00  0.00    -0.395 N 
ATOM     20  H12 UNL     1       8.934   4.458   5.746  1.00  0.00     0.156 HD
ATOM     21  H11 UNL     1      10.200   3.510   6.555  1.00  0.00     0.156 HD
ENDBRANCH  16  18
ENDBRANCH   1  16
TORSDOF 6
ENDMDL
