MODEL 1
REMARK VINA RESULT: -4.905376777      0.000      0.000
REMARK  5 active torsions:
REMARK  status: ('A' for Active; 'I' for Inactive)
REMARK    1  A    between atoms: N1_1  and  N2_4 
REMARK    2  A    between atoms: N2_4  and  O1_5 
REMARK    3  A    between atoms: O1_5  and  N3_6 
REMARK    4  A    between atoms: N3_6  and  S1_8 
REMARK    5  A    between atoms: S1_8  and  C1_10 
ROOT
HETATM    1  S1  UNL     1      19.775   6.005   1.913  1.00  0.00     0.174 S 
HETATM    2  O2  UNL     1      19.001   6.679   3.208  1.00  0.00    -0.228 OA
ENDROOT
BRANCH   1   3
HETATM    3  N3  UNL     1      20.889   7.035   1.140  1.00  0.00    -0.186 N 
ATOM      4  H3  UNL     1      21.283   6.830   0.222  1.00  0.00     0.207 HD
BRANCH   3   5
HETATM    5  O1  UNL     1      21.203   8.132   1.832  1.00  0.00    -0.135 OA
BRANCH   5   6
HETATM    6  N2  UNL     1      21.189   9.178   0.972  1.00  0.00     0.040 NA
BRANCH   6   7
HETATM    7  N1  UNL     1      20.304  10.175   1.336  1.00  0.00    -0.321 N 
ATOM      8  H12 UNL     1      19.295  10.075   1.231  1.00  0.00     0.174 HD
ATOM      9  H11 UNL     1      20.761  11.006   1.712  1.00  0.00     0.174 HD
ENDBRANCH   6   7
ENDBRANCH   5   6
ENDBRANCH   3   5
ENDBRANCH   1   3
BRANCH   1  10
HETATM   10  C1  UNL     1      18.739   5.183   0.808  1.00  0.00     0.087 A 
HETATM   11  C2  UNL     1      17.438   5.513   0.527  1.00  0.00     0.131 A 
HETATM   12  N4  UNL     1      16.972   4.620  -0.395  1.00  0.00    -0.311 N 
HETATM   13  N5  UNL     1      17.931   3.750  -0.695  1.00  0.00    -0.311 N 
ATOM     14  H4  UNL     1      16.032   4.621  -0.792  1.00  0.00     0.186 HD
HETATM   15  C3  UNL     1      19.034   4.082   0.041  1.00  0.00     0.131 A 
ATOM     16  H5  UNL     1      17.858   2.975  -1.354  1.00  0.00     0.186 HD
ENDBRANCH   1  10
TORSDOF 5
ENDMDL
MODEL 2
REMARK VINA RESULT: -4.709715389      7.113      8.080
REMARK  5 active torsions:
REMARK  status: ('A' for Active; 'I' for Inactive)
REMARK    1  A    between atoms: N1_1  and  N2_4 
REMARK    2  A    between atoms: N2_4  and  O1_5 
REMARK    3  A    between atoms: O1_5  and  N3_6 
REMARK    4  A    between atoms: N3_6  and  S1_8 
REMARK    5  A    between atoms: S1_8  and  C1_10 
ROOT
HETATM    1  S1  UNL     1      13.170   4.438   3.785  1.00  0.00     0.174 S 
HETATM    2  O2  UNL     1      13.520   4.032   2.222  1.00  0.00    -0.228 OA
ENDROOT
BRANCH   1   3
HETATM    3  N3  UNL     1      14.374   4.018   4.913  1.00  0.00    -0.186 N 
ATOM      4  H3  UNL     1      14.593   3.050   5.150  1.00  0.00     0.207 HD
BRANCH   3   5
HETATM    5  O1  UNL     1      15.008   5.057   5.461  1.00  0.00    -0.135 OA
BRANCH   5   6
HETATM    6  N2  UNL     1      15.408   5.871   4.456  1.00  0.00     0.040 NA
BRANCH   6   7
HETATM    7  N1  UNL     1      15.439   7.206   4.810  1.00  0.00    -0.321 N 
ATOM      8  H12 UNL     1      14.592   7.768   4.894  1.00  0.00     0.174 HD
ATOM      9  H11 UNL     1      16.381   7.561   4.973  1.00  0.00     0.174 HD
ENDBRANCH   6   7
ENDBRANCH   5   6
ENDBRANCH   3   5
ENDBRANCH   1   3
BRANCH   1  10
HETATM   10  C1  UNL     1      11.584   4.003   4.299  1.00  0.00     0.087 A 
HETATM   11  C2  UNL     1      10.516   3.738   3.480  1.00  0.00     0.131 A 
HETATM   12  N4  UNL     1       9.448   3.435   4.273  1.00  0.00    -0.311 N 
HETATM   13  N5  UNL     1       9.810   3.503   5.551  1.00  0.00    -0.311 N 
ATOM     14  H4  UNL     1       8.515   3.193   3.938  1.00  0.00     0.186 HD
HETATM   15  C3  UNL     1      11.130   3.854   5.588  1.00  0.00     0.131 A 
ATOM     16  H5  UNL     1       9.211   3.325   6.358  1.00  0.00     0.186 HD
ENDBRANCH   1  10
TORSDOF 5
ENDMDL
MODEL 3
REMARK VINA RESULT: -4.691209947     12.041     12.848
REMARK  5 active torsions:
REMARK  status: ('A' for Active; 'I' for Inactive)
REMARK    1  A    between atoms: N1_1  and  N2_4 
REMARK    2  A    between atoms: N2_4  and  O1_5 
REMARK    3  A    between atoms: O1_5  and  N3_6 
REMARK    4  A    between atoms: N3_6  and  S1_8 
REMARK    5  A    between atoms: S1_8  and  C1_10 
ROOT
HETATM    1  S1  UNL     1       8.450   1.224   3.225  1.00  0.00     0.174 S 
HETATM    2  O2  UNL     1       8.196  -0.163   4.086  1.00  0.00    -0.228 OA
ENDROOT
BRANCH   1   3
HETATM    3  N3  UNL     1       7.633   2.591   3.825  1.00  0.00    -0.186 N 
ATOM      4  H3  UNL     1       6.885   3.056   3.310  1.00  0.00     0.207 HD
BRANCH   3   5
HETATM    5  O1  UNL     1       8.048   3.003   5.024  1.00  0.00    -0.135 OA
BRANCH   5   6
HETATM    6  N2  UNL     1       6.952   3.346   5.743  1.00  0.00     0.040 NA
BRANCH   6   7
HETATM    7  N1  UNL     1       5.860   3.666   4.959  1.00  0.00    -0.321 N 
ATOM      8  H12 UNL     1       5.714   3.263   4.035  1.00  0.00     0.174 HD
ATOM      9  H11 UNL     1       5.228   4.337   5.398  1.00  0.00     0.174 HD
ENDBRANCH   6   7
ENDBRANCH   5   6
ENDBRANCH   3   5
ENDBRANCH   1   3
BRANCH   1  10
HETATM   10  C1  UNL     1       8.298   1.044   1.517  1.00  0.00     0.087 A 
HETATM   11  C2  UNL     1       9.291   1.253   0.594  1.00  0.00     0.131 A 
HETATM   12  N4  UNL     1       8.768   1.006  -0.642  1.00  0.00    -0.311 N 
HETATM   13  N5  UNL     1       7.491   0.654  -0.523  1.00  0.00    -0.311 N 
ATOM     14  H4  UNL     1       9.278   1.080  -1.523  1.00  0.00     0.186 HD
HETATM   15  C3  UNL     1       7.181   0.672   0.808  1.00  0.00     0.131 A 
ATOM     16  H5  UNL     1       6.858   0.414  -1.286  1.00  0.00     0.186 HD
ENDBRANCH   1  10
TORSDOF 5
ENDMDL
MODEL 4
REMARK VINA RESULT: -4.640609319      7.417      8.277
REMARK  5 active torsions:
REMARK  status: ('A' for Active; 'I' for Inactive)
REMARK    1  A    between atoms: N1_1  and  N2_4 
REMARK    2  A    between atoms: N2_4  and  O1_5 
REMARK    3  A    between atoms: O1_5  and  N3_6 
REMARK    4  A    between atoms: N3_6  and  S1_8 
REMARK    5  A    between atoms: S1_8  and  C1_10 
ROOT
HETATM    1  S1  UNL     1      13.675   2.858   5.338  1.00  0.00     0.174 S 
HETATM    2  O2  UNL     1      14.307   2.513   6.825  1.00  0.00    -0.228 OA
ENDROOT
BRANCH   1   3
HETATM    3  N3  UNL     1      14.395   4.185   4.552  1.00  0.00    -0.186 N 
ATOM      4  H3  UNL     1      14.343   4.322   3.543  1.00  0.00     0.207 HD
BRANCH   3   5
HETATM    5  O1  UNL     1      15.032   5.032   5.364  1.00  0.00    -0.135 OA
BRANCH   5   6
HETATM    6  N2  UNL     1      15.543   6.027   4.600  1.00  0.00     0.040 NA
BRANCH   6   7
HETATM    7  N1  UNL     1      15.106   7.284   4.972  1.00  0.00    -0.321 N 
ATOM      8  H12 UNL     1      14.335   7.756   4.500  1.00  0.00     0.174 HD
ATOM      9  H11 UNL     1      15.628   7.680   5.754  1.00  0.00     0.174 HD
ENDBRANCH   6   7
ENDBRANCH   5   6
ENDBRANCH   3   5
ENDBRANCH   1   3
BRANCH   1  10
HETATM   10  C1  UNL     1      11.953   2.897   5.284  1.00  0.00     0.087 A 
HETATM   11  C2  UNL     1      11.161   3.964   5.622  1.00  0.00     0.131 A 
HETATM   12  N4  UNL     1       9.860   3.591   5.442  1.00  0.00    -0.311 N 
HETATM   13  N5  UNL     1       9.814   2.336   5.007  1.00  0.00    -0.311 N 
ATOM     14  H4  UNL     1       9.048   4.185   5.614  1.00  0.00     0.186 HD
HETATM   15  C3  UNL     1      11.101   1.888   4.903  1.00  0.00     0.131 A 
ATOM     16  H5  UNL     1       8.971   1.803   4.790  1.00  0.00     0.186 HD
ENDBRANCH   1  10
TORSDOF 5
ENDMDL
MODEL 5
REMARK VINA RESULT: -4.634003960      7.416      8.322
REMARK  5 active torsions:
REMARK  status: ('A' for Active; 'I' for Inactive)
REMARK    1  A    between atoms: N1_1  and  N2_4 
REMARK    2  A    between atoms: N2_4  and  O1_5 
REMARK    3  A    between atoms: O1_5  and  N3_6 
REMARK    4  A    between atoms: N3_6  and  S1_8 
REMARK    5  A    between atoms: S1_8  and  C1_10 
ROOT
HETATM    1  S1  UNL     1      13.665   2.882   5.325  1.00  0.00     0.174 S 
HETATM    2  O2  UNL     1      14.307   2.522   6.803  1.00  0.00    -0.228 OA
ENDROOT
BRANCH   1   3
HETATM    3  N3  UNL     1      14.386   4.210   4.543  1.00  0.00    -0.186 N 
ATOM      4  H3  UNL     1      14.341   4.347   3.533  1.00  0.00     0.207 HD
BRANCH   3   5
HETATM    5  O1  UNL     1      15.016   5.059   5.358  1.00  0.00    -0.135 OA
BRANCH   5   6
HETATM    6  N2  UNL     1      15.551   6.042   4.595  1.00  0.00     0.040 NA
BRANCH   6   7
HETATM    7  N1  UNL     1      15.131   7.308   4.957  1.00  0.00    -0.321 N 
ATOM      8  H12 UNL     1      14.158   7.601   4.889  1.00  0.00     0.174 HD
ATOM      9  H11 UNL     1      15.888   7.905   5.292  1.00  0.00     0.174 HD
ENDBRANCH   6   7
ENDBRANCH   5   6
ENDBRANCH   3   5
ENDBRANCH   1   3
BRANCH   1  10
HETATM   10  C1  UNL     1      11.942   2.932   5.286  1.00  0.00     0.087 A 
HETATM   11  C2  UNL     1      11.116   1.915   4.880  1.00  0.00     0.131 A 
HETATM   12  N4  UNL     1       9.828   2.352   4.999  1.00  0.00    -0.311 N 
HETATM   13  N5  UNL     1       9.823   3.599   5.461  1.00  0.00    -0.311 N 
ATOM     14  H4  UNL     1       8.998   1.807   4.769  1.00  0.00     0.186 HD
HETATM   15  C3  UNL     1      11.124   3.976   5.645  1.00  0.00     0.131 A 
ATOM     16  H5  UNL     1       8.999   4.171   5.646  1.00  0.00     0.186 HD
ENDBRANCH   1  10
TORSDOF 5
ENDMDL
