MODEL 1
REMARK VINA RESULT: -8.614290964      0.000      0.000
REMARK  1 active torsions:
REMARK  status: ('A' for Active; 'I' for Inactive)
REMARK    1  A    between atoms: C4_4  and  C5_5 
ROOT
HETATM    1  C1  UNL     1      18.205  11.852  35.191  1.00  0.00     0.018 C 
HETATM    2  C2  UNL     1      19.169  11.258  34.768  1.00  0.00    -0.073 C 
HETATM    3  C3  UNL     1      20.289  10.520  34.276  1.00  0.00     0.072 A 
HETATM    4  C4  UNL     1      20.244   9.135  34.190  1.00  0.00     0.056 A 
HETATM    5  N1  UNL     1      21.420   8.747  33.703  1.00  0.00    -0.281 N 
ATOM      6  H1  UNL     1      21.678   7.776  33.530  1.00  0.00     0.189 HD
HETATM    7  N2  UNL     1      22.200   9.769  33.475  1.00  0.00    -0.194 N 
HETATM    8  C9  UNL     1      21.527  10.902  33.821  1.00  0.00     0.106 A 
HETATM    9  C10 UNL     1      22.117  12.234  33.691  1.00  0.00    -0.001 A 
HETATM   10  C11 UNL     1      21.504  13.329  34.011  1.00  0.00     0.027 C 
HETATM   11  C12 UNL     1      23.475  12.325  33.169  1.00  0.00     0.005 A 
HETATM   12  C13 UNL     1      24.131  13.515  33.003  1.00  0.00     0.021 A 
HETATM   13  C14 UNL     1      25.441  13.561  32.496  1.00  0.00    -0.061 A 
HETATM   14  C15 UNL     1      26.090  14.889  32.343  1.00  0.00     0.048 C 
HETATM   15  C16 UNL     1      26.031  12.374  32.177  1.00  0.00     0.015 A 
HETATM   16  C17 UNL     1      25.414  11.153  32.327  1.00  0.00    -0.032 A 
HETATM   17  C18 UNL     1      26.077   9.897  31.975  1.00  0.00     0.050 C 
HETATM   18  C19 UNL     1      24.131  11.140  32.826  1.00  0.00     0.067 A 
HETATM   19  N3  UNL     1      23.506   9.887  32.976  1.00  0.00    -0.278 N 
ATOM     20  H3  UNL     1      24.016   9.044  32.715  1.00  0.00     0.189 HD
ENDROOT
BRANCH   4  21
HETATM   21  C5  UNL     1      19.163   8.236  34.541  1.00  0.00    -0.006 C 
HETATM   22  C6  UNL     1      19.670   6.798  34.472  1.00  0.00     0.021 C 
HETATM   23  C7  UNL     1      18.050   8.314  33.505  1.00  0.00     0.021 C 
HETATM   24  C8  UNL     1      18.561   8.430  35.889  1.00  0.00     0.021 C 
ENDBRANCH   4  21
TORSDOF 1
ENDMDL
MODEL 2
REMARK VINA RESULT: -6.557265076      1.767      6.907
REMARK  1 active torsions:
REMARK  status: ('A' for Active; 'I' for Inactive)
REMARK    1  A    between atoms: C4_4  and  C5_5 
ROOT
HETATM    1  C1  UNL     1      25.523   8.576  32.236  1.00  0.00     0.018 C 
HETATM    2  C2  UNL     1      24.681   9.413  32.464  1.00  0.00    -0.073 C 
HETATM    3  C3  UNL     1      23.716  10.430  32.737  1.00  0.00     0.072 A 
HETATM    4  C4  UNL     1      24.105  11.754  32.897  1.00  0.00     0.056 A 
HETATM    5  N1  UNL     1      22.997  12.449  33.138  1.00  0.00    -0.281 N 
ATOM      6  H1  UNL     1      22.973  13.456  33.298  1.00  0.00     0.189 HD
HETATM    7  N2  UNL     1      21.944  11.676  33.144  1.00  0.00    -0.194 N 
HETATM    8  C9  UNL     1      22.352  10.401  32.897  1.00  0.00     0.106 A 
HETATM    9  C10 UNL     1      21.418   9.276  32.834  1.00  0.00    -0.001 A 
HETATM   10  C11 UNL     1      21.775   8.054  32.601  1.00  0.00     0.027 C 
HETATM   11  C12 UNL     1      20.004   9.559  33.048  1.00  0.00     0.005 A 
HETATM   12  C13 UNL     1      19.038   8.591  33.014  1.00  0.00     0.021 A 
HETATM   13  C14 UNL     1      17.683   8.903  33.226  1.00  0.00    -0.061 A 
HETATM   14  C15 UNL     1      16.690   7.800  33.174  1.00  0.00     0.048 C 
HETATM   15  C16 UNL     1      17.373  10.209  33.466  1.00  0.00     0.015 A 
HETATM   16  C17 UNL     1      18.307  11.218  33.511  1.00  0.00    -0.032 A 
HETATM   17  C18 UNL     1      17.940  12.610  33.771  1.00  0.00     0.050 C 
HETATM   18  C19 UNL     1      19.625  10.881  33.300  1.00  0.00     0.067 A 
HETATM   19  N3  UNL     1      20.576  11.918  33.347  1.00  0.00    -0.278 N 
ATOM     20  H3  UNL     1      20.263  12.871  33.533  1.00  0.00     0.189 HD
ENDROOT
BRANCH   4  21
HETATM   21  C5  UNL     1      25.434  12.327  32.824  1.00  0.00    -0.006 C 
HETATM   22  C6  UNL     1      25.323  13.848  32.875  1.00  0.00     0.021 C 
HETATM   23  C7  UNL     1      26.070  12.021  31.474  1.00  0.00     0.021 C 
HETATM   24  C8  UNL     1      26.385  11.914  33.892  1.00  0.00     0.021 C 
ENDBRANCH   4  21
TORSDOF 1
ENDMDL
MODEL 3
REMARK VINA RESULT: -6.540618851      1.668      6.834
REMARK  1 active torsions:
REMARK  status: ('A' for Active; 'I' for Inactive)
REMARK    1  A    between atoms: C4_4  and  C5_5 
ROOT
HETATM    1  C1  UNL     1      25.694   8.438  33.182  1.00  0.00     0.018 C 
HETATM    2  C2  UNL     1      24.849   9.302  33.196  1.00  0.00    -0.073 C 
HETATM    3  C3  UNL     1      23.877  10.349  33.195  1.00  0.00     0.072 A 
HETATM    4  C4  UNL     1      24.159  11.579  32.616  1.00  0.00     0.056 A 
HETATM    5  N1  UNL     1      23.074  12.331  32.774  1.00  0.00    -0.281 N 
ATOM      6  H1  UNL     1      22.988  13.293  32.447  1.00  0.00     0.189 HD
HETATM    7  N2  UNL     1      22.132  11.679  33.402  1.00  0.00    -0.194 N 
HETATM    8  C9  UNL     1      22.596  10.430  33.684  1.00  0.00     0.106 A 
HETATM    9  C10 UNL     1      21.788   9.434  34.387  1.00  0.00    -0.001 A 
HETATM   10  C11 UNL     1      22.201   8.239  34.670  1.00  0.00     0.027 C 
HETATM   11  C12 UNL     1      20.441   9.817  34.790  1.00  0.00     0.005 A 
HETATM   12  C13 UNL     1      19.593   8.972  35.453  1.00  0.00     0.021 A 
HETATM   13  C14 UNL     1      18.300   9.380  35.826  1.00  0.00    -0.061 A 
HETATM   14  C15 UNL     1      17.435   8.408  36.543  1.00  0.00     0.048 C 
HETATM   15  C16 UNL     1      17.926  10.649  35.499  1.00  0.00     0.015 A 
HETATM   16  C17 UNL     1      18.741  11.536  34.834  1.00  0.00    -0.032 A 
HETATM   17  C18 UNL     1      18.308  12.893  34.498  1.00  0.00     0.050 C 
HETATM   18  C19 UNL     1      20.002  11.109  34.483  1.00  0.00     0.067 A 
HETATM   19  N3  UNL     1      20.831  12.021  33.803  1.00  0.00    -0.278 N 
ATOM     20  H3  UNL     1      20.476  12.954  33.595  1.00  0.00     0.189 HD
ENDROOT
BRANCH   4  21
HETATM   21  C5  UNL     1      25.373  12.018  31.955  1.00  0.00    -0.006 C 
HETATM   22  C6  UNL     1      26.532  11.947  32.945  1.00  0.00     0.021 C 
HETATM   23  C7  UNL     1      25.266  13.488  31.573  1.00  0.00     0.021 C 
HETATM   24  C8  UNL     1      25.774  11.248  30.745  1.00  0.00     0.021 C 
ENDBRANCH   4  21
TORSDOF 1
ENDMDL
MODEL 4
REMARK VINA RESULT: -6.303327795      1.138      6.321
REMARK  1 active torsions:
REMARK  status: ('A' for Active; 'I' for Inactive)
REMARK    1  A    between atoms: C4_4  and  C5_5 
ROOT
HETATM    1  C1  UNL     1      23.708  14.150  32.433  1.00  0.00     0.018 C 
HETATM    2  C2  UNL     1      23.543  12.964  32.601  1.00  0.00    -0.073 C 
HETATM    3  C3  UNL     1      23.384  11.555  32.780  1.00  0.00     0.072 A 
HETATM    4  C4  UNL     1      24.359  10.669  32.341  1.00  0.00     0.056 A 
HETATM    5  N1  UNL     1      23.927   9.449  32.645  1.00  0.00    -0.281 N 
ATOM      6  H1  UNL     1      24.439   8.590  32.442  1.00  0.00     0.189 HD
HETATM    7  N2  UNL     1      22.764   9.491  33.238  1.00  0.00    -0.194 N 
HETATM    8  C9  UNL     1      22.388  10.795  33.342  1.00  0.00     0.106 A 
HETATM    9  C10 UNL     1      21.125  11.200  33.960  1.00  0.00    -0.001 A 
HETATM   10  C11 UNL     1      20.740  12.431  34.074  1.00  0.00     0.027 C 
HETATM   11  C12 UNL     1      20.257  10.149  34.476  1.00  0.00     0.005 A 
HETATM   12  C13 UNL     1      19.053  10.405  35.074  1.00  0.00     0.021 A 
HETATM   13  C14 UNL     1      18.243   9.363  35.559  1.00  0.00    -0.061 A 
HETATM   14  C15 UNL     1      16.949   9.716  36.197  1.00  0.00     0.048 C 
HETATM   15  C16 UNL     1      18.706   8.090  35.410  1.00  0.00     0.015 A 
HETATM   16  C17 UNL     1      19.908   7.782  34.815  1.00  0.00    -0.032 A 
HETATM   17  C18 UNL     1      20.375   6.402  34.671  1.00  0.00     0.050 C 
HETATM   18  C19 UNL     1      20.679   8.823  34.350  1.00  0.00     0.067 A 
HETATM   19  N3  UNL     1      21.908   8.500  33.743  1.00  0.00    -0.278 N 
ATOM     20  H3  UNL     1      22.182   7.521  33.669  1.00  0.00     0.189 HD
ENDROOT
BRANCH   4  21
HETATM   21  C5  UNL     1      25.618  10.954  31.681  1.00  0.00    -0.006 C 
HETATM   22  C6  UNL     1      26.361   9.643  31.441  1.00  0.00     0.021 C 
HETATM   23  C7  UNL     1      26.526  11.764  32.597  1.00  0.00     0.021 C 
HETATM   24  C8  UNL     1      25.526  11.659  30.372  1.00  0.00     0.021 C 
ENDBRANCH   4  21
TORSDOF 1
ENDMDL
MODEL 5
REMARK VINA RESULT: -6.274646592      1.461      1.729
REMARK  1 active torsions:
REMARK  status: ('A' for Active; 'I' for Inactive)
REMARK    1  A    between atoms: C4_4  and  C5_5 
ROOT
HETATM    1  C1  UNL     1      18.767  12.423  35.218  1.00  0.00     0.018 C 
HETATM    2  C2  UNL     1      19.469  11.813  34.445  1.00  0.00    -0.073 C 
HETATM    3  C3  UNL     1      20.266  11.069  33.522  1.00  0.00     0.072 A 
HETATM    4  C4  UNL     1      19.699  10.078  32.733  1.00  0.00     0.056 A 
HETATM    5  N1  UNL     1      20.682   9.575  31.991  1.00  0.00    -0.281 N 
ATOM      6  H1  UNL     1      20.562   8.825  31.310  1.00  0.00     0.189 HD
HETATM    7  N2  UNL     1      21.819  10.166  32.245  1.00  0.00    -0.194 N 
HETATM    8  C9  UNL     1      21.601  11.111  33.201  1.00  0.00     0.106 A 
HETATM    9  C10 UNL     1      22.671  11.962  33.720  1.00  0.00    -0.001 A 
HETATM   10  C11 UNL     1      22.497  12.868  34.628  1.00  0.00     0.027 C 
HETATM   11  C12 UNL     1      24.011  11.771  33.178  1.00  0.00     0.005 A 
HETATM   12  C13 UNL     1      25.091  12.506  33.585  1.00  0.00     0.021 A 
HETATM   13  C14 UNL     1      26.368  12.291  33.037  1.00  0.00    -0.061 A 
HETATM   14  C15 UNL     1      27.494  13.127  33.528  1.00  0.00     0.048 C 
HETATM   15  C16 UNL     1      26.486  11.323  32.085  1.00  0.00     0.015 A 
HETATM   16  C17 UNL     1      25.431  10.557  31.643  1.00  0.00    -0.032 A 
HETATM   17  C18 UNL     1      25.592   9.525  30.619  1.00  0.00     0.050 C 
HETATM   18  C19 UNL     1      24.193  10.790  32.198  1.00  0.00     0.067 A 
HETATM   19  N3  UNL     1      23.118  10.004  31.741  1.00  0.00    -0.278 N 
ATOM     20  H3  UNL     1      23.289   9.298  31.025  1.00  0.00     0.189 HD
ENDROOT
BRANCH   4  21
HETATM   21  C5  UNL     1      18.320   9.634  32.679  1.00  0.00    -0.006 C 
HETATM   22  C6  UNL     1      18.154   8.665  31.511  1.00  0.00     0.021 C 
HETATM   23  C7  UNL     1      17.398  10.803  32.360  1.00  0.00     0.021 C 
HETATM   24  C8  UNL     1      17.804   8.952  33.898  1.00  0.00     0.021 C 
ENDBRANCH   4  21
TORSDOF 1
ENDMDL
