MODEL 1
REMARK VINA RESULT: -6.755684802      0.000      0.000
REMARK  12 active torsions:
REMARK  status: ('A' for Active; 'I' for Inactive)
REMARK    1  A    between atoms: N1_1  and  N2_4 
REMARK    2  A    between atoms: N2_4  and  C1_5 
REMARK    3  A    between atoms: C4_11  and  O1_12 
REMARK    4  A    between atoms: O1_12  and  C5_13 
REMARK    5  A    between atoms: C5_13  and  C6_14 
REMARK    6  A    between atoms: C6_14  and  O2_15 
REMARK    7  A    between atoms: O2_15  and  C7_16 
REMARK    8  A    between atoms: C7_16  and  C8_17 
REMARK    9  A    between atoms: C8_17  and  O3_18 
REMARK   10  A    between atoms: O3_18  and  C9_19 
REMARK   11  A    between atoms: C12_22  and  C13_23 
REMARK   12  A    between atoms: C13_23  and  C14_24 
ROOT
HETATM    1  C7  UNL     1     -24.537  43.164  17.887  1.00  0.00     0.193 C 
ENDROOT
BRANCH   1   2
HETATM    2  O2  UNL     1     -24.063  43.246  19.172  1.00  0.00    -0.387 OA
BRANCH   2   3
HETATM    3  C6  UNL     1     -24.562  42.224  19.952  1.00  0.00     0.193 C 
BRANCH   3   4
HETATM    4  C5  UNL     1     -23.517  41.756  20.956  1.00  0.00     0.194 C 
BRANCH   4   5
HETATM    5  O1  UNL     1     -22.493  42.649  21.076  1.00  0.00    -0.380 OA
BRANCH   5   6
HETATM    6  C4  UNL     1     -22.002  42.752  22.356  1.00  0.00     0.169 C 
HETATM    7  C1  UNL     1     -21.814  44.202  22.699  1.00  0.00     0.154 C 
HETATM    8  C2  UNL     1     -20.376  44.226  23.218  1.00  0.00     0.258 C 
HETATM    9  N3  UNL     1     -19.713  43.245  22.346  1.00  0.00    -0.071 N 
HETATM   10  C3  UNL     1     -20.632  42.151  22.419  1.00  0.00     0.265 C 
ATOM     11  H32 UNL     1     -19.494  43.572  21.405  1.00  0.00     0.277 HD
ATOM     12  H31 UNL     1     -18.747  43.024  22.590  1.00  0.00     0.277 HD
BRANCH   7  13
HETATM   13  N2  UNL     1     -21.838  45.041  21.486  1.00  0.00    -0.139 NA
BRANCH  13  14
HETATM   14  N1  UNL     1     -23.171  45.380  21.218  1.00  0.00    -0.348 N 
ATOM     15  H12 UNL     1     -23.748  45.991  21.795  1.00  0.00     0.172 HD
ATOM     16  H11 UNL     1     -23.450  44.912  20.356  1.00  0.00     0.172 HD
ENDBRANCH  13  14
ENDBRANCH   7  13
ENDBRANCH   5   6
ENDBRANCH   4   5
ENDBRANCH   3   4
ENDBRANCH   2   3
ENDBRANCH   1   2
BRANCH   1  17
HETATM   17  C8  UNL     1     -25.653  42.209  17.645  1.00  0.00     0.194 C 
BRANCH  17  18
HETATM   18  O3  UNL     1     -25.417  41.305  16.642  1.00  0.00    -0.384 OA
BRANCH  18  19
HETATM   19  C9  UNL     1     -25.021  40.047  17.019  1.00  0.00     0.121 C 
HETATM   20  C10 UNL     1     -25.849  39.074  16.184  1.00  0.00     0.032 C 
HETATM   21  C11 UNL     1     -24.862  38.460  15.207  1.00  0.00     0.007 C 
HETATM   22  C12 UNL     1     -23.616  38.396  16.049  1.00  0.00    -0.006 C 
HETATM   23  C17 UNL     1     -23.594  39.743  16.723  1.00  0.00     0.037 C 
BRANCH  22  24
HETATM   24  C13 UNL     1     -23.674  37.277  17.031  1.00  0.00     0.063 C 
BRANCH  24  25
HETATM   25  C14 UNL     1     -22.684  36.224  16.800  1.00  0.00     0.025 A 
HETATM   26  C15 UNL     1     -21.520  36.150  16.099  1.00  0.00     0.114 A 
HETATM   27  N4  UNL     1     -20.972  34.934  16.188  1.00  0.00    -0.360 N 
HETATM   28  C16 UNL     1     -21.800  34.218  16.963  1.00  0.00     0.180 A 
ATOM     29  H4  UNL     1     -20.104  34.616  15.756  1.00  0.00     0.166 HD
HETATM   30  N5  UNL     1     -22.841  34.972  17.346  1.00  0.00    -0.355 N 
ATOM     31  H5  UNL     1     -23.615  34.670  17.938  1.00  0.00     0.166 HD
ENDBRANCH  24  25
ENDBRANCH  22  24
ENDBRANCH  18  19
ENDBRANCH  17  18
ENDBRANCH   1  17
TORSDOF 12
ENDMDL
MODEL 2
REMARK VINA RESULT: -6.553693146      2.603      3.572
REMARK  12 active torsions:
REMARK  status: ('A' for Active; 'I' for Inactive)
REMARK    1  A    between atoms: N1_1  and  N2_4 
REMARK    2  A    between atoms: N2_4  and  C1_5 
REMARK    3  A    between atoms: C4_11  and  O1_12 
REMARK    4  A    between atoms: O1_12  and  C5_13 
REMARK    5  A    between atoms: C5_13  and  C6_14 
REMARK    6  A    between atoms: C6_14  and  O2_15 
REMARK    7  A    between atoms: O2_15  and  C7_16 
REMARK    8  A    between atoms: C7_16  and  C8_17 
REMARK    9  A    between atoms: C8_17  and  O3_18 
REMARK   10  A    between atoms: O3_18  and  C9_19 
REMARK   11  A    between atoms: C12_22  and  C13_23 
REMARK   12  A    between atoms: C13_23  and  C14_24 
ROOT
HETATM    1  C7  UNL     1     -26.851  41.297  16.151  1.00  0.00     0.193 C 
ENDROOT
BRANCH   1   2
HETATM    2  O2  UNL     1     -26.741  41.075  17.500  1.00  0.00    -0.387 OA
BRANCH   2   3
HETATM    3  C6  UNL     1     -26.314  42.209  18.157  1.00  0.00     0.193 C 
BRANCH   3   4
HETATM    4  C5  UNL     1     -26.991  42.330  19.516  1.00  0.00     0.194 C 
BRANCH   4   5
HETATM    5  O1  UNL     1     -26.479  41.443  20.418  1.00  0.00    -0.380 OA
BRANCH   5   6
HETATM    6  C4  UNL     1     -26.466  41.918  21.708  1.00  0.00     0.169 C 
HETATM    7  C1  UNL     1     -25.048  41.979  22.199  1.00  0.00     0.154 C 
HETATM    8  C2  UNL     1     -25.137  41.243  23.535  1.00  0.00     0.258 C 
HETATM    9  N3  UNL     1     -26.117  40.186  23.244  1.00  0.00    -0.071 N 
HETATM   10  C3  UNL     1     -27.154  40.942  22.611  1.00  0.00     0.265 C 
ATOM     11  H32 UNL     1     -25.762  39.394  22.708  1.00  0.00     0.277 HD
ATOM     12  H31 UNL     1     -26.409  39.626  24.045  1.00  0.00     0.277 HD
BRANCH   7  13
HETATM   13  N2  UNL     1     -24.155  41.182  21.337  1.00  0.00    -0.139 NA
BRANCH  13  14
HETATM   14  N1  UNL     1     -23.402  42.067  20.553  1.00  0.00    -0.348 N 
ATOM     15  H12 UNL     1     -23.619  42.329  19.592  1.00  0.00     0.172 HD
ATOM     16  H11 UNL     1     -22.613  42.393  21.111  1.00  0.00     0.172 HD
ENDBRANCH  13  14
ENDBRANCH   7  13
ENDBRANCH   5   6
ENDBRANCH   4   5
ENDBRANCH   3   4
ENDBRANCH   2   3
ENDBRANCH   1   2
BRANCH   1  17
HETATM   17  C8  UNL     1     -26.558  40.144  15.256  1.00  0.00     0.194 C 
BRANCH  17  18
HETATM   18  O3  UNL     1     -25.442  40.302  14.477  1.00  0.00    -0.384 OA
BRANCH  18  19
HETATM   19  C9  UNL     1     -24.370  39.491  14.752  1.00  0.00     0.121 C 
HETATM   20  C10 UNL     1     -23.358  40.361  15.490  1.00  0.00     0.032 C 
HETATM   21  C11 UNL     1     -23.370  39.848  16.920  1.00  0.00     0.007 C 
HETATM   22  C12 UNL     1     -23.597  38.376  16.700  1.00  0.00    -0.006 C 
HETATM   23  C17 UNL     1     -24.685  38.353  15.658  1.00  0.00     0.037 C 
BRANCH  22  24
HETATM   24  C13 UNL     1     -22.358  37.693  16.236  1.00  0.00     0.063 C 
BRANCH  24  25
HETATM   25  C14 UNL     1     -22.286  36.274  16.589  1.00  0.00     0.025 A 
HETATM   26  C15 UNL     1     -23.043  35.446  17.359  1.00  0.00     0.114 A 
HETATM   27  N4  UNL     1     -22.545  34.205  17.378  1.00  0.00    -0.360 N 
HETATM   28  C16 UNL     1     -21.451  34.240  16.604  1.00  0.00     0.180 A 
ATOM     29  H4  UNL     1     -22.920  33.399  17.878  1.00  0.00     0.166 HD
HETATM   30  N5  UNL     1     -21.272  35.477  16.114  1.00  0.00    -0.355 N 
ATOM     31  H5  UNL     1     -20.514  35.774  15.499  1.00  0.00     0.166 HD
ENDBRANCH  24  25
ENDBRANCH  22  24
ENDBRANCH  18  19
ENDBRANCH  17  18
ENDBRANCH   1  17
TORSDOF 12
ENDMDL
MODEL 3
REMARK VINA RESULT: -6.450316449      3.230      3.744
REMARK  12 active torsions:
REMARK  status: ('A' for Active; 'I' for Inactive)
REMARK    1  A    between atoms: N1_1  and  N2_4 
REMARK    2  A    between atoms: N2_4  and  C1_5 
REMARK    3  A    between atoms: C4_11  and  O1_12 
REMARK    4  A    between atoms: O1_12  and  C5_13 
REMARK    5  A    between atoms: C5_13  and  C6_14 
REMARK    6  A    between atoms: C6_14  and  O2_15 
REMARK    7  A    between atoms: O2_15  and  C7_16 
REMARK    8  A    between atoms: C7_16  and  C8_17 
REMARK    9  A    between atoms: C8_17  and  O3_18 
REMARK   10  A    between atoms: O3_18  and  C9_19 
REMARK   11  A    between atoms: C12_22  and  C13_23 
REMARK   12  A    between atoms: C13_23  and  C14_24 
ROOT
HETATM    1  C7  UNL     1     -24.646  42.396  19.028  1.00  0.00     0.193 C 
ENDROOT
BRANCH   1   2
HETATM    2  O2  UNL     1     -23.736  42.777  19.982  1.00  0.00    -0.387 OA
BRANCH   2   3
HETATM    3  C6  UNL     1     -23.360  41.707  20.765  1.00  0.00     0.193 C 
BRANCH   3   4
HETATM    4  C5  UNL     1     -23.947  41.835  22.165  1.00  0.00     0.194 C 
BRANCH   4   5
HETATM    5  O1  UNL     1     -23.975  40.634  22.815  1.00  0.00    -0.380 OA
BRANCH   5   6
HETATM    6  C4  UNL     1     -23.923  40.751  24.183  1.00  0.00     0.169 C 
HETATM    7  C1  UNL     1     -23.978  39.382  24.799  1.00  0.00     0.154 C 
HETATM    8  C2  UNL     1     -25.095  39.537  25.831  1.00  0.00     0.258 C 
HETATM    9  N3  UNL     1     -26.036  40.432  25.140  1.00  0.00    -0.071 N 
HETATM   10  C3  UNL     1     -25.150  41.454  24.676  1.00  0.00     0.265 C 
ATOM     11  H32 UNL     1     -26.612  39.992  24.423  1.00  0.00     0.277 HD
ATOM     12  H31 UNL     1     -26.824  40.756  25.700  1.00  0.00     0.277 HD
BRANCH   7  13
HETATM   13  N2  UNL     1     -24.444  38.380  23.822  1.00  0.00    -0.139 NA
BRANCH  13  14
HETATM   14  N1  UNL     1     -24.800  37.220  24.523  1.00  0.00    -0.348 N 
ATOM     15  H12 UNL     1     -24.154  36.486  24.810  1.00  0.00     0.172 HD
ATOM     16  H11 UNL     1     -25.807  37.246  24.688  1.00  0.00     0.172 HD
ENDBRANCH  13  14
ENDBRANCH   7  13
ENDBRANCH   5   6
ENDBRANCH   4   5
ENDBRANCH   3   4
ENDBRANCH   2   3
ENDBRANCH   1   2
BRANCH   1  17
HETATM   17  C8  UNL     1     -24.487  42.992  17.674  1.00  0.00     0.194 C 
BRANCH  17  18
HETATM   18  O3  UNL     1     -24.275  42.079  16.675  1.00  0.00    -0.384 OA
BRANCH  18  19
HETATM   19  C9  UNL     1     -24.236  40.756  17.037  1.00  0.00     0.121 C 
HETATM   20  C10 UNL     1     -25.381  40.079  16.290  1.00  0.00     0.032 C 
HETATM   21  C11 UNL     1     -24.705  39.210  15.244  1.00  0.00     0.007 C 
HETATM   22  C12 UNL     1     -23.467  38.774  15.980  1.00  0.00    -0.006 C 
HETATM   23  C17 UNL     1     -22.992  40.049  16.628  1.00  0.00     0.037 C 
BRANCH  22  24
HETATM   24  C13 UNL     1     -23.767  37.713  16.981  1.00  0.00     0.063 C 
BRANCH  24  25
HETATM   25  C14 UNL     1     -22.929  36.519  16.861  1.00  0.00     0.025 A 
HETATM   26  C15 UNL     1     -23.006  35.250  17.346  1.00  0.00     0.114 A 
HETATM   27  N4  UNL     1     -21.961  34.513  16.956  1.00  0.00    -0.360 N 
HETATM   28  C16 UNL     1     -21.203  35.326  16.206  1.00  0.00     0.180 A 
ATOM     29  H4  UNL     1     -21.779  33.535  17.182  1.00  0.00     0.166 HD
HETATM   30  N5  UNL     1     -21.764  36.542  16.132  1.00  0.00    -0.355 N 
ATOM     31  H5  UNL     1     -21.390  37.345  15.624  1.00  0.00     0.166 HD
ENDBRANCH  24  25
ENDBRANCH  22  24
ENDBRANCH  18  19
ENDBRANCH  17  18
ENDBRANCH   1  17
TORSDOF 12
ENDMDL
MODEL 4
REMARK VINA RESULT: -6.415507001      2.434      3.230
REMARK  12 active torsions:
REMARK  status: ('A' for Active; 'I' for Inactive)
REMARK    1  A    between atoms: N1_1  and  N2_4 
REMARK    2  A    between atoms: N2_4  and  C1_5 
REMARK    3  A    between atoms: C4_11  and  O1_12 
REMARK    4  A    between atoms: O1_12  and  C5_13 
REMARK    5  A    between atoms: C5_13  and  C6_14 
REMARK    6  A    between atoms: C6_14  and  O2_15 
REMARK    7  A    between atoms: O2_15  and  C7_16 
REMARK    8  A    between atoms: C7_16  and  C8_17 
REMARK    9  A    between atoms: C8_17  and  O3_18 
REMARK   10  A    between atoms: O3_18  and  C9_19 
REMARK   11  A    between atoms: C12_22  and  C13_23 
REMARK   12  A    between atoms: C13_23  and  C14_24 
ROOT
HETATM    1  C7  UNL     1     -27.010  42.467  16.985  1.00  0.00     0.193 C 
ENDROOT
BRANCH   1   2
HETATM    2  O2  UNL     1     -27.052  41.705  18.126  1.00  0.00    -0.387 OA
BRANCH   2   3
HETATM    3  C6  UNL     1     -27.155  42.499  19.249  1.00  0.00     0.193 C 
BRANCH   3   4
HETATM    4  C5  UNL     1     -25.785  42.718  19.878  1.00  0.00     0.194 C 
BRANCH   4   5
HETATM    5  O1  UNL     1     -25.704  42.161  21.122  1.00  0.00    -0.380 OA
BRANCH   5   6
HETATM    6  C4  UNL     1     -24.748  41.179  21.220  1.00  0.00     0.169 C 
HETATM    7  C1  UNL     1     -25.042  40.320  22.417  1.00  0.00     0.154 C 
HETATM    8  C2  UNL     1     -23.697  40.306  23.143  1.00  0.00     0.258 C 
HETATM    9  N3  UNL     1     -23.201  41.671  22.909  1.00  0.00    -0.071 N 
HETATM   10  C3  UNL     1     -23.414  41.801  21.500  1.00  0.00     0.265 C 
ATOM     11  H32 UNL     1     -23.627  42.396  23.485  1.00  0.00     0.277 HD
ATOM     12  H31 UNL     1     -22.249  41.853  23.227  1.00  0.00     0.277 HD
BRANCH   7  13
HETATM   13  N2  UNL     1     -26.001  40.982  23.321  1.00  0.00    -0.139 NA
BRANCH  13  14
HETATM   14  N1  UNL     1     -27.290  40.555  22.978  1.00  0.00    -0.348 N 
ATOM     15  H12 UNL     1     -28.086  41.169  22.809  1.00  0.00     0.172 HD
ATOM     16  H11 UNL     1     -27.284  39.536  22.929  1.00  0.00     0.172 HD
ENDBRANCH  13  14
ENDBRANCH   7  13
ENDBRANCH   5   6
ENDBRANCH   4   5
ENDBRANCH   3   4
ENDBRANCH   2   3
ENDBRANCH   1   2
BRANCH   1  17
HETATM   17  C8  UNL     1     -26.017  42.069  15.951  1.00  0.00     0.194 C 
BRANCH  17  18
HETATM   18  O3  UNL     1     -24.721  42.393  16.256  1.00  0.00    -0.384 OA
BRANCH  18  19
HETATM   19  C9  UNL     1     -23.795  41.384  16.192  1.00  0.00     0.121 C 
HETATM   20  C10 UNL     1     -23.669  40.834  17.610  1.00  0.00     0.032 C 
HETATM   21  C11 UNL     1     -24.312  39.459  17.556  1.00  0.00     0.007 C 
HETATM   22  C12 UNL     1     -23.932  39.013  16.169  1.00  0.00    -0.006 C 
HETATM   23  C17 UNL     1     -24.202  40.238  15.334  1.00  0.00     0.037 C 
BRANCH  22  24
HETATM   24  C13 UNL     1     -22.507  38.588  16.100  1.00  0.00     0.063 C 
BRANCH  24  25
HETATM   25  C14 UNL     1     -22.291  37.164  16.362  1.00  0.00     0.025 A 
HETATM   26  C15 UNL     1     -23.005  36.195  16.998  1.00  0.00     0.114 A 
HETATM   27  N4  UNL     1     -22.361  35.023  16.981  1.00  0.00    -0.360 N 
HETATM   28  C16 UNL     1     -21.216  35.247  16.320  1.00  0.00     0.180 A 
ATOM     29  H4  UNL     1     -22.676  34.142  17.386  1.00  0.00     0.166 HD
HETATM   30  N5  UNL     1     -21.148  36.530  15.935  1.00  0.00    -0.355 N 
ATOM     31  H5  UNL     1     -20.382  36.961  15.417  1.00  0.00     0.166 HD
ENDBRANCH  24  25
ENDBRANCH  22  24
ENDBRANCH  18  19
ENDBRANCH  17  18
ENDBRANCH   1  17
TORSDOF 12
ENDMDL
MODEL 5
REMARK VINA RESULT: -6.358149373      2.688      3.143
REMARK  12 active torsions:
REMARK  status: ('A' for Active; 'I' for Inactive)
REMARK    1  A    between atoms: N1_1  and  N2_4 
REMARK    2  A    between atoms: N2_4  and  C1_5 
REMARK    3  A    between atoms: C4_11  and  O1_12 
REMARK    4  A    between atoms: O1_12  and  C5_13 
REMARK    5  A    between atoms: C5_13  and  C6_14 
REMARK    6  A    between atoms: C6_14  and  O2_15 
REMARK    7  A    between atoms: O2_15  and  C7_16 
REMARK    8  A    between atoms: C7_16  and  C8_17 
REMARK    9  A    between atoms: C8_17  and  O3_18 
REMARK   10  A    between atoms: O3_18  and  C9_19 
REMARK   11  A    between atoms: C12_22  and  C13_23 
REMARK   12  A    between atoms: C13_23  and  C14_24 
ROOT
HETATM    1  C7  UNL     1     -24.128  41.936  19.268  1.00  0.00     0.193 C 
ENDROOT
BRANCH   1   2
HETATM    2  O2  UNL     1     -23.648  42.763  20.253  1.00  0.00    -0.387 OA
BRANCH   2   3
HETATM    3  C6  UNL     1     -22.910  42.056  21.178  1.00  0.00     0.193 C 
BRANCH   3   4
HETATM    4  C5  UNL     1     -23.096  42.640  22.573  1.00  0.00     0.194 C 
BRANCH   4   5
HETATM    5  O1  UNL     1     -23.907  41.861  23.345  1.00  0.00    -0.380 OA
BRANCH   5   6
HETATM    6  C4  UNL     1     -23.518  40.544  23.393  1.00  0.00     0.169 C 
HETATM    7  C1  UNL     1     -24.697  39.667  23.082  1.00  0.00     0.154 C 
HETATM    8  C2  UNL     1     -24.676  38.674  24.243  1.00  0.00     0.258 C 
HETATM    9  N3  UNL     1     -24.245  39.518  25.368  1.00  0.00    -0.071 N 
HETATM   10  C3  UNL     1     -23.120  40.187  24.792  1.00  0.00     0.265 C 
ATOM     11  H32 UNL     1     -24.964  40.127  25.759  1.00  0.00     0.277 HD
ATOM     12  H31 UNL     1     -24.062  39.025  26.242  1.00  0.00     0.277 HD
BRANCH   7  13
HETATM   13  N2  UNL     1     -25.961  40.420  23.194  1.00  0.00    -0.139 NA
BRANCH  13  14
HETATM   14  N1  UNL     1     -26.361  40.793  21.904  1.00  0.00    -0.348 N 
ATOM     15  H12 UNL     1     -26.853  40.191  21.245  1.00  0.00     0.172 HD
ATOM     16  H11 UNL     1     -26.074  41.760  21.751  1.00  0.00     0.172 HD
ENDBRANCH  13  14
ENDBRANCH   7  13
ENDBRANCH   5   6
ENDBRANCH   4   5
ENDBRANCH   3   4
ENDBRANCH   2   3
ENDBRANCH   1   2
BRANCH   1  17
HETATM   17  C8  UNL     1     -24.324  42.541  17.923  1.00  0.00     0.194 C 
BRANCH  17  18
HETATM   18  O3  UNL     1     -24.197  41.659  16.882  1.00  0.00    -0.384 OA
BRANCH  18  19
HETATM   19  C9  UNL     1     -24.064  40.332  17.202  1.00  0.00     0.121 C 
HETATM   20  C10 UNL     1     -25.294  39.633  16.632  1.00  0.00     0.032 C 
HETATM   21  C11 UNL     1     -24.771  38.806  15.470  1.00  0.00     0.007 C 
HETATM   22  C12 UNL     1     -23.418  38.395  15.989  1.00  0.00    -0.006 C 
HETATM   23  C17 UNL     1     -22.882  39.672  16.583  1.00  0.00     0.037 C 
BRANCH  22  24
HETATM   24  C13 UNL     1     -23.526  37.307  17.000  1.00  0.00     0.063 C 
BRANCH  24  25
HETATM   25  C14 UNL     1     -22.595  36.197  16.788  1.00  0.00     0.025 A 
HETATM   26  C15 UNL     1     -21.419  36.056  16.117  1.00  0.00     0.114 A 
HETATM   27  N4  UNL     1     -20.948  34.808  16.212  1.00  0.00    -0.360 N 
HETATM   28  C16 UNL     1     -21.838  34.140  16.960  1.00  0.00     0.180 A 
ATOM     29  H4  UNL     1     -20.090  34.441  15.801  1.00  0.00     0.166 HD
HETATM   30  N5  UNL     1     -22.842  34.954  17.321  1.00  0.00    -0.355 N 
ATOM     31  H5  UNL     1     -23.648  34.696  17.891  1.00  0.00     0.166 HD
ENDBRANCH  24  25
ENDBRANCH  22  24
ENDBRANCH  18  19
ENDBRANCH  17  18
ENDBRANCH   1  17
TORSDOF 12
ENDMDL
