MODEL 1
REMARK VINA RESULT: -7.016245735      0.000      0.000
REMARK  10 active torsions:
REMARK  status: ('A' for Active; 'I' for Inactive)
REMARK    1  A    between atoms: N1_1  and  C1_5 
REMARK    2  A    between atoms: C1_5  and  C2_6 
REMARK    3  A    between atoms: C5_9  and  N2_10 
REMARK    4  A    between atoms: C6_14  and  O1_15 
REMARK    5  A    between atoms: O1_15  and  C7_16 
REMARK    6  A    between atoms: C8_17  and  O2_18 
REMARK    7  A    between atoms: C9_20  and  N3_21 
REMARK    8  A    between atoms: C10_26  and  C11_27 
REMARK    9  A    between atoms: C11_27  and  N4_28 
REMARK   10  A    between atoms: C17_34  and  O4_35 
ROOT
HETATM    1  C7  UNL     1      80.670  19.028  44.410  1.00  0.00     0.189 C 
HETATM    2  C8  UNL     1      79.215  18.789  43.993  1.00  0.00     0.206 C 
HETATM    3  C9  UNL     1      78.424  19.943  44.560  1.00  0.00     0.350 C 
HETATM    4  O3  UNL     1      78.767  21.053  43.809  1.00  0.00    -0.347 OA
HETATM    5  C10 UNL     1      80.073  21.437  43.945  1.00  0.00     0.173 C 
HETATM    6  C17 UNL     1      81.070  20.344  43.799  1.00  0.00     0.180 C 
ENDROOT
BRANCH   1   7
HETATM    7  O1  UNL     1      81.476  17.992  44.005  1.00  0.00    -0.348 OA
BRANCH   7   8
HETATM    8  C6  UNL     1      81.878  17.225  45.097  1.00  0.00     0.291 C 
HETATM    9  C5  UNL     1      83.363  16.948  45.000  1.00  0.00     0.238 C 
HETATM   10  C4  UNL     1      83.806  16.406  46.329  1.00  0.00     0.040 C 
HETATM   11  C3  UNL     1      83.661  17.531  47.325  1.00  0.00     0.036 C 
HETATM   12  C2  UNL     1      82.452  18.386  47.043  1.00  0.00     0.150 C 
HETATM   13  O5  UNL     1      81.478  17.734  46.315  1.00  0.00    -0.352 OA
BRANCH   9  14
HETATM   14  N2  UNL     1      84.125  18.140  44.700  1.00  0.00    -0.070 N 
ATOM     15  H23 UNL     1      83.607  18.994  44.908  1.00  0.00     0.274 HD
ATOM     16  H22 UNL     1      84.898  18.280  45.350  1.00  0.00     0.274 HD
ATOM     17  H21 UNL     1      84.435  18.100  43.730  1.00  0.00     0.274 HD
ENDBRANCH   9  14
BRANCH  12  18
HETATM   18  C1  UNL     1      81.847  18.730  48.395  1.00  0.00     0.261 C 
BRANCH  18  19
HETATM   19  N1  UNL     1      81.262  20.062  48.390  1.00  0.00    -0.077 N 
ATOM     20  H13 UNL     1      81.044  20.379  49.334  1.00  0.00     0.274 HD
ATOM     21  H12 UNL     1      81.951  20.772  48.141  1.00  0.00     0.274 HD
ATOM     22  H11 UNL     1      80.444  20.104  47.782  1.00  0.00     0.274 HD
ENDBRANCH  18  19
ENDBRANCH  12  18
ENDBRANCH   7   8
ENDBRANCH   1   7
BRANCH   2  23
HETATM   23  O2  UNL     1      79.197  18.917  42.603  1.00  0.00    -0.388 OA
ATOM     24  H2  UNL     1      78.829  18.104  42.276  1.00  0.00     0.210 HD
ENDBRANCH   2  23
BRANCH   6  25
HETATM   25  O4  UNL     1      82.248  20.770  44.453  1.00  0.00    -0.390 OA
ATOM     26  H4  UNL     1      82.682  21.389  43.879  1.00  0.00     0.210 HD
ENDBRANCH   6  25
BRANCH   3  27
HETATM   27  N3  UNL     1      78.627  20.102  45.960  1.00  0.00    -0.050 N 
ATOM     28  H33 UNL     1      77.827  19.758  46.490  1.00  0.00     0.277 HD
ATOM     29  H32 UNL     1      79.340  19.458  46.304  1.00  0.00     0.277 HD
ATOM     30  H31 UNL     1      78.849  21.066  46.214  1.00  0.00     0.277 HD
ENDBRANCH   3  27
BRANCH   5  31
HETATM   31  C11 UNL     1      80.339  22.472  42.858  1.00  0.00     0.151 C 
BRANCH  31  32
HETATM   32  N4  UNL     1      79.178  23.123  42.368  1.00  0.00    -0.410 N 
HETATM   33  C12 UNL     1      78.781  24.312  43.024  1.00  0.00     0.117 C 
HETATM   34  C13 UNL     1      77.296  24.545  42.718  1.00  0.00     0.019 C 
HETATM   35  C14 UNL     1      77.223  24.847  41.250  1.00  0.00     0.003 C 
HETATM   36  C15 UNL     1      77.629  23.576  40.518  1.00  0.00     0.019 C 
HETATM   37  C16 UNL     1      78.980  23.073  40.964  1.00  0.00     0.117 C 
ENDBRANCH  31  32
ENDBRANCH   5  31
TORSDOF 10
ENDMDL
MODEL 2
REMARK VINA RESULT: -6.875712965      1.232      2.036
REMARK  10 active torsions:
REMARK  status: ('A' for Active; 'I' for Inactive)
REMARK    1  A    between atoms: N1_1  and  C1_5 
REMARK    2  A    between atoms: C1_5  and  C2_6 
REMARK    3  A    between atoms: C5_9  and  N2_10 
REMARK    4  A    between atoms: C6_14  and  O1_15 
REMARK    5  A    between atoms: O1_15  and  C7_16 
REMARK    6  A    between atoms: C8_17  and  O2_18 
REMARK    7  A    between atoms: C9_20  and  N3_21 
REMARK    8  A    between atoms: C10_26  and  C11_27 
REMARK    9  A    between atoms: C11_27  and  N4_28 
REMARK   10  A    between atoms: C17_34  and  O4_35 
ROOT
HETATM    1  C7  UNL     1      80.687  19.149  44.652  1.00  0.00     0.189 C 
HETATM    2  C8  UNL     1      79.290  18.747  44.172  1.00  0.00     0.206 C 
HETATM    3  C9  UNL     1      78.371  19.877  44.569  1.00  0.00     0.350 C 
HETATM    4  O3  UNL     1      78.676  20.936  43.732  1.00  0.00    -0.347 OA
HETATM    5  C10 UNL     1      79.934  21.442  43.909  1.00  0.00     0.173 C 
HETATM    6  C17 UNL     1      81.024  20.431  43.936  1.00  0.00     0.180 C 
ENDROOT
BRANCH   1   7
HETATM    7  O1  UNL     1      81.601  18.153  44.405  1.00  0.00    -0.348 OA
BRANCH   7   8
HETATM    8  C6  UNL     1      82.295  17.822  45.567  1.00  0.00     0.291 C 
HETATM    9  C5  UNL     1      81.824  16.474  46.069  1.00  0.00     0.238 C 
HETATM   10  C4  UNL     1      82.800  16.020  47.116  1.00  0.00     0.040 C 
HETATM   11  C3  UNL     1      84.108  15.762  46.407  1.00  0.00     0.036 C 
HETATM   12  C2  UNL     1      84.354  16.750  45.294  1.00  0.00     0.150 C 
HETATM   13  O5  UNL     1      83.664  17.935  45.452  1.00  0.00    -0.352 OA
BRANCH   9  14
HETATM   14  N2  UNL     1      81.770  15.485  45.016  1.00  0.00    -0.070 N 
ATOM     15  H23 UNL     1      82.602  14.895  44.995  1.00  0.00     0.274 HD
ATOM     16  H22 UNL     1      81.082  14.756  45.202  1.00  0.00     0.274 HD
ATOM     17  H21 UNL     1      81.606  15.957  44.127  1.00  0.00     0.274 HD
ENDBRANCH   9  14
BRANCH  12  18
HETATM   18  C1  UNL     1      85.836  17.083  45.338  1.00  0.00     0.261 C 
BRANCH  18  19
HETATM   19  N1  UNL     1      86.122  18.316  44.620  1.00  0.00    -0.077 N 
ATOM     20  H13 UNL     1      87.031  18.699  44.880  1.00  0.00     0.274 HD
ATOM     21  H12 UNL     1      86.304  18.140  43.631  1.00  0.00     0.274 HD
ATOM     22  H11 UNL     1      85.377  19.000  44.748  1.00  0.00     0.274 HD
ENDBRANCH  18  19
ENDBRANCH  12  18
ENDBRANCH   7   8
ENDBRANCH   1   7
BRANCH   2  23
HETATM   23  O2  UNL     1      79.359  18.739  42.777  1.00  0.00    -0.388 OA
ATOM     24  H2  UNL     1      80.121  18.213  42.562  1.00  0.00     0.210 HD
ENDBRANCH   2  23
BRANCH   6  25
HETATM   25  O4  UNL     1      82.114  21.017  44.616  1.00  0.00    -0.390 OA
ATOM     26  H4  UNL     1      81.813  21.843  44.974  1.00  0.00     0.210 HD
ENDBRANCH   6  25
BRANCH   3  27
HETATM   27  N3  UNL     1      78.462  20.187  45.955  1.00  0.00    -0.050 N 
ATOM     28  H33 UNL     1      79.412  20.454  46.211  1.00  0.00     0.277 HD
ATOM     29  H32 UNL     1      77.983  21.062  46.169  1.00  0.00     0.277 HD
ATOM     30  H31 UNL     1      78.121  19.428  46.546  1.00  0.00     0.277 HD
ENDBRANCH   3  27
BRANCH   5  31
HETATM   31  C11 UNL     1      80.192  22.387  42.742  1.00  0.00     0.151 C 
BRANCH  31  32
HETATM   32  N4  UNL     1      79.059  23.131  42.323  1.00  0.00    -0.410 N 
HETATM   33  C12 UNL     1      78.747  24.298  43.060  1.00  0.00     0.117 C 
HETATM   34  C13 UNL     1      77.271  24.631  42.810  1.00  0.00     0.019 C 
HETATM   35  C14 UNL     1      77.179  25.025  41.364  1.00  0.00     0.003 C 
HETATM   36  C15 UNL     1      77.493  23.780  40.547  1.00  0.00     0.019 C 
HETATM   37  C16 UNL     1      78.824  23.177  40.925  1.00  0.00     0.117 C 
ENDBRANCH  31  32
ENDBRANCH   5  31
TORSDOF 10
ENDMDL
MODEL 3
REMARK VINA RESULT: -6.706065865      2.570      6.685
REMARK  10 active torsions:
REMARK  status: ('A' for Active; 'I' for Inactive)
REMARK    1  A    between atoms: N1_1  and  C1_5 
REMARK    2  A    between atoms: C1_5  and  C2_6 
REMARK    3  A    between atoms: C5_9  and  N2_10 
REMARK    4  A    between atoms: C6_14  and  O1_15 
REMARK    5  A    between atoms: O1_15  and  C7_16 
REMARK    6  A    between atoms: C8_17  and  O2_18 
REMARK    7  A    between atoms: C9_20  and  N3_21 
REMARK    8  A    between atoms: C10_26  and  C11_27 
REMARK    9  A    between atoms: C11_27  and  N4_28 
REMARK   10  A    between atoms: C17_34  and  O4_35 
ROOT
HETATM    1  C7  UNL     1      79.735  21.198  44.071  1.00  0.00     0.189 C 
HETATM    2  C8  UNL     1      80.814  20.112  44.109  1.00  0.00     0.206 C 
HETATM    3  C9  UNL     1      80.900  19.660  45.547  1.00  0.00     0.350 C 
HETATM    4  O3  UNL     1      79.746  18.937  45.794  1.00  0.00    -0.347 OA
HETATM    5  C10 UNL     1      78.599  19.680  45.739  1.00  0.00     0.173 C 
HETATM    6  C17 UNL     1      78.462  20.540  44.534  1.00  0.00     0.180 C 
ENDROOT
BRANCH   1   7
HETATM    7  O1  UNL     1      79.621  21.737  42.812  1.00  0.00    -0.348 OA
BRANCH   7   8
HETATM    8  C6  UNL     1      79.775  23.122  42.854  1.00  0.00     0.291 C 
HETATM    9  C5  UNL     1      80.182  23.625  41.486  1.00  0.00     0.238 C 
HETATM   10  C4  UNL     1      80.028  25.119  41.494  1.00  0.00     0.040 C 
HETATM   11  C3  UNL     1      78.550  25.402  41.614  1.00  0.00     0.036 C 
HETATM   12  C2  UNL     1      77.853  24.405  42.506  1.00  0.00     0.150 C 
HETATM   13  O5  UNL     1      78.700  23.788  43.403  1.00  0.00    -0.352 OA
BRANCH   9  14
HETATM   14  N2  UNL     1      79.361  23.074  40.432  1.00  0.00    -0.070 N 
ATOM     15  H23 UNL     1      78.706  22.372  40.776  1.00  0.00     0.274 HD
ATOM     16  H22 UNL     1      78.678  23.745  40.080  1.00  0.00     0.274 HD
ATOM     17  H21 UNL     1      79.966  22.712  39.695  1.00  0.00     0.274 HD
ENDBRANCH   9  14
BRANCH  12  18
HETATM   18  C1  UNL     1      76.837  25.195  43.317  1.00  0.00     0.261 C 
BRANCH  18  19
HETATM   19  N1  UNL     1      76.807  24.750  44.702  1.00  0.00    -0.077 N 
ATOM     20  H13 UNL     1      77.732  24.469  45.025  1.00  0.00     0.274 HD
ATOM     21  H12 UNL     1      76.647  25.528  45.342  1.00  0.00     0.274 HD
ATOM     22  H11 UNL     1      76.121  24.007  44.837  1.00  0.00     0.274 HD
ENDBRANCH  18  19
ENDBRANCH  12  18
ENDBRANCH   7   8
ENDBRANCH   1   7
BRANCH   2  23
HETATM   23  O2  UNL     1      80.301  19.046  43.368  1.00  0.00    -0.388 OA
ATOM     24  H2  UNL     1      79.695  18.600  43.948  1.00  0.00     0.210 HD
ENDBRANCH   2  23
BRANCH   6  25
HETATM   25  O4  UNL     1      77.554  21.571  44.864  1.00  0.00    -0.390 OA
ATOM     26  H4  UNL     1      77.837  21.942  45.691  1.00  0.00     0.210 HD
ENDBRANCH   6  25
BRANCH   3  27
HETATM   27  N3  UNL     1      81.110  20.745  46.444  1.00  0.00    -0.050 N 
ATOM     28  H33 UNL     1      81.524  20.425  47.319  1.00  0.00     0.277 HD
ATOM     29  H32 UNL     1      81.864  21.350  46.119  1.00  0.00     0.277 HD
ATOM     30  H31 UNL     1      80.257  21.279  46.614  1.00  0.00     0.277 HD
ENDBRANCH   3  27
BRANCH   5  31
HETATM   31  C11 UNL     1      77.439  18.693  45.753  1.00  0.00     0.151 C 
BRANCH  31  32
HETATM   32  N4  UNL     1      76.211  19.233  46.216  1.00  0.00    -0.410 N 
HETATM   33  C12 UNL     1      75.024  18.600  45.779  1.00  0.00     0.117 C 
HETATM   34  C13 UNL     1      73.873  19.601  45.932  1.00  0.00     0.019 C 
HETATM   35  C14 UNL     1      73.705  19.809  47.409  1.00  0.00     0.003 C 
HETATM   36  C15 UNL     1      74.963  20.507  47.903  1.00  0.00     0.019 C 
HETATM   37  C16 UNL     1      76.213  19.743  47.540  1.00  0.00     0.117 C 
ENDBRANCH  31  32
ENDBRANCH   5  31
TORSDOF 10
ENDMDL
MODEL 4
REMARK VINA RESULT: -6.697299983      2.936      5.259
REMARK  10 active torsions:
REMARK  status: ('A' for Active; 'I' for Inactive)
REMARK    1  A    between atoms: N1_1  and  C1_5 
REMARK    2  A    between atoms: C1_5  and  C2_6 
REMARK    3  A    between atoms: C5_9  and  N2_10 
REMARK    4  A    between atoms: C6_14  and  O1_15 
REMARK    5  A    between atoms: O1_15  and  C7_16 
REMARK    6  A    between atoms: C8_17  and  O2_18 
REMARK    7  A    between atoms: C9_20  and  N3_21 
REMARK    8  A    between atoms: C10_26  and  C11_27 
REMARK    9  A    between atoms: C11_27  and  N4_28 
REMARK   10  A    between atoms: C17_34  and  O4_35 
ROOT
HETATM    1  C7  UNL     1      78.760  23.016  42.109  1.00  0.00     0.189 C 
HETATM    2  C8  UNL     1      79.292  23.581  40.789  1.00  0.00     0.206 C 
HETATM    3  C9  UNL     1      78.087  24.092  40.037  1.00  0.00     0.350 C 
HETATM    4  O3  UNL     1      77.673  25.233  40.701  1.00  0.00    -0.347 OA
HETATM    5  C10 UNL     1      77.212  25.006  41.968  1.00  0.00     0.173 C 
HETATM    6  C17 UNL     1      78.095  24.165  42.819  1.00  0.00     0.180 C 
ENDROOT
BRANCH   1   7
HETATM    7  O1  UNL     1      79.771  22.453  42.849  1.00  0.00    -0.348 OA
BRANCH   7   8
HETATM    8  C6  UNL     1      79.543  21.091  43.040  1.00  0.00     0.291 C 
HETATM    9  C5  UNL     1      80.819  20.427  43.511  1.00  0.00     0.238 C 
HETATM   10  C4  UNL     1      80.455  19.055  44.001  1.00  0.00     0.040 C 
HETATM   11  C3  UNL     1      79.610  19.246  45.237  1.00  0.00     0.036 C 
HETATM   12  C2  UNL     1      78.704  20.447  45.124  1.00  0.00     0.150 C 
HETATM   13  O5  UNL     1      78.440  20.813  43.820  1.00  0.00    -0.352 OA
BRANCH   9  14
HETATM   14  N2  UNL     1      81.453  21.158  44.586  1.00  0.00    -0.070 N 
ATOM     15  H23 UNL     1      80.830  21.847  45.007  1.00  0.00     0.274 HD
ATOM     16  H22 UNL     1      81.605  20.579  45.411  1.00  0.00     0.274 HD
ATOM     17  H21 UNL     1      82.316  21.574  44.239  1.00  0.00     0.274 HD
ENDBRANCH   9  14
BRANCH  12  18
HETATM   18  C1  UNL     1      77.380  20.044  45.754  1.00  0.00     0.261 C 
BRANCH  18  19
HETATM   19  N1  UNL     1      76.533  21.203  45.989  1.00  0.00    -0.077 N 
ATOM     20  H13 UNL     1      75.855  21.028  46.731  1.00  0.00     0.274 HD
ATOM     21  H12 UNL     1      77.051  21.965  46.427  1.00  0.00     0.274 HD
ATOM     22  H11 UNL     1      76.076  21.508  45.129  1.00  0.00     0.274 HD
ENDBRANCH  18  19
ENDBRANCH  12  18
ENDBRANCH   7   8
ENDBRANCH   1   7
BRANCH   2  23
HETATM   23  O2  UNL     1      80.064  24.691  41.140  1.00  0.00    -0.388 OA
ATOM     24  H2  UNL     1      79.588  25.122  41.839  1.00  0.00     0.210 HD
ENDBRANCH   2  23
BRANCH   6  25
HETATM   25  O4  UNL     1      77.284  23.616  43.838  1.00  0.00    -0.390 OA
ATOM     26  H4  UNL     1      76.665  23.029  43.420  1.00  0.00     0.210 HD
ENDBRANCH   6  25
BRANCH   3  27
HETATM   27  N3  UNL     1      77.075  23.100  39.899  1.00  0.00    -0.050 N 
ATOM     28  H33 UNL     1      76.948  22.580  40.767  1.00  0.00     0.277 HD
ATOM     29  H32 UNL     1      76.150  23.526  39.828  1.00  0.00     0.277 HD
ATOM     30  H31 UNL     1      77.251  22.471  39.115  1.00  0.00     0.277 HD
ENDBRANCH   3  27
BRANCH   5  31
HETATM   31  C11 UNL     1      77.072  26.370  42.632  1.00  0.00     0.151 C 
BRANCH  31  32
HETATM   32  N4  UNL     1      75.744  26.718  42.989  1.00  0.00    -0.410 N 
HETATM   33  C12 UNL     1      75.429  28.097  43.036  1.00  0.00     0.117 C 
HETATM   34  C13 UNL     1      74.186  28.266  43.918  1.00  0.00     0.019 C 
HETATM   35  C14 UNL     1      73.060  27.617  43.167  1.00  0.00     0.003 C 
HETATM   36  C15 UNL     1      73.364  26.127  43.118  1.00  0.00     0.019 C 
HETATM   37  C16 UNL     1      74.724  25.846  42.527  1.00  0.00     0.117 C 
ENDBRANCH  31  32
ENDBRANCH   5  31
TORSDOF 10
ENDMDL
MODEL 5
REMARK VINA RESULT: -6.653496623     10.351     12.499
REMARK  10 active torsions:
REMARK  status: ('A' for Active; 'I' for Inactive)
REMARK    1  A    between atoms: N1_1  and  C1_5 
REMARK    2  A    between atoms: C1_5  and  C2_6 
REMARK    3  A    between atoms: C5_9  and  N2_10 
REMARK    4  A    between atoms: C6_14  and  O1_15 
REMARK    5  A    between atoms: O1_15  and  C7_16 
REMARK    6  A    between atoms: C8_17  and  O2_18 
REMARK    7  A    between atoms: C9_20  and  N3_21 
REMARK    8  A    between atoms: C10_26  and  C11_27 
REMARK    9  A    between atoms: C11_27  and  N4_28 
REMARK   10  A    between atoms: C17_34  and  O4_35 
ROOT
HETATM    1  C7  UNL     1      69.434  26.211  45.144  1.00  0.00     0.189 C 
HETATM    2  C8  UNL     1      68.795  27.403  44.425  1.00  0.00     0.206 C 
HETATM    3  C9  UNL     1      69.630  27.643  43.191  1.00  0.00     0.350 C 
HETATM    4  O3  UNL     1      69.354  26.596  42.329  1.00  0.00    -0.347 OA
HETATM    5  C10 UNL     1      69.765  25.374  42.784  1.00  0.00     0.173 C 
HETATM    6  C17 UNL     1      69.366  25.056  44.181  1.00  0.00     0.180 C 
ENDROOT
BRANCH   1   7
HETATM    7  O1  UNL     1      68.792  25.947  46.330  1.00  0.00    -0.348 OA
BRANCH   7   8
HETATM    8  C6  UNL     1      69.693  25.970  47.393  1.00  0.00     0.291 C 
HETATM    9  C5  UNL     1      68.934  26.108  48.695  1.00  0.00     0.238 C 
HETATM   10  C4  UNL     1      69.897  25.812  49.809  1.00  0.00     0.040 C 
HETATM   11  C3  UNL     1      70.256  24.351  49.694  1.00  0.00     0.036 C 
HETATM   12  C2  UNL     1      70.353  23.901  48.258  1.00  0.00     0.150 C 
HETATM   13  O5  UNL     1      70.603  24.934  47.377  1.00  0.00    -0.352 OA
BRANCH   9  14
HETATM   14  N2  UNL     1      67.820  25.190  48.780  1.00  0.00    -0.070 N 
ATOM     15  H23 UNL     1      66.922  25.657  48.660  1.00  0.00     0.274 HD
ATOM     16  H22 UNL     1      67.767  24.568  47.973  1.00  0.00     0.274 HD
ATOM     17  H21 UNL     1      67.879  24.679  49.660  1.00  0.00     0.274 HD
ENDBRANCH   9  14
BRANCH  12  18
HETATM   18  C1  UNL     1      71.540  22.953  48.186  1.00  0.00     0.261 C 
BRANCH  18  19
HETATM   19  N1  UNL     1      72.230  23.066  46.910  1.00  0.00    -0.077 N 
ATOM     20  H13 UNL     1      71.940  23.900  46.400  1.00  0.00     0.274 HD
ATOM     21  H12 UNL     1      73.216  23.295  47.036  1.00  0.00     0.274 HD
ATOM     22  H11 UNL     1      72.110  22.223  46.348  1.00  0.00     0.274 HD
ENDBRANCH  18  19
ENDBRANCH  12  18
ENDBRANCH   7   8
ENDBRANCH   1   7
BRANCH   2  23
HETATM   23  O2  UNL     1      67.542  26.957  43.999  1.00  0.00    -0.388 OA
ATOM     24  H2  UNL     1      67.715  26.353  43.286  1.00  0.00     0.210 HD
ENDBRANCH   2  23
BRANCH   6  25
HETATM   25  O4  UNL     1      70.259  24.066  44.650  1.00  0.00    -0.390 OA
ATOM     26  H4  UNL     1      70.599  23.610  43.890  1.00  0.00     0.210 HD
ENDBRANCH   6  25
BRANCH   3  27
HETATM   27  N3  UNL     1      71.013  27.797  43.494  1.00  0.00    -0.050 N 
ATOM     28  H33 UNL     1      71.143  28.311  44.365  1.00  0.00     0.277 HD
ATOM     29  H32 UNL     1      71.431  26.908  43.766  1.00  0.00     0.277 HD
ATOM     30  H31 UNL     1      71.532  28.231  42.730  1.00  0.00     0.277 HD
ENDBRANCH   3  27
BRANCH   5  31
HETATM   31  C11 UNL     1      69.141  24.333  41.863  1.00  0.00     0.151 C 
BRANCH  31  32
HETATM   32  N4  UNL     1      70.027  23.798  40.893  1.00  0.00    -0.410 N 
HETATM   33  C12 UNL     1      71.376  24.221  40.950  1.00  0.00     0.117 C 
HETATM   34  C13 UNL     1      72.005  23.974  39.573  1.00  0.00     0.019 C 
HETATM   35  C14 UNL     1      72.052  22.483  39.407  1.00  0.00     0.003 C 
HETATM   36  C15 UNL     1      70.611  22.002  39.324  1.00  0.00     0.019 C 
HETATM   37  C16 UNL     1      69.796  22.450  40.513  1.00  0.00     0.117 C 
ENDBRANCH  31  32
ENDBRANCH   5  31
TORSDOF 10
ENDMDL
