MODEL 1
REMARK VINA RESULT: -7.922037446      0.000      0.000
REMARK  8 active torsions:
REMARK  status: ('A' for Active; 'I' for Inactive)
REMARK    1  A    between atoms: O1_2  and  C2_3 
REMARK    2  A    between atoms: N6_27  and  C13_28 
REMARK    3  A    between atoms: N8_37  and  C21_38 
REMARK    4  A    between atoms: C21_38  and  C22_39 
REMARK    5  A    between atoms: C22_39  and  N9_40 
REMARK    6  A    between atoms: N9_40  and  C23_42 
REMARK    7  A    between atoms: C23_42  and  C24_43 
REMARK    8  A    between atoms: C24_43  and  N10_44 
ROOT
HETATM    1  C2  UNL     1       3.382  13.466  13.440  1.00  0.00     0.561 C 
HETATM    2  N1  UNL     1       2.307  14.333  13.041  1.00  0.00    -0.020 N 
ATOM      3  H11 UNL     1       1.443  14.091  13.526  1.00  0.00     0.282 HD
ATOM      4  H12 UNL     1       2.017  14.139  12.083  1.00  0.00     0.282 HD
HETATM    5  C3  UNL     1       2.628  15.735  13.216  1.00  0.00     0.239 C 
HETATM    6  C4  UNL     1       1.958  16.234  14.503  1.00  0.00     0.055 C 
HETATM    7  C5  UNL     1       0.601  16.804  14.211  1.00  0.00     0.234 C 
HETATM    8  N2  UNL     1      -0.492  15.932  14.560  1.00  0.00    -0.073 N 
ATOM      9  H21 UNL     1      -0.660  15.251  13.819  1.00  0.00     0.277 HD
ATOM     10  H22 UNL     1      -1.378  16.437  14.532  1.00  0.00     0.277 HD
HETATM   11  C6  UNL     1      -0.322  15.268  15.835  1.00  0.00     0.259 C 
HETATM   12  C7  UNL     1      -1.711  14.919  16.393  1.00  0.00     0.206 C 
HETATM   13  O2  UNL     1      -2.532  14.390  15.402  1.00  0.00    -0.323 OA
HETATM   14  C8  UNL     1      -3.461  13.396  15.461  1.00  0.00     0.227 C 
HETATM   15  N3  UNL     1      -4.832  13.687  15.190  1.00  0.00    -0.056 NA
HETATM   16  N4  UNL     1      -3.156  12.201  15.750  1.00  0.00    -0.357 N 
ATOM     17  H4  UNL     1      -3.946  11.557  15.760  1.00  0.00     0.162 HD
HETATM   18  C9  UNL     1      -1.908  11.602  16.061  1.00  0.00     0.150 C 
HETATM   19  C10 UNL     1      -1.033  11.410  14.829  1.00  0.00     0.252 C 
HETATM   20  N5  UNL     1      -1.782  10.768  13.772  1.00  0.00    -0.072 N 
ATOM     21  H51 UNL     1      -2.041  11.429  13.039  1.00  0.00     0.277 HD
ATOM     22  H52 UNL     1      -2.718  10.504  14.081  1.00  0.00     0.277 HD
HETATM   23  C11 UNL     1      -1.066   9.644  13.240  1.00  0.00     0.252 C 
HETATM   24  C12 UNL     1       0.058  10.144  12.360  1.00  0.00     0.150 C 
HETATM   25  N6  UNL     1       1.348   9.742  12.857  1.00  0.00    -0.378 N 
HETATM   26  C19 UNL     1       2.371  10.689  13.146  1.00  0.00     0.153 C 
HETATM   27  C20 UNL     1       2.432  11.809  12.125  1.00  0.00     0.298 C 
HETATM   28  N8  UNL     1       3.694  12.547  12.326  1.00  0.00     0.151 N 
ENDROOT
BRANCH  28  29
HETATM   29  C21 UNL     1       3.912  13.374  11.165  1.00  0.00     0.322 C 
BRANCH  29  30
HETATM   30  C22 UNL     1       3.042  12.996   9.974  1.00  0.00     0.085 C 
BRANCH  30  31
HETATM   31  N9  UNL     1       2.265  14.068   9.498  1.00  0.00    -0.399 N 
ATOM     32  H9  UNL     1       2.715  14.892   9.100  1.00  0.00     0.158 HD
BRANCH  31  33
HETATM   33  C23 UNL     1       0.858  13.994   9.574  1.00  0.00     0.138 C 
BRANCH  33  34
HETATM   34  C24 UNL     1       0.218  13.390   8.373  1.00  0.00     0.141 C 
BRANCH  34  35
HETATM   35  N10 UNL     1       0.933  13.448   7.154  1.00  0.00    -0.365 N 
HETATM   36  C25 UNL     1       0.727  12.609   6.203  1.00  0.00     0.197 C 
HETATM   37  N11 UNL     1      -0.242  11.596   6.370  1.00  0.00    -0.067 NA
HETATM   38  N12 UNL     1       1.475  12.716   5.007  1.00  0.00    -0.067 NA
ATOM     39  H10 UNL     1       1.634  14.178   7.027  1.00  0.00     0.161 HD
ENDBRANCH  34  35
ENDBRANCH  33  34
ENDBRANCH  31  33
ENDBRANCH  30  31
ENDBRANCH  29  30
ENDBRANCH  28  29
BRANCH   1  40
HETATM   40  O1  UNL     1       4.525  14.179  13.801  1.00  0.00    -0.342 OA
HETATM   41  C1  UNL     1       5.174  13.657  14.900  1.00  0.00     0.206 C 
ENDBRANCH   1  40
BRANCH  25  42
HETATM   42  C13 UNL     1       1.593   8.357  13.046  1.00  0.00     0.030 A 
HETATM   43  C14 UNL     1       2.713   7.953  13.759  1.00  0.00     0.031 A 
HETATM   44  C15 UNL     1       3.026   6.628  13.975  1.00  0.00     0.029 A 
HETATM   45  C16 UNL     1       2.181   5.690  13.454  1.00  0.00     0.046 A 
HETATM   46  N7  UNL     1       2.477   4.317  13.659  1.00  0.00    -0.102 NA
HETATM   47  C17 UNL     1       1.072   6.064  12.750  1.00  0.00     0.029 A 
HETATM   48  C18 UNL     1       0.776   7.383  12.544  1.00  0.00     0.031 A 
ENDBRANCH  25  42
TORSDOF 8
ENDMDL
MODEL 2
REMARK VINA RESULT: -7.534758110      3.309      6.917
REMARK  8 active torsions:
REMARK  status: ('A' for Active; 'I' for Inactive)
REMARK    1  A    between atoms: O1_2  and  C2_3 
REMARK    2  A    between atoms: N6_27  and  C13_28 
REMARK    3  A    between atoms: N8_37  and  C21_38 
REMARK    4  A    between atoms: C21_38  and  C22_39 
REMARK    5  A    between atoms: C22_39  and  N9_40 
REMARK    6  A    between atoms: N9_40  and  C23_42 
REMARK    7  A    between atoms: C23_42  and  C24_43 
REMARK    8  A    between atoms: C24_43  and  N10_44 
ROOT
HETATM    1  C2  UNL     1       2.131  10.698  13.535  1.00  0.00     0.561 C 
HETATM    2  N1  UNL     1       2.690  10.794  12.215  1.00  0.00    -0.020 N 
ATOM      3  H11 UNL     1       2.062  11.292  11.586  1.00  0.00     0.282 HD
ATOM      4  H12 UNL     1       2.698   9.884  11.754  1.00  0.00     0.282 HD
HETATM    5  C3  UNL     1       4.011  11.391  12.213  1.00  0.00     0.239 C 
HETATM    6  C4  UNL     1       3.884  12.857  11.781  1.00  0.00     0.055 C 
HETATM    7  C5  UNL     1       4.056  12.994  10.297  1.00  0.00     0.234 C 
HETATM    8  N2  UNL     1       2.824  13.184   9.575  1.00  0.00    -0.073 N 
ATOM      9  H21 UNL     1       2.366  12.289   9.402  1.00  0.00     0.277 HD
ATOM     10  H22 UNL     1       3.010  13.469   8.614  1.00  0.00     0.277 HD
HETATM   11  C6  UNL     1       1.912  14.108  10.215  1.00  0.00     0.259 C 
HETATM   12  C7  UNL     1       0.999  14.718   9.139  1.00  0.00     0.206 C 
HETATM   13  O2  UNL     1       0.545  13.745   8.255  1.00  0.00    -0.323 OA
HETATM   14  C8  UNL     1      -0.664  13.598   7.645  1.00  0.00     0.227 C 
HETATM   15  N3  UNL     1      -0.754  13.660   6.222  1.00  0.00    -0.056 NA
HETATM   16  N4  UNL     1      -1.732  13.405   8.298  1.00  0.00    -0.357 N 
ATOM     17  H4  UNL     1      -2.567  13.314   7.719  1.00  0.00     0.162 HD
HETATM   18  C9  UNL     1      -1.970  13.294   9.693  1.00  0.00     0.150 C 
HETATM   19  C10 UNL     1      -1.516  11.952  10.253  1.00  0.00     0.252 C 
HETATM   20  N5  UNL     1      -2.031  10.867   9.447  1.00  0.00    -0.072 N 
ATOM     21  H51 UNL     1      -1.305  10.458   8.860  1.00  0.00     0.277 HD
ATOM     22  H52 UNL     1      -2.653  11.207   8.713  1.00  0.00     0.277 HD
HETATM   23  C11 UNL     1      -2.671   9.876  10.264  1.00  0.00     0.252 C 
HETATM   24  C12 UNL     1      -1.614   9.061  10.975  1.00  0.00     0.150 C 
HETATM   25  N6  UNL     1      -1.713   9.183  12.406  1.00  0.00    -0.378 N 
HETATM   26  C19 UNL     1      -0.617   9.621  13.202  1.00  0.00     0.153 C 
HETATM   27  C20 UNL     1       0.707   9.054  12.729  1.00  0.00     0.298 C 
HETATM   28  N8  UNL     1       1.715   9.300  13.778  1.00  0.00     0.151 N 
ENDROOT
BRANCH  28  29
HETATM   29  C21 UNL     1       2.864   8.479  13.490  1.00  0.00     0.322 C 
BRANCH  29  30
HETATM   30  C22 UNL     1       3.565   7.951  14.735  1.00  0.00     0.085 C 
BRANCH  30  31
HETATM   31  N9  UNL     1       4.897   8.389  14.844  1.00  0.00    -0.399 N 
ATOM     32  H9  UNL     1       5.282   8.643  15.754  1.00  0.00     0.158 HD
BRANCH  31  33
HETATM   33  C23 UNL     1       5.698   8.474  13.685  1.00  0.00     0.138 C 
BRANCH  33  34
HETATM   34  C24 UNL     1       6.469   7.235  13.390  1.00  0.00     0.141 C 
BRANCH  34  35
HETATM   35  N10 UNL     1       7.129   7.159  12.142  1.00  0.00    -0.365 N 
HETATM   36  C25 UNL     1       7.706   6.082  11.741  1.00  0.00     0.197 C 
HETATM   37  N11 UNL     1       7.685   4.937  12.565  1.00  0.00    -0.067 NA
HETATM   38  N12 UNL     1       8.352   6.067  10.482  1.00  0.00    -0.067 NA
ATOM     39  H10 UNL     1       7.147   7.983  11.541  1.00  0.00     0.161 HD
ENDBRANCH  34  35
ENDBRANCH  33  34
ENDBRANCH  31  33
ENDBRANCH  30  31
ENDBRANCH  29  30
ENDBRANCH  28  29
BRANCH   1  40
HETATM   40  O1  UNL     1       3.032  11.101  14.520  1.00  0.00    -0.342 OA
HETATM   41  C1  UNL     1       2.425  11.488  15.696  1.00  0.00     0.206 C 
ENDBRANCH   1  40
BRANCH  25  42
HETATM   42  C13 UNL     1      -2.945   8.842  13.025  1.00  0.00     0.030 A 
HETATM   43  C14 UNL     1      -3.436   9.636  14.051  1.00  0.00     0.031 A 
HETATM   44  C15 UNL     1      -4.617   9.364  14.709  1.00  0.00     0.029 A 
HETATM   45  C16 UNL     1      -5.315   8.258  14.316  1.00  0.00     0.046 A 
HETATM   46  N7  UNL     1      -6.534   7.952  14.976  1.00  0.00    -0.102 NA
HETATM   47  C17 UNL     1      -4.851   7.462  13.307  1.00  0.00     0.029 A 
HETATM   48  C18 UNL     1      -3.678   7.746  12.664  1.00  0.00     0.031 A 
ENDBRANCH  25  42
TORSDOF 8
ENDMDL
MODEL 3
REMARK VINA RESULT: -7.432150436      1.586      2.154
REMARK  8 active torsions:
REMARK  status: ('A' for Active; 'I' for Inactive)
REMARK    1  A    between atoms: O1_2  and  C2_3 
REMARK    2  A    between atoms: N6_27  and  C13_28 
REMARK    3  A    between atoms: N8_37  and  C21_38 
REMARK    4  A    between atoms: C21_38  and  C22_39 
REMARK    5  A    between atoms: C22_39  and  N9_40 
REMARK    6  A    between atoms: N9_40  and  C23_42 
REMARK    7  A    between atoms: C23_42  and  C24_43 
REMARK    8  A    between atoms: C24_43  and  N10_44 
ROOT
HETATM    1  C2  UNL     1       1.898  13.439  12.025  1.00  0.00     0.561 C 
HETATM    2  N1  UNL     1       0.726  14.263  11.923  1.00  0.00    -0.020 N 
ATOM      3  H11 UNL     1       0.046  14.025  12.646  1.00  0.00     0.282 HD
ATOM      4  H12 UNL     1       0.178  14.021  11.097  1.00  0.00     0.282 HD
HETATM    5  C3  UNL     1       1.036  15.678  11.946  1.00  0.00     0.239 C 
HETATM    6  C4  UNL     1       0.749  16.220  13.352  1.00  0.00     0.055 C 
HETATM    7  C5  UNL     1      -0.653  16.747  13.445  1.00  0.00     0.234 C 
HETATM    8  N2  UNL     1      -1.569  15.869  14.127  1.00  0.00    -0.073 N 
ATOM      9  H21 UNL     1      -1.921  15.152  13.493  1.00  0.00     0.277 HD
ATOM     10  H22 UNL     1      -2.442  16.352  14.339  1.00  0.00     0.277 HD
HETATM   11  C6  UNL     1      -1.016  15.266  15.322  1.00  0.00     0.259 C 
HETATM   12  C7  UNL     1      -2.172  14.913  16.271  1.00  0.00     0.206 C 
HETATM   13  O2  UNL     1      -3.226  14.322  15.581  1.00  0.00    -0.323 OA
HETATM   14  C8  UNL     1      -4.065  13.312  15.942  1.00  0.00     0.227 C 
HETATM   15  N3  UNL     1      -5.465  13.562  16.069  1.00  0.00    -0.056 NA
HETATM   16  N4  UNL     1      -3.650  12.139  16.174  1.00  0.00    -0.357 N 
ATOM     17  H4  UNL     1      -4.381  11.478  16.436  1.00  0.00     0.162 HD
HETATM   18  C9  UNL     1      -2.345  11.581  16.132  1.00  0.00     0.150 C 
HETATM   19  C10 UNL     1      -1.857  11.353  14.707  1.00  0.00     0.252 C 
HETATM   20  N5  UNL     1      -2.857  10.648  13.937  1.00  0.00    -0.072 N 
ATOM     21  H51 UNL     1      -3.339  11.270  13.287  1.00  0.00     0.277 HD
ATOM     22  H52 UNL     1      -3.655  10.378  14.513  1.00  0.00     0.277 HD
HETATM   23  C11 UNL     1      -2.288   9.517  13.261  1.00  0.00     0.252 C 
HETATM   24  C12 UNL     1      -1.483  10.001  12.076  1.00  0.00     0.150 C 
HETATM   25  N6  UNL     1      -0.091   9.650  12.193  1.00  0.00    -0.378 N 
HETATM   26  C19 UNL     1       0.940  10.630  12.139  1.00  0.00     0.153 C 
HETATM   27  C20 UNL     1       0.665  11.705  11.104  1.00  0.00     0.298 C 
HETATM   28  N8  UNL     1       1.906  12.477  10.903  1.00  0.00     0.151 N 
ENDROOT
BRANCH  28  29
HETATM   29  C21 UNL     1       1.753  13.257   9.699  1.00  0.00     0.322 C 
BRANCH  29  30
HETATM   30  C22 UNL     1       0.778  12.649   8.699  1.00  0.00     0.085 C 
BRANCH  30  31
HETATM   31  N9  UNL     1       1.384  12.316   7.474  1.00  0.00    -0.399 N 
ATOM     32  H9  UNL     1       2.400  12.274   7.397  1.00  0.00     0.158 HD
BRANCH  31  33
HETATM   33  C23 UNL     1       0.574  12.040   6.351  1.00  0.00     0.138 C 
BRANCH  33  34
HETATM   34  C24 UNL     1      -0.861  12.389   6.540  1.00  0.00     0.141 C 
BRANCH  34  35
HETATM   35  N10 UNL     1      -1.823  11.436   6.132  1.00  0.00    -0.365 N 
HETATM   36  C25 UNL     1      -2.548  10.795   6.979  1.00  0.00     0.197 C 
HETATM   37  N11 UNL     1      -2.387  11.045   8.358  1.00  0.00    -0.067 NA
HETATM   38  N12 UNL     1      -3.493   9.852   6.512  1.00  0.00    -0.067 NA
ATOM     39  H10 UNL     1      -1.945  11.251   5.137  1.00  0.00     0.161 HD
ENDBRANCH  34  35
ENDBRANCH  33  34
ENDBRANCH  31  33
ENDBRANCH  30  31
ENDBRANCH  29  30
ENDBRANCH  28  29
BRANCH   1  40
HETATM   40  O1  UNL     1       3.072  14.192  12.013  1.00  0.00    -0.342 OA
HETATM   41  C1  UNL     1       4.007  13.766  12.933  1.00  0.00     0.206 C 
ENDBRANCH   1  40
BRANCH  25  42
HETATM   42  C13 UNL     1       0.244   8.280  12.354  1.00  0.00     0.030 A 
HETATM   43  C14 UNL     1       1.381   7.935  13.071  1.00  0.00     0.031 A 
HETATM   44  C15 UNL     1       1.779   6.629  13.262  1.00  0.00     0.029 A 
HETATM   45  C16 UNL     1       1.005   5.649  12.709  1.00  0.00     0.046 A 
HETATM   46  N7  UNL     1       1.392   4.295  12.886  1.00  0.00    -0.102 NA
HETATM   47  C17 UNL     1      -0.118   5.965  11.999  1.00  0.00     0.029 A 
HETATM   48  C18 UNL     1      -0.500   7.265  11.820  1.00  0.00     0.031 A 
ENDBRANCH  25  42
TORSDOF 8
ENDMDL
MODEL 4
REMARK VINA RESULT: -7.390907267      3.220      7.307
REMARK  8 active torsions:
REMARK  status: ('A' for Active; 'I' for Inactive)
REMARK    1  A    between atoms: O1_2  and  C2_3 
REMARK    2  A    between atoms: N6_27  and  C13_28 
REMARK    3  A    between atoms: N8_37  and  C21_38 
REMARK    4  A    between atoms: C21_38  and  C22_39 
REMARK    5  A    between atoms: C22_39  and  N9_40 
REMARK    6  A    between atoms: N9_40  and  C23_42 
REMARK    7  A    between atoms: C23_42  and  C24_43 
REMARK    8  A    between atoms: C24_43  and  N10_44 
ROOT
HETATM    1  C2  UNL     1       2.107  10.937  13.562  1.00  0.00     0.561 C 
HETATM    2  N1  UNL     1       2.693  11.019  12.252  1.00  0.00    -0.020 N 
ATOM      3  H11 UNL     1       2.054  11.464  11.593  1.00  0.00     0.282 HD
ATOM      4  H12 UNL     1       2.758  10.097  11.821  1.00  0.00     0.282 HD
HETATM    5  C3  UNL     1       3.981  11.683  12.259  1.00  0.00     0.239 C 
HETATM    6  C4  UNL     1       3.789  13.127  11.775  1.00  0.00     0.055 C 
HETATM    7  C5  UNL     1       3.990  13.224  10.291  1.00  0.00     0.234 C 
HETATM    8  N2  UNL     1       2.766  13.327   9.537  1.00  0.00    -0.073 N 
ATOM      9  H21 UNL     1       2.359  12.405   9.384  1.00  0.00     0.277 HD
ATOM     10  H22 UNL     1       2.960  13.590   8.571  1.00  0.00     0.277 HD
HETATM   11  C6  UNL     1       1.794  14.223  10.126  1.00  0.00     0.259 C 
HETATM   12  C7  UNL     1       0.877  14.750   9.010  1.00  0.00     0.206 C 
HETATM   13  O2  UNL     1       0.493  13.727   8.149  1.00  0.00    -0.323 OA
HETATM   14  C8  UNL     1      -0.691  13.499   7.518  1.00  0.00     0.227 C 
HETATM   15  N3  UNL     1      -0.751  13.510   6.092  1.00  0.00    -0.056 NA
HETATM   16  N4  UNL     1      -1.763  13.272   8.153  1.00  0.00    -0.357 N 
ATOM     17  H4  UNL     1      -2.579  13.119   7.561  1.00  0.00     0.162 HD
HETATM   18  C9  UNL     1      -2.029  13.194   9.546  1.00  0.00     0.150 C 
HETATM   19  C10 UNL     1      -1.520  11.896  10.160  1.00  0.00     0.252 C 
HETATM   20  N5  UNL     1      -1.961  10.760   9.381  1.00  0.00    -0.072 N 
ATOM     21  H51 UNL     1      -1.200  10.370   8.823  1.00  0.00     0.277 HD
ATOM     22  H52 UNL     1      -2.581  11.043   8.622  1.00  0.00     0.277 HD
HETATM   23  C11 UNL     1      -2.568   9.764  10.216  1.00  0.00     0.252 C 
HETATM   24  C12 UNL     1      -1.488   9.028  10.976  1.00  0.00     0.150 C 
HETATM   25  N6  UNL     1      -1.627   9.191  12.400  1.00  0.00    -0.378 N 
HETATM   26  C19 UNL     1      -0.573   9.710  13.205  1.00  0.00     0.153 C 
HETATM   27  C20 UNL     1       0.789   9.197  12.779  1.00  0.00     0.298 C 
HETATM   28  N8  UNL     1       1.757   9.529  13.842  1.00  0.00     0.151 N 
ENDROOT
BRANCH  28  29
HETATM   29  C21 UNL     1       2.954   8.759  13.606  1.00  0.00     0.322 C 
BRANCH  29  30
HETATM   30  C22 UNL     1       2.788   7.272  13.890  1.00  0.00     0.085 C 
BRANCH  30  31
HETATM   31  N9  UNL     1       3.899   6.708  14.542  1.00  0.00    -0.399 N 
ATOM     32  H9  UNL     1       3.933   6.672  15.561  1.00  0.00     0.158 HD
BRANCH  31  33
HETATM   33  C23 UNL     1       4.968   6.194  13.776  1.00  0.00     0.138 C 
BRANCH  33  34
HETATM   34  C24 UNL     1       6.250   6.927  13.958  1.00  0.00     0.141 C 
BRANCH  34  35
HETATM   35  N10 UNL     1       7.017   6.626  15.108  1.00  0.00    -0.365 N 
HETATM   36  C25 UNL     1       6.991   7.368  16.157  1.00  0.00     0.197 C 
HETATM   37  N11 UNL     1       6.176   8.520  16.171  1.00  0.00    -0.067 NA
HETATM   38  N12 UNL     1       7.782   7.018  17.276  1.00  0.00    -0.067 NA
ATOM     39  H10 UNL     1       7.608   5.795  15.104  1.00  0.00     0.161 HD
ENDBRANCH  34  35
ENDBRANCH  33  34
ENDBRANCH  31  33
ENDBRANCH  30  31
ENDBRANCH  29  30
ENDBRANCH  28  29
BRANCH   1  40
HETATM   40  O1  UNL     1       2.964  11.418  14.551  1.00  0.00    -0.342 OA
HETATM   41  C1  UNL     1       2.321  12.158  15.522  1.00  0.00     0.206 C 
ENDBRANCH   1  40
BRANCH  25  42
HETATM   42  C13 UNL     1      -2.854   8.807  13.003  1.00  0.00     0.030 A 
HETATM   43  C14 UNL     1      -3.369   9.564  14.045  1.00  0.00     0.031 A 
HETATM   44  C15 UNL     1      -4.546   9.249  14.689  1.00  0.00     0.029 A 
HETATM   45  C16 UNL     1      -5.217   8.138  14.264  1.00  0.00     0.046 A 
HETATM   46  N7  UNL     1      -6.432   7.788  14.910  1.00  0.00    -0.102 NA
HETATM   47  C17 UNL     1      -4.729   7.378  13.240  1.00  0.00     0.029 A 
HETATM   48  C18 UNL     1      -3.559   7.704  12.611  1.00  0.00     0.031 A 
ENDBRANCH  25  42
TORSDOF 8
ENDMDL
MODEL 5
REMARK VINA RESULT: -7.319452396      1.218      2.032
REMARK  8 active torsions:
REMARK  status: ('A' for Active; 'I' for Inactive)
REMARK    1  A    between atoms: O1_2  and  C2_3 
REMARK    2  A    between atoms: N6_27  and  C13_28 
REMARK    3  A    between atoms: N8_37  and  C21_38 
REMARK    4  A    between atoms: C21_38  and  C22_39 
REMARK    5  A    between atoms: C22_39  and  N9_40 
REMARK    6  A    between atoms: N9_40  and  C23_42 
REMARK    7  A    between atoms: C23_42  and  C24_43 
REMARK    8  A    between atoms: C24_43  and  N10_44 
ROOT
HETATM    1  C2  UNL     1       3.204  13.457  13.309  1.00  0.00     0.561 C 
HETATM    2  N1  UNL     1       2.122  14.327  12.935  1.00  0.00    -0.020 N 
ATOM      3  H11 UNL     1       1.268  14.084  13.436  1.00  0.00     0.282 HD
ATOM      4  H12 UNL     1       1.813  14.138  11.982  1.00  0.00     0.282 HD
HETATM    5  C3  UNL     1       2.449  15.728  13.110  1.00  0.00     0.239 C 
HETATM    6  C4  UNL     1       1.806  16.222  14.412  1.00  0.00     0.055 C 
HETATM    7  C5  UNL     1       0.444  16.795  14.150  1.00  0.00     0.234 C 
HETATM    8  N2  UNL     1      -0.643  15.924  14.517  1.00  0.00    -0.073 N 
ATOM      9  H21 UNL     1      -0.827  15.246  13.778  1.00  0.00     0.277 HD
ATOM     10  H22 UNL     1      -1.529  16.429  14.509  1.00  0.00     0.277 HD
HETATM   11  C6  UNL     1      -0.448  15.254  15.786  1.00  0.00     0.259 C 
HETATM   12  C7  UNL     1      -1.826  14.904  16.371  1.00  0.00     0.206 C 
HETATM   13  O2  UNL     1      -2.668  14.380  15.394  1.00  0.00    -0.323 OA
HETATM   14  C8  UNL     1      -3.597  13.387  15.467  1.00  0.00     0.227 C 
HETATM   15  N3  UNL     1      -4.973  13.682  15.226  1.00  0.00    -0.056 NA
HETATM   16  N4  UNL     1      -3.288  12.191  15.745  1.00  0.00    -0.357 N 
ATOM     17  H4  UNL     1      -4.079  11.548  15.768  1.00  0.00     0.162 HD
HETATM   18  C9  UNL     1      -2.034  11.589  16.028  1.00  0.00     0.150 C 
HETATM   19  C10 UNL     1      -1.185  11.401  14.778  1.00  0.00     0.252 C 
HETATM   20  N5  UNL     1      -1.957  10.765  13.733  1.00  0.00    -0.072 N 
ATOM     21  H51 UNL     1      -2.229  11.430  13.009  1.00  0.00     0.277 HD
ATOM     22  H52 UNL     1      -2.886  10.501  14.060  1.00  0.00     0.277 HD
HETATM   23  C11 UNL     1      -1.253   9.642  13.182  1.00  0.00     0.252 C 
HETATM   24  C12 UNL     1      -0.146  10.144  12.281  1.00  0.00     0.150 C 
HETATM   25  N6  UNL     1       1.153   9.739  12.750  1.00  0.00    -0.378 N 
HETATM   26  C19 UNL     1       2.184  10.683  13.023  1.00  0.00     0.153 C 
HETATM   27  C20 UNL     1       2.225  11.807  12.006  1.00  0.00     0.298 C 
HETATM   28  N8  UNL     1       3.492  12.542  12.185  1.00  0.00     0.151 N 
ENDROOT
BRANCH  28  29
HETATM   29  C21 UNL     1       3.688  13.375  11.023  1.00  0.00     0.322 C 
BRANCH  29  30
HETATM   30  C22 UNL     1       2.872  12.937   9.814  1.00  0.00     0.085 C 
BRANCH  30  31
HETATM   31  N9  UNL     1       2.002  13.939   9.346  1.00  0.00    -0.399 N 
ATOM     32  H9  UNL     1       2.337  14.895   9.224  1.00  0.00     0.158 HD
BRANCH  31  33
HETATM   33  C23 UNL     1       0.663  13.611   9.045  1.00  0.00     0.138 C 
BRANCH  33  34
HETATM   34  C24 UNL     1      -0.340  14.425   9.785  1.00  0.00     0.141 C 
BRANCH  34  35
HETATM   35  N10 UNL     1      -1.540  13.786  10.174  1.00  0.00    -0.365 N 
HETATM   36  C25 UNL     1      -1.779  13.472  11.397  1.00  0.00     0.197 C 
HETATM   37  N11 UNL     1      -0.821  13.771  12.389  1.00  0.00    -0.067 NA
HETATM   38  N12 UNL     1      -2.997  12.832  11.726  1.00  0.00    -0.067 NA
ATOM     39  H10 UNL     1      -2.237  13.568   9.462  1.00  0.00     0.161 HD
ENDBRANCH  34  35
ENDBRANCH  33  34
ENDBRANCH  31  33
ENDBRANCH  30  31
ENDBRANCH  29  30
ENDBRANCH  28  29
BRANCH   1  40
HETATM   40  O1  UNL     1       4.355  14.167  13.649  1.00  0.00    -0.342 OA
HETATM   41  C1  UNL     1       4.987  13.681  14.774  1.00  0.00     0.206 C 
ENDBRANCH   1  40
BRANCH  25  42
HETATM   42  C13 UNL     1       1.400   8.352  12.929  1.00  0.00     0.030 A 
HETATM   43  C14 UNL     1       2.518   7.944  13.643  1.00  0.00     0.031 A 
HETATM   44  C15 UNL     1       2.832   6.617  13.849  1.00  0.00     0.029 A 
HETATM   45  C16 UNL     1       1.991   5.682  13.316  1.00  0.00     0.046 A 
HETATM   46  N7  UNL     1       2.289   4.309  13.510  1.00  0.00    -0.102 NA
HETATM   47  C17 UNL     1       0.885   6.061  12.610  1.00  0.00     0.029 A 
HETATM   48  C18 UNL     1       0.587   7.381  12.415  1.00  0.00     0.031 A 
ENDBRANCH  25  42
TORSDOF 8
ENDMDL
