MODEL 1
REMARK VINA RESULT: -5.917335992      0.000      0.000
REMARK  8 active torsions:
REMARK  status: ('A' for Active; 'I' for Inactive)
REMARK    1  A    between atoms: C2_2  and  O1_3 
REMARK    2  A    between atoms: O1_3  and  C3_4 
REMARK    3  A    between atoms: C8_9  and  O2_10 
REMARK    4  A    between atoms: C10_13  and  O3_14 
REMARK    5  A    between atoms: C13_18  and  C14_19 
REMARK    6  A    between atoms: C18_23  and  O5_24 
REMARK    7  A    between atoms: C19_26  and  O6_27 
REMARK    8  A    between atoms: C20_29  and  O7_30 
ROOT
HETATM    1  C3  UNL     1      21.505  44.580  19.473  1.00  0.00     0.054 C 
HETATM    2  C4  UNL     1      20.392  44.067  18.730  1.00  0.00     0.029 C 
HETATM    3  C5  UNL     1      19.080  44.229  18.884  1.00  0.00    -0.017 C 
HETATM    4  C6  UNL     1      18.453  45.050  19.956  1.00  0.00     0.033 C 
HETATM    5  C7  UNL     1      17.182  44.312  20.417  1.00  0.00     0.017 C 
HETATM    6  C8  UNL     1      18.171  46.486  19.586  1.00  0.00     0.128 C 
HETATM    7  C9  UNL     1      18.575  47.499  20.587  1.00  0.00     0.067 C 
HETATM    8  C10 UNL     1      19.805  48.359  20.265  1.00  0.00     0.153 C 
HETATM    9  C12 UNL     1      20.893  47.580  19.775  1.00  0.00     0.167 C 
HETATM   10  O4  UNL     1      21.783  48.092  18.796  1.00  0.00    -0.370 OA
HETATM   11  C13 UNL     1      22.289  46.824  18.339  1.00  0.00     0.077 C 
HETATM   12  C17 UNL     1      23.817  47.302  18.397  1.00  0.00     0.074 C 
HETATM   13  C18 UNL     1      24.147  47.633  19.798  1.00  0.00     0.159 C 
HETATM   14  C19 UNL     1      23.115  47.613  20.813  1.00  0.00     0.126 C 
HETATM   15  C20 UNL     1      23.390  46.589  21.926  1.00  0.00     0.196 C 
HETATM   16  C22 UNL     1      21.854  46.398  21.873  1.00  0.00     0.125 A 
HETATM   17  C23 UNL     1      21.246  45.778  22.905  1.00  0.00     0.211 A 
HETATM   18  O8  UNL     1      21.239  47.146  22.863  1.00  0.00    -0.371 OA
HETATM   19  C24 UNL     1      21.859  46.819  20.537  1.00  0.00     0.072 C 
HETATM   20  C25 UNL     1      22.207  45.829  19.377  1.00  0.00     0.095 C 
ENDROOT
BRANCH   1  21
HETATM   21  O1  UNL     1      22.449  43.493  19.480  1.00  0.00    -0.355 OA
BRANCH  21  22
HETATM   22  C2  UNL     1      22.117  42.492  20.344  1.00  0.00     0.170 C 
HETATM   23  C1  UNL     1      22.751  42.627  21.710  1.00  0.00     0.034 C 
ENDBRANCH  21  22
ENDBRANCH   1  21
BRANCH  11  24
HETATM   24  C14 UNL     1      22.114  46.607  16.901  1.00  0.00     0.013 C 
HETATM   25  C15 UNL     1      20.741  46.893  16.362  1.00  0.00     0.012 C 
HETATM   26  C16 UNL     1      23.044  47.441  15.999  1.00  0.00     0.012 C 
ENDBRANCH  11  24
BRANCH  14  27
HETATM   27  O6  UNL     1      22.905  48.840  21.444  1.00  0.00    -0.383 OA
ATOM     28  H6  UNL     1      22.098  48.892  21.942  1.00  0.00     0.210 HD
ENDBRANCH  14  27
BRANCH   6  29
HETATM   29  O2  UNL     1      16.741  46.555  19.543  1.00  0.00    -0.395 OA
ATOM     30  H2  UNL     1      16.528  47.246  20.160  1.00  0.00     0.210 HD
ENDBRANCH   6  29
BRANCH  13  31
HETATM   31  O5  UNL     1      25.258  46.870  20.251  1.00  0.00    -0.392 OA
ATOM     32  H5  UNL     1      25.629  46.358  19.542  1.00  0.00     0.210 HD
ENDBRANCH  13  31
BRANCH   8  33
HETATM   33  O3  UNL     1      19.964  49.210  21.325  1.00  0.00    -0.388 OA
HETATM   34  C11 UNL     1      18.806  49.487  22.025  1.00  0.00     0.202 C 
ENDBRANCH   8  33
BRANCH  15  35
HETATM   35  O7  UNL     1      23.835  47.117  23.109  1.00  0.00    -0.384 OA
HETATM   36  C21 UNL     1      25.009  46.622  23.595  1.00  0.00     0.202 C 
ENDBRANCH  15  35
TORSDOF 8
ENDMDL
MODEL 2
REMARK VINA RESULT: -5.881686217      1.735      4.875
REMARK  8 active torsions:
REMARK  status: ('A' for Active; 'I' for Inactive)
REMARK    1  A    between atoms: C2_2  and  O1_3 
REMARK    2  A    between atoms: O1_3  and  C3_4 
REMARK    3  A    between atoms: C8_9  and  O2_10 
REMARK    4  A    between atoms: C10_13  and  O3_14 
REMARK    5  A    between atoms: C13_18  and  C14_19 
REMARK    6  A    between atoms: C18_23  and  O5_24 
REMARK    7  A    between atoms: C19_26  and  O6_27 
REMARK    8  A    between atoms: C20_29  and  O7_30 
ROOT
HETATM    1  C3  UNL     1      20.744  44.587  18.579  1.00  0.00     0.054 C 
HETATM    2  C4  UNL     1      20.882  43.222  18.993  1.00  0.00     0.029 C 
HETATM    3  C5  UNL     1      21.619  42.662  19.950  1.00  0.00    -0.017 C 
HETATM    4  C6  UNL     1      22.527  43.411  20.861  1.00  0.00     0.033 C 
HETATM    5  C7  UNL     1      23.779  42.540  21.079  1.00  0.00     0.017 C 
HETATM    6  C8  UNL     1      21.911  43.853  22.165  1.00  0.00     0.128 C 
HETATM    7  C9  UNL     1      22.177  45.254  22.561  1.00  0.00     0.067 C 
HETATM    8  C10 UNL     1      21.018  46.254  22.446  1.00  0.00     0.153 C 
HETATM    9  C12 UNL     1      20.326  46.135  21.205  1.00  0.00     0.167 C 
HETATM   10  O4  UNL     1      18.927  46.353  21.119  1.00  0.00    -0.370 OA
HETATM   11  C13 UNL     1      18.715  45.645  19.884  1.00  0.00     0.077 C 
HETATM   12  C17 UNL     1      17.831  46.819  19.247  1.00  0.00     0.074 C 
HETATM   13  C18 UNL     1      18.675  48.025  19.133  1.00  0.00     0.159 C 
HETATM   14  C19 UNL     1      20.016  48.030  19.678  1.00  0.00     0.126 C 
HETATM   15  C20 UNL     1      21.097  48.259  18.609  1.00  0.00     0.196 C 
HETATM   16  C22 UNL     1      21.896  47.247  19.466  1.00  0.00     0.125 A 
HETATM   17  C23 UNL     1      23.229  47.158  19.284  1.00  0.00     0.211 A 
HETATM   18  O8  UNL     1      22.757  47.912  20.323  1.00  0.00    -0.371 OA
HETATM   19  C24 UNL     1      20.690  46.699  19.924  1.00  0.00     0.072 C 
HETATM   20  C25 UNL     1      19.907  45.643  19.076  1.00  0.00     0.095 C 
ENDROOT
BRANCH   1  21
HETATM   21  O1  UNL     1      20.622  44.505  17.148  1.00  0.00    -0.355 OA
BRANCH  21  22
HETATM   22  C2  UNL     1      19.362  44.194  16.728  1.00  0.00     0.170 C 
HETATM   23  C1  UNL     1      18.721  45.264  15.874  1.00  0.00     0.034 C 
ENDBRANCH  21  22
ENDBRANCH   1  21
BRANCH  11  24
HETATM   24  C14 UNL     1      17.726  44.569  19.987  1.00  0.00     0.013 C 
HETATM   25  C15 UNL     1      17.390  44.125  21.383  1.00  0.00     0.012 C 
HETATM   26  C16 UNL     1      16.353  44.885  19.362  1.00  0.00     0.012 C 
ENDBRANCH  11  24
BRANCH  14  27
HETATM   27  O6  UNL     1      20.230  48.987  20.672  1.00  0.00    -0.383 OA
ATOM     28  H6  UNL     1      21.143  49.117  20.900  1.00  0.00     0.210 HD
ENDBRANCH  14  27
BRANCH   6  29
HETATM   29  O2  UNL     1      22.580  43.056  23.149  1.00  0.00    -0.395 OA
ATOM     30  H2  UNL     1      22.194  43.337  23.971  1.00  0.00     0.210 HD
ENDBRANCH   6  29
BRANCH  13  31
HETATM   31  O5  UNL     1      18.720  48.488  17.789  1.00  0.00    -0.392 OA
ATOM     32  H5  UNL     1      19.481  49.038  17.646  1.00  0.00     0.210 HD
ENDBRANCH  13  31
BRANCH   8  33
HETATM   33  O3  UNL     1      21.508  47.458  22.871  1.00  0.00    -0.388 OA
HETATM   34  C11 UNL     1      22.716  47.390  23.536  1.00  0.00     0.202 C 
ENDBRANCH   8  33
BRANCH  15  35
HETATM   35  O7  UNL     1      21.644  49.514  18.592  1.00  0.00    -0.384 OA
HETATM   36  C21 UNL     1      22.129  49.953  17.396  1.00  0.00     0.202 C 
ENDBRANCH  15  35
TORSDOF 8
ENDMDL
MODEL 3
REMARK VINA RESULT: -5.877817881      1.799      2.799
REMARK  8 active torsions:
REMARK  status: ('A' for Active; 'I' for Inactive)
REMARK    1  A    between atoms: C2_2  and  O1_3 
REMARK    2  A    between atoms: O1_3  and  C3_4 
REMARK    3  A    between atoms: C8_9  and  O2_10 
REMARK    4  A    between atoms: C10_13  and  O3_14 
REMARK    5  A    between atoms: C13_18  and  C14_19 
REMARK    6  A    between atoms: C18_23  and  O5_24 
REMARK    7  A    between atoms: C19_26  and  O6_27 
REMARK    8  A    between atoms: C20_29  and  O7_30 
ROOT
HETATM    1  C3  UNL     1      23.149  45.359  19.334  1.00  0.00     0.054 C 
HETATM    2  C4  UNL     1      23.148  44.827  18.003  1.00  0.00     0.029 C 
HETATM    3  C5  UNL     1      22.218  44.166  17.319  1.00  0.00    -0.017 C 
HETATM    4  C6  UNL     1      20.871  43.817  17.849  1.00  0.00     0.033 C 
HETATM    5  C7  UNL     1      20.518  42.414  17.320  1.00  0.00     0.017 C 
HETATM    6  C8  UNL     1      19.784  44.823  17.559  1.00  0.00     0.128 C 
HETATM    7  C9  UNL     1      18.915  45.180  18.702  1.00  0.00     0.067 C 
HETATM    8  C10 UNL     1      19.106  46.569  19.328  1.00  0.00     0.153 C 
HETATM    9  C12 UNL     1      20.481  46.879  19.540  1.00  0.00     0.167 C 
HETATM   10  O4  UNL     1      20.965  48.205  19.405  1.00  0.00    -0.370 OA
HETATM   11  C13 UNL     1      22.353  47.867  19.220  1.00  0.00     0.077 C 
HETATM   12  C17 UNL     1      22.861  48.956  20.278  1.00  0.00     0.074 C 
HETATM   13  C18 UNL     1      22.310  48.608  21.603  1.00  0.00     0.159 C 
HETATM   14  C19 UNL     1      21.369  47.516  21.736  1.00  0.00     0.126 C 
HETATM   15  C20 UNL     1      21.885  46.387  22.644  1.00  0.00     0.196 C 
HETATM   16  C22 UNL     1      21.159  45.483  21.617  1.00  0.00     0.125 A 
HETATM   17  C23 UNL     1      20.897  44.204  21.956  1.00  0.00     0.211 A 
HETATM   18  O8  UNL     1      19.902  45.135  22.083  1.00  0.00    -0.371 OA
HETATM   19  C24 UNL     1      21.327  46.474  20.641  1.00  0.00     0.072 C 
HETATM   20  C25 UNL     1      22.668  46.611  19.848  1.00  0.00     0.095 C 
ENDROOT
BRANCH   1  21
HETATM   21  O1  UNL     1      24.489  45.125  19.801  1.00  0.00    -0.355 OA
BRANCH  21  22
HETATM   22  C2  UNL     1      24.574  44.130  20.730  1.00  0.00     0.170 C 
HETATM   23  C1  UNL     1      25.066  44.595  22.082  1.00  0.00     0.034 C 
ENDBRANCH  21  22
ENDBRANCH   1  21
BRANCH  11  24
HETATM   24  C14 UNL     1      22.923  48.392  17.977  1.00  0.00     0.013 C 
HETATM   25  C15 UNL     1      22.412  49.738  17.543  1.00  0.00     0.012 C 
HETATM   26  C16 UNL     1      24.454  48.567  17.985  1.00  0.00     0.012 C 
ENDBRANCH  11  24
BRANCH  14  27
HETATM   27  O6  UNL     1      20.120  47.890  22.237  1.00  0.00    -0.383 OA
ATOM     28  H6  UNL     1      19.459  48.036  21.571  1.00  0.00     0.210 HD
ENDBRANCH  14  27
BRANCH   6  29
HETATM   29  O2  UNL     1      18.924  44.142  16.637  1.00  0.00    -0.395 OA
ATOM     30  H2  UNL     1      18.106  44.052  17.113  1.00  0.00     0.210 HD
ENDBRANCH   6  29
BRANCH  13  31
HETATM   31  O5  UNL     1      23.350  48.441  22.558  1.00  0.00    -0.392 OA
ATOM     32  H5  UNL     1      24.203  48.540  22.150  1.00  0.00     0.210 HD
ENDBRANCH  13  31
BRANCH   8  33
HETATM   33  O3  UNL     1      18.195  46.658  20.345  1.00  0.00    -0.388 OA
HETATM   34  C11 UNL     1      17.107  45.816  20.224  1.00  0.00     0.202 C 
ENDBRANCH   8  33
BRANCH  15  35
HETATM   35  O7  UNL     1      21.332  46.347  23.896  1.00  0.00    -0.384 OA
HETATM   36  C21 UNL     1      22.189  46.131  24.934  1.00  0.00     0.202 C 
ENDBRANCH  15  35
TORSDOF 8
ENDMDL
MODEL 4
REMARK VINA RESULT: -5.861446332      1.887      4.664
REMARK  8 active torsions:
REMARK  status: ('A' for Active; 'I' for Inactive)
REMARK    1  A    between atoms: C2_2  and  O1_3 
REMARK    2  A    between atoms: O1_3  and  C3_4 
REMARK    3  A    between atoms: C8_9  and  O2_10 
REMARK    4  A    between atoms: C10_13  and  O3_14 
REMARK    5  A    between atoms: C13_18  and  C14_19 
REMARK    6  A    between atoms: C18_23  and  O5_24 
REMARK    7  A    between atoms: C19_26  and  O6_27 
REMARK    8  A    between atoms: C20_29  and  O7_30 
ROOT
HETATM    1  C3  UNL     1      21.671  44.675  19.235  1.00  0.00     0.054 C 
HETATM    2  C4  UNL     1      21.538  43.251  19.329  1.00  0.00     0.029 C 
HETATM    3  C5  UNL     1      22.133  42.361  20.120  1.00  0.00    -0.017 C 
HETATM    4  C6  UNL     1      23.145  42.701  21.157  1.00  0.00     0.033 C 
HETATM    5  C7  UNL     1      24.205  41.582  21.148  1.00  0.00     0.017 C 
HETATM    6  C8  UNL     1      22.594  42.948  22.540  1.00  0.00     0.128 C 
HETATM    7  C9  UNL     1      23.111  44.147  23.235  1.00  0.00     0.067 C 
HETATM    8  C10 UNL     1      22.165  45.348  23.371  1.00  0.00     0.153 C 
HETATM    9  C12 UNL     1      21.492  45.644  22.150  1.00  0.00     0.167 C 
HETATM   10  O4  UNL     1      20.162  46.137  22.144  1.00  0.00    -0.370 OA
HETATM   11  C13 UNL     1      19.848  45.778  20.785  1.00  0.00     0.077 C 
HETATM   12  C17 UNL     1      19.217  47.210  20.447  1.00  0.00     0.074 C 
HETATM   13  C18 UNL     1      20.277  48.229  20.590  1.00  0.00     0.159 C 
HETATM   14  C19 UNL     1      21.581  47.857  21.095  1.00  0.00     0.126 C 
HETATM   15  C20 UNL     1      22.711  48.111  20.082  1.00  0.00     0.196 C 
HETATM   16  C22 UNL     1      23.283  46.800  20.674  1.00  0.00     0.125 A 
HETATM   17  C23 UNL     1      24.580  46.503  20.449  1.00  0.00     0.211 A 
HETATM   18  O8  UNL     1      24.235  47.080  21.641  1.00  0.00    -0.371 OA
HETATM   19  C24 UNL     1      21.986  46.402  21.021  1.00  0.00     0.072 C 
HETATM   20  C25 UNL     1      21.037  45.731  19.974  1.00  0.00     0.095 C 
ENDROOT
BRANCH   1  21
HETATM   21  O1  UNL     1      21.568  44.941  17.825  1.00  0.00    -0.355 OA
BRANCH  21  22
HETATM   22  C2  UNL     1      20.658  44.150  17.188  1.00  0.00     0.170 C 
HETATM   23  C1  UNL     1      19.587  44.920  16.451  1.00  0.00     0.034 C 
ENDBRANCH  21  22
ENDBRANCH   1  21
BRANCH  11  24
HETATM   24  C14 UNL     1      18.671  44.914  20.665  1.00  0.00     0.013 C 
HETATM   25  C15 UNL     1      17.821  44.795  21.899  1.00  0.00     0.012 C 
HETATM   26  C16 UNL     1      17.671  45.326  19.568  1.00  0.00     0.012 C 
ENDBRANCH  11  24
BRANCH  14  27
HETATM   27  O6  UNL     1      21.950  48.508  22.274  1.00  0.00    -0.383 OA
ATOM     28  H6  UNL     1      22.019  47.939  23.030  1.00  0.00     0.210 HD
ENDBRANCH  14  27
BRANCH   6  29
HETATM   29  O2  UNL     1      23.077  41.837  23.306  1.00  0.00    -0.395 OA
ATOM     30  H2  UNL     1      22.892  41.085  22.757  1.00  0.00     0.210 HD
ENDBRANCH   6  29
BRANCH  13  31
HETATM   31  O5  UNL     1      20.440  48.964  19.384  1.00  0.00    -0.392 OA
ATOM     32  H5  UNL     1      21.347  48.955  19.101  1.00  0.00     0.210 HD
ENDBRANCH  13  31
BRANCH   8  33
HETATM   33  O3  UNL     1      22.864  46.311  24.046  1.00  0.00    -0.388 OA
HETATM   34  C11 UNL     1      22.327  46.670  25.266  1.00  0.00     0.202 C 
ENDBRANCH   8  33
BRANCH  15  35
HETATM   35  O7  UNL     1      23.486  49.211  20.337  1.00  0.00    -0.384 OA
HETATM   36  C21 UNL     1      23.965  49.885  19.253  1.00  0.00     0.202 C 
ENDBRANCH  15  35
TORSDOF 8
ENDMDL
MODEL 5
REMARK VINA RESULT: -5.766036691      1.828      5.683
REMARK  8 active torsions:
REMARK  status: ('A' for Active; 'I' for Inactive)
REMARK    1  A    between atoms: C2_2  and  O1_3 
REMARK    2  A    between atoms: O1_3  and  C3_4 
REMARK    3  A    between atoms: C8_9  and  O2_10 
REMARK    4  A    between atoms: C10_13  and  O3_14 
REMARK    5  A    between atoms: C13_18  and  C14_19 
REMARK    6  A    between atoms: C18_23  and  O5_24 
REMARK    7  A    between atoms: C19_26  and  O6_27 
REMARK    8  A    between atoms: C20_29  and  O7_30 
ROOT
HETATM    1  C3  UNL     1      23.330  45.515  19.435  1.00  0.00     0.054 C 
HETATM    2  C4  UNL     1      24.738  45.280  19.564  1.00  0.00     0.029 C 
HETATM    3  C5  UNL     1      25.616  45.678  20.482  1.00  0.00    -0.017 C 
HETATM    4  C6  UNL     1      25.279  46.520  21.662  1.00  0.00     0.033 C 
HETATM    5  C7  UNL     1      26.451  47.494  21.881  1.00  0.00     0.017 C 
HETATM    6  C8  UNL     1      24.931  45.760  22.919  1.00  0.00     0.128 C 
HETATM    7  C9  UNL     1      23.727  46.226  23.640  1.00  0.00     0.067 C 
HETATM    8  C10 UNL     1      22.471  45.346  23.562  1.00  0.00     0.153 C 
HETATM    9  C12 UNL     1      22.203  44.908  22.233  1.00  0.00     0.167 C 
HETATM   10  O4  UNL     1      21.640  43.631  21.978  1.00  0.00    -0.370 OA
HETATM   11  C13 UNL     1      22.052  43.529  20.603  1.00  0.00     0.077 C 
HETATM   12  C17 UNL     1      20.607  43.054  20.102  1.00  0.00     0.074 C 
HETATM   13  C18 UNL     1      19.641  44.135  20.381  1.00  0.00     0.159 C 
HETATM   14  C19 UNL     1      20.056  45.310  21.117  1.00  0.00     0.126 C 
HETATM   15  C20 UNL     1      19.915  46.608  20.303  1.00  0.00     0.196 C 
HETATM   16  C22 UNL     1      21.223  46.990  21.038  1.00  0.00     0.125 A 
HETATM   17  C23 UNL     1      21.600  48.285  21.050  1.00  0.00     0.211 A 
HETATM   18  O8  UNL     1      20.945  47.781  22.141  1.00  0.00    -0.371 OA
HETATM   19  C24 UNL     1      21.532  45.631  21.174  1.00  0.00     0.072 C 
HETATM   20  C25 UNL     1      22.204  44.832  20.009  1.00  0.00     0.095 C 
ENDROOT
BRANCH   1  21
HETATM   21  O1  UNL     1      23.132  45.668  18.018  1.00  0.00    -0.355 OA
BRANCH  21  22
HETATM   22  C2  UNL     1      23.164  46.966  17.603  1.00  0.00     0.170 C 
HETATM   23  C1  UNL     1      21.808  47.526  17.237  1.00  0.00     0.034 C 
ENDBRANCH  21  22
ENDBRANCH   1  21
BRANCH  11  24
HETATM   24  C14 UNL     1      22.856  42.338  20.319  1.00  0.00     0.013 C 
HETATM   25  C15 UNL     1      24.038  42.120  21.221  1.00  0.00     0.012 C 
HETATM   26  C16 UNL     1      22.090  41.003  20.389  1.00  0.00     0.012 C 
ENDBRANCH  11  24
BRANCH  14  27
HETATM   27  O6  UNL     1      19.365  45.515  22.313  1.00  0.00    -0.383 OA
ATOM     28  H6  UNL     1      19.779  45.128  23.075  1.00  0.00     0.210 HD
ENDBRANCH  14  27
BRANCH   6  29
HETATM   29  O2  UNL     1      26.024  46.038  23.801  1.00  0.00    -0.395 OA
ATOM     30  H2  UNL     1      25.795  45.577  24.600  1.00  0.00     0.210 HD
ENDBRANCH   6  29
BRANCH  13  31
HETATM   31  O5  UNL     1      18.978  44.544  19.191  1.00  0.00    -0.392 OA
ATOM     32  H5  UNL     1      19.605  44.821  18.533  1.00  0.00     0.210 HD
ENDBRANCH  13  31
BRANCH   8  33
HETATM   33  O3  UNL     1      21.513  45.980  24.306  1.00  0.00    -0.388 OA
HETATM   34  C11 UNL     1      21.998  46.715  25.371  1.00  0.00     0.202 C 
ENDBRANCH   8  33
BRANCH  15  35
HETATM   35  O7  UNL     1      18.847  47.395  20.640  1.00  0.00    -0.384 OA
HETATM   36  C21 UNL     1      18.175  47.986  19.611  1.00  0.00     0.202 C 
ENDBRANCH  15  35
TORSDOF 8
ENDMDL
