MODEL 1
REMARK VINA RESULT: -5.548787345      0.000      0.000
REMARK  4 active torsions:
REMARK  status: ('A' for Active; 'I' for Inactive)
REMARK    1  A    between atoms: N2_4  and  N3_6 
REMARK    2  A    between atoms: C1_8  and  N4_9 
REMARK    3  A    between atoms: N4_9  and  C2_11 
REMARK    4  A    between atoms: C2_11  and  C3_12 
ROOT
HETATM    1  N3  UNL     1      30.613  28.790  67.866  1.00  0.00    -0.283 N 
ATOM      2  H3  UNL     1      29.865  28.849  68.556  1.00  0.00     0.189 HD
HETATM    3  C1  UNL     1      31.473  27.847  68.007  1.00  0.00     0.194 C 
ENDROOT
BRANCH   3   4
HETATM    4  N4  UNL     1      32.562  27.648  67.122  1.00  0.00    -0.383 N 
ATOM      5  H4  UNL     1      32.445  27.785  66.119  1.00  0.00     0.160 HD
BRANCH   4   6
HETATM    6  C2  UNL     1      33.855  27.243  67.669  1.00  0.00     0.155 C 
BRANCH   6   7
HETATM    7  C3  UNL     1      34.643  28.471  67.993  1.00  0.00     0.229 A 
HETATM    8  C4  UNL     1      35.962  28.225  68.703  1.00  0.00     0.267 A 
HETATM    9  N5  UNL     1      34.836  28.876  69.366  1.00  0.00    -0.066 N 
ATOM     10  H52 UNL     1      34.731  29.765  69.854  1.00  0.00     0.277 HD
ATOM     11  H51 UNL     1      34.328  28.685  70.229  1.00  0.00     0.277 HD
ENDBRANCH   6   7
ENDBRANCH   4   6
ENDBRANCH   3   4
BRANCH   1  12
HETATM   12  N2  UNL     1      30.619  29.733  66.855  1.00  0.00    -0.248 N 
HETATM   13  N1  UNL     1      29.556  30.123  66.282  1.00  0.00    -0.331 N 
ATOM     14  H12 UNL     1      28.674  29.716  66.591  1.00  0.00     0.178 HD
ATOM     15  H11 UNL     1      29.560  30.818  65.536  1.00  0.00     0.178 HD
ATOM     16  H2  UNL     1      31.511  30.129  66.558  1.00  0.00     0.207 HD
ENDBRANCH   1  12
TORSDOF 4
ENDMDL
MODEL 2
REMARK VINA RESULT: -5.257396211      0.922      1.065
REMARK  4 active torsions:
REMARK  status: ('A' for Active; 'I' for Inactive)
REMARK    1  A    between atoms: N2_4  and  N3_6 
REMARK    2  A    between atoms: C1_8  and  N4_9 
REMARK    3  A    between atoms: N4_9  and  C2_11 
REMARK    4  A    between atoms: C2_11  and  C3_12 
ROOT
HETATM    1  N3  UNL     1      31.085  29.018  68.459  1.00  0.00    -0.283 N 
ATOM      2  H3  UNL     1      30.401  29.141  69.207  1.00  0.00     0.189 HD
HETATM    3  C1  UNL     1      31.584  27.846  68.304  1.00  0.00     0.194 C 
ENDROOT
BRANCH   3   4
HETATM    4  N4  UNL     1      32.541  27.533  67.307  1.00  0.00    -0.383 N 
ATOM      5  H4  UNL     1      32.290  27.570  66.319  1.00  0.00     0.160 HD
BRANCH   4   6
HETATM    6  C2  UNL     1      33.894  27.158  67.714  1.00  0.00     0.155 C 
BRANCH   6   7
HETATM    7  C3  UNL     1      34.686  28.404  67.947  1.00  0.00     0.229 A 
HETATM    8  C4  UNL     1      35.975  28.215  68.727  1.00  0.00     0.267 A 
HETATM    9  N5  UNL     1      34.834  28.938  69.281  1.00  0.00    -0.066 N 
ATOM     10  H52 UNL     1      34.723  29.872  69.676  1.00  0.00     0.277 HD
ATOM     11  H51 UNL     1      34.291  28.837  70.138  1.00  0.00     0.277 HD
ENDBRANCH   6   7
ENDBRANCH   4   6
ENDBRANCH   3   4
BRANCH   1  12
HETATM   12  N2  UNL     1      31.396  30.128  67.696  1.00  0.00    -0.248 N 
HETATM   13  N1  UNL     1      31.306  31.311  68.145  1.00  0.00    -0.331 N 
ATOM     14  H12 UNL     1      30.990  31.430  69.107  1.00  0.00     0.178 HD
ATOM     15  H11 UNL     1      31.536  32.129  67.582  1.00  0.00     0.178 HD
ATOM     16  H2  UNL     1      31.711  29.990  66.735  1.00  0.00     0.207 HD
ENDBRANCH   1  12
TORSDOF 4
ENDMDL
MODEL 3
REMARK VINA RESULT: -5.075835317      1.686      5.215
REMARK  4 active torsions:
REMARK  status: ('A' for Active; 'I' for Inactive)
REMARK    1  A    between atoms: N2_4  and  N3_6 
REMARK    2  A    between atoms: C1_8  and  N4_9 
REMARK    3  A    between atoms: N4_9  and  C2_11 
REMARK    4  A    between atoms: C2_11  and  C3_12 
ROOT
HETATM    1  N3  UNL     1      36.461  27.990  68.895  1.00  0.00    -0.283 N 
ATOM      2  H3  UNL     1      37.107  27.204  68.974  1.00  0.00     0.189 HD
HETATM    3  C1  UNL     1      35.357  27.786  68.274  1.00  0.00     0.194 C 
ENDROOT
BRANCH   3   4
HETATM    4  N4  UNL     1      34.370  28.786  68.092  1.00  0.00    -0.383 N 
ATOM      5  H4  UNL     1      34.459  29.691  68.553  1.00  0.00     0.160 HD
BRANCH   4   6
HETATM    6  C2  UNL     1      33.222  28.503  67.233  1.00  0.00     0.155 C 
BRANCH   6   7
HETATM    7  C3  UNL     1      32.008  29.135  67.832  1.00  0.00     0.229 A 
HETATM    8  C4  UNL     1      30.917  28.168  68.256  1.00  0.00     0.267 A 
HETATM    9  N5  UNL     1      30.742  29.090  67.137  1.00  0.00    -0.066 N 
ATOM     10  H52 UNL     1      30.040  29.796  66.917  1.00  0.00     0.277 HD
ATOM     11  H51 UNL     1      30.486  28.961  66.159  1.00  0.00     0.277 HD
ENDBRANCH   6   7
ENDBRANCH   4   6
ENDBRANCH   3   4
BRANCH   1  12
HETATM   12  N2  UNL     1      36.848  29.188  69.466  1.00  0.00    -0.248 N 
HETATM   13  N1  UNL     1      37.865  29.286  70.219  1.00  0.00    -0.331 N 
ATOM     14  H12 UNL     1      38.405  28.441  70.399  1.00  0.00     0.178 HD
ATOM     15  H11 UNL     1      38.150  30.170  70.640  1.00  0.00     0.178 HD
ATOM     16  H2  UNL     1      36.295  30.024  69.276  1.00  0.00     0.207 HD
ENDBRANCH   1  12
TORSDOF 4
ENDMDL
MODEL 4
REMARK VINA RESULT: -5.022516653      1.002      1.012
REMARK  4 active torsions:
REMARK  status: ('A' for Active; 'I' for Inactive)
REMARK    1  A    between atoms: N2_4  and  N3_6 
REMARK    2  A    between atoms: C1_8  and  N4_9 
REMARK    3  A    between atoms: N4_9  and  C2_11 
REMARK    4  A    between atoms: C2_11  and  C3_12 
ROOT
HETATM    1  N3  UNL     1      30.479  29.077  67.442  1.00  0.00    -0.283 N 
ATOM      2  H3  UNL     1      29.718  28.803  68.064  1.00  0.00     0.189 HD
HETATM    3  C1  UNL     1      31.618  28.513  67.620  1.00  0.00     0.194 C 
ENDROOT
BRANCH   3   4
HETATM    4  N4  UNL     1      32.760  28.798  66.830  1.00  0.00    -0.383 N 
ATOM      5  H4  UNL     1      32.801  29.649  66.270  1.00  0.00     0.160 HD
BRANCH   4   6
HETATM    6  C2  UNL     1      33.876  27.856  66.832  1.00  0.00     0.155 C 
BRANCH   6   7
HETATM    7  C3  UNL     1      34.398  27.734  68.227  1.00  0.00     0.229 A 
HETATM    8  C4  UNL     1      35.132  28.954  68.753  1.00  0.00     0.267 A 
HETATM    9  N5  UNL     1      35.820  27.697  68.475  1.00  0.00    -0.066 N 
ATOM     10  H52 UNL     1      36.417  27.088  69.036  1.00  0.00     0.277 HD
ATOM     11  H51 UNL     1      36.625  27.453  67.898  1.00  0.00     0.277 HD
ENDBRANCH   6   7
ENDBRANCH   4   6
ENDBRANCH   3   4
BRANCH   1  12
HETATM   12  N2  UNL     1      30.198  30.026  66.477  1.00  0.00    -0.248 N 
HETATM   13  N1  UNL     1      29.016  30.270  66.086  1.00  0.00    -0.331 N 
ATOM     14  H12 UNL     1      28.257  29.738  66.509  1.00  0.00     0.178 HD
ATOM     15  H11 UNL     1      28.809  30.971  65.373  1.00  0.00     0.178 HD
ATOM     16  H2  UNL     1      30.970  30.550  66.064  1.00  0.00     0.207 HD
ENDBRANCH   1  12
TORSDOF 4
ENDMDL
MODEL 5
REMARK VINA RESULT: -4.827204776      1.531      1.831
REMARK  4 active torsions:
REMARK  status: ('A' for Active; 'I' for Inactive)
REMARK    1  A    between atoms: N2_4  and  N3_6 
REMARK    2  A    between atoms: C1_8  and  N4_9 
REMARK    3  A    between atoms: N4_9  and  C2_11 
REMARK    4  A    between atoms: C2_11  and  C3_12 
ROOT
HETATM    1  N3  UNL     1      30.171  29.190  67.012  1.00  0.00    -0.283 N 
ATOM      2  H3  UNL     1      29.467  28.456  66.934  1.00  0.00     0.189 HD
HETATM    3  C1  UNL     1      31.231  28.921  67.685  1.00  0.00     0.194 C 
ENDROOT
BRANCH   3   4
HETATM    4  N4  UNL     1      32.288  29.845  67.874  1.00  0.00    -0.383 N 
ATOM      5  H4  UNL     1      32.092  30.837  68.004  1.00  0.00     0.160 HD
BRANCH   4   6
HETATM    6  C2  UNL     1      33.665  29.356  67.882  1.00  0.00     0.155 C 
BRANCH   6   7
HETATM    7  C3  UNL     1      33.650  27.881  67.642  1.00  0.00     0.229 A 
HETATM    8  C4  UNL     1      35.004  27.199  67.719  1.00  0.00     0.267 A 
HETATM    9  N5  UNL     1      34.271  27.325  66.463  1.00  0.00    -0.066 N 
ATOM     10  H52 UNL     1      33.964  26.651  65.762  1.00  0.00     0.277 HD
ATOM     11  H51 UNL     1      34.510  27.713  65.550  1.00  0.00     0.277 HD
ENDBRANCH   6   7
ENDBRANCH   4   6
ENDBRANCH   3   4
BRANCH   1  12
HETATM   12  N2  UNL     1      29.906  30.393  66.386  1.00  0.00    -0.248 N 
HETATM   13  N1  UNL     1      28.842  30.597  65.726  1.00  0.00    -0.331 N 
ATOM     14  H12 UNL     1      28.168  29.834  65.665  1.00  0.00     0.178 HD
ATOM     15  H11 UNL     1      28.646  31.485  65.263  1.00  0.00     0.178 HD
ATOM     16  H2  UNL     1      30.591  31.146  66.457  1.00  0.00     0.207 HD
ENDBRANCH   1  12
TORSDOF 4
ENDMDL
