MODEL 1
REMARK VINA RESULT: -6.243866055      0.000      0.000
REMARK  15 active torsions:
REMARK  status: ('A' for Active; 'I' for Inactive)
REMARK    1  A    between atoms: C3_3  and  C4_4 
REMARK    2  A    between atoms: C4_4  and  O1_5 
REMARK    3  A    between atoms: C4_4  and  C5_7 
REMARK    4  A    between atoms: C15_21  and  C16_22 
REMARK    5  A    between atoms: N2_26  and  C19_27 
REMARK    6  A    between atoms: C19_27  and  C20_28 
REMARK    7  A    between atoms: C20_28  and  C21_29 
REMARK    8  A    between atoms: C21_29  and  C22_30 
REMARK    9  A    between atoms: C22_30  and  C23_31 
REMARK   10  A    between atoms: C23_31  and  C24_32 
REMARK   11  A    between atoms: C24_32  and  N3_33 
REMARK       I    between atoms: N3_33  and  C25_35 
REMARK   12  A    between atoms: C25_35  and  C26_37 
REMARK   13  A    between atoms: C26_37  and  C27_38 
REMARK   14  A    between atoms: C27_38  and  C28_39 
REMARK   15  A    between atoms: C28_39  and  C29_40 
ROOT
HETATM    1  C1  UNL     1      31.477  34.636  12.510  1.00  0.00     0.112 C 
HETATM    2  C2  UNL     1      31.418  35.820  13.348  1.00  0.00    -0.108 C 
HETATM    3  C3  UNL     1      31.352  36.810  14.048  1.00  0.00    -0.074 C 
ENDROOT
BRANCH   3   4
HETATM    4  C4  UNL     1      31.266  38.057  14.890  1.00  0.00     0.208 C 
BRANCH   4   5
HETATM    5  O1  UNL     1      30.449  37.560  15.968  1.00  0.00    -0.383 OA
ATOM      6  H1  UNL     1      31.090  37.575  16.669  1.00  0.00     0.211 HD
ENDBRANCH   4   5
BRANCH   4   7
HETATM    7  C5  UNL     1      30.603  39.143  14.218  1.00  0.00     0.096 C 
HETATM    8  C6  UNL     1      29.837  40.092  15.151  1.00  0.00    -0.028 C 
HETATM    9  C7  UNL     1      30.726  40.680  16.070  1.00  0.00     0.117 C 
HETATM   10  C12 UNL     1      28.352  40.023  14.958  1.00  0.00    -0.021 C 
HETATM   11  C8  UNL     1      29.943  41.711  16.891  1.00  0.00     0.316 C 
HETATM   12  N2  UNL     1      32.119  40.685  15.965  1.00  0.00    -0.310 N 
HETATM   13  O2  UNL     1      29.514  42.061  17.867  1.00  0.00    -0.257 OA
HETATM   14  O3  UNL     1      29.597  42.806  15.768  1.00  0.00    -0.261 OA
HETATM   15  C9  UNL     1      29.932  42.441  14.385  1.00  0.00     0.124 C 
HETATM   16  C10 UNL     1      28.590  42.235  13.657  1.00  0.00     0.085 C 
HETATM   17  N1  UNL     1      30.934  41.658  14.004  1.00  0.00    -0.355 N 
HETATM   18  C11 UNL     1      27.788  41.153  14.209  1.00  0.00     0.021 C 
HETATM   19  C15 UNL     1      31.452  40.372  13.714  1.00  0.00     0.124 C 
ATOM     20  H1  UNL     1      31.713  42.296  13.840  1.00  0.00     0.162 HD
HETATM   21  C18 UNL     1      32.604  40.060  14.692  1.00  0.00     0.253 C 
HETATM   22  O4  UNL     1      33.629  39.486  14.531  1.00  0.00    -0.270 OA
HETATM   23  C13 UNL     1      27.879  38.686  14.455  1.00  0.00     0.019 C 
HETATM   24  C14 UNL     1      27.644  40.094  16.348  1.00  0.00     0.019 C 
BRANCH  19  25
HETATM   25  C16 UNL     1      31.875  40.234  12.365  1.00  0.00     0.037 C 
HETATM   26  C17 UNL     1      32.375  41.499  11.689  1.00  0.00     0.008 C 
ENDBRANCH  19  25
BRANCH  12  27
HETATM   27  C19 UNL     1      33.324  40.978  16.794  1.00  0.00     0.132 C 
BRANCH  27  28
HETATM   28  C20 UNL     1      33.930  42.275  16.394  1.00  0.00     0.020 C 
BRANCH  28  29
HETATM   29  C21 UNL     1      35.395  42.127  16.163  1.00  0.00     0.002 C 
BRANCH  29  30
HETATM   30  C22 UNL     1      36.000  41.236  17.211  1.00  0.00     0.002 C 
BRANCH  30  31
HETATM   31  C23 UNL     1      37.182  40.462  16.626  1.00  0.00     0.020 C 
BRANCH  31  32
HETATM   32  C24 UNL     1      36.853  40.226  15.165  1.00  0.00     0.122 C 
BRANCH  32  33
HETATM   33  N3  UNL     1      36.531  38.837  14.955  1.00  0.00    -0.361 N 
HETATM   34  C25 UNL     1      36.828  38.226  13.720  1.00  0.00     0.217 C 
HETATM   35  O5  UNL     1      37.365  38.888  12.807  1.00  0.00    -0.274 OA
ATOM     36  H3  UNL     1      36.088  38.296  15.697  1.00  0.00     0.162 HD
BRANCH  34  37
HETATM   37  C26 UNL     1      36.500  36.807  13.516  1.00  0.00     0.103 C 
BRANCH  37  38
HETATM   38  C27 UNL     1      35.095  36.427  13.853  1.00  0.00     0.009 C 
BRANCH  38  39
HETATM   39  C28 UNL     1      34.939  35.168  14.634  1.00  0.00     0.000 C 
BRANCH  39  40
HETATM   40  C29 UNL     1      36.242  34.854  15.375  1.00  0.00    -0.005 C 
HETATM   41  C30 UNL     1      36.037  33.571  16.135  1.00  0.00     0.005 C 
ENDBRANCH  39  40
ENDBRANCH  38  39
ENDBRANCH  37  38
ENDBRANCH  34  37
ENDBRANCH  32  33
ENDBRANCH  31  32
ENDBRANCH  30  31
ENDBRANCH  29  30
ENDBRANCH  28  29
ENDBRANCH  27  28
ENDBRANCH  12  27
ENDBRANCH   4   7
ENDBRANCH   3   4
TORSDOF 15
ENDMDL
MODEL 2
REMARK VINA RESULT: -6.201167421      9.616     14.568
REMARK  15 active torsions:
REMARK  status: ('A' for Active; 'I' for Inactive)
REMARK    1  A    between atoms: C3_3  and  C4_4 
REMARK    2  A    between atoms: C4_4  and  O1_5 
REMARK    3  A    between atoms: C4_4  and  C5_7 
REMARK    4  A    between atoms: C15_21  and  C16_22 
REMARK    5  A    between atoms: N2_26  and  C19_27 
REMARK    6  A    between atoms: C19_27  and  C20_28 
REMARK    7  A    between atoms: C20_28  and  C21_29 
REMARK    8  A    between atoms: C21_29  and  C22_30 
REMARK    9  A    between atoms: C22_30  and  C23_31 
REMARK   10  A    between atoms: C23_31  and  C24_32 
REMARK   11  A    between atoms: C24_32  and  N3_33 
REMARK       I    between atoms: N3_33  and  C25_35 
REMARK   12  A    between atoms: C25_35  and  C26_37 
REMARK   13  A    between atoms: C26_37  and  C27_38 
REMARK   14  A    between atoms: C27_38  and  C28_39 
REMARK   15  A    between atoms: C28_39  and  C29_40 
ROOT
HETATM    1  C1  UNL     1      36.449  31.421  10.745  1.00  0.00     0.112 C 
HETATM    2  C2  UNL     1      35.659  30.411  10.067  1.00  0.00    -0.108 C 
HETATM    3  C3  UNL     1      35.009  29.553   9.503  1.00  0.00    -0.074 C 
ENDROOT
BRANCH   3   4
HETATM    4  C4  UNL     1      34.221  28.494   8.775  1.00  0.00     0.208 C 
BRANCH   4   5
HETATM    5  O1  UNL     1      34.855  27.317   9.310  1.00  0.00    -0.383 OA
ATOM      6  H1  UNL     1      34.676  26.708   8.604  1.00  0.00     0.211 HD
ENDBRANCH   4   5
BRANCH   4   7
HETATM    7  C5  UNL     1      34.390  28.550   7.347  1.00  0.00     0.096 C 
HETATM    8  C6  UNL     1      34.249  27.195   6.639  1.00  0.00    -0.028 C 
HETATM    9  C7  UNL     1      32.964  26.669   6.864  1.00  0.00     0.117 C 
HETATM   10  C12 UNL     1      35.538  26.713   6.045  1.00  0.00    -0.021 C 
HETATM   11  C8  UNL     1      32.827  25.386   6.036  1.00  0.00     0.316 C 
HETATM   12  N2  UNL     1      31.867  27.382   7.356  1.00  0.00    -0.310 N 
HETATM   13  O2  UNL     1      32.711  24.272   5.973  1.00  0.00    -0.257 OA
HETATM   14  O3  UNL     1      32.866  25.974   4.543  1.00  0.00    -0.261 OA
HETATM   15  C9  UNL     1      33.183  27.402   4.418  1.00  0.00     0.124 C 
HETATM   16  C10 UNL     1      34.582  27.479   3.778  1.00  0.00     0.085 C 
HETATM   17  N1  UNL     1      32.888  28.348   5.301  1.00  0.00    -0.355 N 
HETATM   18  C11 UNL     1      35.627  26.871   4.588  1.00  0.00     0.021 C 
HETATM   19  C15 UNL     1      33.217  29.106   6.453  1.00  0.00     0.124 C 
ATOM     20  H1  UNL     1      31.978  28.704   5.007  1.00  0.00     0.162 HD
HETATM   21  C18 UNL     1      32.166  28.838   7.550  1.00  0.00     0.253 C 
HETATM   22  O4  UNL     1      31.682  29.559   8.357  1.00  0.00    -0.270 OA
HETATM   23  C13 UNL     1      36.755  27.224   6.771  1.00  0.00     0.019 C 
HETATM   24  C14 UNL     1      35.672  25.174   6.272  1.00  0.00     0.019 C 
BRANCH  19  25
HETATM   25  C16 UNL     1      33.337  30.496   6.188  1.00  0.00     0.037 C 
HETATM   26  C17 UNL     1      34.751  31.025   6.018  1.00  0.00     0.008 C 
ENDBRANCH  19  25
BRANCH  12  27
HETATM   27  C19 UNL     1      30.505  27.139   7.912  1.00  0.00     0.132 C 
BRANCH  27  28
HETATM   28  C20 UNL     1      30.591  26.404   9.201  1.00  0.00     0.020 C 
BRANCH  28  29
HETATM   29  C21 UNL     1      29.522  26.850  10.139  1.00  0.00     0.002 C 
BRANCH  29  30
HETATM   30  C22 UNL     1      28.378  27.456   9.374  1.00  0.00     0.002 C 
BRANCH  30  31
HETATM   31  C23 UNL     1      27.837  28.678  10.116  1.00  0.00     0.020 C 
BRANCH  31  32
HETATM   32  C24 UNL     1      28.286  29.890   9.323  1.00  0.00     0.122 C 
BRANCH  32  33
HETATM   33  N3  UNL     1      29.306  30.601  10.054  1.00  0.00    -0.361 N 
HETATM   34  C25 UNL     1      28.990  31.812  10.701  1.00  0.00     0.217 C 
HETATM   35  O5  UNL     1      27.831  32.272  10.640  1.00  0.00    -0.274 OA
ATOM     36  H3  UNL     1      30.254  30.229  10.101  1.00  0.00     0.162 HD
BRANCH  34  37
HETATM   37  C26 UNL     1      30.036  32.528  11.447  1.00  0.00     0.103 C 
BRANCH  37  38
HETATM   38  C27 UNL     1      30.073  32.249  12.914  1.00  0.00     0.009 C 
BRANCH  38  39
HETATM   39  C28 UNL     1      31.318  31.600  13.414  1.00  0.00     0.000 C 
BRANCH  39  40
HETATM   40  C29 UNL     1      32.367  31.564  12.299  1.00  0.00    -0.005 C 
HETATM   41  C30 UNL     1      33.480  32.498  12.689  1.00  0.00     0.005 C 
ENDBRANCH  39  40
ENDBRANCH  38  39
ENDBRANCH  37  38
ENDBRANCH  34  37
ENDBRANCH  32  33
ENDBRANCH  31  32
ENDBRANCH  30  31
ENDBRANCH  29  30
ENDBRANCH  28  29
ENDBRANCH  27  28
ENDBRANCH  12  27
ENDBRANCH   4   7
ENDBRANCH   3   4
TORSDOF 15
ENDMDL
MODEL 3
REMARK VINA RESULT: -6.132834509      3.552      6.871
REMARK  15 active torsions:
REMARK  status: ('A' for Active; 'I' for Inactive)
REMARK    1  A    between atoms: C3_3  and  C4_4 
REMARK    2  A    between atoms: C4_4  and  O1_5 
REMARK    3  A    between atoms: C4_4  and  C5_7 
REMARK    4  A    between atoms: C15_21  and  C16_22 
REMARK    5  A    between atoms: N2_26  and  C19_27 
REMARK    6  A    between atoms: C19_27  and  C20_28 
REMARK    7  A    between atoms: C20_28  and  C21_29 
REMARK    8  A    between atoms: C21_29  and  C22_30 
REMARK    9  A    between atoms: C22_30  and  C23_31 
REMARK   10  A    between atoms: C23_31  and  C24_32 
REMARK   11  A    between atoms: C24_32  and  N3_33 
REMARK       I    between atoms: N3_33  and  C25_35 
REMARK   12  A    between atoms: C25_35  and  C26_37 
REMARK   13  A    between atoms: C26_37  and  C27_38 
REMARK   14  A    between atoms: C27_38  and  C28_39 
REMARK   15  A    between atoms: C28_39  and  C29_40 
ROOT
HETATM    1  C1  UNL     1      34.571  44.674  11.693  1.00  0.00     0.112 C 
HETATM    2  C2  UNL     1      33.709  43.566  12.063  1.00  0.00    -0.108 C 
HETATM    3  C3  UNL     1      32.979  42.641  12.358  1.00  0.00    -0.074 C 
ENDROOT
BRANCH   3   4
HETATM    4  C4  UNL     1      32.051  41.515  12.736  1.00  0.00     0.208 C 
BRANCH   4   5
HETATM    5  O1  UNL     1      30.901  41.881  11.950  1.00  0.00    -0.383 OA
ATOM      6  H1  UNL     1      30.449  42.430  12.580  1.00  0.00     0.211 HD
ENDBRANCH   4   5
BRANCH   4   7
HETATM    7  C5  UNL     1      31.720  41.508  14.137  1.00  0.00     0.096 C 
HETATM    8  C6  UNL     1      30.391  40.814  14.469  1.00  0.00    -0.028 C 
HETATM    9  C7  UNL     1      30.441  39.466  14.068  1.00  0.00     0.117 C 
HETATM   10  C12 UNL     1      29.348  41.767  14.970  1.00  0.00    -0.021 C 
HETATM   11  C8  UNL     1      29.149  38.786  14.535  1.00  0.00     0.316 C 
HETATM   12  N2  UNL     1      31.598  38.759  13.733  1.00  0.00    -0.310 N 
HETATM   13  O2  UNL     1      28.173  38.283  14.307  1.00  0.00    -0.257 OA
HETATM   14  O3  UNL     1      29.331  38.834  16.130  1.00  0.00    -0.261 OA
HETATM   15  C9  UNL     1      30.474  39.610  16.627  1.00  0.00     0.124 C 
HETATM   16  C10 UNL     1      29.884  40.853  17.319  1.00  0.00     0.085 C 
HETATM   17  N1  UNL     1      31.634  39.779  16.004  1.00  0.00    -0.355 N 
HETATM   18  C11 UNL     1      29.132  41.716  16.421  1.00  0.00     0.021 C 
HETATM   19  C15 UNL     1      32.454  40.496  15.098  1.00  0.00     0.124 C 
ATOM     20  H1  UNL     1      32.225  39.019  16.344  1.00  0.00     0.162 HD
HETATM   21  C18 UNL     1      32.845  39.568  13.929  1.00  0.00     0.253 C 
HETATM   22  O4  UNL     1      33.855  39.474  13.314  1.00  0.00    -0.270 OA
HETATM   23  C13 UNL     1      29.522  43.168  14.447  1.00  0.00     0.019 C 
HETATM   24  C14 UNL     1      27.961  41.385  14.363  1.00  0.00     0.019 C 
BRANCH  19  25
HETATM   25  C16 UNL     1      33.605  41.057  15.713  1.00  0.00     0.037 C 
HETATM   26  C17 UNL     1      33.461  42.478  16.230  1.00  0.00     0.008 C 
ENDBRANCH  19  25
BRANCH  12  27
HETATM   27  C19 UNL     1      32.006  37.481  13.081  1.00  0.00     0.132 C 
BRANCH  27  28
HETATM   28  C20 UNL     1      31.596  36.319  13.911  1.00  0.00     0.020 C 
BRANCH  28  29
HETATM   29  C21 UNL     1      31.284  35.139  13.054  1.00  0.00     0.002 C 
BRANCH  29  30
HETATM   30  C22 UNL     1      32.383  34.118  13.154  1.00  0.00     0.002 C 
BRANCH  30  31
HETATM   31  C23 UNL     1      31.949  32.965  14.059  1.00  0.00     0.020 C 
BRANCH  31  32
HETATM   32  C24 UNL     1      31.797  31.753  13.162  1.00  0.00     0.122 C 
BRANCH  32  33
HETATM   33  N3  UNL     1      30.542  31.098  13.434  1.00  0.00    -0.361 N 
HETATM   34  C25 UNL     1      29.415  31.382  12.637  1.00  0.00     0.217 C 
HETATM   35  O5  UNL     1      29.500  32.203  11.701  1.00  0.00    -0.274 OA
ATOM     36  H3  UNL     1      30.470  30.431  14.202  1.00  0.00     0.162 HD
BRANCH  34  37
HETATM   37  C26 UNL     1      28.140  30.705  12.920  1.00  0.00     0.103 C 
BRANCH  37  38
HETATM   38  C27 UNL     1      27.547  29.962  11.768  1.00  0.00     0.009 C 
BRANCH  38  39
HETATM   39  C28 UNL     1      28.384  28.861  11.214  1.00  0.00     0.000 C 
BRANCH  39  40
HETATM   40  C29 UNL     1      27.842  28.436   9.846  1.00  0.00    -0.005 C 
HETATM   41  C30 UNL     1      27.084  29.603   9.273  1.00  0.00     0.005 C 
ENDBRANCH  39  40
ENDBRANCH  38  39
ENDBRANCH  37  38
ENDBRANCH  34  37
ENDBRANCH  32  33
ENDBRANCH  31  32
ENDBRANCH  30  31
ENDBRANCH  29  30
ENDBRANCH  28  29
ENDBRANCH  27  28
ENDBRANCH  12  27
ENDBRANCH   4   7
ENDBRANCH   3   4
TORSDOF 15
ENDMDL
MODEL 4
REMARK VINA RESULT: -6.125007552      9.560     14.117
REMARK  15 active torsions:
REMARK  status: ('A' for Active; 'I' for Inactive)
REMARK    1  A    between atoms: C3_3  and  C4_4 
REMARK    2  A    between atoms: C4_4  and  O1_5 
REMARK    3  A    between atoms: C4_4  and  C5_7 
REMARK    4  A    between atoms: C15_21  and  C16_22 
REMARK    5  A    between atoms: N2_26  and  C19_27 
REMARK    6  A    between atoms: C19_27  and  C20_28 
REMARK    7  A    between atoms: C20_28  and  C21_29 
REMARK    8  A    between atoms: C21_29  and  C22_30 
REMARK    9  A    between atoms: C22_30  and  C23_31 
REMARK   10  A    between atoms: C23_31  and  C24_32 
REMARK   11  A    between atoms: C24_32  and  N3_33 
REMARK       I    between atoms: N3_33  and  C25_35 
REMARK   12  A    between atoms: C25_35  and  C26_37 
REMARK   13  A    between atoms: C26_37  and  C27_38 
REMARK   14  A    between atoms: C27_38  and  C28_39 
REMARK   15  A    between atoms: C28_39  and  C29_40 
ROOT
HETATM    1  C1  UNL     1      26.403  29.644  10.089  1.00  0.00     0.112 C 
HETATM    2  C2  UNL     1      27.573  29.389   9.268  1.00  0.00    -0.108 C 
HETATM    3  C3  UNL     1      28.560  29.170   8.595  1.00  0.00    -0.074 C 
ENDROOT
BRANCH   3   4
HETATM    4  C4  UNL     1      29.796  28.930   7.767  1.00  0.00     0.208 C 
BRANCH   4   5
HETATM    5  O1  UNL     1      29.371  29.529   6.528  1.00  0.00    -0.383 OA
ATOM      6  H1  UNL     1      30.045  29.189   5.950  1.00  0.00     0.211 HD
ENDBRANCH   4   5
BRANCH   4   7
HETATM    7  C5  UNL     1      30.082  27.533   7.576  1.00  0.00     0.096 C 
HETATM    8  C6  UNL     1      30.593  27.176   6.173  1.00  0.00    -0.028 C 
HETATM    9  C7  UNL     1      31.793  27.864   5.912  1.00  0.00     0.117 C 
HETATM   10  C12 UNL     1      29.623  26.340   5.396  1.00  0.00    -0.021 C 
HETATM   11  C8  UNL     1      32.331  27.380   4.561  1.00  0.00     0.316 C 
HETATM   12  N2  UNL     1      32.589  28.504   6.866  1.00  0.00    -0.310 N 
HETATM   13  O2  UNL     1      32.587  27.573   3.486  1.00  0.00    -0.257 OA
HETATM   14  O3  UNL     1      32.699  25.855   4.900  1.00  0.00    -0.261 OA
HETATM   15  C9  UNL     1      32.276  25.366   6.219  1.00  0.00     0.124 C 
HETATM   16  C10 UNL     1      31.153  24.345   5.960  1.00  0.00     0.085 C 
HETATM   17  N1  UNL     1      32.167  26.093   7.324  1.00  0.00    -0.355 N 
HETATM   18  C11 UNL     1      29.982  24.919   5.314  1.00  0.00     0.021 C 
HETATM   19  C15 UNL     1      31.406  26.927   8.181  1.00  0.00     0.124 C 
ATOM     20  H1  UNL     1      33.076  26.012   7.779  1.00  0.00     0.162 HD
HETATM   21  C18 UNL     1      32.080  28.313   8.263  1.00  0.00     0.253 C 
HETATM   22  O4  UNL     1      32.198  29.068   9.169  1.00  0.00    -0.270 OA
HETATM   23  C13 UNL     1      28.189  26.565   5.798  1.00  0.00     0.019 C 
HETATM   24  C14 UNL     1      29.601  26.815   3.909  1.00  0.00     0.019 C 
BRANCH  19  25
HETATM   25  C16 UNL     1      31.218  26.372   9.474  1.00  0.00     0.037 C 
HETATM   26  C17 UNL     1      29.784  26.060   9.866  1.00  0.00     0.008 C 
ENDBRANCH  19  25
BRANCH  12  27
HETATM   27  C19 UNL     1      33.724  29.468   6.944  1.00  0.00     0.132 C 
BRANCH  27  28
HETATM   28  C20 UNL     1      35.018  28.744   7.035  1.00  0.00     0.020 C 
BRANCH  28  29
HETATM   29  C21 UNL     1      35.848  29.279   8.152  1.00  0.00     0.002 C 
BRANCH  29  30
HETATM   30  C22 UNL     1      35.854  30.782   8.123  1.00  0.00     0.002 C 
BRANCH  30  31
HETATM   31  C23 UNL     1      35.998  31.335   9.541  1.00  0.00     0.020 C 
BRANCH  31  32
HETATM   32  C24 UNL     1      34.931  30.654  10.374  1.00  0.00     0.122 C 
BRANCH  32  33
HETATM   33  N3  UNL     1      33.691  31.381  10.269  1.00  0.00    -0.361 N 
HETATM   34  C25 UNL     1      32.852  31.505  11.394  1.00  0.00     0.217 C 
HETATM   35  O5  UNL     1      33.178  30.982  12.480  1.00  0.00    -0.274 OA
ATOM     36  H3  UNL     1      33.420  31.804   9.381  1.00  0.00     0.162 HD
BRANCH  34  37
HETATM   37  C26 UNL     1      31.590  32.252  11.277  1.00  0.00     0.103 C 
BRANCH  37  38
HETATM   38  C27 UNL     1      30.363  31.409  11.157  1.00  0.00     0.009 C 
BRANCH  38  39
HETATM   39  C28 UNL     1      29.069  32.140  11.263  1.00  0.00     0.000 C 
BRANCH  39  40
HETATM   40  C29 UNL     1      28.339  31.719  12.542  1.00  0.00    -0.005 C 
HETATM   41  C30 UNL     1      28.737  30.301  12.849  1.00  0.00     0.005 C 
ENDBRANCH  39  40
ENDBRANCH  38  39
ENDBRANCH  37  38
ENDBRANCH  34  37
ENDBRANCH  32  33
ENDBRANCH  31  32
ENDBRANCH  30  31
ENDBRANCH  29  30
ENDBRANCH  28  29
ENDBRANCH  27  28
ENDBRANCH  12  27
ENDBRANCH   4   7
ENDBRANCH   3   4
TORSDOF 15
ENDMDL
MODEL 5
REMARK VINA RESULT: -6.085352909      9.668     14.006
REMARK  15 active torsions:
REMARK  status: ('A' for Active; 'I' for Inactive)
REMARK    1  A    between atoms: C3_3  and  C4_4 
REMARK    2  A    between atoms: C4_4  and  O1_5 
REMARK    3  A    between atoms: C4_4  and  C5_7 
REMARK    4  A    between atoms: C15_21  and  C16_22 
REMARK    5  A    between atoms: N2_26  and  C19_27 
REMARK    6  A    between atoms: C19_27  and  C20_28 
REMARK    7  A    between atoms: C20_28  and  C21_29 
REMARK    8  A    between atoms: C21_29  and  C22_30 
REMARK    9  A    between atoms: C22_30  and  C23_31 
REMARK   10  A    between atoms: C23_31  and  C24_32 
REMARK   11  A    between atoms: C24_32  and  N3_33 
REMARK       I    between atoms: N3_33  and  C25_35 
REMARK   12  A    between atoms: C25_35  and  C26_37 
REMARK   13  A    between atoms: C26_37  and  C27_38 
REMARK   14  A    between atoms: C27_38  and  C28_39 
REMARK   15  A    between atoms: C28_39  and  C29_40 
ROOT
HETATM    1  C1  UNL     1      30.105  24.825  11.177  1.00  0.00     0.112 C 
HETATM    2  C2  UNL     1      30.639  25.768  10.211  1.00  0.00    -0.108 C 
HETATM    3  C3  UNL     1      31.102  26.553   9.409  1.00  0.00    -0.074 C 
ENDROOT
BRANCH   3   4
HETATM    4  C4  UNL     1      31.677  27.552   8.437  1.00  0.00     0.208 C 
BRANCH   4   5
HETATM    5  O1  UNL     1      30.894  28.707   8.794  1.00  0.00    -0.383 OA
ATOM      6  H1  UNL     1      30.845  29.131   7.945  1.00  0.00     0.211 HD
ENDBRANCH   4   5
BRANCH   4   7
HETATM    7  C5  UNL     1      31.446  27.195   7.062  1.00  0.00     0.096 C 
HETATM    8  C6  UNL     1      31.228  28.391   6.125  1.00  0.00    -0.028 C 
HETATM    9  C7  UNL     1      32.366  29.218   6.132  1.00  0.00     0.117 C 
HETATM   10  C12 UNL     1      29.831  28.459   5.585  1.00  0.00    -0.021 C 
HETATM   11  C8  UNL     1      32.154  30.322   5.090  1.00  0.00     0.316 C 
HETATM   12  N2  UNL     1      33.624  28.867   6.628  1.00  0.00    -0.310 N 
HETATM   13  O2  UNL     1      32.004  31.403   4.828  1.00  0.00    -0.257 OA
HETATM   14  O3  UNL     1      32.170  29.472   3.728  1.00  0.00    -0.261 OA
HETATM   15  C9  UNL     1      32.187  28.011   3.878  1.00  0.00     0.124 C 
HETATM   16  C10 UNL     1      30.811  27.512   3.399  1.00  0.00     0.085 C 
HETATM   17  N1  UNL     1      32.743  27.335   4.876  1.00  0.00    -0.355 N 
HETATM   18  C11 UNL     1      29.700  28.017   4.192  1.00  0.00     0.021 C 
HETATM   19  C15 UNL     1      32.665  26.752   6.165  1.00  0.00     0.124 C 
ATOM     20  H1  UNL     1      33.693  27.138   4.559  1.00  0.00     0.162 HD
HETATM   21  C18 UNL     1      33.684  27.444   7.094  1.00  0.00     0.253 C 
HETATM   22  O4  UNL     1      34.366  27.010   7.961  1.00  0.00    -0.270 OA
HETATM   23  C13 UNL     1      28.809  27.840   6.501  1.00  0.00     0.019 C 
HETATM   24  C14 UNL     1      29.356  29.946   5.561  1.00  0.00     0.019 C 
BRANCH  19  25
HETATM   25  C16 UNL     1      32.857  25.345   6.152  1.00  0.00     0.037 C 
HETATM   26  C17 UNL     1      31.602  24.497   6.272  1.00  0.00     0.008 C 
ENDBRANCH  19  25
BRANCH  12  27
HETATM   27  C19 UNL     1      34.921  29.502   7.001  1.00  0.00     0.132 C 
BRANCH  27  28
HETATM   28  C20 UNL     1      34.709  30.564   8.019  1.00  0.00     0.020 C 
BRANCH  28  29
HETATM   29  C21 UNL     1      35.159  30.106   9.364  1.00  0.00     0.002 C 
BRANCH  29  30
HETATM   30  C22 UNL     1      33.978  29.942  10.281  1.00  0.00     0.002 C 
BRANCH  30  31
HETATM   31  C23 UNL     1      32.956  31.049  10.026  1.00  0.00     0.020 C 
BRANCH  31  32
HETATM   32  C24 UNL     1      32.124  31.159  11.288  1.00  0.00     0.122 C 
BRANCH  32  33
HETATM   33  N3  UNL     1      30.725  31.235  10.947  1.00  0.00    -0.361 N 
HETATM   34  C25 UNL     1      29.751  31.193  11.964  1.00  0.00     0.217 C 
HETATM   35  O5  UNL     1      30.097  31.084  13.158  1.00  0.00    -0.274 OA
ATOM     36  H3  UNL     1      30.441  31.320   9.971  1.00  0.00     0.162 HD
BRANCH  34  37
HETATM   37  C26 UNL     1      28.327  31.276  11.606  1.00  0.00     0.103 C 
BRANCH  37  38
HETATM   38  C27 UNL     1      28.050  31.685  10.196  1.00  0.00     0.009 C 
BRANCH  38  39
HETATM   39  C28 UNL     1      27.609  30.592   9.285  1.00  0.00     0.000 C 
BRANCH  39  40
HETATM   40  C29 UNL     1      26.989  29.455  10.101  1.00  0.00    -0.005 C 
HETATM   41  C30 UNL     1      27.642  28.171   9.665  1.00  0.00     0.005 C 
ENDBRANCH  39  40
ENDBRANCH  38  39
ENDBRANCH  37  38
ENDBRANCH  34  37
ENDBRANCH  32  33
ENDBRANCH  31  32
ENDBRANCH  30  31
ENDBRANCH  29  30
ENDBRANCH  28  29
ENDBRANCH  27  28
ENDBRANCH  12  27
ENDBRANCH   4   7
ENDBRANCH   3   4
TORSDOF 15
ENDMDL
