MODEL 1
REMARK VINA RESULT: -4.656481946      0.000      0.000
REMARK  0 active torsions:
REMARK  status: ('A' for Active; 'I' for Inactive)
ROOT
HETATM    1  C1  UNL     1      27.651   6.932   3.336  1.00  0.00     0.012 C 
HETATM    2  C2  UNL     1      26.349   6.681   4.063  1.00  0.00     0.012 C 
HETATM    3  C3  UNL     1      25.860   5.273   3.730  1.00  0.00     0.237 C 
HETATM    4  N1  UNL     1      24.949   4.994   4.839  1.00  0.00    -0.074 N 
ATOM      5  H11 UNL     1      24.686   4.012   4.921  1.00  0.00     0.277 HD
ATOM      6  H12 UNL     1      24.006   5.357   4.701  1.00  0.00     0.277 HD
HETATM    7  C4  UNL     1      25.614   5.522   6.011  1.00  0.00     0.237 C 
HETATM    8  C5  UNL     1      26.658   6.494   5.532  1.00  0.00     0.012 C 
HETATM    9  C6  UNL     1      26.598   7.752   6.322  1.00  0.00     0.012 C 
ENDROOT
TORSDOF 0
ENDMDL
MODEL 2
REMARK VINA RESULT: -4.540510982      1.859      3.033
REMARK  0 active torsions:
REMARK  status: ('A' for Active; 'I' for Inactive)
ROOT
HETATM    1  C1  UNL     1      26.595   7.135   6.228  1.00  0.00     0.012 C 
HETATM    2  C2  UNL     1      26.574   7.206   4.717  1.00  0.00     0.012 C 
HETATM    3  C3  UNL     1      27.998   7.424   4.213  1.00  0.00     0.237 C 
HETATM    4  N1  UNL     1      27.906   6.967   2.826  1.00  0.00    -0.074 N 
ATOM      5  H11 UNL     1      28.811   6.824   2.378  1.00  0.00     0.277 HD
ATOM      6  H12 UNL     1      27.566   7.678   2.178  1.00  0.00     0.277 HD
HETATM    7  C4  UNL     1      27.083   5.779   2.879  1.00  0.00     0.237 C 
HETATM    8  C5  UNL     1      26.333   5.811   4.183  1.00  0.00     0.012 C 
HETATM    9  C6  UNL     1      24.898   5.492   3.965  1.00  0.00     0.012 C 
ENDROOT
TORSDOF 0
ENDMDL
MODEL 3
REMARK VINA RESULT: -4.468431900      1.727      2.592
REMARK  0 active torsions:
REMARK  status: ('A' for Active; 'I' for Inactive)
ROOT
HETATM    1  C1  UNL     1      24.877   5.311   4.420  1.00  0.00     0.012 C 
HETATM    2  C2  UNL     1      26.359   5.497   4.186  1.00  0.00     0.012 C 
HETATM    3  C3  UNL     1      26.655   5.291   2.702  1.00  0.00     0.237 C 
HETATM    4  N1  UNL     1      27.936   5.980   2.546  1.00  0.00    -0.074 N 
ATOM      5  H11 UNL     1      28.199   6.148   1.575  1.00  0.00     0.277 HD
ATOM      6  H12 UNL     1      28.745   5.408   2.789  1.00  0.00     0.277 HD
HETATM    7  C4  UNL     1      27.811   7.185   3.336  1.00  0.00     0.237 C 
HETATM    8  C5  UNL     1      26.673   6.973   4.298  1.00  0.00     0.012 C 
HETATM    9  C6  UNL     1      27.063   7.401   5.667  1.00  0.00     0.012 C 
ENDROOT
TORSDOF 0
ENDMDL
MODEL 4
REMARK VINA RESULT: -4.315907311      1.311      2.046
REMARK  0 active torsions:
REMARK  status: ('A' for Active; 'I' for Inactive)
ROOT
HETATM    1  C1  UNL     1      27.588   7.686   5.241  1.00  0.00     0.012 C 
HETATM    2  C2  UNL     1      26.650   6.850   4.401  1.00  0.00     0.012 C 
HETATM    3  C3  UNL     1      27.389   6.386   3.148  1.00  0.00     0.237 C 
HETATM    4  N1  UNL     1      26.593   5.232   2.731  1.00  0.00    -0.074 N 
ATOM      5  H11 UNL     1      27.051   4.644   2.034  1.00  0.00     0.277 HD
ATOM      6  H12 UNL     1      25.780   5.474   2.164  1.00  0.00     0.277 HD
HETATM    7  C4  UNL     1      26.266   4.540   3.958  1.00  0.00     0.237 C 
HETATM    8  C5  UNL     1      26.465   5.514   5.088  1.00  0.00     0.012 C 
HETATM    9  C6  UNL     1      25.307   5.474   6.019  1.00  0.00     0.012 C 
ENDROOT
TORSDOF 0
ENDMDL
MODEL 5
REMARK VINA RESULT: -4.284511598      0.240      2.299
REMARK  0 active torsions:
REMARK  status: ('A' for Active; 'I' for Inactive)
ROOT
HETATM    1  C1  UNL     1      26.721   7.804   6.326  1.00  0.00     0.012 C 
HETATM    2  C2  UNL     1      26.709   6.477   5.602  1.00  0.00     0.012 C 
HETATM    3  C3  UNL     1      25.450   5.710   5.997  1.00  0.00     0.237 C 
HETATM    4  N1  UNL     1      25.312   4.757   4.896  1.00  0.00    -0.074 N 
ATOM      5  H11 UNL     1      24.402   4.298   4.859  1.00  0.00     0.277 HD
ATOM      6  H12 UNL     1      25.867   3.909   5.011  1.00  0.00     0.277 HD
HETATM    7  C4  UNL     1      25.636   5.513   3.706  1.00  0.00     0.237 C 
HETATM    8  C5  UNL     1      26.394   6.736   4.145  1.00  0.00     0.012 C 
HETATM    9  C6  UNL     1      27.598   6.934   3.297  1.00  0.00     0.012 C 
ENDROOT
TORSDOF 0
ENDMDL
