MODEL 1
REMARK VINA RESULT: -4.608268967      0.000      0.000
REMARK  0 active torsions:
REMARK  status: ('A' for Active; 'I' for Inactive)
ROOT
HETATM    1  C1  UNL     1      26.005   5.564   6.261  1.00  0.00     0.011 C 
HETATM    2  C2  UNL     1      25.405   5.598   4.866  1.00  0.00     0.009 C 
HETATM    3  C3  UNL     1      26.018   4.495   4.033  1.00  0.00     0.237 C 
HETATM    4  N1  UNL     1      26.788   5.159   2.984  1.00  0.00    -0.071 N 
ATOM      5  H11 UNL     1      26.281   5.328   2.115  1.00  0.00     0.277 HD
ATOM      6  H12 UNL     1      27.519   4.591   2.556  1.00  0.00     0.277 HD
HETATM    7  C4  UNL     1      27.249   6.337   3.663  1.00  0.00     0.182 C 
HETATM    8  C5  UNL     1      27.951   7.318   2.778  1.00  0.00     0.040 C 
HETATM    9  C6  UNL     1      25.945   6.881   4.220  1.00  0.00     0.038 C 
ENDROOT
TORSDOF 0
ENDMDL
MODEL 2
REMARK VINA RESULT: -4.396956680      1.481      3.071
REMARK  0 active torsions:
REMARK  status: ('A' for Active; 'I' for Inactive)
ROOT
HETATM    1  C1  UNL     1      27.596   4.780   2.477  1.00  0.00     0.011 C 
HETATM    2  C2  UNL     1      26.709   5.981   2.754  1.00  0.00     0.009 C 
HETATM    3  C3  UNL     1      27.488   7.001   3.554  1.00  0.00     0.237 C 
HETATM    4  N1  UNL     1      26.840   7.073   4.861  1.00  0.00    -0.071 N 
ATOM      5  H11 UNL     1      26.112   7.783   4.946  1.00  0.00     0.277 HD
ATOM      6  H12 UNL     1      27.419   7.443   5.614  1.00  0.00     0.277 HD
HETATM    7  C4  UNL     1      26.396   5.719   5.040  1.00  0.00     0.182 C 
HETATM    8  C5  UNL     1      25.538   5.512   6.248  1.00  0.00     0.040 C 
HETATM    9  C6  UNL     1      25.645   5.484   3.742  1.00  0.00     0.038 C 
ENDROOT
TORSDOF 0
ENDMDL
MODEL 3
REMARK VINA RESULT: -4.319371423      1.386      1.638
REMARK  0 active torsions:
REMARK  status: ('A' for Active; 'I' for Inactive)
ROOT
HETATM    1  C1  UNL     1      27.133   7.108   6.182  1.00  0.00     0.011 C 
HETATM    2  C2  UNL     1      25.873   6.721   5.428  1.00  0.00     0.009 C 
HETATM    3  C3  UNL     1      25.607   5.245   5.627  1.00  0.00     0.237 C 
HETATM    4  N1  UNL     1      25.770   4.624   4.315  1.00  0.00    -0.071 N 
ATOM      5  H11 UNL     1      24.916   4.550   3.761  1.00  0.00     0.277 HD
ATOM      6  H12 UNL     1      25.959   3.622   4.329  1.00  0.00     0.277 HD
HETATM    7  C4  UNL     1      26.806   5.432   3.737  1.00  0.00     0.182 C 
HETATM    8  C5  UNL     1      27.086   5.130   2.298  1.00  0.00     0.040 C 
HETATM    9  C6  UNL     1      26.236   6.825   3.942  1.00  0.00     0.038 C 
ENDROOT
TORSDOF 0
ENDMDL
MODEL 4
REMARK VINA RESULT: -4.144780508      1.680      3.278
REMARK  0 active torsions:
REMARK  status: ('A' for Active; 'I' for Inactive)
ROOT
HETATM    1  C1  UNL     1      27.905   6.119   2.627  1.00  0.00     0.011 C 
HETATM    2  C2  UNL     1      27.157   7.199   3.390  1.00  0.00     0.009 C 
HETATM    3  C3  UNL     1      27.954   7.583   4.617  1.00  0.00     0.237 C 
HETATM    4  N1  UNL     1      27.154   7.166   5.766  1.00  0.00    -0.071 N 
ATOM      5  H11 UNL     1      26.523   7.877   6.137  1.00  0.00     0.277 HD
ATOM      6  H12 UNL     1      27.674   7.041   6.634  1.00  0.00     0.277 HD
HETATM    7  C4  UNL     1      26.514   5.983   5.261  1.00  0.00     0.182 C 
HETATM    8  C5  UNL     1      25.484   5.406   6.180  1.00  0.00     0.040 C 
HETATM    9  C6  UNL     1      25.916   6.506   3.968  1.00  0.00     0.038 C 
ENDROOT
TORSDOF 0
ENDMDL
MODEL 5
REMARK VINA RESULT: -4.068687392      1.714      2.209
REMARK  0 active torsions:
REMARK  status: ('A' for Active; 'I' for Inactive)
ROOT
HETATM    1  C1  UNL     1      24.309   5.885   3.836  1.00  0.00     0.011 C 
HETATM    2  C2  UNL     1      25.492   5.220   4.519  1.00  0.00     0.009 C 
HETATM    3  C3  UNL     1      25.512   5.617   5.979  1.00  0.00     0.237 C 
HETATM    4  N1  UNL     1      26.720   6.418   6.165  1.00  0.00    -0.071 N 
ATOM      5  H11 UNL     1      27.547   5.894   6.450  1.00  0.00     0.277 HD
ATOM      6  H12 UNL     1      26.712   7.032   6.979  1.00  0.00     0.277 HD
HETATM    7  C4  UNL     1      26.825   7.084   4.897  1.00  0.00     0.182 C 
HETATM    8  C5  UNL     1      28.084   7.873   4.724  1.00  0.00     0.040 C 
HETATM    9  C6  UNL     1      26.736   5.908   3.942  1.00  0.00     0.038 C 
ENDROOT
TORSDOF 0
ENDMDL
