MODEL 1
REMARK VINA RESULT: -5.154011300      0.000      0.000
REMARK  1 active torsions:
REMARK  status: ('A' for Active; 'I' for Inactive)
REMARK    1  A    between atoms: N1_2  and  C2_4 
ROOT
HETATM    1  C2  UNL     1      26.650   6.949   4.345  1.00  0.00     0.076 C 
HETATM    2  C3  UNL     1      26.830   6.939   5.817  1.00  0.00     0.024 C 
HETATM    3  C4  UNL     1      25.862   5.867   6.305  1.00  0.00     0.002 C 
HETATM    4  C5  UNL     1      25.967   4.847   5.199  1.00  0.00     0.002 C 
HETATM    5  C6  UNL     1      25.895   5.703   3.958  1.00  0.00     0.024 C 
ENDROOT
BRANCH   1   6
HETATM    6  N1  UNL     1      27.827   7.190   3.581  1.00  0.00    -0.421 N 
HETATM    7  C1  UNL     1      28.078   6.324   2.485  1.00  0.00     0.140 C 
ATOM      8  H1  UNL     1      28.463   7.954   3.811  1.00  0.00     0.153 HD
ENDBRANCH   1   6
TORSDOF 1
ENDMDL
MODEL 2
REMARK VINA RESULT: -5.012950547      0.905      1.177
REMARK  1 active torsions:
REMARK  status: ('A' for Active; 'I' for Inactive)
REMARK    1  A    between atoms: N1_2  and  C2_4 
ROOT
HETATM    1  C2  UNL     1      26.218   6.091   3.980  1.00  0.00     0.076 C 
HETATM    2  C3  UNL     1      26.930   7.054   4.854  1.00  0.00     0.024 C 
HETATM    3  C4  UNL     1      26.328   6.820   6.236  1.00  0.00     0.002 C 
HETATM    4  C5  UNL     1      26.123   5.326   6.221  1.00  0.00     0.002 C 
HETATM    5  C6  UNL     1      25.507   5.096   4.861  1.00  0.00     0.024 C 
ENDROOT
BRANCH   1   6
HETATM    6  N1  UNL     1      26.997   5.511   2.938  1.00  0.00    -0.421 N 
HETATM    7  C1  UNL     1      28.138   6.233   2.502  1.00  0.00     0.140 C 
ATOM      8  H1  UNL     1      26.745   4.614   2.523  1.00  0.00     0.153 HD
ENDBRANCH   1   6
TORSDOF 1
ENDMDL
MODEL 3
REMARK VINA RESULT: -4.385166811      1.550      3.360
REMARK  1 active torsions:
REMARK  status: ('A' for Active; 'I' for Inactive)
REMARK    1  A    between atoms: N1_2  and  C2_4 
ROOT
HETATM    1  C2  UNL     1      26.165   5.582   3.800  1.00  0.00     0.076 C 
HETATM    2  C3  UNL     1      27.198   5.071   2.868  1.00  0.00     0.024 C 
HETATM    3  C4  UNL     1      27.962   6.318   2.436  1.00  0.00     0.002 C 
HETATM    4  C5  UNL     1      27.964   7.121   3.712  1.00  0.00     0.002 C 
HETATM    5  C6  UNL     1      26.534   6.993   4.180  1.00  0.00     0.024 C 
ENDROOT
BRANCH   1   6
HETATM    6  N1  UNL     1      25.852   4.734   4.900  1.00  0.00    -0.421 N 
HETATM    7  C1  UNL     1      25.899   5.310   6.196  1.00  0.00     0.140 C 
ATOM      8  H1  UNL     1      25.604   3.754   4.763  1.00  0.00     0.153 HD
ENDBRANCH   1   6
TORSDOF 1
ENDMDL
MODEL 4
REMARK VINA RESULT: -4.371486027      1.597      3.224
REMARK  1 active torsions:
REMARK  status: ('A' for Active; 'I' for Inactive)
REMARK    1  A    between atoms: N1_2  and  C2_4 
ROOT
HETATM    1  C2  UNL     1      25.948   5.537   4.297  1.00  0.00     0.076 C 
HETATM    2  C3  UNL     1      26.548   4.318   3.703  1.00  0.00     0.024 C 
HETATM    3  C4  UNL     1      27.316   4.833   2.490  1.00  0.00     0.002 C 
HETATM    4  C5  UNL     1      27.839   6.150   3.007  1.00  0.00     0.002 C 
HETATM    5  C6  UNL     1      26.626   6.738   3.688  1.00  0.00     0.024 C 
ENDROOT
BRANCH   1   6
HETATM    6  N1  UNL     1      25.873   5.558   5.719  1.00  0.00    -0.421 N 
HETATM    7  C1  UNL     1      26.321   6.734   6.376  1.00  0.00     0.140 C 
ATOM      8  H1  UNL     1      25.512   4.761   6.244  1.00  0.00     0.153 HD
ENDBRANCH   1   6
TORSDOF 1
ENDMDL
MODEL 5
REMARK VINA RESULT: -4.169562048      1.065      1.354
REMARK  1 active torsions:
REMARK  status: ('A' for Active; 'I' for Inactive)
REMARK    1  A    between atoms: N1_2  and  C2_4 
ROOT
HETATM    1  C2  UNL     1      26.730   6.731   4.075  1.00  0.00     0.076 C 
HETATM    2  C3  UNL     1      26.356   6.529   5.495  1.00  0.00     0.024 C 
HETATM    3  C4  UNL     1      25.578   5.217   5.494  1.00  0.00     0.002 C 
HETATM    4  C5  UNL     1      26.331   4.426   4.454  1.00  0.00     0.002 C 
HETATM    5  C6  UNL     1      26.506   5.432   3.343  1.00  0.00     0.024 C 
ENDROOT
BRANCH   1   6
HETATM    6  N1  UNL     1      28.004   7.325   3.850  1.00  0.00    -0.421 N 
HETATM    7  C1  UNL     1      28.559   8.090   4.909  1.00  0.00     0.140 C 
ATOM      8  H1  UNL     1      28.498   7.207   2.965  1.00  0.00     0.153 HD
ENDBRANCH   1   6
TORSDOF 1
ENDMDL
