MODEL 1
REMARK VINA RESULT: -5.294911322      0.000      0.000
REMARK  1 active torsions:
REMARK  status: ('A' for Active; 'I' for Inactive)
REMARK    1  A    between atoms: C5_5  and  N1_6 
ROOT
HETATM    1  C1  UNL     1      25.734   5.272   6.085  1.00  0.00     0.010 C 
HETATM    2  C2  UNL     1      25.738   5.531   4.585  1.00  0.00    -0.017 C 
HETATM    3  C3  UNL     1      26.515   4.431   3.930  1.00  0.00     0.006 C 
HETATM    4  C4  UNL     1      27.053   5.075   2.667  1.00  0.00     0.033 C 
HETATM    5  C5  UNL     1      27.223   6.521   3.007  1.00  0.00     0.183 C 
HETATM    6  C6  UNL     1      26.482   6.792   4.282  1.00  0.00     0.037 C 
ENDROOT
BRANCH   5   7
HETATM    7  N1  UNL     1      28.591   6.930   3.165  1.00  0.00    -0.075 N 
ATOM      8  H13 UNL     1      29.109   6.788   2.297  1.00  0.00     0.274 HD
ATOM      9  H12 UNL     1      28.654   7.945   3.240  1.00  0.00     0.274 HD
ATOM     10  H11 UNL     1      29.073   6.484   3.945  1.00  0.00     0.274 HD
ENDBRANCH   5   7
TORSDOF 1
ENDMDL
MODEL 2
REMARK VINA RESULT: -4.713293039      1.752      2.804
REMARK  1 active torsions:
REMARK  status: ('A' for Active; 'I' for Inactive)
REMARK    1  A    between atoms: C5_5  and  N1_6 
ROOT
HETATM    1  C1  UNL     1      28.146   7.880   5.112  1.00  0.00     0.010 C 
HETATM    2  C2  UNL     1      26.773   7.250   4.923  1.00  0.00    -0.017 C 
HETATM    3  C3  UNL     1      26.508   6.362   6.099  1.00  0.00     0.006 C 
HETATM    4  C4  UNL     1      25.562   5.312   5.549  1.00  0.00     0.033 C 
HETATM    5  C5  UNL     1      25.919   5.184   4.102  1.00  0.00     0.183 C 
HETATM    6  C6  UNL     1      26.778   6.354   3.727  1.00  0.00     0.037 C 
ENDROOT
BRANCH   5   7
HETATM    7  N1  UNL     1      26.612   3.969   3.774  1.00  0.00    -0.075 N 
ATOM      8  H13 UNL     1      26.012   3.352   3.227  1.00  0.00     0.274 HD
ATOM      9  H12 UNL     1      27.346   4.151   3.088  1.00  0.00     0.274 HD
ATOM     10  H11 UNL     1      26.993   3.475   4.580  1.00  0.00     0.274 HD
ENDBRANCH   5   7
TORSDOF 1
ENDMDL
MODEL 3
REMARK VINA RESULT: -4.708106029      1.770      3.102
REMARK  1 active torsions:
REMARK  status: ('A' for Active; 'I' for Inactive)
REMARK    1  A    between atoms: C5_5  and  N1_6 
ROOT
HETATM    1  C1  UNL     1      27.841   4.655   2.345  1.00  0.00     0.010 C 
HETATM    2  C2  UNL     1      26.757   5.526   2.965  1.00  0.00    -0.017 C 
HETATM    3  C3  UNL     1      27.425   6.689   3.631  1.00  0.00     0.006 C 
HETATM    4  C4  UNL     1      26.461   7.071   4.737  1.00  0.00     0.033 C 
HETATM    5  C5  UNL     1      25.782   5.796   5.122  1.00  0.00     0.183 C 
HETATM    6  C6  UNL     1      26.057   4.779   4.055  1.00  0.00     0.037 C 
ENDROOT
BRANCH   5   7
HETATM    7  N1  UNL     1      26.199   5.268   6.391  1.00  0.00    -0.075 N 
ATOM      8  H13 UNL     1      27.044   4.706   6.284  1.00  0.00     0.274 HD
ATOM      9  H12 UNL     1      26.559   6.013   6.986  1.00  0.00     0.274 HD
ATOM     10  H11 UNL     1      25.477   4.738   6.880  1.00  0.00     0.274 HD
ENDBRANCH   5   7
TORSDOF 1
ENDMDL
MODEL 4
REMARK VINA RESULT: -4.647602968      1.166      1.422
REMARK  1 active torsions:
REMARK  status: ('A' for Active; 'I' for Inactive)
REMARK    1  A    between atoms: C5_5  and  N1_6 
ROOT
HETATM    1  C1  UNL     1      26.511   7.066   6.332  1.00  0.00     0.010 C 
HETATM    2  C2  UNL     1      25.948   6.317   5.132  1.00  0.00    -0.017 C 
HETATM    3  C3  UNL     1      26.247   4.861   5.317  1.00  0.00     0.006 C 
HETATM    4  C4  UNL     1      26.312   4.326   3.900  1.00  0.00     0.033 C 
HETATM    5  C5  UNL     1      26.792   5.474   3.070  1.00  0.00     0.183 C 
HETATM    6  C6  UNL     1      26.666   6.725   3.886  1.00  0.00     0.037 C 
ENDROOT
BRANCH   5   7
HETATM    7  N1  UNL     1      28.149   5.345   2.618  1.00  0.00    -0.075 N 
ATOM      8  H13 UNL     1      28.530   6.257   2.365  1.00  0.00     0.274 HD
ATOM      9  H12 UNL     1      28.765   5.109   3.396  1.00  0.00     0.274 HD
ATOM     10  H11 UNL     1      28.272   4.682   1.853  1.00  0.00     0.274 HD
ENDBRANCH   5   7
TORSDOF 1
ENDMDL
MODEL 5
REMARK VINA RESULT: -4.537243890      1.149      1.959
REMARK  1 active torsions:
REMARK  status: ('A' for Active; 'I' for Inactive)
REMARK    1  A    between atoms: C5_5  and  N1_6 
ROOT
HETATM    1  C1  UNL     1      24.925   5.378   4.412  1.00  0.00     0.010 C 
HETATM    2  C2  UNL     1      26.429   5.599   4.483  1.00  0.00    -0.017 C 
HETATM    3  C3  UNL     1      26.667   6.996   4.967  1.00  0.00     0.006 C 
HETATM    4  C4  UNL     1      28.014   7.357   4.371  1.00  0.00     0.033 C 
HETATM    5  C5  UNL     1      28.098   6.581   3.095  1.00  0.00     0.183 C 
HETATM    6  C6  UNL     1      27.024   5.535   3.113  1.00  0.00     0.037 C 
ENDROOT
BRANCH   5   7
HETATM    7  N1  UNL     1      27.954   7.381   1.911  1.00  0.00    -0.075 N 
ATOM      8  H13 UNL     1      28.391   6.920   1.113  1.00  0.00     0.274 HD
ATOM      9  H12 UNL     1      26.983   7.385   1.599  1.00  0.00     0.274 HD
ATOM     10  H11 UNL     1      28.301   8.335   2.007  1.00  0.00     0.274 HD
ENDBRANCH   5   7
TORSDOF 1
ENDMDL
