MODEL 1
REMARK VINA RESULT: -5.179698894      0.000      0.000
REMARK  0 active torsions:
REMARK  status: ('A' for Active; 'I' for Inactive)
ROOT
HETATM    1  C1  UNL     1      27.815   7.903   4.397  1.00  0.00     0.011 C 
HETATM    2  C2  UNL     1      26.600   7.062   4.572  1.00  0.00    -0.004 C 
HETATM    3  C3  UNL     1      26.198   6.893   6.033  1.00  0.00     0.005 C 
HETATM    4  C4  UNL     1      25.434   5.578   6.069  1.00  0.00     0.002 C 
HETATM    5  C5  UNL     1      25.493   5.026   4.654  1.00  0.00     0.016 C 
HETATM    6  C6  UNL     1      26.848   5.593   4.210  1.00  0.00     0.062 C 
HETATM    7  S1  UNL     1      27.061   5.336   2.464  1.00  0.00    -0.092 SA
ENDROOT
TORSDOF 0
ENDMDL
MODEL 2
REMARK VINA RESULT: -5.127328294      1.425      2.342
REMARK  0 active torsions:
REMARK  status: ('A' for Active; 'I' for Inactive)
ROOT
HETATM    1  C1  UNL     1      26.878   5.403   2.604  1.00  0.00     0.011 C 
HETATM    2  C2  UNL     1      26.798   5.497   4.087  1.00  0.00    -0.004 C 
HETATM    3  C3  UNL     1      25.557   4.821   4.661  1.00  0.00     0.005 C 
HETATM    4  C4  UNL     1      25.304   5.540   5.976  1.00  0.00     0.002 C 
HETATM    5  C5  UNL     1      26.360   6.630   6.063  1.00  0.00     0.016 C 
HETATM    6  C6  UNL     1      26.545   6.930   4.570  1.00  0.00     0.062 C 
HETATM    7  S1  UNL     1      27.951   7.995   4.343  1.00  0.00    -0.092 SA
ENDROOT
TORSDOF 0
ENDMDL
MODEL 3
REMARK VINA RESULT: -4.682240104      0.871      2.462
REMARK  0 active torsions:
REMARK  status: ('A' for Active; 'I' for Inactive)
ROOT
HETATM    1  C1  UNL     1      25.382   5.465   5.941  1.00  0.00     0.011 C 
HETATM    2  C2  UNL     1      26.607   6.155   5.452  1.00  0.00    -0.004 C 
HETATM    3  C3  UNL     1      26.707   7.600   5.930  1.00  0.00     0.005 C 
HETATM    4  C4  UNL     1      27.565   8.291   4.882  1.00  0.00     0.002 C 
HETATM    5  C5  UNL     1      27.857   7.237   3.825  1.00  0.00     0.016 C 
HETATM    6  C6  UNL     1      26.578   6.396   3.938  1.00  0.00     0.062 C 
HETATM    7  S1  UNL     1      26.761   4.900   2.996  1.00  0.00    -0.092 SA
ENDROOT
TORSDOF 0
ENDMDL
MODEL 4
REMARK VINA RESULT: -4.632507698      1.923      2.674
REMARK  0 active torsions:
REMARK  status: ('A' for Active; 'I' for Inactive)
ROOT
HETATM    1  C1  UNL     1      27.459   8.069   4.493  1.00  0.00     0.011 C 
HETATM    2  C2  UNL     1      27.501   6.631   4.112  1.00  0.00    -0.004 C 
HETATM    3  C3  UNL     1      27.783   6.415   2.629  1.00  0.00     0.005 C 
HETATM    4  C4  UNL     1      27.164   5.062   2.316  1.00  0.00     0.002 C 
HETATM    5  C5  UNL     1      26.503   4.600   3.604  1.00  0.00     0.016 C 
HETATM    6  C6  UNL     1      26.125   5.961   4.203  1.00  0.00     0.062 C 
HETATM    7  S1  UNL     1      25.570   5.743   5.878  1.00  0.00    -0.092 SA
ENDROOT
TORSDOF 0
ENDMDL
MODEL 5
REMARK VINA RESULT: -4.615394578      1.886      3.013
REMARK  0 active torsions:
REMARK  status: ('A' for Active; 'I' for Inactive)
ROOT
HETATM    1  C1  UNL     1      26.854   5.043   2.984  1.00  0.00     0.011 C 
HETATM    2  C2  UNL     1      26.737   6.354   3.677  1.00  0.00    -0.004 C 
HETATM    3  C3  UNL     1      27.933   7.267   3.431  1.00  0.00     0.005 C 
HETATM    4  C4  UNL     1      27.969   8.184   4.644  1.00  0.00     0.002 C 
HETATM    5  C5  UNL     1      26.845   7.714   5.553  1.00  0.00     0.016 C 
HETATM    6  C6  UNL     1      26.835   6.220   5.202  1.00  0.00     0.062 C 
HETATM    7  S1  UNL     1      25.407   5.445   5.922  1.00  0.00    -0.092 SA
ENDROOT
TORSDOF 0
ENDMDL
