MODEL 1
REMARK VINA RESULT: -5.731428316      0.000      0.000
REMARK  1 active torsions:
REMARK  status: ('A' for Active; 'I' for Inactive)
REMARK    1  A    between atoms: C6_6  and  N1_7 
ROOT
HETATM    1  C1  UNL     1      25.208   5.399   6.054  1.00  0.00     0.010 C 
HETATM    2  C2  UNL     1      25.860   5.955   4.828  1.00  0.00    -0.017 C 
HETATM    3  C3  UNL     1      26.432   4.870   3.925  1.00  0.00     0.004 C 
HETATM    4  C4  UNL     1      26.963   5.506   2.674  1.00  0.00     0.002 C 
HETATM    5  C5  UNL     1      27.895   6.647   2.917  1.00  0.00     0.033 C 
HETATM    6  C6  UNL     1      27.366   7.632   3.923  1.00  0.00     0.183 C 
HETATM    7  C7  UNL     1      27.057   6.847   5.194  1.00  0.00     0.037 C 
ENDROOT
BRANCH   6   8
HETATM    8  N1  UNL     1      28.309   8.667   4.183  1.00  0.00    -0.075 N 
ATOM      9  H13 UNL     1      29.232   8.431   3.819  1.00  0.00     0.274 HD
ATOM     10  H12 UNL     1      28.121   9.494   3.615  1.00  0.00     0.274 HD
ATOM     11  H11 UNL     1      28.346   8.897   5.176  1.00  0.00     0.274 HD
ENDBRANCH   6   8
TORSDOF 1
ENDMDL
MODEL 2
REMARK VINA RESULT: -5.718795742      0.888      2.459
REMARK  1 active torsions:
REMARK  status: ('A' for Active; 'I' for Inactive)
REMARK    1  A    between atoms: C6_6  and  N1_7 
ROOT
HETATM    1  C1  UNL     1      27.043   5.016   2.208  1.00  0.00     0.010 C 
HETATM    2  C2  UNL     1      27.064   5.679   3.549  1.00  0.00    -0.017 C 
HETATM    3  C3  UNL     1      25.683   5.750   4.189  1.00  0.00     0.004 C 
HETATM    4  C4  UNL     1      25.814   6.323   5.569  1.00  0.00     0.002 C 
HETATM    5  C5  UNL     1      26.577   7.605   5.629  1.00  0.00     0.033 C 
HETATM    6  C6  UNL     1      27.873   7.552   4.867  1.00  0.00     0.183 C 
HETATM    7  C7  UNL     1      27.532   7.138   3.439  1.00  0.00     0.037 C 
ENDROOT
BRANCH   6   8
HETATM    8  N1  UNL     1      28.540   8.810   4.886  1.00  0.00    -0.075 N 
ATOM      9  H13 UNL     1      29.500   8.718   5.218  1.00  0.00     0.274 HD
ATOM     10  H12 UNL     1      28.731   9.145   3.941  1.00  0.00     0.274 HD
ATOM     11  H11 UNL     1      28.021   9.499   5.429  1.00  0.00     0.274 HD
ENDBRANCH   6   8
TORSDOF 1
ENDMDL
MODEL 3
REMARK VINA RESULT: -5.368015590      1.939      3.016
REMARK  1 active torsions:
REMARK  status: ('A' for Active; 'I' for Inactive)
REMARK    1  A    between atoms: C6_6  and  N1_7 
ROOT
HETATM    1  C1  UNL     1      28.272   8.743   4.818  1.00  0.00     0.010 C 
HETATM    2  C2  UNL     1      27.822   7.371   4.426  1.00  0.00    -0.017 C 
HETATM    3  C3  UNL     1      27.920   7.130   2.924  1.00  0.00     0.004 C 
HETATM    4  C4  UNL     1      27.558   5.703   2.636  1.00  0.00     0.002 C 
HETATM    5  C5  UNL     1      26.263   5.267   3.237  1.00  0.00     0.033 C 
HETATM    6  C6  UNL     1      26.133   5.645   4.687  1.00  0.00     0.183 C 
HETATM    7  C7  UNL     1      26.341   7.154   4.773  1.00  0.00     0.037 C 
ENDROOT
BRANCH   6   8
HETATM    8  N1  UNL     1      24.860   5.278   5.209  1.00  0.00    -0.075 N 
ATOM      9  H13 UNL     1      24.117   5.440   4.529  1.00  0.00     0.274 HD
ATOM     10  H12 UNL     1      24.773   4.266   5.301  1.00  0.00     0.274 HD
ATOM     11  H11 UNL     1      24.668   5.751   6.091  1.00  0.00     0.274 HD
ENDBRANCH   6   8
TORSDOF 1
ENDMDL
MODEL 4
REMARK VINA RESULT: -5.347945398      1.908      3.303
REMARK  1 active torsions:
REMARK  status: ('A' for Active; 'I' for Inactive)
REMARK    1  A    between atoms: C6_6  and  N1_7 
ROOT
HETATM    1  C1  UNL     1      27.484   4.586   1.938  1.00  0.00     0.010 C 
HETATM    2  C2  UNL     1      26.859   5.553   2.893  1.00  0.00    -0.017 C 
HETATM    3  C3  UNL     1      27.790   6.706   3.251  1.00  0.00     0.004 C 
HETATM    4  C4  UNL     1      27.048   7.680   4.118  1.00  0.00     0.002 C 
HETATM    5  C5  UNL     1      26.371   7.058   5.295  1.00  0.00     0.033 C 
HETATM    6  C6  UNL     1      25.572   5.836   4.934  1.00  0.00     0.183 C 
HETATM    7  C7  UNL     1      26.526   4.874   4.231  1.00  0.00     0.037 C 
ENDROOT
BRANCH   6   8
HETATM    8  N1  UNL     1      24.999   5.229   6.087  1.00  0.00    -0.075 N 
ATOM      9  H13 UNL     1      25.550   4.429   6.401  1.00  0.00     0.274 HD
ATOM     10  H12 UNL     1      25.100   5.822   6.911  1.00  0.00     0.274 HD
ATOM     11  H11 UNL     1      24.025   4.972   5.929  1.00  0.00     0.274 HD
ENDBRANCH   6   8
TORSDOF 1
ENDMDL
MODEL 5
REMARK VINA RESULT: -5.335778122      1.608      2.378
REMARK  1 active torsions:
REMARK  status: ('A' for Active; 'I' for Inactive)
REMARK    1  A    between atoms: C6_6  and  N1_7 
ROOT
HETATM    1  C1  UNL     1      25.231   5.483   6.369  1.00  0.00     0.010 C 
HETATM    2  C2  UNL     1      26.334   5.997   5.499  1.00  0.00    -0.017 C 
HETATM    3  C3  UNL     1      26.504   7.508   5.599  1.00  0.00     0.004 C 
HETATM    4  C4  UNL     1      27.696   7.919   4.786  1.00  0.00     0.002 C 
HETATM    5  C5  UNL     1      27.690   7.401   3.387  1.00  0.00     0.033 C 
HETATM    6  C6  UNL     1      27.378   5.932   3.306  1.00  0.00     0.183 C 
HETATM    7  C7  UNL     1      26.043   5.722   4.015  1.00  0.00     0.037 C 
ENDROOT
BRANCH   6   8
HETATM    8  N1  UNL     1      27.310   5.486   1.956  1.00  0.00    -0.075 N 
ATOM      9  H13 UNL     1      27.660   6.195   1.311  1.00  0.00     0.274 HD
ATOM     10  H12 UNL     1      27.994   4.752   1.770  1.00  0.00     0.274 HD
ATOM     11  H11 UNL     1      26.367   5.188   1.708  1.00  0.00     0.274 HD
ENDBRANCH   6   8
TORSDOF 1
ENDMDL
