MODEL 1
REMARK VINA RESULT: -9.892602671      0.000      0.000
REMARK  2 active torsions:
REMARK  status: ('A' for Active; 'I' for Inactive)
REMARK       I    between atoms: C1_2  and  N1_3 
REMARK    1  A    between atoms: C1_2  and  C12_21 
REMARK    2  A    between atoms: N1_3  and  C2_5 
ROOT
HETATM    1  O1  UNL     1       5.695 -29.214  35.249  1.00  0.00    -0.267 OA
HETATM    2  C1  UNL     1       5.232 -28.857  36.407  1.00  0.00     0.262 C 
HETATM    3  N1  UNL     1       5.864 -27.819  37.015  1.00  0.00    -0.308 N 
ATOM      4  H1  UNL     1       6.869 -27.963  36.914  1.00  0.00     0.170 HD
ENDROOT
BRANCH   3   5
HETATM    5  C2  UNL     1       5.698 -26.777  37.637  1.00  0.00     0.124 A 
HETATM    6  N2  UNL     1       4.617 -26.446  38.364  1.00  0.00    -0.338 N 
HETATM    7  C3  UNL     1       4.508 -25.268  39.026  1.00  0.00     0.183 A 
ATOM      8  H2  UNL     1       3.845 -27.110  38.420  1.00  0.00     0.168 HD
HETATM    9  N3  UNL     1       5.494 -24.363  38.985  1.00  0.00    -0.338 N 
HETATM   10  C4  UNL     1       6.623 -24.610  38.276  1.00  0.00     0.121 A 
ATOM     11  H3  UNL     1       5.395 -23.482  39.489  1.00  0.00     0.168 HD
HETATM   12  N4  UNL     1       7.746 -23.892  38.067  1.00  0.00    -0.341 N 
HETATM   13  C11 UNL     1       6.718 -25.804  37.612  1.00  0.00     0.065 A 
HETATM   14  C5  UNL     1       8.556 -24.637  37.266  1.00  0.00     0.045 A 
ATOM     15  H4  UNL     1       7.950 -22.965  38.440  1.00  0.00     0.167 HD
HETATM   16  C6  UNL     1       9.807 -24.382  36.754  1.00  0.00     0.030 A 
HETATM   17  C10 UNL     1       7.946 -25.843  36.959  1.00  0.00     0.008 A 
HETATM   18  C7  UNL     1      10.418 -25.311  35.960  1.00  0.00     0.002 A 
HETATM   19  C8  UNL     1       9.800 -26.509  35.662  1.00  0.00     0.001 A 
HETATM   20  C9  UNL     1       8.542 -26.787  36.167  1.00  0.00     0.015 A 
ENDBRANCH   3   5
BRANCH   2  21
HETATM   21  C12 UNL     1       4.105 -29.656  36.842  1.00  0.00     0.089 A 
HETATM   22  C13 UNL     1       2.767 -29.531  36.452  1.00  0.00     0.011 A 
HETATM   23  C14 UNL     1       2.221 -28.648  35.554  1.00  0.00     0.015 A 
HETATM   24  C18 UNL     1       2.021 -30.463  37.125  1.00  0.00     0.051 A 
HETATM   25  C15 UNL     1       0.849 -28.733  35.344  1.00  0.00     0.001 A 
HETATM   26  C16 UNL     1       0.101 -29.670  36.021  1.00  0.00     0.002 A 
HETATM   27  C17 UNL     1       0.666 -30.556  36.925  1.00  0.00     0.031 A 
HETATM   28  N5  UNL     1       2.857 -31.155  37.914  1.00  0.00    -0.307 N 
HETATM   29  C19 UNL     1       2.574 -32.178  38.770  1.00  0.00     0.100 A 
HETATM   30  C22 UNL     1       4.115 -30.681  37.754  1.00  0.00     0.128 A 
HETATM   31  C20 UNL     1       3.582 -32.753  39.495  1.00  0.00     0.035 A 
HETATM   32  C21 UNL     1       4.847 -32.279  39.337  1.00  0.00     0.091 A 
HETATM   33  N6  UNL     1       5.079 -31.283  38.495  1.00  0.00    -0.351 N 
ATOM     34  H6  UNL     1       6.038 -30.950  38.399  1.00  0.00     0.166 HD
ENDBRANCH   2  21
TORSDOF 2
ENDMDL
MODEL 2
REMARK VINA RESULT: -9.776247205      0.846      2.864
REMARK  2 active torsions:
REMARK  status: ('A' for Active; 'I' for Inactive)
REMARK       I    between atoms: C1_2  and  N1_3 
REMARK    1  A    between atoms: C1_2  and  C12_21 
REMARK    2  A    between atoms: N1_3  and  C2_5 
ROOT
HETATM    1  O1  UNL     1       5.782 -29.078  35.275  1.00  0.00    -0.267 OA
HETATM    2  C1  UNL     1       5.285 -28.703  36.413  1.00  0.00     0.262 C 
HETATM    3  N1  UNL     1       5.942 -27.703  37.057  1.00  0.00    -0.308 N 
ATOM      4  H1  UNL     1       6.941 -27.899  37.002  1.00  0.00     0.170 HD
ENDROOT
BRANCH   3   5
HETATM    5  C2  UNL     1       5.801 -26.657  37.679  1.00  0.00     0.124 A 
HETATM    6  N2  UNL     1       4.738 -26.308  38.423  1.00  0.00    -0.338 N 
HETATM    7  C3  UNL     1       4.658 -25.127  39.083  1.00  0.00     0.183 A 
ATOM      8  H2  UNL     1       3.958 -26.961  38.495  1.00  0.00     0.168 HD
HETATM    9  N3  UNL     1       5.655 -24.237  39.022  1.00  0.00    -0.338 N 
HETATM   10  C4  UNL     1       6.767 -24.501  38.294  1.00  0.00     0.121 A 
ATOM     11  H3  UNL     1       5.577 -23.353  39.525  1.00  0.00     0.168 HD
HETATM   12  N4  UNL     1       7.897 -23.800  38.063  1.00  0.00    -0.341 N 
HETATM   13  C11 UNL     1       6.834 -25.699  37.633  1.00  0.00     0.065 A 
HETATM   14  C5  UNL     1       8.683 -24.559  37.251  1.00  0.00     0.045 A 
ATOM     15  H4  UNL     1       8.121 -22.874  38.430  1.00  0.00     0.167 HD
HETATM   16  C6  UNL     1       9.928 -24.323  36.717  1.00  0.00     0.030 A 
HETATM   17  C10 UNL     1       8.050 -25.757  36.959  1.00  0.00     0.008 A 
HETATM   18  C7  UNL     1      10.512 -25.264  35.915  1.00  0.00     0.002 A 
HETATM   19  C8  UNL     1       9.871 -26.453  35.631  1.00  0.00     0.001 A 
HETATM   20  C9  UNL     1       8.618 -26.711  36.159  1.00  0.00     0.015 A 
ENDBRANCH   3   5
BRANCH   2  21
HETATM   21  C12 UNL     1       4.099 -29.445  36.789  1.00  0.00     0.089 A 
HETATM   22  C13 UNL     1       4.008 -30.512  37.689  1.00  0.00     0.011 A 
HETATM   23  C14 UNL     1       5.007 -31.080  38.439  1.00  0.00     0.015 A 
HETATM   24  C18 UNL     1       2.709 -30.947  37.729  1.00  0.00     0.051 A 
HETATM   25  C15 UNL     1       4.648 -32.141  39.265  1.00  0.00     0.001 A 
HETATM   26  C16 UNL     1       3.342 -32.577  39.304  1.00  0.00     0.002 A 
HETATM   27  C17 UNL     1       2.344 -31.992  38.540  1.00  0.00     0.031 A 
HETATM   28  N5  UNL     1       2.002 -30.183  36.884  1.00  0.00    -0.307 N 
HETATM   29  C19 UNL     1       0.672 -30.242  36.586  1.00  0.00     0.100 A 
HETATM   30  C22 UNL     1       2.825 -29.273  36.311  1.00  0.00     0.128 A 
HETATM   31  C20 UNL     1       0.141 -29.363  35.683  1.00  0.00     0.035 A 
HETATM   32  C21 UNL     1       0.965 -28.448  35.105  1.00  0.00     0.091 A 
HETATM   33  N6  UNL     1       2.251 -28.424  35.422  1.00  0.00    -0.351 N 
ATOM     34  H6  UNL     1       2.843 -27.727  34.972  1.00  0.00     0.166 HD
ENDBRANCH   2  21
TORSDOF 2
ENDMDL
MODEL 3
REMARK VINA RESULT: -9.742401336      3.574      8.374
REMARK  2 active torsions:
REMARK  status: ('A' for Active; 'I' for Inactive)
REMARK       I    between atoms: C1_2  and  N1_3 
REMARK    1  A    between atoms: C1_2  and  C12_21 
REMARK    2  A    between atoms: N1_3  and  C2_5 
ROOT
HETATM    1  O1  UNL     1       8.433 -22.194  38.541  1.00  0.00    -0.267 OA
HETATM    2  C1  UNL     1       8.472 -23.298  37.860  1.00  0.00     0.262 C 
HETATM    3  N1  UNL     1       7.284 -23.926  37.662  1.00  0.00    -0.308 N 
ATOM      4  H1  UNL     1       6.774 -23.915  38.545  1.00  0.00     0.170 HD
ENDROOT
BRANCH   3   5
HETATM    5  C2  UNL     1       6.586 -24.501  36.835  1.00  0.00     0.124 A 
HETATM    6  N2  UNL     1       6.057 -23.961  35.724  1.00  0.00    -0.338 N 
HETATM    7  C3  UNL     1       5.293 -24.666  34.855  1.00  0.00     0.183 A 
ATOM      8  H2  UNL     1       6.238 -22.977  35.526  1.00  0.00     0.168 HD
HETATM    9  N3  UNL     1       5.026 -25.960  35.069  1.00  0.00    -0.338 N 
HETATM   10  C4  UNL     1       5.517 -26.590  36.164  1.00  0.00     0.121 A 
ATOM     11  H3  UNL     1       4.449 -26.475  34.404  1.00  0.00     0.168 HD
HETATM   12  N4  UNL     1       5.408 -27.857  36.616  1.00  0.00    -0.341 N 
HETATM   13  C11 UNL     1       6.288 -25.865  37.033  1.00  0.00     0.065 A 
HETATM   14  C5  UNL     1       6.113 -27.933  37.777  1.00  0.00     0.045 A 
ATOM     15  H4  UNL     1       4.893 -28.617  36.170  1.00  0.00     0.167 HD
HETATM   16  C6  UNL     1       6.329 -28.982  38.640  1.00  0.00     0.030 A 
HETATM   17  C10 UNL     1       6.680 -26.702  38.073  1.00  0.00     0.008 A 
HETATM   18  C7  UNL     1       7.089 -28.794  39.760  1.00  0.00     0.002 A 
HETATM   19  C8  UNL     1       7.648 -27.564  40.043  1.00  0.00     0.001 A 
HETATM   20  C9  UNL     1       7.444 -26.495  39.188  1.00  0.00     0.015 A 
ENDBRANCH   3   5
BRANCH   2  21
HETATM   21  C12 UNL     1       9.810 -23.658  37.436  1.00  0.00     0.089 A 
HETATM   22  C13 UNL     1      10.202 -24.794  36.719  1.00  0.00     0.011 A 
HETATM   23  C14 UNL     1       9.414 -25.806  36.231  1.00  0.00     0.015 A 
HETATM   24  C18 UNL     1      11.562 -24.765  36.555  1.00  0.00     0.051 A 
HETATM   25  C15 UNL     1      10.060 -26.830  35.546  1.00  0.00     0.001 A 
HETATM   26  C16 UNL     1      11.427 -26.800  35.382  1.00  0.00     0.002 A 
HETATM   27  C17 UNL     1      12.209 -25.770  35.880  1.00  0.00     0.031 A 
HETATM   28  N5  UNL     1      12.016 -23.650  37.147  1.00  0.00    -0.307 N 
HETATM   29  C19 UNL     1      13.298 -23.196  37.246  1.00  0.00     0.100 A 
HETATM   30  C22 UNL     1      10.972 -22.973  37.681  1.00  0.00     0.128 A 
HETATM   31  C20 UNL     1      13.553 -22.023  37.903  1.00  0.00     0.035 A 
HETATM   32  C21 UNL     1      12.507 -21.340  38.441  1.00  0.00     0.091 A 
HETATM   33  N6  UNL     1      11.276 -21.817  38.322  1.00  0.00    -0.351 N 
ATOM     34  H6  UNL     1      10.513 -21.282  38.737  1.00  0.00     0.166 HD
ENDBRANCH   2  21
TORSDOF 2
ENDMDL
MODEL 4
REMARK VINA RESULT: -9.514263416      1.567      7.366
REMARK  2 active torsions:
REMARK  status: ('A' for Active; 'I' for Inactive)
REMARK       I    between atoms: C1_2  and  N1_3 
REMARK    1  A    between atoms: C1_2  and  C12_21 
REMARK    2  A    between atoms: N1_3  and  C2_5 
ROOT
HETATM    1  O1  UNL     1       7.107 -29.077  38.917  1.00  0.00    -0.267 OA
HETATM    2  C1  UNL     1       6.482 -28.448  37.971  1.00  0.00     0.262 C 
HETATM    3  N1  UNL     1       5.545 -29.159  37.289  1.00  0.00    -0.308 N 
ATOM      4  H1  UNL     1       5.938 -30.079  37.089  1.00  0.00     0.170 HD
ENDROOT
BRANCH   3   5
HETATM    5  C2  UNL     1       4.414 -29.126  36.824  1.00  0.00     0.124 A 
HETATM    6  N2  UNL     1       3.932 -28.215  35.961  1.00  0.00    -0.338 N 
HETATM    7  C3  UNL     1       2.662 -28.247  35.490  1.00  0.00     0.183 A 
ATOM      8  H2  UNL     1       4.549 -27.466  35.648  1.00  0.00     0.168 HD
HETATM    9  N3  UNL     1       1.812 -29.209  35.870  1.00  0.00    -0.338 N 
HETATM   10  C4  UNL     1       2.209 -30.172  36.738  1.00  0.00     0.121 A 
ATOM     11  H3  UNL     1       0.860 -29.218  35.505  1.00  0.00     0.168 HD
HETATM   12  N4  UNL     1       1.576 -31.235  37.277  1.00  0.00    -0.341 N 
HETATM   13  C11 UNL     1       3.496 -30.126  37.205  1.00  0.00     0.065 A 
HETATM   14  C5  UNL     1       2.467 -31.864  38.090  1.00  0.00     0.045 A 
ATOM     15  H4  UNL     1       0.610 -31.514  37.106  1.00  0.00     0.167 HD
HETATM   16  C6  UNL     1       2.343 -32.988  38.872  1.00  0.00     0.030 A 
HETATM   17  C10 UNL     1       3.683 -31.198  38.072  1.00  0.00     0.008 A 
HETATM   18  C7  UNL     1       3.408 -33.423  39.611  1.00  0.00     0.002 A 
HETATM   19  C8  UNL     1       4.614 -32.751  39.584  1.00  0.00     0.001 A 
HETATM   20  C9  UNL     1       4.761 -31.618  38.803  1.00  0.00     0.015 A 
ENDBRANCH   3   5
BRANCH   2  21
HETATM   21  C12 UNL     1       6.918 -27.075  37.815  1.00  0.00     0.089 A 
HETATM   22  C13 UNL     1       6.301 -25.922  38.312  1.00  0.00     0.011 A 
HETATM   23  C14 UNL     1       5.167 -25.825  39.078  1.00  0.00     0.015 A 
HETATM   24  C18 UNL     1       7.021 -24.827  37.908  1.00  0.00     0.051 A 
HETATM   25  C15 UNL     1       4.761 -24.546  39.443  1.00  0.00     0.001 A 
HETATM   26  C16 UNL     1       5.485 -23.447  39.037  1.00  0.00     0.002 A 
HETATM   27  C17 UNL     1       6.629 -23.560  38.263  1.00  0.00     0.031 A 
HETATM   28  N5  UNL     1       8.057 -25.271  37.182  1.00  0.00    -0.307 N 
HETATM   29  C19 UNL     1       9.042 -24.554  36.570  1.00  0.00     0.100 A 
HETATM   30  C22 UNL     1       8.008 -26.623  37.117  1.00  0.00     0.128 A 
HETATM   31  C20 UNL     1      10.017 -25.206  35.865  1.00  0.00     0.035 A 
HETATM   32  C21 UNL     1       9.971 -26.564  35.798  1.00  0.00     0.091 A 
HETATM   33  N6  UNL     1       8.997 -27.223  36.407  1.00  0.00    -0.351 N 
ATOM     34  H6  UNL     1       8.989 -28.240  36.338  1.00  0.00     0.166 HD
ENDBRANCH   2  21
TORSDOF 2
ENDMDL
MODEL 5
REMARK VINA RESULT: -9.509285921      1.358      7.522
REMARK  2 active torsions:
REMARK  status: ('A' for Active; 'I' for Inactive)
REMARK       I    between atoms: C1_2  and  N1_3 
REMARK    1  A    between atoms: C1_2  and  C12_21 
REMARK    2  A    between atoms: N1_3  and  C2_5 
ROOT
HETATM    1  O1  UNL     1       7.122 -28.994  38.849  1.00  0.00    -0.267 OA
HETATM    2  C1  UNL     1       6.462 -28.393  37.907  1.00  0.00     0.262 C 
HETATM    3  N1  UNL     1       5.535 -29.139  37.249  1.00  0.00    -0.308 N 
ATOM      4  H1  UNL     1       5.952 -30.049  37.050  1.00  0.00     0.170 HD
ENDROOT
BRANCH   3   5
HETATM    5  C2  UNL     1       4.395 -29.145  36.803  1.00  0.00     0.124 A 
HETATM    6  N2  UNL     1       3.877 -28.268  35.926  1.00  0.00    -0.338 N 
HETATM    7  C3  UNL     1       2.600 -28.342  35.479  1.00  0.00     0.183 A 
ATOM      8  H2  UNL     1       4.471 -27.514  35.583  1.00  0.00     0.168 HD
HETATM    9  N3  UNL     1       1.781 -29.313  35.899  1.00  0.00    -0.338 N 
HETATM   10  C4  UNL     1       2.215 -30.244  36.784  1.00  0.00     0.121 A 
ATOM     11  H3  UNL     1       0.822 -29.354  35.551  1.00  0.00     0.168 HD
HETATM   12  N4  UNL     1       1.617 -31.306  37.362  1.00  0.00    -0.341 N 
HETATM   13  C11 UNL     1       3.508 -30.156  37.227  1.00  0.00     0.065 A 
HETATM   14  C5  UNL     1       2.537 -31.893  38.175  1.00  0.00     0.045 A 
ATOM     15  H4  UNL     1       0.655 -31.613  37.216  1.00  0.00     0.167 HD
HETATM   16  C6  UNL     1       2.452 -32.999  38.988  1.00  0.00     0.030 A 
HETATM   17  C10 UNL     1       3.736 -31.200  38.118  1.00  0.00     0.008 A 
HETATM   18  C7  UNL     1       3.541 -33.389  39.718  1.00  0.00     0.002 A 
HETATM   19  C8  UNL     1       4.729 -32.690  39.653  1.00  0.00     0.001 A 
HETATM   20  C9  UNL     1       4.836 -31.575  38.840  1.00  0.00     0.015 A 
ENDBRANCH   3   5
BRANCH   2  21
HETATM   21  C12 UNL     1       6.853 -27.009  37.731  1.00  0.00     0.089 A 
HETATM   22  C13 UNL     1       7.952 -26.516  37.020  1.00  0.00     0.011 A 
HETATM   23  C14 UNL     1       8.890 -27.220  36.307  1.00  0.00     0.015 A 
HETATM   24  C18 UNL     1       7.975 -25.151  37.133  1.00  0.00     0.051 A 
HETATM   25  C15 UNL     1       9.892 -26.481  35.686  1.00  0.00     0.001 A 
HETATM   26  C16 UNL     1       9.914 -25.109  35.801  1.00  0.00     0.002 A 
HETATM   27  C17 UNL     1       8.959 -24.412  36.524  1.00  0.00     0.031 A 
HETATM   28  N5  UNL     1       6.927 -24.791  37.889  1.00  0.00    -0.307 N 
HETATM   29  C19 UNL     1       6.541 -23.542  38.278  1.00  0.00     0.100 A 
HETATM   30  C22 UNL     1       6.242 -25.900  38.256  1.00  0.00     0.128 A 
HETATM   31  C20 UNL     1       5.431 -23.389  39.062  1.00  0.00     0.035 A 
HETATM   32  C21 UNL     1       4.740 -24.501  39.433  1.00  0.00     0.091 A 
HETATM   33  N6  UNL     1       5.149 -25.696  39.034  1.00  0.00    -0.351 N 
ATOM     34  H6  UNL     1       4.610 -26.511  39.328  1.00  0.00     0.166 HD
ENDBRANCH   2  21
TORSDOF 2
ENDMDL
