MODEL 1
REMARK VINA RESULT: -7.897428800      0.000      0.000
REMARK  12 active torsions:
REMARK  status: ('A' for Active; 'I' for Inactive)
REMARK       I    between atoms: C2_4  and  N2_5 
REMARK       I    between atoms: C2_4  and  N8_39 
REMARK       I    between atoms: N3_9  and  C5_10 
REMARK    1  A    between atoms: N5_12  and  C6_14 
REMARK    2  A    between atoms: C6_14  and  C7_15 
REMARK    3  A    between atoms: C7_15  and  N6_16 
REMARK    4  A    between atoms: C12_21  and  C13_22 
REMARK    5  A    between atoms: C13_22  and  C14_23 
REMARK    6  A    between atoms: C14_23  and  C15_24 
REMARK    7  A    between atoms: C15_24  and  N7_25 
REMARK    8  A    between atoms: N7_25  and  C18_28 
REMARK    9  A    between atoms: C18_28  and  C19_29 
REMARK   10  A    between atoms: C19_29  and  C20_30 
REMARK   11  A    between atoms: C25_35  and  O1_36 
REMARK   12  A    between atoms: N8_39  and  C27_41 
ROOT
HETATM    1  C1  UNL     1       7.793   8.429  24.928  1.00  0.00     0.165 C 
HETATM    2  N1  UNL     1       6.626   7.615  24.700  1.00  0.00    -0.231 N 
ATOM      3  H1  UNL     1       5.915   7.597  25.431  1.00  0.00     0.177 HD
HETATM    4  C2  UNL     1       6.413   6.910  23.644  1.00  0.00     0.674 C 
HETATM    5  N2  UNL     1       5.216   6.166  23.576  1.00  0.00    -0.198 N 
ATOM      6  H2  UNL     1       5.321   5.154  23.650  1.00  0.00     0.183 HD
HETATM    7  C3  UNL     1       4.041   6.583  23.438  1.00  0.00     0.026 C 
HETATM    8  C4  UNL     1       3.607   8.007  23.307  1.00  0.00     0.178 C 
HETATM    9  N3  UNL     1       2.417   8.128  24.112  1.00  0.00    -0.350 N 
HETATM   10  C5  UNL     1       1.472   9.129  23.825  1.00  0.00     0.186 C 
HETATM   11  N4  UNL     1       0.260   8.866  23.109  1.00  0.00    -0.064 NA
HETATM   12  N5  UNL     1       1.661  10.364  24.203  1.00  0.00    -0.363 N 
ATOM     13  H5  UNL     1       2.510  10.600  24.716  1.00  0.00     0.162 HD
HETATM   14  C10 UNL     1       2.254   7.187  25.192  1.00  0.00     0.126 C 
HETATM   15  C11 UNL     1       2.076   5.766  24.651  1.00  0.00     0.030 C 
HETATM   16  C12 UNL     1       2.904   5.560  23.397  1.00  0.00     0.035 C 
HETATM   17  N8  UNL     1       7.386   6.912  22.612  1.00  0.00    -0.218 N 
ATOM     18  H8  UNL     1       8.280   6.461  22.807  1.00  0.00     0.178 HD
ENDROOT
BRANCH  16  19
HETATM   19  C13 UNL     1       3.560   4.239  23.364  1.00  0.00     0.012 C 
BRANCH  19  20
HETATM   20  C14 UNL     1       3.449   3.350  22.202  1.00  0.00     0.029 C 
BRANCH  20  21
HETATM   21  C15 UNL     1       4.563   3.321  21.235  1.00  0.00     0.236 C 
BRANCH  21  22
HETATM   22  N7  UNL     1       4.071   3.270  19.851  1.00  0.00    -0.075 N 
HETATM   23  C16 UNL     1       3.075   2.235  19.698  1.00  0.00     0.272 C 
HETATM   24  C17 UNL     1       3.442   4.520  19.489  1.00  0.00     0.272 C 
BRANCH  22  25
HETATM   25  C18 UNL     1       5.173   3.026  18.976  1.00  0.00     0.237 C 
BRANCH  25  26
HETATM   26  C19 UNL     1       6.355   2.348  19.637  1.00  0.00     0.032 C 
BRANCH  26  27
HETATM   27  C20 UNL     1       7.118   1.633  18.513  1.00  0.00    -0.010 C 
HETATM   28  C21 UNL     1       8.328   0.946  19.067  1.00  0.00     0.009 C 
HETATM   29  C22 UNL     1       9.508   0.969  18.133  1.00  0.00    -0.016 C 
HETATM   30  C23 UNL     1       9.234   0.087  16.955  1.00  0.00     0.010 C 
HETATM   31  C24 UNL     1       9.909   2.372  17.763  1.00  0.00     0.036 C 
HETATM   32  C25 UNL     1       8.742   3.296  17.581  1.00  0.00     0.118 C 
HETATM   33  C26 UNL     1       7.433   2.575  17.379  1.00  0.00     0.036 C 
BRANCH  32  34
HETATM   34  O1  UNL     1       8.625   4.227  18.599  1.00  0.00    -0.396 OA
ATOM     35  H1  UNL     1       9.456   4.617  18.844  1.00  0.00     0.210 HD
ENDBRANCH  32  34
ENDBRANCH  26  27
ENDBRANCH  25  26
ENDBRANCH  22  25
ENDBRANCH  21  22
ENDBRANCH  20  21
ENDBRANCH  19  20
ENDBRANCH  16  19
BRANCH  17  36
HETATM   36  C27 UNL     1       7.208   7.501  21.313  1.00  0.00     0.036 C 
HETATM   37  C28 UNL     1       6.374   8.734  21.407  1.00  0.00     0.038 C 
HETATM   38  C29 UNL     1       6.584   6.548  20.315  1.00  0.00     0.038 C 
HETATM   39  C30 UNL     1       8.564   7.909  20.775  1.00  0.00     0.038 C 
ENDBRANCH  17  36
BRANCH  12  40
HETATM   40  C6  UNL     1       0.700  11.410  23.916  1.00  0.00     0.141 C 
BRANCH  40  41
HETATM   41  C7  UNL     1       0.318  12.057  25.228  1.00  0.00     0.135 C 
BRANCH  41  42
HETATM   42  N6  UNL     1      -1.078  11.958  25.514  1.00  0.00    -0.419 N 
HETATM   43  C8  UNL     1      -1.635  13.060  26.229  1.00  0.00     0.142 C 
HETATM   44  C9  UNL     1      -1.496  10.669  25.973  1.00  0.00     0.142 C 
ENDBRANCH  41  42
ENDBRANCH  40  41
ENDBRANCH  12  40
TORSDOF 12
ENDMDL
MODEL 2
REMARK VINA RESULT: -7.738295805      1.788      5.860
REMARK  12 active torsions:
REMARK  status: ('A' for Active; 'I' for Inactive)
REMARK       I    between atoms: C2_4  and  N2_5 
REMARK       I    between atoms: C2_4  and  N8_39 
REMARK       I    between atoms: N3_9  and  C5_10 
REMARK    1  A    between atoms: N5_12  and  C6_14 
REMARK    2  A    between atoms: C6_14  and  C7_15 
REMARK    3  A    between atoms: C7_15  and  N6_16 
REMARK    4  A    between atoms: C12_21  and  C13_22 
REMARK    5  A    between atoms: C13_22  and  C14_23 
REMARK    6  A    between atoms: C14_23  and  C15_24 
REMARK    7  A    between atoms: C15_24  and  N7_25 
REMARK    8  A    between atoms: N7_25  and  C18_28 
REMARK    9  A    between atoms: C18_28  and  C19_29 
REMARK   10  A    between atoms: C19_29  and  C20_30 
REMARK   11  A    between atoms: C25_35  and  O1_36 
REMARK   12  A    between atoms: N8_39  and  C27_41 
ROOT
HETATM    1  C1  UNL     1       1.703  11.008  24.176  1.00  0.00     0.165 C 
HETATM    2  N1  UNL     1       2.315  10.224  23.134  1.00  0.00    -0.231 N 
ATOM      3  H1  UNL     1       3.021  10.679  22.555  1.00  0.00     0.177 HD
HETATM    4  C2  UNL     1       2.039   8.993  22.878  1.00  0.00     0.674 C 
HETATM    5  N2  UNL     1       2.729   8.366  21.819  1.00  0.00    -0.198 N 
ATOM      6  H2  UNL     1       2.173   8.165  20.988  1.00  0.00     0.183 HD
HETATM    7  C3  UNL     1       3.935   8.024  21.764  1.00  0.00     0.026 C 
HETATM    8  C4  UNL     1       4.964   8.199  22.833  1.00  0.00     0.178 C 
HETATM    9  N3  UNL     1       6.163   8.626  22.154  1.00  0.00    -0.350 N 
HETATM   10  C5  UNL     1       7.422   8.386  22.734  1.00  0.00     0.186 C 
HETATM   11  N4  UNL     1       8.269   7.307  22.324  1.00  0.00    -0.064 NA
HETATM   12  N5  UNL     1       7.882   9.149  23.687  1.00  0.00    -0.363 N 
ATOM     13  H5  UNL     1       7.315   9.931  24.013  1.00  0.00     0.162 HD
HETATM   14  C10 UNL     1       6.001   9.285  20.882  1.00  0.00     0.126 C 
HETATM   15  C11 UNL     1       5.424   8.321  19.842  1.00  0.00     0.030 C 
HETATM   16  C12 UNL     1       4.446   7.357  20.485  1.00  0.00     0.035 C 
HETATM   17  N8  UNL     1       1.059   8.334  23.663  1.00  0.00    -0.218 N 
ATOM     18  H8  UNL     1       0.090   8.636  23.559  1.00  0.00     0.178 HD
ENDROOT
BRANCH  16  19
HETATM   19  C13 UNL     1       3.250   7.127  19.652  1.00  0.00     0.012 C 
BRANCH  19  20
HETATM   20  C14 UNL     1       3.088   5.906  18.855  1.00  0.00     0.029 C 
BRANCH  20  21
HETATM   21  C15 UNL     1       4.181   4.916  18.860  1.00  0.00     0.236 C 
BRANCH  21  22
HETATM   22  N7  UNL     1       3.721   3.611  19.357  1.00  0.00    -0.075 N 
HETATM   23  C16 UNL     1       3.748   3.573  20.801  1.00  0.00     0.272 C 
HETATM   24  C17 UNL     1       2.355   3.366  18.951  1.00  0.00     0.272 C 
BRANCH  22  25
HETATM   25  C18 UNL     1       4.563   2.589  18.821  1.00  0.00     0.237 C 
BRANCH  25  26
HETATM   26  C19 UNL     1       5.946   2.536  19.434  1.00  0.00     0.032 C 
BRANCH  26  27
HETATM   27  C20 UNL     1       6.833   1.801  18.419  1.00  0.00    -0.010 C 
HETATM   28  C21 UNL     1       7.995   1.165  19.116  1.00  0.00     0.009 C 
HETATM   29  C22 UNL     1       9.263   1.185  18.304  1.00  0.00    -0.016 C 
HETATM   30  C23 UNL     1       9.127   0.256  17.138  1.00  0.00     0.010 C 
HETATM   31  C24 UNL     1       9.669   2.583  17.925  1.00  0.00     0.036 C 
HETATM   32  C25 UNL     1       8.508   3.471  17.594  1.00  0.00     0.118 C 
HETATM   33  C26 UNL     1       7.241   2.711  17.288  1.00  0.00     0.036 C 
BRANCH  32  34
HETATM   34  O1  UNL     1       8.268   4.434  18.560  1.00  0.00    -0.396 OA
ATOM     35  H1  UNL     1       7.370   4.436  18.868  1.00  0.00     0.210 HD
ENDBRANCH  32  34
ENDBRANCH  26  27
ENDBRANCH  25  26
ENDBRANCH  22  25
ENDBRANCH  21  22
ENDBRANCH  20  21
ENDBRANCH  19  20
ENDBRANCH  16  19
BRANCH  17  36
HETATM   36  C27 UNL     1       1.326   7.273  24.595  1.00  0.00     0.036 C 
HETATM   37  C28 UNL     1       0.173   7.088  25.524  1.00  0.00     0.038 C 
HETATM   38  C29 UNL     1       2.588   7.501  25.402  1.00  0.00     0.038 C 
HETATM   39  C30 UNL     1       1.500   5.980  23.824  1.00  0.00     0.038 C 
ENDBRANCH  17  36
BRANCH  12  40
HETATM   40  C6  UNL     1       9.176   8.920  24.298  1.00  0.00     0.141 C 
BRANCH  40  41
HETATM   41  C7  UNL     1       8.950   8.152  25.580  1.00  0.00     0.135 C 
BRANCH  41  42
HETATM   42  N6  UNL     1      10.140   7.540  26.082  1.00  0.00    -0.419 N 
HETATM   43  C8  UNL     1       9.962   6.706  27.226  1.00  0.00     0.142 C 
HETATM   44  C9  UNL     1      11.272   8.413  26.142  1.00  0.00     0.142 C 
ENDBRANCH  41  42
ENDBRANCH  40  41
ENDBRANCH  12  40
TORSDOF 12
ENDMDL
MODEL 3
REMARK VINA RESULT: -7.733960032      2.205      3.129
REMARK  12 active torsions:
REMARK  status: ('A' for Active; 'I' for Inactive)
REMARK       I    between atoms: C2_4  and  N2_5 
REMARK       I    between atoms: C2_4  and  N8_39 
REMARK       I    between atoms: N3_9  and  C5_10 
REMARK    1  A    between atoms: N5_12  and  C6_14 
REMARK    2  A    between atoms: C6_14  and  C7_15 
REMARK    3  A    between atoms: C7_15  and  N6_16 
REMARK    4  A    between atoms: C12_21  and  C13_22 
REMARK    5  A    between atoms: C13_22  and  C14_23 
REMARK    6  A    between atoms: C14_23  and  C15_24 
REMARK    7  A    between atoms: C15_24  and  N7_25 
REMARK    8  A    between atoms: N7_25  and  C18_28 
REMARK    9  A    between atoms: C18_28  and  C19_29 
REMARK   10  A    between atoms: C19_29  and  C20_30 
REMARK   11  A    between atoms: C25_35  and  O1_36 
REMARK   12  A    between atoms: N8_39  and  C27_41 
ROOT
HETATM    1  C1  UNL     1       7.908  11.743  19.805  1.00  0.00     0.165 C 
HETATM    2  N1  UNL     1       7.604  10.468  20.404  1.00  0.00    -0.231 N 
ATOM      3  H1  UNL     1       7.673  10.397  21.420  1.00  0.00     0.177 HD
HETATM    4  C2  UNL     1       7.252   9.413  19.756  1.00  0.00     0.674 C 
HETATM    5  N2  UNL     1       6.990   8.240  20.494  1.00  0.00    -0.198 N 
ATOM      6  H2  UNL     1       7.676   7.492  20.392  1.00  0.00     0.183 HD
HETATM    7  C3  UNL     1       6.026   7.994  21.259  1.00  0.00     0.026 C 
HETATM    8  C4  UNL     1       4.888   8.906  21.584  1.00  0.00     0.178 C 
HETATM    9  N3  UNL     1       4.663   8.758  23.001  1.00  0.00    -0.350 N 
HETATM   10  C5  UNL     1       3.395   9.037  23.544  1.00  0.00     0.186 C 
HETATM   11  N4  UNL     1       2.453   8.011  23.875  1.00  0.00    -0.064 NA
HETATM   12  N5  UNL     1       3.015  10.264  23.775  1.00  0.00    -0.363 N 
ATOM     13  H5  UNL     1       3.653  11.029  23.555  1.00  0.00     0.162 HD
HETATM   14  C10 UNL     1       5.775   8.313  23.802  1.00  0.00     0.126 C 
HETATM   15  C11 UNL     1       6.169   6.880  23.435  1.00  0.00     0.030 C 
HETATM   16  C12 UNL     1       5.974   6.631  21.952  1.00  0.00     0.035 C 
HETATM   17  N8  UNL     1       7.152   9.480  18.343  1.00  0.00    -0.218 N 
ATOM     18  H8  UNL     1       8.017   9.591  17.814  1.00  0.00     0.178 HD
ENDROOT
BRANCH  16  19
HETATM   19  C13 UNL     1       7.074   5.844  21.362  1.00  0.00     0.012 C 
BRANCH  19  20
HETATM   20  C14 UNL     1       6.822   4.611  20.607  1.00  0.00     0.029 C 
BRANCH  20  21
HETATM   21  C15 UNL     1       5.467   4.385  20.069  1.00  0.00     0.236 C 
BRANCH  21  22
HETATM   22  N7  UNL     1       4.958   3.056  20.440  1.00  0.00    -0.075 N 
HETATM   23  C16 UNL     1       4.920   2.905  21.877  1.00  0.00     0.272 C 
HETATM   24  C17 UNL     1       3.606   2.877  19.959  1.00  0.00     0.272 C 
BRANCH  22  25
HETATM   25  C18 UNL     1       5.801   2.059  19.862  1.00  0.00     0.237 C 
BRANCH  25  26
HETATM   26  C19 UNL     1       5.620   1.879  18.369  1.00  0.00     0.032 C 
BRANCH  26  27
HETATM   27  C20 UNL     1       6.900   1.197  17.865  1.00  0.00    -0.010 C 
HETATM   28  C21 UNL     1       7.944   1.204  18.938  1.00  0.00     0.009 C 
HETATM   29  C22 UNL     1       9.343   1.382  18.410  1.00  0.00    -0.016 C 
HETATM   30  C23 UNL     1       9.757   0.154  17.660  1.00  0.00     0.010 C 
HETATM   31  C24 UNL     1       9.491   2.655  17.621  1.00  0.00     0.036 C 
HETATM   32  C25 UNL     1       8.287   2.984  16.791  1.00  0.00     0.118 C 
HETATM   33  C26 UNL     1       7.372   1.806  16.569  1.00  0.00     0.036 C 
BRANCH  32  34
HETATM   34  O1  UNL     1       7.569   4.064  17.279  1.00  0.00    -0.396 OA
ATOM     35  H1  UNL     1       6.918   3.815  17.925  1.00  0.00     0.210 HD
ENDBRANCH  32  34
ENDBRANCH  26  27
ENDBRANCH  25  26
ENDBRANCH  22  25
ENDBRANCH  21  22
ENDBRANCH  20  21
ENDBRANCH  19  20
ENDBRANCH  16  19
BRANCH  17  36
HETATM   36  C27 UNL     1       5.924   9.404  17.600  1.00  0.00     0.036 C 
HETATM   37  C28 UNL     1       4.861  10.215  18.261  1.00  0.00     0.038 C 
HETATM   38  C29 UNL     1       5.432   7.983  17.420  1.00  0.00     0.038 C 
HETATM   39  C30 UNL     1       6.152   9.991  16.222  1.00  0.00     0.038 C 
ENDBRANCH  17  36
BRANCH  12  40
HETATM   40  C6  UNL     1       1.714  10.573  24.333  1.00  0.00     0.141 C 
BRANCH  40  41
HETATM   41  C7  UNL     1       0.899  11.248  23.254  1.00  0.00     0.135 C 
BRANCH  41  42
HETATM   42  N6  UNL     1       0.255  12.441  23.704  1.00  0.00    -0.419 N 
HETATM   43  C8  UNL     1      -0.225  12.407  25.047  1.00  0.00     0.142 C 
HETATM   44  C9  UNL     1      -0.647  13.019  22.756  1.00  0.00     0.142 C 
ENDBRANCH  41  42
ENDBRANCH  40  41
ENDBRANCH  12  40
TORSDOF 12
ENDMDL
MODEL 4
REMARK VINA RESULT: -7.659666784      2.270      6.133
REMARK  12 active torsions:
REMARK  status: ('A' for Active; 'I' for Inactive)
REMARK       I    between atoms: C2_4  and  N2_5 
REMARK       I    between atoms: C2_4  and  N8_39 
REMARK       I    between atoms: N3_9  and  C5_10 
REMARK    1  A    between atoms: N5_12  and  C6_14 
REMARK    2  A    between atoms: C6_14  and  C7_15 
REMARK    3  A    between atoms: C7_15  and  N6_16 
REMARK    4  A    between atoms: C12_21  and  C13_22 
REMARK    5  A    between atoms: C13_22  and  C14_23 
REMARK    6  A    between atoms: C14_23  and  C15_24 
REMARK    7  A    between atoms: C15_24  and  N7_25 
REMARK    8  A    between atoms: N7_25  and  C18_28 
REMARK    9  A    between atoms: C18_28  and  C19_29 
REMARK   10  A    between atoms: C19_29  and  C20_30 
REMARK   11  A    between atoms: C25_35  and  O1_36 
REMARK   12  A    between atoms: N8_39  and  C27_41 
ROOT
HETATM    1  C1  UNL     1       1.760  11.016  24.333  1.00  0.00     0.165 C 
HETATM    2  N1  UNL     1       2.367  10.261  23.266  1.00  0.00    -0.231 N 
ATOM      3  H1  UNL     1       3.091  10.722  22.715  1.00  0.00     0.177 HD
HETATM    4  C2  UNL     1       2.064   9.049  22.955  1.00  0.00     0.674 C 
HETATM    5  N2  UNL     1       2.753   8.450  21.879  1.00  0.00    -0.198 N 
ATOM      6  H2  UNL     1       2.204   8.298  21.033  1.00  0.00     0.183 HD
HETATM    7  C3  UNL     1       3.951   8.081  21.824  1.00  0.00     0.026 C 
HETATM    8  C4  UNL     1       4.969   8.185  22.913  1.00  0.00     0.178 C 
HETATM    9  N3  UNL     1       6.187   8.609  22.268  1.00  0.00    -0.350 N 
HETATM   10  C5  UNL     1       7.432   8.314  22.853  1.00  0.00     0.186 C 
HETATM   11  N4  UNL     1       8.258   7.232  22.408  1.00  0.00    -0.064 NA
HETATM   12  N5  UNL     1       7.898   9.024  23.843  1.00  0.00    -0.363 N 
ATOM     13  H5  UNL     1       7.345   9.806  24.194  1.00  0.00     0.162 HD
HETATM   14  C10 UNL     1       6.059   9.325  21.023  1.00  0.00     0.126 C 
HETATM   15  C11 UNL     1       5.473   8.421  19.936  1.00  0.00     0.030 C 
HETATM   16  C12 UNL     1       4.463   7.456  20.525  1.00  0.00     0.035 C 
HETATM   17  N8  UNL     1       1.057   8.382  23.699  1.00  0.00    -0.218 N 
ATOM     18  H8  UNL     1       0.098   8.713  23.595  1.00  0.00     0.178 HD
ENDROOT
BRANCH  16  19
HETATM   19  C13 UNL     1       3.273   7.291  19.668  1.00  0.00     0.012 C 
BRANCH  19  20
HETATM   20  C14 UNL     1       3.317   6.507  18.428  1.00  0.00     0.029 C 
BRANCH  20  21
HETATM   21  C15 UNL     1       4.274   5.389  18.341  1.00  0.00     0.236 C 
BRANCH  21  22
HETATM   22  N7  UNL     1       5.143   5.518  17.162  1.00  0.00    -0.075 N 
HETATM   23  C16 UNL     1       4.814   4.520  16.170  1.00  0.00     0.272 C 
HETATM   24  C17 UNL     1       4.966   6.810  16.538  1.00  0.00     0.272 C 
BRANCH  22  25
HETATM   25  C18 UNL     1       6.503   5.374  17.572  1.00  0.00     0.237 C 
BRANCH  25  26
HETATM   26  C19 UNL     1       6.678   4.838  18.978  1.00  0.00     0.032 C 
BRANCH  26  27
HETATM   27  C20 UNL     1       7.829   3.825  18.907  1.00  0.00    -0.010 C 
HETATM   28  C21 UNL     1       8.225   3.595  17.482  1.00  0.00     0.009 C 
HETATM   29  C22 UNL     1       8.638   2.175  17.198  1.00  0.00    -0.016 C 
HETATM   30  C23 UNL     1       9.942   1.886  17.874  1.00  0.00     0.010 C 
HETATM   31  C24 UNL     1       7.549   1.192  17.532  1.00  0.00     0.036 C 
HETATM   32  C25 UNL     1       6.776   1.557  18.764  1.00  0.00     0.118 C 
HETATM   33  C26 UNL     1       7.487   2.555  19.643  1.00  0.00     0.036 C 
BRANCH  32  34
HETATM   34  O1  UNL     1       5.490   1.991  18.489  1.00  0.00    -0.396 OA
ATOM     35  H1  UNL     1       5.193   2.673  19.080  1.00  0.00     0.210 HD
ENDBRANCH  32  34
ENDBRANCH  26  27
ENDBRANCH  25  26
ENDBRANCH  22  25
ENDBRANCH  21  22
ENDBRANCH  20  21
ENDBRANCH  19  20
ENDBRANCH  16  19
BRANCH  17  36
HETATM   36  C27 UNL     1       1.286   7.277  24.588  1.00  0.00     0.036 C 
HETATM   37  C28 UNL     1       2.480   7.532  25.445  1.00  0.00     0.038 C 
HETATM   38  C29 UNL     1       1.465   5.961  23.859  1.00  0.00     0.038 C 
HETATM   39  C30 UNL     1       0.089   7.135  25.506  1.00  0.00     0.038 C 
ENDBRANCH  17  36
BRANCH  12  40
HETATM   40  C6  UNL     1       9.177   8.737  24.460  1.00  0.00     0.141 C 
BRANCH  40  41
HETATM   41  C7  UNL     1       8.912   7.958  25.728  1.00  0.00     0.135 C 
BRANCH  41  42
HETATM   42  N6  UNL     1      10.065   7.844  26.564  1.00  0.00    -0.419 N 
HETATM   43  C8  UNL     1      11.270   8.380  26.020  1.00  0.00     0.142 C 
HETATM   44  C9  UNL     1      10.206   6.573  27.205  1.00  0.00     0.142 C 
ENDBRANCH  41  42
ENDBRANCH  40  41
ENDBRANCH  12  40
TORSDOF 12
ENDMDL
MODEL 5
REMARK VINA RESULT: -7.647194187      0.966      1.132
REMARK  12 active torsions:
REMARK  status: ('A' for Active; 'I' for Inactive)
REMARK       I    between atoms: C2_4  and  N2_5 
REMARK       I    between atoms: C2_4  and  N8_39 
REMARK       I    between atoms: N3_9  and  C5_10 
REMARK    1  A    between atoms: N5_12  and  C6_14 
REMARK    2  A    between atoms: C6_14  and  C7_15 
REMARK    3  A    between atoms: C7_15  and  N6_16 
REMARK    4  A    between atoms: C12_21  and  C13_22 
REMARK    5  A    between atoms: C13_22  and  C14_23 
REMARK    6  A    between atoms: C14_23  and  C15_24 
REMARK    7  A    between atoms: C15_24  and  N7_25 
REMARK    8  A    between atoms: N7_25  and  C18_28 
REMARK    9  A    between atoms: C18_28  and  C19_29 
REMARK   10  A    between atoms: C19_29  and  C20_30 
REMARK   11  A    between atoms: C25_35  and  O1_36 
REMARK   12  A    between atoms: N8_39  and  C27_41 
ROOT
HETATM    1  C1  UNL     1       7.586   8.364  25.041  1.00  0.00     0.165 C 
HETATM    2  N1  UNL     1       6.563   7.411  24.696  1.00  0.00    -0.231 N 
ATOM      3  H1  UNL     1       5.825   7.242  25.380  1.00  0.00     0.177 HD
HETATM    4  C2  UNL     1       6.508   6.755  23.589  1.00  0.00     0.674 C 
HETATM    5  N2  UNL     1       5.438   5.855  23.405  1.00  0.00    -0.198 N 
ATOM      6  H2  UNL     1       5.685   4.865  23.424  1.00  0.00     0.183 HD
HETATM    7  C3  UNL     1       4.222   6.109  23.222  1.00  0.00     0.026 C 
HETATM    8  C4  UNL     1       3.593   7.462  23.150  1.00  0.00     0.178 C 
HETATM    9  N3  UNL     1       2.359   7.358  23.889  1.00  0.00    -0.350 N 
HETATM   10  C5  UNL     1       1.294   8.233  23.605  1.00  0.00     0.186 C 
HETATM   11  N4  UNL     1       0.171   7.849  22.804  1.00  0.00    -0.064 NA
HETATM   12  N5  UNL     1       1.281   9.453  24.067  1.00  0.00    -0.363 N 
ATOM     13  H5  UNL     1       2.060   9.772  24.643  1.00  0.00     0.162 HD
HETATM   14  C10 UNL     1       2.281   6.333  24.899  1.00  0.00     0.126 C 
HETATM   15  C11 UNL     1       2.339   4.941  24.264  1.00  0.00     0.030 C 
HETATM   16  C12 UNL     1       3.250   4.940  23.052  1.00  0.00     0.035 C 
HETATM   17  N8  UNL     1       7.521   6.964  22.619  1.00  0.00    -0.218 N 
ATOM     18  H8  UNL     1       8.460   6.633  22.839  1.00  0.00     0.178 HD
ENDROOT
BRANCH  16  19
HETATM   19  C13 UNL     1       4.092   3.731  22.980  1.00  0.00     0.012 C 
BRANCH  19  20
HETATM   20  C14 UNL     1       4.165   2.911  21.765  1.00  0.00     0.029 C 
BRANCH  20  21
HETATM   21  C15 UNL     1       4.549   3.567  20.501  1.00  0.00     0.236 C 
BRANCH  21  22
HETATM   22  N7  UNL     1       4.086   2.800  19.336  1.00  0.00    -0.075 N 
HETATM   23  C16 UNL     1       2.839   2.130  19.626  1.00  0.00     0.272 C 
HETATM   24  C17 UNL     1       3.844   3.678  18.212  1.00  0.00     0.272 C 
BRANCH  22  25
HETATM   25  C18 UNL     1       5.087   1.845  18.982  1.00  0.00     0.237 C 
BRANCH  25  26
HETATM   26  C19 UNL     1       5.344   1.734  17.494  1.00  0.00     0.032 C 
BRANCH  26  27
HETATM   27  C20 UNL     1       6.804   1.282  17.347  1.00  0.00    -0.010 C 
HETATM   28  C21 UNL     1       7.471   1.251  18.686  1.00  0.00     0.009 C 
HETATM   29  C22 UNL     1       8.919   1.662  18.643  1.00  0.00    -0.016 C 
HETATM   30  C23 UNL     1       9.718   0.611  17.937  1.00  0.00     0.010 C 
HETATM   31  C24 UNL     1       9.097   3.044  18.076  1.00  0.00     0.036 C 
HETATM   32  C25 UNL     1       8.156   3.352  16.950  1.00  0.00     0.118 C 
HETATM   33  C26 UNL     1       7.538   2.122  16.333  1.00  0.00     0.036 C 
BRANCH  32  34
HETATM   34  O1  UNL     1       7.171   4.260  17.299  1.00  0.00    -0.396 OA
ATOM     35  H1  UNL     1       7.023   4.923  16.634  1.00  0.00     0.210 HD
ENDBRANCH  32  34
ENDBRANCH  26  27
ENDBRANCH  25  26
ENDBRANCH  22  25
ENDBRANCH  21  22
ENDBRANCH  20  21
ENDBRANCH  19  20
ENDBRANCH  16  19
BRANCH  17  36
HETATM   36  C27 UNL     1       7.326   7.608  21.349  1.00  0.00     0.036 C 
HETATM   37  C28 UNL     1       6.389   8.762  21.485  1.00  0.00     0.038 C 
HETATM   38  C29 UNL     1       6.808   6.665  20.284  1.00  0.00     0.038 C 
HETATM   39  C30 UNL     1       8.655   8.157  20.872  1.00  0.00     0.038 C 
ENDBRANCH  17  36
BRANCH  12  40
HETATM   40  C6  UNL     1       0.195  10.369  23.786  1.00  0.00     0.141 C 
BRANCH  40  41
HETATM   41  C7  UNL     1       0.666  11.763  24.130  1.00  0.00     0.135 C 
BRANCH  41  42
HETATM   42  N6  UNL     1      -0.329  12.541  24.797  1.00  0.00    -0.419 N 
HETATM   43  C8  UNL     1      -1.113  11.837  25.759  1.00  0.00     0.142 C 
HETATM   44  C9  UNL     1      -1.070  13.412  23.938  1.00  0.00     0.142 C 
ENDBRANCH  41  42
ENDBRANCH  40  41
ENDBRANCH  12  40
TORSDOF 12
ENDMDL
