MODEL 1
REMARK VINA RESULT: -8.791082212      0.000      0.000
REMARK  6 active torsions:
REMARK  status: ('A' for Active; 'I' for Inactive)
REMARK       I    between atoms: N1_3  and  C3_5 
REMARK       I    between atoms: C3_5  and  N3_10 
REMARK    1  A    between atoms: N2_6  and  C4_8 
REMARK    2  A    between atoms: N3_10  and  C6_12 
REMARK    3  A    between atoms: C6_12  and  C7_13 
REMARK       I    between atoms: C7_13  and  N4_15 
REMARK    4  A    between atoms: N4_15  and  C8_17 
REMARK    5  A    between atoms: C8_17  and  C9_18 
REMARK    6  A    between atoms: C8_17  and  C19_28 
ROOT
HETATM    1  C1  UNL     1       8.414  10.550  20.715  1.00  0.00     0.037 C 
HETATM    2  C2  UNL     1       8.560   9.407  21.067  1.00  0.00     0.015 C 
HETATM    3  N1  UNL     1       8.722   8.073  21.452  1.00  0.00    -0.150 N 
ATOM      4  H1  UNL     1       9.194   7.439  20.808  1.00  0.00     0.195 HD
HETATM    5  C3  UNL     1       8.266   7.550  22.693  1.00  0.00     0.681 C 
HETATM    6  N2  UNL     1       8.857   7.888  23.770  1.00  0.00    -0.226 N 
ATOM      7  H2  UNL     1       8.495   7.487  24.635  1.00  0.00     0.177 HD
HETATM    8  N3  UNL     1       7.163   6.664  22.678  1.00  0.00    -0.217 N 
ATOM      9  H3  UNL     1       7.285   5.717  23.038  1.00  0.00     0.178 HD
ENDROOT
BRANCH   6  10
HETATM   10  C4  UNL     1       9.976   8.770  23.891  1.00  0.00     0.133 C 
HETATM   11  C5  UNL     1      10.615   8.752  25.263  1.00  0.00     0.027 C 
ENDBRANCH   6  10
BRANCH   8  12
HETATM   12  C6  UNL     1       5.866   7.059  22.167  1.00  0.00     0.240 C 
BRANCH  12  13
HETATM   13  C7  UNL     1       5.349   6.030  21.222  1.00  0.00     0.236 C 
HETATM   14  O1  UNL     1       4.494   6.371  20.399  1.00  0.00    -0.272 OA
HETATM   15  N4  UNL     1       5.860   4.731  21.314  1.00  0.00    -0.353 N 
ATOM     16  H4  UNL     1       6.566   4.559  22.030  1.00  0.00     0.163 HD
BRANCH  15  17
HETATM   17  C8  UNL     1       5.473   3.597  20.477  1.00  0.00     0.102 C 
BRANCH  17  18
HETATM   18  C9  UNL     1       6.620   3.222  19.633  1.00  0.00    -0.018 C 
HETATM   19  C10 UNL     1       7.744   4.207  19.554  1.00  0.00     0.016 C 
HETATM   20  C11 UNL     1       8.679   3.900  18.397  1.00  0.00    -0.013 C 
HETATM   21  C12 UNL     1       8.008   3.742  17.081  1.00  0.00     0.009 C 
HETATM   22  C16 UNL     1       9.340   2.566  18.757  1.00  0.00     0.009 C 
HETATM   23  C13 UNL     1       7.013   2.607  17.208  1.00  0.00    -0.013 C 
HETATM   24  C14 UNL     1       7.627   1.307  17.589  1.00  0.00     0.009 C 
HETATM   25  C18 UNL     1       6.010   3.044  18.228  1.00  0.00     0.016 C 
HETATM   26  C15 UNL     1       8.281   1.519  18.933  1.00  0.00    -0.013 C 
HETATM   27  C17 UNL     1       7.236   1.880  19.964  1.00  0.00     0.016 C 
ENDBRANCH  17  18
BRANCH  17  28
HETATM   28  C19 UNL     1       4.782   2.653  21.312  1.00  0.00    -0.011 C 
HETATM   29  C20 UNL     1       5.431   2.027  22.507  1.00  0.00     0.013 C 
HETATM   30  C21 UNL     1       4.246   1.188  23.032  1.00  0.00     0.006 C 
HETATM   31  C22 UNL     1       3.236   1.539  22.007  1.00  0.00    -0.005 C 
HETATM   32  C23 UNL     1       4.073   1.443  20.721  1.00  0.00     0.017 C 
HETATM   33  C24 UNL     1       3.413   3.047  21.818  1.00  0.00    -0.034 C 
HETATM   34  C25 UNL     1       3.292   3.744  23.110  1.00  0.00     0.016 C 
HETATM   35  C26 UNL     1       2.437   3.557  20.787  1.00  0.00     0.016 C 
ENDBRANCH  17  28
ENDBRANCH  15  17
ENDBRANCH  12  13
ENDBRANCH   8  12
TORSDOF 6
ENDMDL
MODEL 2
REMARK VINA RESULT: -8.513716537      1.816      2.793
REMARK  6 active torsions:
REMARK  status: ('A' for Active; 'I' for Inactive)
REMARK       I    between atoms: N1_3  and  C3_5 
REMARK       I    between atoms: C3_5  and  N3_10 
REMARK    1  A    between atoms: N2_6  and  C4_8 
REMARK    2  A    between atoms: N3_10  and  C6_12 
REMARK    3  A    between atoms: C6_12  and  C7_13 
REMARK       I    between atoms: C7_13  and  N4_15 
REMARK    4  A    between atoms: N4_15  and  C8_17 
REMARK    5  A    between atoms: C8_17  and  C9_18 
REMARK    6  A    between atoms: C8_17  and  C19_28 
ROOT
HETATM    1  C1  UNL     1       9.137   8.563  25.072  1.00  0.00     0.037 C 
HETATM    2  C2  UNL     1       8.190   7.818  25.087  1.00  0.00     0.015 C 
HETATM    3  N1  UNL     1       7.106   6.934  25.106  1.00  0.00    -0.150 N 
ATOM      4  H1  UNL     1       7.130   6.157  25.766  1.00  0.00     0.195 HD
HETATM    5  C3  UNL     1       5.973   7.058  24.257  1.00  0.00     0.681 C 
HETATM    6  N2  UNL     1       5.146   8.008  24.453  1.00  0.00    -0.226 N 
ATOM      7  H2  UNL     1       4.348   8.056  23.819  1.00  0.00     0.177 HD
HETATM    8  N3  UNL     1       5.808   6.109  23.221  1.00  0.00    -0.217 N 
ATOM      9  H3  UNL     1       4.970   5.528  23.212  1.00  0.00     0.178 HD
ENDROOT
BRANCH   6  10
HETATM   10  C4  UNL     1       5.220   9.013  25.468  1.00  0.00     0.133 C 
HETATM   11  C5  UNL     1       3.881   9.630  25.807  1.00  0.00     0.027 C 
ENDBRANCH   6  10
BRANCH   8  12
HETATM   12  C6  UNL     1       6.793   5.937  22.174  1.00  0.00     0.240 C 
BRANCH  12  13
HETATM   13  C7  UNL     1       6.150   5.385  20.947  1.00  0.00     0.236 C 
HETATM   14  O1  UNL     1       5.530   6.162  20.214  1.00  0.00    -0.272 OA
HETATM   15  N4  UNL     1       6.283   4.018  20.689  1.00  0.00    -0.353 N 
ATOM     16  H4  UNL     1       6.819   3.468  21.361  1.00  0.00     0.163 HD
BRANCH  15  17
HETATM   17  C8  UNL     1       5.722   3.304  19.543  1.00  0.00     0.102 C 
BRANCH  17  18
HETATM   18  C9  UNL     1       6.824   2.669  18.800  1.00  0.00    -0.018 C 
HETATM   19  C10 UNL     1       7.640   1.660  19.544  1.00  0.00     0.016 C 
HETATM   20  C11 UNL     1       8.943   1.351  18.826  1.00  0.00    -0.013 C 
HETATM   21  C12 UNL     1       9.754   2.544  18.471  1.00  0.00     0.009 C 
HETATM   22  C16 UNL     1       8.530   0.653  17.527  1.00  0.00     0.009 C 
HETATM   23  C13 UNL     1       8.907   3.422  17.574  1.00  0.00    -0.013 C 
HETATM   24  C14 UNL     1       8.467   2.755  16.319  1.00  0.00     0.009 C 
HETATM   25  C18 UNL     1       7.732   3.848  18.395  1.00  0.00     0.016 C 
HETATM   26  C15 UNL     1       7.639   1.563  16.736  1.00  0.00    -0.013 C 
HETATM   27  C17 UNL     1       6.415   2.024  17.493  1.00  0.00     0.016 C 
ENDBRANCH  17  18
BRANCH  17  28
HETATM   28  C19 UNL     1       4.573   2.574  20.002  1.00  0.00    -0.011 C 
HETATM   29  C20 UNL     1       4.541   1.905  21.341  1.00  0.00     0.013 C 
HETATM   30  C21 UNL     1       3.097   1.358  21.320  1.00  0.00     0.006 C 
HETATM   31  C22 UNL     1       2.681   1.844  19.983  1.00  0.00    -0.005 C 
HETATM   32  C23 UNL     1       3.922   1.500  19.143  1.00  0.00     0.017 C 
HETATM   33  C24 UNL     1       3.233   3.269  19.921  1.00  0.00    -0.034 C 
HETATM   34  C25 UNL     1       2.755   4.055  21.072  1.00  0.00     0.016 C 
HETATM   35  C26 UNL     1       2.883   3.901  18.597  1.00  0.00     0.016 C 
ENDBRANCH  17  28
ENDBRANCH  15  17
ENDBRANCH  12  13
ENDBRANCH   8  12
TORSDOF 6
ENDMDL
MODEL 3
REMARK VINA RESULT: -8.487850895      1.754      2.719
REMARK  6 active torsions:
REMARK  status: ('A' for Active; 'I' for Inactive)
REMARK       I    between atoms: N1_3  and  C3_5 
REMARK       I    between atoms: C3_5  and  N3_10 
REMARK    1  A    between atoms: N2_6  and  C4_8 
REMARK    2  A    between atoms: N3_10  and  C6_12 
REMARK    3  A    between atoms: C6_12  and  C7_13 
REMARK       I    between atoms: C7_13  and  N4_15 
REMARK    4  A    between atoms: N4_15  and  C8_17 
REMARK    5  A    between atoms: C8_17  and  C9_18 
REMARK    6  A    between atoms: C8_17  and  C19_28 
ROOT
HETATM    1  C1  UNL     1       4.618   9.550  20.886  1.00  0.00     0.037 C 
HETATM    2  C2  UNL     1       5.186   9.166  21.878  1.00  0.00     0.015 C 
HETATM    3  N1  UNL     1       5.864   8.733  23.021  1.00  0.00    -0.150 N 
ATOM      4  H1  UNL     1       6.379   9.425  23.566  1.00  0.00     0.195 HD
HETATM    5  C3  UNL     1       5.876   7.384  23.468  1.00  0.00     0.681 C 
HETATM    6  N2  UNL     1       4.814   6.878  23.959  1.00  0.00    -0.226 N 
ATOM      7  H2  UNL     1       4.871   5.907  24.266  1.00  0.00     0.177 HD
HETATM    8  N3  UNL     1       7.081   6.653  23.350  1.00  0.00    -0.217 N 
ATOM      9  H3  UNL     1       7.517   6.279  24.192  1.00  0.00     0.178 HD
ENDROOT
BRANCH   6  10
HETATM   10  C4  UNL     1       3.552   7.530  24.124  1.00  0.00     0.133 C 
HETATM   11  C5  UNL     1       3.091   7.599  25.563  1.00  0.00     0.027 C 
ENDBRANCH   6  10
BRANCH   8  12
HETATM   12  C6  UNL     1       7.715   6.419  22.068  1.00  0.00     0.240 C 
BRANCH  12  13
HETATM   13  C7  UNL     1       6.795   5.668  21.168  1.00  0.00     0.236 C 
HETATM   14  O1  UNL     1       5.939   6.304  20.546  1.00  0.00    -0.272 OA
HETATM   15  N4  UNL     1       6.950   4.281  21.072  1.00  0.00    -0.353 N 
ATOM     16  H4  UNL     1       7.692   3.857  21.629  1.00  0.00     0.163 HD
BRANCH  15  17
HETATM   17  C8  UNL     1       6.144   3.384  20.247  1.00  0.00     0.102 C 
BRANCH  17  18
HETATM   18  C9  UNL     1       7.020   2.751  19.247  1.00  0.00    -0.018 C 
HETATM   19  C10 UNL     1       7.804   1.560  19.700  1.00  0.00     0.016 C 
HETATM   20  C11 UNL     1       8.924   1.222  18.731  1.00  0.00    -0.013 C 
HETATM   21  C12 UNL     1       9.819   2.360  18.395  1.00  0.00     0.009 C 
HETATM   22  C16 UNL     1       8.222   0.774  17.446  1.00  0.00     0.009 C 
HETATM   23  C13 UNL     1       8.963   3.448  17.780  1.00  0.00    -0.013 C 
HETATM   24  C14 UNL     1       8.245   3.027  16.547  1.00  0.00     0.009 C 
HETATM   25  C18 UNL     1       8.000   3.872  18.843  1.00  0.00     0.016 C 
HETATM   26  C15 UNL     1       7.345   1.882  16.947  1.00  0.00    -0.013 C 
HETATM   27  C17 UNL     1       6.328   2.356  17.960  1.00  0.00     0.016 C 
ENDBRANCH  17  18
BRANCH  17  28
HETATM   28  C19 UNL     1       5.293   2.628  21.124  1.00  0.00    -0.011 C 
HETATM   29  C20 UNL     1       5.830   1.904  22.320  1.00  0.00     0.013 C 
HETATM   30  C21 UNL     1       4.510   1.349  22.897  1.00  0.00     0.006 C 
HETATM   31  C22 UNL     1       3.568   1.885  21.888  1.00  0.00    -0.005 C 
HETATM   32  C23 UNL     1       4.326   1.584  20.585  1.00  0.00     0.017 C 
HETATM   33  C24 UNL     1       4.056   3.316  21.652  1.00  0.00    -0.034 C 
HETATM   34  C25 UNL     1       4.124   4.051  22.927  1.00  0.00     0.016 C 
HETATM   35  C26 UNL     1       3.179   3.999  20.632  1.00  0.00     0.016 C 
ENDBRANCH  17  28
ENDBRANCH  15  17
ENDBRANCH  12  13
ENDBRANCH   8  12
TORSDOF 6
ENDMDL
MODEL 4
REMARK VINA RESULT: -8.483904599      1.797      2.574
REMARK  6 active torsions:
REMARK  status: ('A' for Active; 'I' for Inactive)
REMARK       I    between atoms: N1_3  and  C3_5 
REMARK       I    between atoms: C3_5  and  N3_10 
REMARK    1  A    between atoms: N2_6  and  C4_8 
REMARK    2  A    between atoms: N3_10  and  C6_12 
REMARK    3  A    between atoms: C6_12  and  C7_13 
REMARK       I    between atoms: C7_13  and  N4_15 
REMARK    4  A    between atoms: N4_15  and  C8_17 
REMARK    5  A    between atoms: C8_17  and  C9_18 
REMARK    6  A    between atoms: C8_17  and  C19_28 
ROOT
HETATM    1  C1  UNL     1       9.225   8.726  25.320  1.00  0.00     0.037 C 
HETATM    2  C2  UNL     1       8.300   7.959  25.234  1.00  0.00     0.015 C 
HETATM    3  N1  UNL     1       7.242   7.049  25.135  1.00  0.00    -0.150 N 
ATOM      4  H1  UNL     1       7.249   6.235  25.749  1.00  0.00     0.195 HD
HETATM    5  C3  UNL     1       6.157   7.197  24.229  1.00  0.00     0.681 C 
HETATM    6  N2  UNL     1       5.294   8.113  24.429  1.00  0.00    -0.226 N 
ATOM      7  H2  UNL     1       4.534   8.180  23.752  1.00  0.00     0.177 HD
HETATM    8  N3  UNL     1       6.080   6.308  23.131  1.00  0.00    -0.217 N 
ATOM      9  H3  UNL     1       5.261   5.708  23.037  1.00  0.00     0.178 HD
ENDROOT
BRANCH   6  10
HETATM   10  C4  UNL     1       5.281   9.056  25.504  1.00  0.00     0.133 C 
HETATM   11  C5  UNL     1       3.909   9.626  25.792  1.00  0.00     0.027 C 
ENDBRANCH   6  10
BRANCH   8  12
HETATM   12  C6  UNL     1       7.130   6.222  22.136  1.00  0.00     0.240 C 
BRANCH  12  13
HETATM   13  C7  UNL     1       6.597   5.637  20.874  1.00  0.00     0.236 C 
HETATM   14  O1  UNL     1       6.166   6.408  20.010  1.00  0.00    -0.272 OA
HETATM   15  N4  UNL     1       6.612   4.246  20.731  1.00  0.00    -0.353 N 
ATOM     16  H4  UNL     1       6.992   3.704  21.507  1.00  0.00     0.163 HD
BRANCH  15  17
HETATM   17  C8  UNL     1       6.132   3.498  19.570  1.00  0.00     0.102 C 
BRANCH  17  18
HETATM   18  C9  UNL     1       7.286   2.877  18.901  1.00  0.00    -0.018 C 
HETATM   19  C10 UNL     1       8.506   3.728  18.738  1.00  0.00     0.016 C 
HETATM   20  C11 UNL     1       9.477   3.133  17.733  1.00  0.00    -0.013 C 
HETATM   21  C12 UNL     1       8.877   2.793  16.416  1.00  0.00     0.009 C 
HETATM   22  C16 UNL     1       9.977   1.837  18.377  1.00  0.00     0.009 C 
HETATM   23  C13 UNL     1       7.768   1.791  16.664  1.00  0.00    -0.013 C 
HETATM   24  C14 UNL     1       8.224   0.535  17.319  1.00  0.00     0.009 C 
HETATM   25  C18 UNL     1       6.751   2.495  17.506  1.00  0.00     0.016 C 
HETATM   26  C15 UNL     1       8.811   0.936  18.652  1.00  0.00    -0.013 C 
HETATM   27  C17 UNL     1       7.743   1.570  19.514  1.00  0.00     0.016 C 
ENDBRANCH  17  18
BRANCH  17  28
HETATM   28  C19 UNL     1       4.975   2.750  19.980  1.00  0.00    -0.011 C 
HETATM   29  C20 UNL     1       4.917   2.039  21.296  1.00  0.00     0.013 C 
HETATM   30  C21 UNL     1       3.476   1.487  21.225  1.00  0.00     0.006 C 
HETATM   31  C22 UNL     1       3.089   2.013  19.895  1.00  0.00    -0.005 C 
HETATM   32  C23 UNL     1       4.350   1.701  19.074  1.00  0.00     0.017 C 
HETATM   33  C24 UNL     1       3.635   3.442  19.891  1.00  0.00    -0.034 C 
HETATM   34  C25 UNL     1       3.127   4.189  21.054  1.00  0.00     0.016 C 
HETATM   35  C26 UNL     1       3.311   4.114  18.580  1.00  0.00     0.016 C 
ENDBRANCH  17  28
ENDBRANCH  15  17
ENDBRANCH  12  13
ENDBRANCH   8  12
TORSDOF 6
ENDMDL
MODEL 5
REMARK VINA RESULT: -8.370627954      1.784      2.657
REMARK  6 active torsions:
REMARK  status: ('A' for Active; 'I' for Inactive)
REMARK       I    between atoms: N1_3  and  C3_5 
REMARK       I    between atoms: C3_5  and  N3_10 
REMARK    1  A    between atoms: N2_6  and  C4_8 
REMARK    2  A    between atoms: N3_10  and  C6_12 
REMARK    3  A    between atoms: C6_12  and  C7_13 
REMARK       I    between atoms: C7_13  and  N4_15 
REMARK    4  A    between atoms: N4_15  and  C8_17 
REMARK    5  A    between atoms: C8_17  and  C9_18 
REMARK    6  A    between atoms: C8_17  and  C19_28 
ROOT
HETATM    1  C1  UNL     1       4.162   9.589  21.251  1.00  0.00     0.037 C 
HETATM    2  C2  UNL     1       4.672   9.171  22.261  1.00  0.00     0.015 C 
HETATM    3  N1  UNL     1       5.282   8.703  23.429  1.00  0.00    -0.150 N 
ATOM      4  H1  UNL     1       5.678   9.388  24.073  1.00  0.00     0.195 HD
HETATM    5  C3  UNL     1       5.381   7.327  23.770  1.00  0.00     0.681 C 
HETATM    6  N2  UNL     1       4.331   6.691  24.114  1.00  0.00    -0.226 N 
ATOM      7  H2  UNL     1       4.451   5.706  24.350  1.00  0.00     0.177 HD
HETATM    8  N3  UNL     1       6.655   6.716  23.713  1.00  0.00    -0.217 N 
ATOM      9  H3  UNL     1       7.047   6.310  24.563  1.00  0.00     0.178 HD
ENDROOT
BRANCH   6  10
HETATM   10  C4  UNL     1       3.004   7.215  24.205  1.00  0.00     0.133 C 
HETATM   11  C5  UNL     1       2.457   7.236  25.615  1.00  0.00     0.027 C 
ENDBRANCH   6  10
BRANCH   8  12
HETATM   12  C6  UNL     1       7.421   6.647  22.486  1.00  0.00     0.240 C 
BRANCH  12  13
HETATM   13  C7  UNL     1       6.667   5.887  21.449  1.00  0.00     0.236 C 
HETATM   14  O1  UNL     1       5.982   6.524  20.642  1.00  0.00    -0.272 OA
HETATM   15  N4  UNL     1       6.774   4.493  21.442  1.00  0.00    -0.353 N 
ATOM     16  H4  UNL     1       7.370   4.070  22.154  1.00  0.00     0.163 HD
BRANCH  15  17
HETATM   17  C8  UNL     1       6.110   3.587  20.507  1.00  0.00     0.102 C 
BRANCH  17  18
HETATM   18  C9  UNL     1       7.108   3.086  19.548  1.00  0.00    -0.018 C 
HETATM   19  C10 UNL     1       8.309   3.949  19.317  1.00  0.00     0.016 C 
HETATM   20  C11 UNL     1       9.069   3.533  18.069  1.00  0.00    -0.013 C 
HETATM   21  C12 UNL     1       8.237   3.428  16.843  1.00  0.00     0.009 C 
HETATM   22  C16 UNL     1       9.629   2.143  18.385  1.00  0.00     0.009 C 
HETATM   23  C13 UNL     1       7.155   2.403  17.110  1.00  0.00    -0.013 C 
HETATM   24  C14 UNL     1       7.675   1.051  17.450  1.00  0.00     0.009 C 
HETATM   25  C18 UNL     1       6.325   2.953  18.226  1.00  0.00     0.016 C 
HETATM   26  C15 UNL     1       8.498   1.213  18.706  1.00  0.00    -0.013 C 
HETATM   27  C17 UNL     1       7.620   1.692  19.839  1.00  0.00     0.016 C 
ENDBRANCH  17  18
BRANCH  17  28
HETATM   28  C19 UNL     1       5.261   2.715  21.272  1.00  0.00    -0.011 C 
HETATM   29  C20 UNL     1       5.809   1.788  22.313  1.00  0.00     0.013 C 
HETATM   30  C21 UNL     1       4.489   1.175  22.830  1.00  0.00     0.006 C 
HETATM   31  C22 UNL     1       3.537   1.896  21.954  1.00  0.00    -0.005 C 
HETATM   32  C23 UNL     1       4.251   1.801  20.596  1.00  0.00     0.017 C 
HETATM   33  C24 UNL     1       4.059   3.334  21.946  1.00  0.00    -0.034 C 
HETATM   34  C25 UNL     1       4.183   3.842  23.324  1.00  0.00     0.016 C 
HETATM   35  C26 UNL     1       3.176   4.200  21.083  1.00  0.00     0.016 C 
ENDBRANCH  17  28
ENDBRANCH  15  17
ENDBRANCH  12  13
ENDBRANCH   8  12
TORSDOF 6
ENDMDL
