MODEL 1
REMARK VINA RESULT: -6.766966129      0.000      0.000
REMARK  8 active torsions:
REMARK  status: ('A' for Active; 'I' for Inactive)
REMARK    1  A    between atoms: N1_1  and  N2_4 
REMARK    2  A    between atoms: N2_4  and  C1_6 
REMARK    3  A    between atoms: C2_10  and  O1_11 
REMARK    4  A    between atoms: O1_11  and  N4_12 
REMARK    5  A    between atoms: C4_15  and  O2_16 
REMARK    6  A    between atoms: C7_21  and  S1_22 
REMARK    7  A    between atoms: S1_22  and  C8_23 
REMARK    8  A    between atoms: C8_23  and  C9_24 
ROOT
HETATM    1  N4  UNL     1      41.526  56.894 176.009  1.00  0.00    -0.263 N 
ATOM      2  H4  UNL     1      41.602  57.904 175.889  1.00  0.00     0.194 HD
HETATM    3  C3  UNL     1      40.917  56.504 177.064  1.00  0.00     0.096 C 
HETATM    4  C4  UNL     1      40.589  55.188 177.618  1.00  0.00     0.309 C 
HETATM    5  O3  UNL     1      40.424  55.335 178.986  1.00  0.00    -0.348 OA
HETATM    6  C5  UNL     1      40.473  56.660 179.323  1.00  0.00     0.163 C 
HETATM    7  C6  UNL     1      39.171  57.054 180.030  1.00  0.00     0.078 C 
HETATM    8  C7  UNL     1      38.710  58.201 179.180  1.00  0.00     0.186 C 
HETATM    9  O4  UNL     1      38.997  57.710 177.881  1.00  0.00    -0.362 OA
HETATM   10  C10 UNL     1      40.376  57.466 178.053  1.00  0.00     0.204 C 
ENDROOT
BRANCH   1  11
HETATM   11  O1  UNL     1      42.079  56.144 175.035  1.00  0.00    -0.218 OA
BRANCH  11  12
HETATM   12  C2  UNL     1      42.674  56.753 173.902  1.00  0.00     0.500 C 
HETATM   13  N3  UNL     1      42.304  58.123 173.695  1.00  0.00     0.023 N 
HETATM   14  C1  UNL     1      43.707  58.238 173.258  1.00  0.00     0.452 C 
ATOM     15  H32 UNL     1      41.895  58.708 174.423  1.00  0.00     0.288 HD
ATOM     16  H31 UNL     1      41.513  58.408 173.118  1.00  0.00     0.288 HD
HETATM   17  O5  UNL     1      43.989  57.183 174.121  1.00  0.00    -0.286 OA
BRANCH  14  18
HETATM   18  N2  UNL     1      43.774  57.984 171.857  1.00  0.00    -0.291 N 
ATOM     19  H2  UNL     1      42.999  57.558 171.349  1.00  0.00     0.184 HD
BRANCH  18  20
HETATM   20  N1  UNL     1      44.945  58.346 171.228  1.00  0.00    -0.346 N 
ATOM     21  H12 UNL     1      45.778  58.585 171.766  1.00  0.00     0.176 HD
ATOM     22  H11 UNL     1      44.923  58.360 170.208  1.00  0.00     0.176 HD
ENDBRANCH  18  20
ENDBRANCH  14  18
ENDBRANCH  11  12
ENDBRANCH   1  11
BRANCH   4  23
HETATM   23  O2  UNL     1      41.544  54.210 177.404  1.00  0.00    -0.366 OA
ATOM     24  H2  UNL     1      41.552  53.509 178.045  1.00  0.00     0.213 HD
ENDBRANCH   4  23
BRANCH   8  25
HETATM   25  S1  UNL     1      36.982  58.583 179.265  1.00  0.00    -0.135 SA
BRANCH  25  26
HETATM   26  C8  UNL     1      36.496  60.233 178.860  1.00  0.00     0.108 C 
BRANCH  26  27
HETATM   27  C9  UNL     1      37.589  61.197 178.521  1.00  0.00     0.232 C 
HETATM   28  F1  UNL     1      37.287  62.491 178.911  1.00  0.00    -0.255 F 
ENDBRANCH  26  27
ENDBRANCH  25  26
ENDBRANCH   8  25
TORSDOF 8
ENDMDL
MODEL 2
REMARK VINA RESULT: -6.631094205      1.962      2.171
REMARK  8 active torsions:
REMARK  status: ('A' for Active; 'I' for Inactive)
REMARK    1  A    between atoms: N1_1  and  N2_4 
REMARK    2  A    between atoms: N2_4  and  C1_6 
REMARK    3  A    between atoms: C2_10  and  O1_11 
REMARK    4  A    between atoms: O1_11  and  N4_12 
REMARK    5  A    between atoms: C4_15  and  O2_16 
REMARK    6  A    between atoms: C7_21  and  S1_22 
REMARK    7  A    between atoms: S1_22  and  C8_23 
REMARK    8  A    between atoms: C8_23  and  C9_24 
ROOT
HETATM    1  N4  UNL     1      41.514  56.828 175.968  1.00  0.00    -0.263 N 
ATOM      2  H4  UNL     1      41.538  57.838 175.829  1.00  0.00     0.194 HD
HETATM    3  C3  UNL     1      40.900  56.426 177.015  1.00  0.00     0.096 C 
HETATM    4  C4  UNL     1      40.631  55.105 177.589  1.00  0.00     0.309 C 
HETATM    5  O3  UNL     1      40.421  55.270 178.950  1.00  0.00    -0.348 OA
HETATM    6  C5  UNL     1      40.389  56.602 179.259  1.00  0.00     0.163 C 
HETATM    7  C6  UNL     1      39.049  56.938 179.924  1.00  0.00     0.078 C 
HETATM    8  C7  UNL     1      38.549  58.040 179.038  1.00  0.00     0.186 C 
HETATM    9  O4  UNL     1      38.896  57.540 177.758  1.00  0.00    -0.362 OA
HETATM   10  C10 UNL     1      40.281  57.377 177.970  1.00  0.00     0.204 C 
ENDROOT
BRANCH   1  11
HETATM   11  O1  UNL     1      42.133  56.091 175.025  1.00  0.00    -0.218 OA
BRANCH  11  12
HETATM   12  C2  UNL     1      42.732  56.710 173.899  1.00  0.00     0.500 C 
HETATM   13  N3  UNL     1      42.333  58.070 173.682  1.00  0.00     0.023 N 
HETATM   14  C1  UNL     1      43.740  58.217 173.266  1.00  0.00     0.452 C 
ATOM     15  H32 UNL     1      41.899  58.648 174.401  1.00  0.00     0.288 HD
ATOM     16  H31 UNL     1      41.545  58.335 173.091  1.00  0.00     0.288 HD
HETATM   17  O5  UNL     1      44.032  57.171 174.137  1.00  0.00    -0.286 OA
BRANCH  14  18
HETATM   18  N2  UNL     1      43.835  57.960 171.867  1.00  0.00    -0.291 N 
ATOM     19  H2  UNL     1      43.079  57.514 171.349  1.00  0.00     0.184 HD
BRANCH  18  20
HETATM   20  N1  UNL     1      45.007  58.348 171.255  1.00  0.00    -0.346 N 
ATOM     21  H12 UNL     1      45.494  57.725 170.611  1.00  0.00     0.176 HD
ATOM     22  H11 UNL     1      45.347  59.282 171.485  1.00  0.00     0.176 HD
ENDBRANCH  18  20
ENDBRANCH  14  18
ENDBRANCH  11  12
ENDBRANCH   1  11
BRANCH   4  23
HETATM   23  O2  UNL     1      41.643  54.177 177.420  1.00  0.00    -0.366 OA
ATOM     24  H2  UNL     1      41.558  53.626 176.652  1.00  0.00     0.213 HD
ENDBRANCH   4  23
BRANCH   8  25
HETATM   25  S1  UNL     1      36.801  58.327 179.072  1.00  0.00    -0.135 SA
BRANCH  25  26
HETATM   26  C8  UNL     1      35.774  57.187 178.194  1.00  0.00     0.108 C 
BRANCH  26  27
HETATM   27  C9  UNL     1      35.817  55.759 178.637  1.00  0.00     0.232 C 
HETATM   28  F1  UNL     1      36.920  55.087 178.136  1.00  0.00    -0.255 F 
ENDBRANCH  26  27
ENDBRANCH  25  26
ENDBRANCH   8  25
TORSDOF 8
ENDMDL
MODEL 3
REMARK VINA RESULT: -6.549248829      6.832      8.956
REMARK  8 active torsions:
REMARK  status: ('A' for Active; 'I' for Inactive)
REMARK    1  A    between atoms: N1_1  and  N2_4 
REMARK    2  A    between atoms: N2_4  and  C1_6 
REMARK    3  A    between atoms: C2_10  and  O1_11 
REMARK    4  A    between atoms: O1_11  and  N4_12 
REMARK    5  A    between atoms: C4_15  and  O2_16 
REMARK    6  A    between atoms: C7_21  and  S1_22 
REMARK    7  A    between atoms: S1_22  and  C8_23 
REMARK    8  A    between atoms: C8_23  and  C9_24 
ROOT
HETATM    1  N4  UNL     1      38.247  60.907 170.708  1.00  0.00    -0.263 N 
ATOM      2  H4  UNL     1      37.935  61.414 171.536  1.00  0.00     0.194 HD
HETATM    3  C3  UNL     1      39.503  60.951 170.471  1.00  0.00     0.096 C 
HETATM    4  C4  UNL     1      40.357  60.385 169.423  1.00  0.00     0.309 C 
HETATM    5  O3  UNL     1      41.499  61.167 169.341  1.00  0.00    -0.348 OA
HETATM    6  C5  UNL     1      41.506  62.092 170.350  1.00  0.00     0.163 C 
HETATM    7  C6  UNL     1      42.773  61.916 171.193  1.00  0.00     0.078 C 
HETATM    8  C7  UNL     1      42.192  61.734 172.564  1.00  0.00     0.186 C 
HETATM    9  O4  UNL     1      41.091  60.887 172.283  1.00  0.00    -0.362 OA
HETATM   10  C10 UNL     1      40.436  61.707 171.340  1.00  0.00     0.204 C 
ENDROOT
BRANCH   1  11
HETATM   11  O1  UNL     1      37.282  60.280 170.006  1.00  0.00    -0.218 OA
BRANCH  11  12
HETATM   12  C2  UNL     1      36.850  58.980 170.372  1.00  0.00     0.500 C 
HETATM   13  N3  UNL     1      36.348  58.870 171.710  1.00  0.00     0.023 N 
HETATM   14  C1  UNL     1      35.407  57.928 171.078  1.00  0.00     0.452 C 
ATOM     15  H32 UNL     1      36.048  59.673 172.263  1.00  0.00     0.288 HD
ATOM     16  H31 UNL     1      36.933  58.626 172.509  1.00  0.00     0.288 HD
HETATM   17  O5  UNL     1      35.568  58.664 169.907  1.00  0.00    -0.286 OA
BRANCH  14  18
HETATM   18  N2  UNL     1      35.971  56.619 171.119  1.00  0.00    -0.291 N 
ATOM     19  H2  UNL     1      36.882  56.438 171.540  1.00  0.00     0.184 HD
BRANCH  18  20
HETATM   20  N1  UNL     1      35.215  55.613 170.558  1.00  0.00    -0.346 N 
ATOM     21  H12 UNL     1      34.196  55.641 170.591  1.00  0.00     0.176 HD
ATOM     22  H11 UNL     1      35.734  54.853 170.118  1.00  0.00     0.176 HD
ENDBRANCH  18  20
ENDBRANCH  14  18
ENDBRANCH  11  12
ENDBRANCH   1  11
BRANCH   4  23
HETATM   23  O2  UNL     1      39.782  60.332 168.166  1.00  0.00    -0.366 OA
ATOM     24  H2  UNL     1      40.036  59.583 167.640  1.00  0.00     0.213 HD
ENDBRANCH   4  23
BRANCH   8  25
HETATM   25  S1  UNL     1      43.234  60.924 173.746  1.00  0.00    -0.135 SA
BRANCH  25  26
HETATM   26  C8  UNL     1      44.166  59.531 173.185  1.00  0.00     0.108 C 
BRANCH  26  27
HETATM   27  C9  UNL     1      43.493  58.197 173.246  1.00  0.00     0.232 C 
HETATM   28  F1  UNL     1      42.394  58.124 172.407  1.00  0.00    -0.255 F 
ENDBRANCH  26  27
ENDBRANCH  25  26
ENDBRANCH   8  25
TORSDOF 8
ENDMDL
MODEL 4
REMARK VINA RESULT: -6.399490233      8.046      9.817
REMARK  8 active torsions:
REMARK  status: ('A' for Active; 'I' for Inactive)
REMARK    1  A    between atoms: N1_1  and  N2_4 
REMARK    2  A    between atoms: N2_4  and  C1_6 
REMARK    3  A    between atoms: C2_10  and  O1_11 
REMARK    4  A    between atoms: O1_11  and  N4_12 
REMARK    5  A    between atoms: C4_15  and  O2_16 
REMARK    6  A    between atoms: C7_21  and  S1_22 
REMARK    7  A    between atoms: S1_22  and  C8_23 
REMARK    8  A    between atoms: C8_23  and  C9_24 
ROOT
HETATM    1  N4  UNL     1      38.748  60.306 169.699  1.00  0.00    -0.263 N 
ATOM      2  H4  UNL     1      39.156  59.897 168.858  1.00  0.00     0.194 HD
HETATM    3  C3  UNL     1      39.564  60.912 170.474  1.00  0.00     0.096 C 
HETATM    4  C4  UNL     1      39.415  61.621 171.748  1.00  0.00     0.309 C 
HETATM    5  O3  UNL     1      40.644  61.600 172.389  1.00  0.00    -0.348 OA
HETATM    6  C5  UNL     1      41.594  61.066 171.562  1.00  0.00     0.163 C 
HETATM    7  C6  UNL     1      42.725  62.081 171.363  1.00  0.00     0.078 C 
HETATM    8  C7  UNL     1      42.759  62.194 169.868  1.00  0.00     0.186 C 
HETATM    9  O4  UNL     1      41.375  62.215 169.563  1.00  0.00    -0.362 OA
HETATM   10  C10 UNL     1      41.013  60.995 170.172  1.00  0.00     0.204 C 
ENDROOT
BRANCH   1  11
HETATM   11  O1  UNL     1      37.418  60.137 169.846  1.00  0.00    -0.218 OA
BRANCH  11  12
HETATM   12  C2  UNL     1      36.897  58.937 170.392  1.00  0.00     0.500 C 
HETATM   13  N3  UNL     1      36.352  59.068 171.712  1.00  0.00     0.023 N 
HETATM   14  C1  UNL     1      35.373  58.093 171.199  1.00  0.00     0.452 C 
ATOM     15  H32 UNL     1      36.087  59.963 172.122  1.00  0.00     0.288 HD
ATOM     16  H31 UNL     1      36.898  58.919 172.561  1.00  0.00     0.288 HD
HETATM   17  O5  UNL     1      35.610  58.626 169.935  1.00  0.00    -0.286 OA
BRANCH  14  18
HETATM   18  N2  UNL     1      35.853  56.777 171.464  1.00  0.00    -0.291 N 
ATOM     19  H2  UNL     1      36.609  56.602 172.125  1.00  0.00     0.184 HD
BRANCH  18  20
HETATM   20  N1  UNL     1      35.237  55.755 170.775  1.00  0.00    -0.346 N 
ATOM     21  H12 UNL     1      35.622  54.810 170.783  1.00  0.00     0.176 HD
ATOM     22  H11 UNL     1      34.388  56.002 170.267  1.00  0.00     0.176 HD
ENDBRANCH  18  20
ENDBRANCH  14  18
ENDBRANCH  11  12
ENDBRANCH   1  11
BRANCH   4  23
HETATM   23  O2  UNL     1      38.473  61.086 172.608  1.00  0.00    -0.366 OA
ATOM     24  H2  UNL     1      37.570  61.198 172.335  1.00  0.00     0.213 HD
ENDBRANCH   4  23
BRANCH   8  25
HETATM   25  S1  UNL     1      43.498  63.668 169.219  1.00  0.00    -0.135 SA
BRANCH  25  26
HETATM   26  C8  UNL     1      42.469  64.733 168.254  1.00  0.00     0.108 C 
BRANCH  26  27
HETATM   27  C9  UNL     1      42.168  64.298 166.854  1.00  0.00     0.232 C 
HETATM   28  F1  UNL     1      41.488  65.268 166.137  1.00  0.00    -0.255 F 
ENDBRANCH  26  27
ENDBRANCH  25  26
ENDBRANCH   8  25
TORSDOF 8
ENDMDL
MODEL 5
REMARK VINA RESULT: -6.160484456      5.665      8.493
REMARK  8 active torsions:
REMARK  status: ('A' for Active; 'I' for Inactive)
REMARK    1  A    between atoms: N1_1  and  N2_4 
REMARK    2  A    between atoms: N2_4  and  C1_6 
REMARK    3  A    between atoms: C2_10  and  O1_11 
REMARK    4  A    between atoms: O1_11  and  N4_12 
REMARK    5  A    between atoms: C4_15  and  O2_16 
REMARK    6  A    between atoms: C7_21  and  S1_22 
REMARK    7  A    between atoms: S1_22  and  C8_23 
REMARK    8  A    between atoms: C8_23  and  C9_24 
ROOT
HETATM    1  N4  UNL     1      41.419  60.805 174.606  1.00  0.00    -0.263 N 
ATOM      2  H4  UNL     1      41.134  61.763 174.811  1.00  0.00     0.194 HD
HETATM    3  C3  UNL     1      41.543  60.514 173.367  1.00  0.00     0.096 C 
HETATM    4  C4  UNL     1      41.919  59.297 172.644  1.00  0.00     0.309 C 
HETATM    5  O3  UNL     1      41.376  59.378 171.370  1.00  0.00    -0.348 OA
HETATM    6  C5  UNL     1      40.815  60.611 171.179  1.00  0.00     0.163 C 
HETATM    7  C6  UNL     1      41.470  61.286 169.969  1.00  0.00     0.078 C 
HETATM    8  C7  UNL     1      41.942  62.576 170.572  1.00  0.00     0.186 C 
HETATM    9  O4  UNL     1      42.444  62.128 171.819  1.00  0.00    -0.362 OA
HETATM   10  C10 UNL     1      41.271  61.509 172.301  1.00  0.00     0.204 C 
ENDROOT
BRANCH   1  11
HETATM   11  O1  UNL     1      41.615  60.010 175.677  1.00  0.00    -0.218 OA
BRANCH  11  12
HETATM   12  C2  UNL     1      40.535  59.304 176.263  1.00  0.00     0.500 C 
HETATM   13  N3  UNL     1      40.656  57.876 176.212  1.00  0.00     0.023 N 
HETATM   14  C1  UNL     1      40.021  57.965 177.540  1.00  0.00     0.452 C 
ATOM     15  H32 UNL     1      41.539  57.395 176.045  1.00  0.00     0.288 HD
ATOM     16  H31 UNL     1      40.282  57.310 175.450  1.00  0.00     0.288 HD
HETATM   17  O5  UNL     1      40.610  59.220 177.659  1.00  0.00    -0.286 OA
BRANCH  14  18
HETATM   18  N2  UNL     1      38.606  57.910 177.378  1.00  0.00    -0.291 N 
ATOM     19  H2  UNL     1      38.174  57.755 176.467  1.00  0.00     0.184 HD
BRANCH  18  20
HETATM   20  N1  UNL     1      37.856  58.079 178.521  1.00  0.00    -0.346 N 
ATOM     21  H12 UNL     1      38.303  58.223 179.426  1.00  0.00     0.176 HD
ATOM     22  H11 UNL     1      36.843  58.050 178.403  1.00  0.00     0.176 HD
ENDBRANCH  18  20
ENDBRANCH  14  18
ENDBRANCH  11  12
ENDBRANCH   1  11
BRANCH   4  23
HETATM   23  O2  UNL     1      41.484  58.117 173.220  1.00  0.00    -0.366 OA
ATOM     24  H2  UNL     1      42.172  57.565 173.573  1.00  0.00     0.213 HD
ENDBRANCH   4  23
BRANCH   8  25
HETATM   25  S1  UNL     1      43.249  63.403 169.708  1.00  0.00    -0.135 SA
BRANCH  25  26
HETATM   26  C8  UNL     1      42.789  64.639 168.531  1.00  0.00     0.108 C 
BRANCH  26  27
HETATM   27  C9  UNL     1      42.233  64.159 167.228  1.00  0.00     0.232 C 
HETATM   28  F1  UNL     1      41.060  63.440 167.390  1.00  0.00    -0.255 F 
ENDBRANCH  26  27
ENDBRANCH  25  26
ENDBRANCH   8  25
TORSDOF 8
ENDMDL
