MODEL 1
REMARK VINA RESULT: -8.476348226      0.000      0.000
REMARK  9 active torsions:
REMARK  status: ('A' for Active; 'I' for Inactive)
REMARK    1  A    between atoms: C1_4  and  C2_6 
REMARK    2  A    between atoms: C4_8  and  C5_9 
REMARK    3  A    between atoms: C9_13  and  N3_14 
REMARK    4  A    between atoms: N5_19  and  C10_20 
REMARK    5  A    between atoms: C10_20  and  S1_21 
REMARK    6  A    between atoms: S1_21  and  C11_22 
REMARK    7  A    between atoms: C11_22  and  C12_23 
REMARK    8  A    between atoms: C12_23  and  O1_24 
REMARK    9  A    between atoms: N6_28  and  O3_29 
ROOT
HETATM    1  C5  UNL     1      16.175  52.049  21.539  1.00  0.00     0.048 A 
HETATM    2  C6  UNL     1      15.153  51.607  22.311  1.00  0.00     0.065 A 
HETATM    3  C7  UNL     1      14.849  52.251  23.535  1.00  0.00     0.100 A 
HETATM    4  C8  UNL     1      15.579  53.330  23.963  1.00  0.00     0.113 A 
HETATM    5  C9  UNL     1      16.596  53.746  23.163  1.00  0.00     0.129 A 
HETATM    6  N4  UNL     1      16.865  53.107  21.992  1.00  0.00    -0.340 N 
ATOM      7  H4  UNL     1      17.638  53.453  21.424  1.00  0.00     0.167 HD
HETATM    8  N5  UNL     1      15.080  53.746  25.150  1.00  0.00    -0.283 N 
HETATM    9  C13 UNL     1      14.047  52.918  25.440  1.00  0.00     0.354 A 
HETATM   10  O2  UNL     1      13.347  53.024  26.493  1.00  0.00    -0.244 OA
HETATM   11  N6  UNL     1      13.904  51.999  24.451  1.00  0.00    -0.170 N 
ENDROOT
BRANCH   1  12
HETATM   12  C4  UNL     1      16.509  51.428  20.223  1.00  0.00     0.023 A 
HETATM   13  C3  UNL     1      17.727  50.841  20.028  1.00  0.00     0.038 A 
HETATM   14  C2  UNL     1      17.963  50.267  18.814  1.00  0.00     0.048 A 
HETATM   15  S2  UNL     1      16.529  50.534  17.957  1.00  0.00    -0.071 SA
HETATM   16  C14 UNL     1      15.645  51.380  19.172  1.00  0.00     0.100 A 
HETATM   17  N7  UNL     1      14.290  51.871  19.019  1.00  0.00    -0.093 NA
BRANCH  14  18
HETATM   18  C1  UNL     1      19.201  49.578  18.378  1.00  0.00     0.127 C 
HETATM   19  N1  UNL     1      20.308  50.065  18.751  1.00  0.00    -0.387 N 
ATOM     20  H12 UNL     1      21.160  49.591  18.451  1.00  0.00     0.157 HD
ATOM     21  H11 UNL     1      20.375  50.902  19.331  1.00  0.00     0.157 HD
HETATM   22  N2  UNL     1      19.110  48.434  17.585  1.00  0.00    -0.082 NA
ENDBRANCH  14  18
ENDBRANCH   1  12
BRANCH   5  23
HETATM   23  N3  UNL     1      17.314  54.768  23.527  1.00  0.00    -0.384 N 
ATOM     24  H32 UNL     1      16.933  55.711  23.458  1.00  0.00     0.157 HD
ATOM     25  H31 UNL     1      18.257  54.612  23.883  1.00  0.00     0.157 HD
ENDBRANCH   5  23
BRANCH  11  26
HETATM   26  O3  UNL     1      12.978  51.002  24.384  1.00  0.00    -0.278 OA
ATOM     27  H3  UNL     1      12.036  51.119  24.408  1.00  0.00     0.245 HD
ENDBRANCH  11  26
BRANCH   8  28
HETATM   28  C10 UNL     1      15.545  54.849  25.958  1.00  0.00     0.208 C 
BRANCH  28  29
HETATM   29  S1  UNL     1      14.521  56.335  25.746  1.00  0.00    -0.147 SA
BRANCH  29  30
HETATM   30  C11 UNL     1      14.429  56.691  23.981  1.00  0.00     0.101 C 
BRANCH  30  31
HETATM   31  C12 UNL     1      15.343  57.855  23.603  1.00  0.00     0.174 C 
BRANCH  31  32
HETATM   32  O1  UNL     1      16.279  57.432  22.685  1.00  0.00    -0.400 OA
ATOM     33  H1  UNL     1      17.136  57.768  22.922  1.00  0.00     0.209 HD
ENDBRANCH  31  32
ENDBRANCH  30  31
ENDBRANCH  29  30
ENDBRANCH  28  29
ENDBRANCH   8  28
TORSDOF 9
ENDMDL
MODEL 2
REMARK VINA RESULT: -8.155951873      1.782      2.347
REMARK  9 active torsions:
REMARK  status: ('A' for Active; 'I' for Inactive)
REMARK    1  A    between atoms: C1_4  and  C2_6 
REMARK    2  A    between atoms: C4_8  and  C5_9 
REMARK    3  A    between atoms: C9_13  and  N3_14 
REMARK    4  A    between atoms: N5_19  and  C10_20 
REMARK    5  A    between atoms: C10_20  and  S1_21 
REMARK    6  A    between atoms: S1_21  and  C11_22 
REMARK    7  A    between atoms: C11_22  and  C12_23 
REMARK    8  A    between atoms: C12_23  and  O1_24 
REMARK    9  A    between atoms: N6_28  and  O3_29 
ROOT
HETATM    1  C5  UNL     1      15.807  52.283  21.805  1.00  0.00     0.048 A 
HETATM    2  C6  UNL     1      14.991  51.685  22.707  1.00  0.00     0.065 A 
HETATM    3  C7  UNL     1      14.671  52.336  23.923  1.00  0.00     0.100 A 
HETATM    4  C8  UNL     1      15.177  53.578  24.212  1.00  0.00     0.113 A 
HETATM    5  C9  UNL     1      15.991  54.146  23.284  1.00  0.00     0.129 A 
HETATM    6  N4  UNL     1      16.281  53.496  22.124  1.00  0.00    -0.340 N 
ATOM      7  H4  UNL     1      16.897  53.960  21.457  1.00  0.00     0.167 HD
HETATM    8  N5  UNL     1      14.714  53.960  25.426  1.00  0.00    -0.283 N 
HETATM    9  C13 UNL     1      13.929  52.950  25.870  1.00  0.00     0.354 A 
HETATM   10  O2  UNL     1      13.329  52.977  26.988  1.00  0.00    -0.244 OA
HETATM   11  N6  UNL     1      13.900  51.952  24.951  1.00  0.00    -0.170 N 
ENDROOT
BRANCH   1  12
HETATM   12  C4  UNL     1      16.142  51.654  20.492  1.00  0.00     0.023 A 
HETATM   13  C3  UNL     1      17.368  51.085  20.295  1.00  0.00     0.038 A 
HETATM   14  C2  UNL     1      17.605  50.503  19.085  1.00  0.00     0.048 A 
HETATM   15  S2  UNL     1      16.161  50.739  18.235  1.00  0.00    -0.071 SA
HETATM   16  C14 UNL     1      15.272  51.581  19.448  1.00  0.00     0.100 A 
HETATM   17  N7  UNL     1      13.908  52.049  19.300  1.00  0.00    -0.093 NA
BRANCH  14  18
HETATM   18  C1  UNL     1      18.851  49.830  18.647  1.00  0.00     0.127 C 
HETATM   19  N1  UNL     1      19.952  50.308  19.051  1.00  0.00    -0.387 N 
ATOM     20  H12 UNL     1      20.809  49.846  18.749  1.00  0.00     0.157 HD
ATOM     21  H11 UNL     1      20.008  51.127  19.656  1.00  0.00     0.157 HD
HETATM   22  N2  UNL     1      18.775  48.710  17.819  1.00  0.00    -0.082 NA
ENDBRANCH  14  18
ENDBRANCH   1  12
BRANCH   5  23
HETATM   23  N3  UNL     1      16.492  55.324  23.514  1.00  0.00    -0.384 N 
ATOM     24  H32 UNL     1      16.985  55.823  22.774  1.00  0.00     0.157 HD
ATOM     25  H31 UNL     1      16.383  55.739  24.440  1.00  0.00     0.157 HD
ENDBRANCH   5  23
BRANCH  11  26
HETATM   26  O3  UNL     1      13.221  50.774  25.038  1.00  0.00    -0.278 OA
ATOM     27  H3  UNL     1      13.422  50.062  25.634  1.00  0.00     0.245 HD
ENDBRANCH  11  26
BRANCH   8  28
HETATM   28  C10 UNL     1      14.996  55.195  26.120  1.00  0.00     0.208 C 
BRANCH  28  29
HETATM   29  S1  UNL     1      16.147  54.956  27.505  1.00  0.00    -0.147 SA
BRANCH  29  30
HETATM   30  C11 UNL     1      17.599  54.097  26.871  1.00  0.00     0.101 C 
BRANCH  30  31
HETATM   31  C12 UNL     1      17.815  52.768  27.592  1.00  0.00     0.174 C 
BRANCH  31  32
HETATM   32  O1  UNL     1      16.605  52.275  28.030  1.00  0.00    -0.400 OA
ATOM     33  H1  UNL     1      15.945  52.402  27.359  1.00  0.00     0.209 HD
ENDBRANCH  31  32
ENDBRANCH  30  31
ENDBRANCH  29  30
ENDBRANCH  28  29
ENDBRANCH   8  28
TORSDOF 9
ENDMDL
MODEL 3
REMARK VINA RESULT: -8.135381608      2.094      2.731
REMARK  9 active torsions:
REMARK  status: ('A' for Active; 'I' for Inactive)
REMARK    1  A    between atoms: C1_4  and  C2_6 
REMARK    2  A    between atoms: C4_8  and  C5_9 
REMARK    3  A    between atoms: C9_13  and  N3_14 
REMARK    4  A    between atoms: N5_19  and  C10_20 
REMARK    5  A    between atoms: C10_20  and  S1_21 
REMARK    6  A    between atoms: S1_21  and  C11_22 
REMARK    7  A    between atoms: C11_22  and  C12_23 
REMARK    8  A    between atoms: C12_23  and  O1_24 
REMARK    9  A    between atoms: N6_28  and  O3_29 
ROOT
HETATM    1  C5  UNL     1      16.025  52.173  22.158  1.00  0.00     0.048 A 
HETATM    2  C6  UNL     1      16.931  52.994  22.744  1.00  0.00     0.065 A 
HETATM    3  C7  UNL     1      16.707  53.491  24.050  1.00  0.00     0.100 A 
HETATM    4  C8  UNL     1      15.574  53.155  24.747  1.00  0.00     0.113 A 
HETATM    5  C9  UNL     1      14.688  52.330  24.129  1.00  0.00     0.129 A 
HETATM    6  N4  UNL     1      14.931  51.868  22.872  1.00  0.00    -0.340 N 
ATOM      7  H4  UNL     1      14.239  51.252  22.447  1.00  0.00     0.167 HD
HETATM    8  N5  UNL     1      15.615  53.763  25.956  1.00  0.00    -0.283 N 
HETATM    9  C13 UNL     1      16.772  54.465  25.990  1.00  0.00     0.354 A 
HETATM   10  O2  UNL     1      17.133  55.161  26.989  1.00  0.00    -0.244 OA
HETATM   11  N6  UNL     1      17.444  54.301  24.823  1.00  0.00    -0.170 N 
ENDROOT
BRANCH   1  12
HETATM   12  C4  UNL     1      16.235  51.592  20.798  1.00  0.00     0.023 A 
HETATM   13  C3  UNL     1      17.436  51.033  20.467  1.00  0.00     0.038 A 
HETATM   14  C2  UNL     1      17.558  50.495  19.220  1.00  0.00     0.048 A 
HETATM   15  S2  UNL     1      16.041  50.756  18.519  1.00  0.00    -0.071 SA
HETATM   16  C14 UNL     1      15.271  51.554  19.839  1.00  0.00     0.100 A 
HETATM   17  N7  UNL     1      13.899  52.023  19.836  1.00  0.00    -0.093 NA
BRANCH  14  18
HETATM   18  C1  UNL     1      18.756  49.840  18.644  1.00  0.00     0.127 C 
HETATM   19  N1  UNL     1      19.892  50.250  19.026  1.00  0.00    -0.387 N 
ATOM     20  H12 UNL     1      20.717  49.800  18.629  1.00  0.00     0.157 HD
ATOM     21  H11 UNL     1      20.006  51.003  19.705  1.00  0.00     0.157 HD
HETATM   22  N2  UNL     1      18.600  48.810  17.716  1.00  0.00    -0.082 NA
ENDBRANCH  14  18
ENDBRANCH   1  12
BRANCH   5  23
HETATM   23  N3  UNL     1      13.601  51.983  24.752  1.00  0.00    -0.384 N 
ATOM     24  H32 UNL     1      13.492  52.192  25.744  1.00  0.00     0.157 HD
ATOM     25  H31 UNL     1      12.863  51.503  24.237  1.00  0.00     0.157 HD
ENDBRANCH   5  23
BRANCH  11  26
HETATM   26  O3  UNL     1      18.644  54.849  24.481  1.00  0.00    -0.278 OA
ATOM     27  H3  UNL     1      18.772  55.709  24.099  1.00  0.00     0.245 HD
ENDBRANCH  11  26
BRANCH   8  28
HETATM   28  C10 UNL     1      14.628  53.686  27.008  1.00  0.00     0.208 C 
BRANCH  28  29
HETATM   29  S1  UNL     1      13.268  54.864  26.760  1.00  0.00    -0.147 SA
BRANCH  29  30
HETATM   30  C11 UNL     1      13.848  56.491  27.279  1.00  0.00     0.101 C 
BRANCH  30  31
HETATM   31  C12 UNL     1      14.241  57.348  26.077  1.00  0.00     0.174 C 
BRANCH  31  32
HETATM   32  O1  UNL     1      13.884  58.659  26.305  1.00  0.00    -0.400 OA
ATOM     33  H1  UNL     1      13.255  58.939  25.650  1.00  0.00     0.209 HD
ENDBRANCH  31  32
ENDBRANCH  30  31
ENDBRANCH  29  30
ENDBRANCH  28  29
ENDBRANCH   8  28
TORSDOF 9
ENDMDL
MODEL 4
REMARK VINA RESULT: -8.060596244      1.152      1.280
REMARK  9 active torsions:
REMARK  status: ('A' for Active; 'I' for Inactive)
REMARK    1  A    between atoms: C1_4  and  C2_6 
REMARK    2  A    between atoms: C4_8  and  C5_9 
REMARK    3  A    between atoms: C9_13  and  N3_14 
REMARK    4  A    between atoms: N5_19  and  C10_20 
REMARK    5  A    between atoms: C10_20  and  S1_21 
REMARK    6  A    between atoms: S1_21  and  C11_22 
REMARK    7  A    between atoms: C11_22  and  C12_23 
REMARK    8  A    between atoms: C12_23  and  O1_24 
REMARK    9  A    between atoms: N6_28  and  O3_29 
ROOT
HETATM    1  C5  UNL     1      16.226  51.913  21.680  1.00  0.00     0.048 A 
HETATM    2  C6  UNL     1      15.129  51.538  22.383  1.00  0.00     0.065 A 
HETATM    3  C7  UNL     1      14.866  52.103  23.654  1.00  0.00     0.100 A 
HETATM    4  C8  UNL     1      15.711  53.038  24.198  1.00  0.00     0.113 A 
HETATM    5  C9  UNL     1      16.799  53.389  23.464  1.00  0.00     0.129 A 
HETATM    6  N4  UNL     1      17.026  52.829  22.245  1.00  0.00    -0.340 N 
ATOM      7  H4  UNL     1      17.856  53.122  21.731  1.00  0.00     0.167 HD
HETATM    8  N5  UNL     1      15.226  53.406  25.407  1.00  0.00    -0.283 N 
HETATM    9  C13 UNL     1      14.088  52.694  25.593  1.00  0.00     0.354 A 
HETATM   10  O2  UNL     1      13.370  52.794  26.635  1.00  0.00    -0.244 OA
HETATM   11  N6  UNL     1      13.865  51.894  24.520  1.00  0.00    -0.170 N 
ENDROOT
BRANCH   1  12
HETATM   12  C4  UNL     1      16.525  51.375  20.319  1.00  0.00     0.023 A 
HETATM   13  C3  UNL     1      17.722  50.767  20.068  1.00  0.00     0.038 A 
HETATM   14  C2  UNL     1      17.926  50.272  18.814  1.00  0.00     0.048 A 
HETATM   15  S2  UNL     1      16.490  50.638  17.997  1.00  0.00    -0.071 SA
HETATM   16  C14 UNL     1      15.647  51.423  19.280  1.00  0.00     0.100 A 
HETATM   17  N7  UNL     1      14.305  51.962  19.181  1.00  0.00    -0.093 NA
BRANCH  14  18
HETATM   18  C1  UNL     1      19.137  49.578  18.314  1.00  0.00     0.127 C 
HETATM   19  N1  UNL     1      20.265  50.040  18.661  1.00  0.00    -0.387 N 
ATOM     20  H12 UNL     1      21.098  49.563  18.317  1.00  0.00     0.157 HD
ATOM     21  H11 UNL     1      20.364  50.858  19.262  1.00  0.00     0.157 HD
HETATM   22  N2  UNL     1      19.002  48.459  17.493  1.00  0.00    -0.082 NA
ENDBRANCH  14  18
ENDBRANCH   1  12
BRANCH   5  23
HETATM   23  N3  UNL     1      17.626  54.273  23.939  1.00  0.00    -0.384 N 
ATOM     24  H32 UNL     1      17.274  55.068  24.474  1.00  0.00     0.157 HD
ATOM     25  H31 UNL     1      18.626  54.160  23.772  1.00  0.00     0.157 HD
ENDBRANCH   5  23
BRANCH  11  26
HETATM   26  O3  UNL     1      12.824  51.033  24.339  1.00  0.00    -0.278 OA
ATOM     27  H3  UNL     1      12.167  51.095  23.656  1.00  0.00     0.245 HD
ENDBRANCH  11  26
BRANCH   8  28
HETATM   28  C10 UNL     1      15.797  54.363  26.325  1.00  0.00     0.208 C 
BRANCH  28  29
HETATM   29  S1  UNL     1      15.096  56.025  26.108  1.00  0.00    -0.147 SA
BRANCH  29  30
HETATM   30  C11 UNL     1      16.458  57.156  25.767  1.00  0.00     0.101 C 
BRANCH  30  31
HETATM   31  C12 UNL     1      17.682  56.820  26.616  1.00  0.00     0.174 C 
BRANCH  31  32
HETATM   32  O1  UNL     1      18.704  56.375  25.805  1.00  0.00    -0.400 OA
ATOM     33  H1  UNL     1      19.449  56.121  26.337  1.00  0.00     0.209 HD
ENDBRANCH  31  32
ENDBRANCH  30  31
ENDBRANCH  29  30
ENDBRANCH  28  29
ENDBRANCH   8  28
TORSDOF 9
ENDMDL
MODEL 5
REMARK VINA RESULT: -7.989043661      6.834      8.538
REMARK  9 active torsions:
REMARK  status: ('A' for Active; 'I' for Inactive)
REMARK    1  A    between atoms: C1_4  and  C2_6 
REMARK    2  A    between atoms: C4_8  and  C5_9 
REMARK    3  A    between atoms: C9_13  and  N3_14 
REMARK    4  A    between atoms: N5_19  and  C10_20 
REMARK    5  A    between atoms: C10_20  and  S1_21 
REMARK    6  A    between atoms: S1_21  and  C11_22 
REMARK    7  A    between atoms: C11_22  and  C12_23 
REMARK    8  A    between atoms: C12_23  and  O1_24 
REMARK    9  A    between atoms: N6_28  and  O3_29 
ROOT
HETATM    1  C5  UNL     1      18.720  50.068  15.677  1.00  0.00     0.048 A 
HETATM    2  C6  UNL     1      17.784  50.398  16.600  1.00  0.00     0.065 A 
HETATM    3  C7  UNL     1      16.841  51.419  16.330  1.00  0.00     0.100 A 
HETATM    4  C8  UNL     1      16.855  52.093  15.135  1.00  0.00     0.113 A 
HETATM    5  C9  UNL     1      17.807  51.735  14.234  1.00  0.00     0.129 A 
HETATM    6  N4  UNL     1      18.700  50.749  14.521  1.00  0.00    -0.340 N 
ATOM      7  H4  UNL     1      19.397  50.514  13.815  1.00  0.00     0.167 HD
HETATM    8  N5  UNL     1      15.856  53.006  15.143  1.00  0.00    -0.283 N 
HETATM    9  C13 UNL     1      15.238  52.884  16.343  1.00  0.00     0.354 A 
HETATM   10  O2  UNL     1      14.247  53.597  16.689  1.00  0.00    -0.244 OA
HETATM   11  N6  UNL     1      15.841  51.912  17.074  1.00  0.00    -0.170 N 
ENDROOT
BRANCH   1  12
HETATM   12  C4  UNL     1      19.710  48.972  15.899  1.00  0.00     0.023 A 
HETATM   13  C3  UNL     1      20.951  49.256  16.394  1.00  0.00     0.038 A 
HETATM   14  C2  UNL     1      21.801  48.211  16.601  1.00  0.00     0.048 A 
HETATM   15  S2  UNL     1      20.903  46.860  16.120  1.00  0.00    -0.071 SA
HETATM   16  C14 UNL     1      19.446  47.659  15.660  1.00  0.00     0.100 A 
HETATM   17  N7  UNL     1      18.259  46.993  15.161  1.00  0.00    -0.093 NA
BRANCH  14  18
HETATM   18  C1  UNL     1      23.185  48.276  17.127  1.00  0.00     0.127 C 
HETATM   19  N1  UNL     1      24.041  47.486  16.630  1.00  0.00    -0.387 N 
ATOM     20  H12 UNL     1      24.994  47.530  16.991  1.00  0.00     0.157 HD
ATOM     21  H11 UNL     1      23.813  46.818  15.894  1.00  0.00     0.157 HD
HETATM   22  N2  UNL     1      23.499  49.190  18.133  1.00  0.00    -0.082 NA
ENDBRANCH  14  18
ENDBRANCH   1  12
BRANCH   5  23
HETATM   23  N3  UNL     1      17.856  52.344  13.086  1.00  0.00    -0.384 N 
ATOM     24  H32 UNL     1      18.719  52.342  12.543  1.00  0.00     0.157 HD
ATOM     25  H31 UNL     1      17.023  52.820  12.739  1.00  0.00     0.157 HD
ENDBRANCH   5  23
BRANCH  11  26
HETATM   26  O3  UNL     1      15.505  51.501  18.329  1.00  0.00    -0.278 OA
ATOM     27  H3  UNL     1      16.116  51.299  19.027  1.00  0.00     0.245 HD
ENDBRANCH  11  26
BRANCH   8  28
HETATM   28  C10 UNL     1      15.507  53.932  14.091  1.00  0.00     0.208 C 
BRANCH  28  29
HETATM   29  S1  UNL     1      14.156  53.310  13.049  1.00  0.00    -0.147 SA
BRANCH  29  30
HETATM   30  C11 UNL     1      12.630  54.099  13.599  1.00  0.00     0.101 C 
BRANCH  30  31
HETATM   31  C12 UNL     1      11.640  54.252  12.446  1.00  0.00     0.174 C 
BRANCH  31  32
HETATM   32  O1  UNL     1      12.040  53.470  11.383  1.00  0.00    -0.400 OA
ATOM     33  H1  UNL     1      12.952  53.645  11.182  1.00  0.00     0.209 HD
ENDBRANCH  31  32
ENDBRANCH  30  31
ENDBRANCH  29  30
ENDBRANCH  28  29
ENDBRANCH   8  28
TORSDOF 9
ENDMDL
