MODEL 1
REMARK VINA RESULT: -8.565357381      0.000      0.000
REMARK  7 active torsions:
REMARK  status: ('A' for Active; 'I' for Inactive)
REMARK    1  A    between atoms: S1_2  and  C2_3 
REMARK    2  A    between atoms: C4_10  and  N3_11 
REMARK       I    between atoms: N3_11  and  C5_13 
REMARK    3  A    between atoms: C7_16  and  N4_17 
REMARK    4  A    between atoms: N4_17  and  N5_19 
REMARK    5  A    between atoms: N5_19  and  C8_21 
REMARK    6  A    between atoms: C9_26  and  N8_27 
REMARK    7  A    between atoms: N8_27  and  N9_29 
ROOT
HETATM    1  C2  UNL     1      15.918  52.215  15.369  1.00  0.00     0.147 A 
HETATM    2  N1  UNL     1      16.955  52.181  14.535  1.00  0.00    -0.321 N 
ATOM      3  H1  UNL     1      16.988  52.818  13.739  1.00  0.00     0.169 HD
HETATM    4  C3  UNL     1      17.950  51.318  14.739  1.00  0.00     0.132 A 
HETATM    5  N2  UNL     1      18.975  51.278  13.921  1.00  0.00    -0.383 N 
ATOM      6  H21 UNL     1      19.737  50.618  14.077  1.00  0.00     0.157 HD
ATOM      7  H22 UNL     1      19.006  51.915  13.125  1.00  0.00     0.157 HD
HETATM    8  C4  UNL     1      17.908  50.446  15.829  1.00  0.00     0.124 A 
HETATM    9  C7  UNL     1      16.860  50.468  16.683  1.00  0.00     0.153 A 
HETATM   10  N11 UNL     1      15.869  51.381  16.415  1.00  0.00    -0.320 N 
ATOM     11  H11 UNL     1      15.063  51.426  17.040  1.00  0.00     0.169 HD
ENDROOT
BRANCH   9  12
HETATM   12  N4  UNL     1      16.729  49.635  17.781  1.00  0.00    -0.269 N 
ATOM     13  H4  UNL     1      16.357  48.709  17.570  1.00  0.00     0.189 HD
BRANCH  12  14
HETATM   14  N5  UNL     1      17.018  49.847  19.112  1.00  0.00    -0.129 N 
ATOM     15  H5  UNL     1      17.842  49.399  19.513  1.00  0.00     0.205 HD
BRANCH  14  16
HETATM   16  C8  UNL     1      16.200  50.679  19.957  1.00  0.00     0.726 A 
HETATM   17  N6  UNL     1      14.976  51.170  19.709  1.00  0.00    -0.116 N 
HETATM   18  N7  UNL     1      14.558  51.894  20.741  1.00  0.00    -0.116 N 
ATOM     19  H6  UNL     1      14.444  51.010  18.853  1.00  0.00     0.206 HD
HETATM   20  C9  UNL     1      15.510  51.873  21.661  1.00  0.00     0.731 A 
ATOM     21  H7  UNL     1      13.663  52.379  20.812  1.00  0.00     0.206 HD
HETATM   22  N10 UNL     1      16.533  51.121  21.180  1.00  0.00    -0.017 N 
ATOM     23  H10 UNL     1      17.409  50.924  21.666  1.00  0.00     0.203 HD
BRANCH  20  24
HETATM   24  N8  UNL     1      15.553  52.436  22.832  1.00  0.00    -0.070 N 
ATOM     25  H8  UNL     1      16.440  52.456  23.333  1.00  0.00     0.212 HD
BRANCH  24  26
HETATM   26  N9  UNL     1      14.437  53.010  23.428  1.00  0.00    -0.024 N 
HETATM   27  O2  UNL     1      13.957  54.109  23.033  1.00  0.00    -0.516 OA
HETATM   28  O3  UNL     1      13.824  52.375  24.485  1.00  0.00    -0.516 OA
ENDBRANCH  24  26
ENDBRANCH  20  24
ENDBRANCH  14  16
ENDBRANCH  12  14
ENDBRANCH   9  12
BRANCH   8  29
HETATM   29  N3  UNL     1      18.987  49.556  15.995  1.00  0.00    -0.321 N 
HETATM   30  C5  UNL     1      19.909  49.592  17.047  1.00  0.00     0.218 C 
HETATM   31  C6  UNL     1      21.002  48.609  17.123  1.00  0.00     0.117 C 
HETATM   32  O1  UNL     1      19.807  50.467  17.934  1.00  0.00    -0.274 OA
ATOM     33  H3  UNL     1      19.106  48.826  15.291  1.00  0.00     0.169 HD
ENDBRANCH   8  29
BRANCH   1  34
HETATM   34  S1  UNL     1      14.601  53.381  15.070  1.00  0.00    -0.098 SA
HETATM   35  C1  UNL     1      14.090  53.384  13.347  1.00  0.00     0.099 C 
ENDBRANCH   1  34
TORSDOF 7
ENDMDL
MODEL 2
REMARK VINA RESULT: -8.414529032      1.017      1.017
REMARK  7 active torsions:
REMARK  status: ('A' for Active; 'I' for Inactive)
REMARK    1  A    between atoms: S1_2  and  C2_3 
REMARK    2  A    between atoms: C4_10  and  N3_11 
REMARK       I    between atoms: N3_11  and  C5_13 
REMARK    3  A    between atoms: C7_16  and  N4_17 
REMARK    4  A    between atoms: N4_17  and  N5_19 
REMARK    5  A    between atoms: N5_19  and  C8_21 
REMARK    6  A    between atoms: C9_26  and  N8_27 
REMARK    7  A    between atoms: N8_27  and  N9_29 
ROOT
HETATM    1  C2  UNL     1      15.973  52.075  15.517  1.00  0.00     0.147 A 
HETATM    2  N1  UNL     1      17.026  52.027  14.705  1.00  0.00    -0.321 N 
ATOM      3  H1  UNL     1      17.056  52.619  13.875  1.00  0.00     0.169 HD
HETATM    4  C3  UNL     1      18.042  51.209  14.975  1.00  0.00     0.132 A 
HETATM    5  N2  UNL     1      19.085  51.155  14.180  1.00  0.00    -0.383 N 
ATOM      6  H21 UNL     1      19.862  50.529  14.386  1.00  0.00     0.157 HD
ATOM      7  H22 UNL     1      19.111  51.747  13.350  1.00  0.00     0.157 HD
HETATM    8  C4  UNL     1      18.006  50.398  16.112  1.00  0.00     0.124 A 
HETATM    9  C7  UNL     1      16.941  50.435  16.945  1.00  0.00     0.153 A 
HETATM   10  N11 UNL     1      15.929  51.300  16.608  1.00  0.00    -0.320 N 
ATOM     11  H11 UNL     1      15.110  51.355  17.215  1.00  0.00     0.169 HD
ENDROOT
BRANCH   9  12
HETATM   12  N4  UNL     1      16.815  49.661  18.086  1.00  0.00    -0.269 N 
ATOM     13  H4  UNL     1      16.458  48.720  17.924  1.00  0.00     0.189 HD
BRANCH  12  14
HETATM   14  N5  UNL     1      17.090  49.950  19.406  1.00  0.00    -0.129 N 
ATOM     15  H5  UNL     1      17.935  49.566  19.826  1.00  0.00     0.205 HD
BRANCH  14  16
HETATM   16  C8  UNL     1      16.228  50.776  20.212  1.00  0.00     0.726 A 
HETATM   17  N6  UNL     1      15.001  51.235  19.919  1.00  0.00    -0.116 N 
HETATM   18  N7  UNL     1      14.536  51.965  20.926  1.00  0.00    -0.116 N 
ATOM     19  H6  UNL     1      14.499  51.049  19.050  1.00  0.00     0.206 HD
HETATM   20  C9  UNL     1      15.460  51.982  21.874  1.00  0.00     0.731 A 
ATOM     21  H7  UNL     1      13.629  52.431  20.962  1.00  0.00     0.206 HD
HETATM   22  N10 UNL     1      16.514  51.245  21.436  1.00  0.00    -0.017 N 
ATOM     23  H10 UNL     1      17.378  51.077  21.951  1.00  0.00     0.203 HD
BRANCH  20  24
HETATM   24  N8  UNL     1      15.454  52.564  23.036  1.00  0.00    -0.070 N 
ATOM     25  H8  UNL     1      16.318  52.583  23.578  1.00  0.00     0.212 HD
BRANCH  24  26
HETATM   26  N9  UNL     1      14.319  53.159  23.570  1.00  0.00    -0.024 N 
HETATM   27  O2  UNL     1      13.847  54.237  23.109  1.00  0.00    -0.516 OA
HETATM   28  O3  UNL     1      13.675  52.572  24.635  1.00  0.00    -0.516 OA
ENDBRANCH  24  26
ENDBRANCH  20  24
ENDBRANCH  14  16
ENDBRANCH  12  14
ENDBRANCH   9  12
BRANCH   8  29
HETATM   29  N3  UNL     1      19.108  49.553  16.347  1.00  0.00    -0.321 N 
HETATM   30  C5  UNL     1      19.214  48.225  15.917  1.00  0.00     0.218 C 
HETATM   31  C6  UNL     1      20.417  47.432  16.219  1.00  0.00     0.117 C 
HETATM   32  O1  UNL     1      18.280  47.705  15.270  1.00  0.00    -0.274 OA
ATOM     33  H3  UNL     1      19.892  49.940  16.874  1.00  0.00     0.169 HD
ENDBRANCH   8  29
BRANCH   1  34
HETATM   34  S1  UNL     1      14.627  53.181  15.130  1.00  0.00    -0.098 SA
HETATM   35  C1  UNL     1      14.507  53.494  13.363  1.00  0.00     0.099 C 
ENDBRANCH   1  34
TORSDOF 7
ENDMDL
MODEL 3
REMARK VINA RESULT: -8.258608532      4.049      6.794
REMARK  7 active torsions:
REMARK  status: ('A' for Active; 'I' for Inactive)
REMARK    1  A    between atoms: S1_2  and  C2_3 
REMARK    2  A    between atoms: C4_10  and  N3_11 
REMARK       I    between atoms: N3_11  and  C5_13 
REMARK    3  A    between atoms: C7_16  and  N4_17 
REMARK    4  A    between atoms: N4_17  and  N5_19 
REMARK    5  A    between atoms: N5_19  and  C8_21 
REMARK    6  A    between atoms: C9_26  and  N8_27 
REMARK    7  A    between atoms: N8_27  and  N9_29 
ROOT
HETATM    1  C2  UNL     1      21.428  48.436  17.117  1.00  0.00     0.147 A 
HETATM    2  N1  UNL     1      21.428  49.358  18.077  1.00  0.00    -0.321 N 
ATOM      3  H1  UNL     1      22.281  49.542  18.606  1.00  0.00     0.169 HD
HETATM    4  C3  UNL     1      20.318  50.044  18.347  1.00  0.00     0.132 A 
HETATM    5  N2  UNL     1      20.310  50.954  19.291  1.00  0.00    -0.383 N 
ATOM      6  H21 UNL     1      19.460  51.479  19.498  1.00  0.00     0.157 HD
ATOM      7  H22 UNL     1      21.163  51.135  19.819  1.00  0.00     0.157 HD
HETATM    8  C4  UNL     1      19.148  49.796  17.623  1.00  0.00     0.124 A 
HETATM    9  C7  UNL     1      19.133  48.861  16.647  1.00  0.00     0.153 A 
HETATM   10  N11 UNL     1      20.311  48.192  16.420  1.00  0.00    -0.320 N 
ATOM     11  H11 UNL     1      20.336  47.479  15.690  1.00  0.00     0.169 HD
ENDROOT
BRANCH   9  12
HETATM   12  N4  UNL     1      18.020  48.542  15.888  1.00  0.00    -0.269 N 
ATOM     13  H4  UNL     1      17.423  47.820  16.291  1.00  0.00     0.189 HD
BRANCH  12  14
HETATM   14  N5  UNL     1      17.583  49.037  14.678  1.00  0.00    -0.129 N 
ATOM     15  H5  UNL     1      17.280  48.381  13.959  1.00  0.00     0.205 HD
BRANCH  14  16
HETATM   16  C8  UNL     1      17.539  50.448  14.391  1.00  0.00     0.726 A 
HETATM   17  N6  UNL     1      18.527  51.239  13.943  1.00  0.00    -0.116 N 
HETATM   18  N7  UNL     1      18.086  52.484  13.804  1.00  0.00    -0.116 N 
ATOM     19  H6  UNL     1      19.477  50.929  13.740  1.00  0.00     0.206 HD
HETATM   20  C9  UNL     1      16.810  52.503  14.160  1.00  0.00     0.731 A 
ATOM     21  H7  UNL     1      18.632  53.283  13.481  1.00  0.00     0.206 HD
HETATM   22  N10 UNL     1      16.465  51.241  14.526  1.00  0.00    -0.017 N 
ATOM     23  H10 UNL     1      15.543  50.946  14.849  1.00  0.00     0.203 HD
BRANCH  20  24
HETATM   24  N8  UNL     1      15.966  53.491  14.189  1.00  0.00    -0.070 N 
ATOM     25  H8  UNL     1      16.308  54.432  14.000  1.00  0.00     0.212 HD
BRANCH  24  26
HETATM   26  N9  UNL     1      14.617  53.315  14.466  1.00  0.00    -0.024 N 
HETATM   27  O2  UNL     1      14.153  53.427  15.636  1.00  0.00    -0.516 OA
HETATM   28  O3  UNL     1      13.743  53.008  13.448  1.00  0.00    -0.516 OA
ENDBRANCH  24  26
ENDBRANCH  20  24
ENDBRANCH  14  16
ENDBRANCH  12  14
ENDBRANCH   9  12
BRANCH   8  29
HETATM   29  N3  UNL     1      18.005  50.550  17.952  1.00  0.00    -0.321 N 
HETATM   30  C5  UNL     1      16.886  50.064  18.638  1.00  0.00     0.218 C 
HETATM   31  C6  UNL     1      15.743  50.945  18.931  1.00  0.00     0.117 C 
HETATM   32  O1  UNL     1      16.854  48.871  19.009  1.00  0.00    -0.274 OA
ATOM     33  H3  UNL     1      17.992  51.530  17.666  1.00  0.00     0.169 HD
ENDBRANCH   8  29
BRANCH   1  34
HETATM   34  S1  UNL     1      22.930  47.534  16.778  1.00  0.00    -0.098 SA
HETATM   35  C1  UNL     1      24.346  48.259  17.614  1.00  0.00     0.099 C 
ENDBRANCH   1  34
TORSDOF 7
ENDMDL
MODEL 4
REMARK VINA RESULT: -8.256168935      3.798      6.961
REMARK  7 active torsions:
REMARK  status: ('A' for Active; 'I' for Inactive)
REMARK    1  A    between atoms: S1_2  and  C2_3 
REMARK    2  A    between atoms: C4_10  and  N3_11 
REMARK       I    between atoms: N3_11  and  C5_13 
REMARK    3  A    between atoms: C7_16  and  N4_17 
REMARK    4  A    between atoms: N4_17  and  N5_19 
REMARK    5  A    between atoms: N5_19  and  C8_21 
REMARK    6  A    between atoms: C9_26  and  N8_27 
REMARK    7  A    between atoms: N8_27  and  N9_29 
ROOT
HETATM    1  C2  UNL     1      17.077  49.982  17.040  1.00  0.00     0.147 A 
HETATM    2  N1  UNL     1      17.534  49.539  18.209  1.00  0.00    -0.321 N 
ATOM      3  H1  UNL     1      18.192  48.761  18.237  1.00  0.00     0.169 HD
HETATM    4  C3  UNL     1      17.133  50.112  19.344  1.00  0.00     0.132 A 
HETATM    5  N2  UNL     1      17.579  49.681  20.501  1.00  0.00    -0.383 N 
ATOM      6  H21 UNL     1      17.273  50.119  21.370  1.00  0.00     0.157 HD
ATOM      7  H22 UNL     1      18.236  48.902  20.525  1.00  0.00     0.157 HD
HETATM    8  C4  UNL     1      16.232  51.179  19.311  1.00  0.00     0.124 A 
HETATM    9  C7  UNL     1      15.759  51.638  18.130  1.00  0.00     0.153 A 
HETATM   10  N11 UNL     1      16.212  51.004  16.999  1.00  0.00    -0.320 N 
ATOM     11  H11 UNL     1      15.876  51.324  16.090  1.00  0.00     0.169 HD
ENDROOT
BRANCH   9  12
HETATM   12  N4  UNL     1      14.858  52.681  18.002  1.00  0.00    -0.269 N 
ATOM     13  H4  UNL     1      14.084  52.658  18.667  1.00  0.00     0.189 HD
BRANCH  12  14
HETATM   14  N5  UNL     1      14.831  53.746  17.127  1.00  0.00    -0.129 N 
ATOM     15  H5  UNL     1      14.691  54.685  17.501  1.00  0.00     0.205 HD
BRANCH  14  16
HETATM   16  C8  UNL     1      14.994  53.583  15.706  1.00  0.00     0.726 A 
HETATM   17  N6  UNL     1      16.101  53.239  15.028  1.00  0.00    -0.116 N 
HETATM   18  N7  UNL     1      15.841  53.195  13.726  1.00  0.00    -0.116 N 
ATOM     19  H6  UNL     1      17.007  53.041  15.451  1.00  0.00     0.206 HD
HETATM   20  C9  UNL     1      14.566  53.509  13.557  1.00  0.00     0.731 A 
ATOM     21  H7  UNL     1      16.506  52.961  12.988  1.00  0.00     0.206 HD
HETATM   22  N10 UNL     1      14.034  53.751  14.783  1.00  0.00    -0.017 N 
ATOM     23  H10 UNL     1      13.067  54.017  14.971  1.00  0.00     0.203 HD
BRANCH  20  24
HETATM   24  N8  UNL     1      13.865  53.596  12.466  1.00  0.00    -0.070 N 
ATOM     25  H8  UNL     1      14.349  53.556  11.569  1.00  0.00     0.212 HD
BRANCH  24  26
HETATM   26  N9  UNL     1      12.484  53.742  12.473  1.00  0.00    -0.024 N 
HETATM   27  O2  UNL     1      11.868  54.251  13.452  1.00  0.00    -0.516 OA
HETATM   28  O3  UNL     1      11.747  53.325  11.388  1.00  0.00    -0.516 OA
ENDBRANCH  24  26
ENDBRANCH  20  24
ENDBRANCH  14  16
ENDBRANCH  12  14
ENDBRANCH   9  12
BRANCH   8  29
HETATM   29  N3  UNL     1      15.845  51.745  20.541  1.00  0.00    -0.321 N 
HETATM   30  C5  UNL     1      14.725  51.364  21.288  1.00  0.00     0.218 C 
HETATM   31  C6  UNL     1      14.414  52.025  22.566  1.00  0.00     0.117 C 
HETATM   32  O1  UNL     1      13.978  50.453  20.870  1.00  0.00    -0.274 OA
ATOM     33  H3  UNL     1      16.428  52.494  20.917  1.00  0.00     0.169 HD
ENDBRANCH   8  29
BRANCH   1  34
HETATM   34  S1  UNL     1      17.630  49.195  15.537  1.00  0.00    -0.098 SA
HETATM   35  C1  UNL     1      18.171  50.397  14.315  1.00  0.00     0.099 C 
ENDBRANCH   1  34
TORSDOF 7
ENDMDL
MODEL 5
REMARK VINA RESULT: -7.880913716      0.774      1.168
REMARK  7 active torsions:
REMARK  status: ('A' for Active; 'I' for Inactive)
REMARK    1  A    between atoms: S1_2  and  C2_3 
REMARK    2  A    between atoms: C4_10  and  N3_11 
REMARK       I    between atoms: N3_11  and  C5_13 
REMARK    3  A    between atoms: C7_16  and  N4_17 
REMARK    4  A    between atoms: N4_17  and  N5_19 
REMARK    5  A    between atoms: N5_19  and  C8_21 
REMARK    6  A    between atoms: C9_26  and  N8_27 
REMARK    7  A    between atoms: N8_27  and  N9_29 
ROOT
HETATM    1  C2  UNL     1      16.040  52.177  15.181  1.00  0.00     0.147 A 
HETATM    2  N1  UNL     1      17.072  52.198  14.341  1.00  0.00    -0.321 N 
ATOM      3  H1  UNL     1      17.132  52.922  13.625  1.00  0.00     0.169 HD
HETATM    4  C3  UNL     1      18.029  51.274  14.433  1.00  0.00     0.132 A 
HETATM    5  N2  UNL     1      19.049  51.287  13.609  1.00  0.00    -0.383 N 
ATOM      6  H21 UNL     1      19.782  50.581  13.679  1.00  0.00     0.157 HD
ATOM      7  H22 UNL     1      19.106  52.012  12.894  1.00  0.00     0.157 HD
HETATM    8  C4  UNL     1      17.951  50.281  15.413  1.00  0.00     0.124 A 
HETATM    9  C7  UNL     1      16.908  50.247  16.272  1.00  0.00     0.153 A 
HETATM   10  N11 UNL     1      15.957  51.228  16.122  1.00  0.00    -0.320 N 
ATOM     11  H11 UNL     1      15.156  51.233  16.753  1.00  0.00     0.169 HD
ENDROOT
BRANCH   9  12
HETATM   12  N4  UNL     1      16.744  49.296  17.264  1.00  0.00    -0.269 N 
ATOM     13  H4  UNL     1      16.054  48.575  17.052  1.00  0.00     0.189 HD
BRANCH  12  14
HETATM   14  N5  UNL     1      17.356  49.160  18.492  1.00  0.00    -0.129 N 
ATOM     15  H5  UNL     1      18.114  48.485  18.590  1.00  0.00     0.205 HD
BRANCH  14  16
HETATM   16  C8  UNL     1      16.966  49.937  19.640  1.00  0.00     0.726 A 
HETATM   17  N6  UNL     1      17.673  50.191  20.753  1.00  0.00    -0.116 N 
HETATM   18  N7  UNL     1      16.961  50.948  21.581  1.00  0.00    -0.116 N 
ATOM     19  H6  UNL     1      18.617  49.853  20.936  1.00  0.00     0.206 HD
HETATM   20  C9  UNL     1      15.793  51.187  21.006  1.00  0.00     0.731 A 
ATOM     21  H7  UNL     1      17.262  51.285  22.495  1.00  0.00     0.206 HD
HETATM   22  N10 UNL     1      15.789  50.561  19.800  1.00  0.00    -0.017 N 
ATOM     23  H10 UNL     1      15.021  50.565  19.129  1.00  0.00     0.203 HD
BRANCH  20  24
HETATM   24  N8  UNL     1      14.777  51.876  21.434  1.00  0.00    -0.070 N 
ATOM     25  H8  UNL     1      13.918  51.874  20.884  1.00  0.00     0.212 HD
BRANCH  24  26
HETATM   26  N9  UNL     1      14.814  52.616  22.609  1.00  0.00    -0.024 N 
HETATM   27  O2  UNL     1      15.401  53.732  22.680  1.00  0.00    -0.516 OA
HETATM   28  O3  UNL     1      14.199  52.132  23.741  1.00  0.00    -0.516 OA
ENDBRANCH  24  26
ENDBRANCH  20  24
ENDBRANCH  14  16
ENDBRANCH  12  14
ENDBRANCH   9  12
BRANCH   8  29
HETATM   29  N3  UNL     1      18.991  49.332  15.464  1.00  0.00    -0.321 N 
HETATM   30  C5  UNL     1      19.969  49.258  16.463  1.00  0.00     0.218 C 
HETATM   31  C6  UNL     1      21.012  48.220  16.417  1.00  0.00     0.117 C 
HETATM   32  O1  UNL     1      19.959  50.080  17.405  1.00  0.00    -0.274 OA
ATOM     33  H3  UNL     1      19.034  48.643  14.712  1.00  0.00     0.169 HD
ENDBRANCH   8  29
BRANCH   1  34
HETATM   34  S1  UNL     1      14.775  53.426  15.033  1.00  0.00    -0.098 SA
HETATM   35  C1  UNL     1      14.035  53.437  13.394  1.00  0.00     0.099 C 
ENDBRANCH   1  34
TORSDOF 7
ENDMDL
