MODEL 1
REMARK VINA RESULT: -7.529620802      0.000      0.000
REMARK  6 active torsions:
REMARK  status: ('A' for Active; 'I' for Inactive)
REMARK    1  A    between atoms: N1_1  and  C1_4 
REMARK    2  A    between atoms: C4_10  and  N3_11 
REMARK    3  A    between atoms: N3_11  and  C5_13 
REMARK    4  A    between atoms: C5_13  and  C6_14 
REMARK    5  A    between atoms: C6_14  and  C7_15 
REMARK    6  A    between atoms: C7_15  and  N4_16 
ROOT
HETATM    1  C1  UNL     1      29.656   1.269  33.866  1.00  0.00     0.695 A 
HETATM    2  N2  UNL     1      30.383   2.300  34.338  1.00  0.00    -0.153 N 
ATOM      3  H2  UNL     1      31.000   2.844  33.735  1.00  0.00     0.187 HD
HETATM    4  C2  UNL     1      30.251   2.574  35.649  1.00  0.00     0.294 A 
HETATM    5  O1  UNL     1      30.904   3.523  36.144  1.00  0.00    -0.265 OA
HETATM    6  C3  UNL     1      29.423   1.851  36.483  1.00  0.00     0.190 A 
HETATM    7  C4  UNL     1      29.127   1.936  37.826  1.00  0.00     0.153 A 
HETATM    8  N5  UNL     1      28.242   0.941  38.047  1.00  0.00    -0.267 N 
ATOM      9  H5  UNL     1      27.810   0.717  38.944  1.00  0.00     0.190 HD
HETATM   10  N6  UNL     1      28.026   0.304  36.904  1.00  0.00    -0.219 N 
ATOM     11  H6  UNL     1      27.397  -0.492  36.795  1.00  0.00     0.210 HD
HETATM   12  N7  UNL     1      28.726   0.829  35.936  1.00  0.00    -0.158 N 
HETATM   13  N8  UNL     1      28.842   0.545  34.650  1.00  0.00    -0.109 N 
ATOM     14  H8  UNL     1      28.309  -0.229  34.251  1.00  0.00     0.208 HD
ENDROOT
BRANCH   7  15
HETATM   15  N3  UNL     1      29.635   2.861  38.775  1.00  0.00    -0.373 N 
ATOM     16  H3  UNL     1      30.621   3.123  38.750  1.00  0.00     0.161 HD
BRANCH  15  17
HETATM   17  C5  UNL     1      28.763   3.438  39.781  1.00  0.00     0.123 C 
BRANCH  17  18
HETATM   18  C6  UNL     1      29.308   4.749  40.297  1.00  0.00     0.047 C 
BRANCH  18  19
HETATM   19  C7  UNL     1      28.568   5.099  41.557  1.00  0.00     0.231 C 
BRANCH  19  20
HETATM   20  N4  UNL     1      28.539   6.531  41.686  1.00  0.00    -0.079 N 
ATOM     21  H43 UNL     1      29.021   6.858  42.523  1.00  0.00     0.274 HD
ATOM     22  H42 UNL     1      29.124   6.999  40.995  1.00  0.00     0.274 HD
ATOM     23  H41 UNL     1      27.567   6.839  41.649  1.00  0.00     0.274 HD
ENDBRANCH  19  20
ENDBRANCH  18  19
ENDBRANCH  17  18
ENDBRANCH  15  17
ENDBRANCH   7  15
BRANCH   1  24
HETATM   24  N1  UNL     1      29.753   0.977  32.629  1.00  0.00    -0.233 N 
ATOM     25  H12 UNL     1      28.929   1.050  32.033  1.00  0.00     0.174 HD
ATOM     26  H11 UNL     1      30.660   0.676  32.272  1.00  0.00     0.174 HD
ENDBRANCH   1  24
TORSDOF 6
ENDMDL
MODEL 2
REMARK VINA RESULT: -7.408940623      3.458      5.347
REMARK  6 active torsions:
REMARK  status: ('A' for Active; 'I' for Inactive)
REMARK    1  A    between atoms: N1_1  and  C1_4 
REMARK    2  A    between atoms: C4_10  and  N3_11 
REMARK    3  A    between atoms: N3_11  and  C5_13 
REMARK    4  A    between atoms: C5_13  and  C6_14 
REMARK    5  A    between atoms: C6_14  and  C7_15 
REMARK    6  A    between atoms: C7_15  and  N4_16 
ROOT
HETATM    1  C1  UNL     1      28.811   0.950  36.784  1.00  0.00     0.695 A 
HETATM    2  N2  UNL     1      29.541   1.418  37.815  1.00  0.00    -0.153 N 
ATOM      3  H2  UNL     1      29.166   1.463  38.763  1.00  0.00     0.187 HD
HETATM    4  C2  UNL     1      30.792   1.821  37.528  1.00  0.00     0.294 A 
HETATM    5  O1  UNL     1      31.518   2.266  38.448  1.00  0.00    -0.265 OA
HETATM    6  C3  UNL     1      31.318   1.768  36.253  1.00  0.00     0.190 A 
HETATM    7  C4  UNL     1      32.542   2.115  35.721  1.00  0.00     0.153 A 
HETATM    8  N5  UNL     1      32.440   1.824  34.407  1.00  0.00    -0.267 N 
ATOM      9  H5  UNL     1      33.173   1.958  33.709  1.00  0.00     0.190 HD
HETATM   10  N6  UNL     1      31.230   1.335  34.173  1.00  0.00    -0.219 N 
ATOM     11  H6  UNL     1      30.895   1.036  33.257  1.00  0.00     0.210 HD
HETATM   12  N7  UNL     1      30.525   1.287  35.269  1.00  0.00    -0.158 N 
HETATM   13  N8  UNL     1      29.292   0.885  35.532  1.00  0.00    -0.109 N 
ATOM     14  H8  UNL     1      28.705   0.525  34.780  1.00  0.00     0.208 HD
ENDROOT
BRANCH   7  15
HETATM   15  N3  UNL     1      33.666   2.658  36.397  1.00  0.00    -0.373 N 
ATOM     16  H3  UNL     1      33.636   2.782  37.410  1.00  0.00     0.161 HD
BRANCH  15  17
HETATM   17  C5  UNL     1      34.855   3.039  35.660  1.00  0.00     0.123 C 
BRANCH  17  18
HETATM   18  C6  UNL     1      35.763   3.914  36.492  1.00  0.00     0.047 C 
BRANCH  18  19
HETATM   19  C7  UNL     1      35.637   5.325  35.994  1.00  0.00     0.231 C 
BRANCH  19  20
HETATM   20  N4  UNL     1      36.899   5.726  35.432  1.00  0.00    -0.079 N 
ATOM     21  H43 UNL     1      37.667   5.645  36.098  1.00  0.00     0.274 HD
ATOM     22  H42 UNL     1      37.246   5.066  34.737  1.00  0.00     0.274 HD
ATOM     23  H41 UNL     1      36.802   6.670  35.060  1.00  0.00     0.274 HD
ENDBRANCH  19  20
ENDBRANCH  18  19
ENDBRANCH  17  18
ENDBRANCH  15  17
ENDBRANCH   7  15
BRANCH   1  24
HETATM   24  N1  UNL     1      27.620   0.558  37.015  1.00  0.00    -0.233 N 
ATOM     25  H12 UNL     1      27.420   0.047  37.875  1.00  0.00     0.174 HD
ATOM     26  H11 UNL     1      26.898   0.768  36.326  1.00  0.00     0.174 HD
ENDBRANCH   1  24
TORSDOF 6
ENDMDL
MODEL 3
REMARK VINA RESULT: -7.162246308      2.863      4.823
REMARK  6 active torsions:
REMARK  status: ('A' for Active; 'I' for Inactive)
REMARK    1  A    between atoms: N1_1  and  C1_4 
REMARK    2  A    between atoms: C4_10  and  N3_11 
REMARK    3  A    between atoms: N3_11  and  C5_13 
REMARK    4  A    between atoms: C5_13  and  C6_14 
REMARK    5  A    between atoms: C6_14  and  C7_15 
REMARK    6  A    between atoms: C7_15  and  N4_16 
ROOT
HETATM    1  C1  UNL     1      28.447   0.913  36.774  1.00  0.00     0.695 A 
HETATM    2  N2  UNL     1      29.265   1.805  37.368  1.00  0.00    -0.153 N 
ATOM      3  H2  UNL     1      29.087   2.153  38.310  1.00  0.00     0.187 HD
HETATM    4  C2  UNL     1      30.329   2.210  36.652  1.00  0.00     0.294 A 
HETATM    5  O1  UNL     1      31.125   3.039  37.153  1.00  0.00    -0.265 OA
HETATM    6  C3  UNL     1      30.588   1.752  35.376  1.00  0.00     0.190 A 
HETATM    7  C4  UNL     1      31.588   2.013  34.463  1.00  0.00     0.153 A 
HETATM    8  N5  UNL     1      31.282   1.250  33.392  1.00  0.00    -0.267 N 
ATOM      9  H5  UNL     1      31.819   1.199  32.525  1.00  0.00     0.190 HD
HETATM   10  N6  UNL     1      30.168   0.578  33.652  1.00  0.00    -0.219 N 
ATOM     11  H6  UNL     1      29.721  -0.071  33.006  1.00  0.00     0.210 HD
HETATM   12  N7  UNL     1      29.722   0.859  34.845  1.00  0.00    -0.158 N 
HETATM   13  N8  UNL     1      28.670   0.448  35.534  1.00  0.00    -0.109 N 
ATOM     14  H8  UNL     1      28.025  -0.226  35.122  1.00  0.00     0.208 HD
ENDROOT
BRANCH   7  15
HETATM   15  N3  UNL     1      32.697   2.886  34.608  1.00  0.00    -0.373 N 
ATOM     16  H3  UNL     1      32.646   3.835  34.235  1.00  0.00     0.161 HD
BRANCH  15  17
HETATM   17  C5  UNL     1      33.901   2.441  35.283  1.00  0.00     0.123 C 
BRANCH  17  18
HETATM   18  C6  UNL     1      34.679   3.606  35.850  1.00  0.00     0.047 C 
BRANCH  18  19
HETATM   19  C7  UNL     1      35.129   3.239  37.234  1.00  0.00     0.231 C 
BRANCH  19  20
HETATM   20  N4  UNL     1      34.086   2.478  37.867  1.00  0.00    -0.079 N 
ATOM     21  H43 UNL     1      33.252   3.034  38.050  1.00  0.00     0.274 HD
ATOM     22  H42 UNL     1      33.664   1.794  37.239  1.00  0.00     0.274 HD
ATOM     23  H41 UNL     1      34.465   2.051  38.712  1.00  0.00     0.274 HD
ENDBRANCH  19  20
ENDBRANCH  18  19
ENDBRANCH  17  18
ENDBRANCH  15  17
ENDBRANCH   7  15
BRANCH   1  24
HETATM   24  N1  UNL     1      27.427   0.504  37.420  1.00  0.00    -0.233 N 
ATOM     25  H12 UNL     1      27.526   0.256  38.404  1.00  0.00     0.174 HD
ATOM     26  H11 UNL     1      26.537   0.436  36.927  1.00  0.00     0.174 HD
ENDBRANCH   1  24
TORSDOF 6
ENDMDL
MODEL 4
REMARK VINA RESULT: -6.964152109      1.547      5.575
REMARK  6 active torsions:
REMARK  status: ('A' for Active; 'I' for Inactive)
REMARK    1  A    between atoms: N1_1  and  C1_4 
REMARK    2  A    between atoms: C4_10  and  N3_11 
REMARK    3  A    between atoms: N3_11  and  C5_13 
REMARK    4  A    between atoms: C5_13  and  C6_14 
REMARK    5  A    between atoms: C6_14  and  C7_15 
REMARK    6  A    between atoms: C7_15  and  N4_16 
ROOT
HETATM    1  C1  UNL     1      28.805   3.625  39.587  1.00  0.00     0.695 A 
HETATM    2  N2  UNL     1      29.627   4.185  38.677  1.00  0.00    -0.153 N 
ATOM      3  H2  UNL     1      29.895   5.168  38.729  1.00  0.00     0.187 HD
HETATM    4  C2  UNL     1      30.075   3.378  37.699  1.00  0.00     0.294 A 
HETATM    5  O1  UNL     1      30.843   3.845  36.824  1.00  0.00    -0.265 OA
HETATM    6  C3  UNL     1      29.724   2.046  37.611  1.00  0.00     0.190 A 
HETATM    7  C4  UNL     1      30.044   1.042  36.723  1.00  0.00     0.153 A 
HETATM    8  N5  UNL     1      29.383  -0.043  37.179  1.00  0.00    -0.267 N 
ATOM      9  H5  UNL     1      29.398  -0.971  36.754  1.00  0.00     0.190 HD
HETATM   10  N6  UNL     1      28.710   0.297  38.270  1.00  0.00    -0.219 N 
ATOM     11  H6  UNL     1      28.126  -0.341  38.811  1.00  0.00     0.210 HD
HETATM   12  N7  UNL     1      28.895   1.555  38.560  1.00  0.00    -0.158 N 
HETATM   13  N8  UNL     1      28.444   2.333  39.530  1.00  0.00    -0.109 N 
ATOM     14  H8  UNL     1      27.819   1.949  40.239  1.00  0.00     0.208 HD
ENDROOT
BRANCH   7  15
HETATM   15  N3  UNL     1      30.884   1.120  35.581  1.00  0.00    -0.373 N 
ATOM     16  H3  UNL     1      31.784   0.640  35.580  1.00  0.00     0.161 HD
BRANCH  15  17
HETATM   17  C5  UNL     1      30.471   1.878  34.415  1.00  0.00     0.123 C 
BRANCH  17  18
HETATM   18  C6  UNL     1      29.081   1.490  33.969  1.00  0.00     0.047 C 
BRANCH  18  19
HETATM   19  C7  UNL     1      29.183   0.225  33.166  1.00  0.00     0.231 C 
BRANCH  19  20
HETATM   20  N4  UNL     1      28.397  -0.791  33.813  1.00  0.00    -0.079 N 
ATOM     21  H43 UNL     1      27.395  -0.605  33.757  1.00  0.00     0.274 HD
ATOM     22  H42 UNL     1      28.404  -1.675  33.305  1.00  0.00     0.274 HD
ATOM     23  H41 UNL     1      28.723  -0.890  34.774  1.00  0.00     0.274 HD
ENDBRANCH  19  20
ENDBRANCH  18  19
ENDBRANCH  17  18
ENDBRANCH  15  17
ENDBRANCH   7  15
BRANCH   1  24
HETATM   24  N1  UNL     1      28.359   4.356  40.531  1.00  0.00    -0.233 N 
ATOM     25  H12 UNL     1      28.454   5.370  40.464  1.00  0.00     0.174 HD
ATOM     26  H11 UNL     1      27.917   3.901  41.329  1.00  0.00     0.174 HD
ENDBRANCH   1  24
TORSDOF 6
ENDMDL
MODEL 5
REMARK VINA RESULT: -6.949396962      1.400      1.509
REMARK  6 active torsions:
REMARK  status: ('A' for Active; 'I' for Inactive)
REMARK    1  A    between atoms: N1_1  and  C1_4 
REMARK    2  A    between atoms: C4_10  and  N3_11 
REMARK    3  A    between atoms: N3_11  and  C5_13 
REMARK    4  A    between atoms: C5_13  and  C6_14 
REMARK    5  A    between atoms: C6_14  and  C7_15 
REMARK    6  A    between atoms: C7_15  and  N4_16 
ROOT
HETATM    1  C1  UNL     1      31.441   1.538  34.808  1.00  0.00     0.695 A 
HETATM    2  N2  UNL     1      31.946   2.104  35.922  1.00  0.00    -0.153 N 
ATOM      3  H2  UNL     1      32.883   2.505  35.944  1.00  0.00     0.187 HD
HETATM    4  C2  UNL     1      31.146   2.111  37.004  1.00  0.00     0.294 A 
HETATM    5  O1  UNL     1      31.563   2.624  38.070  1.00  0.00    -0.265 OA
HETATM    6  C3  UNL     1      29.875   1.572  36.996  1.00  0.00     0.190 A 
HETATM    7  C4  UNL     1      28.891   1.461  37.955  1.00  0.00     0.153 A 
HETATM    8  N5  UNL     1      27.872   0.833  37.329  1.00  0.00    -0.267 N 
ATOM      9  H5  UNL     1      26.975   0.589  37.751  1.00  0.00     0.190 HD
HETATM   10  N6  UNL     1      28.231   0.586  36.076  1.00  0.00    -0.219 N 
ATOM     11  H6  UNL     1      27.641   0.118  35.388  1.00  0.00     0.210 HD
HETATM   12  N7  UNL     1      29.438   1.021  35.842  1.00  0.00    -0.158 N 
HETATM   13  N8  UNL     1      30.209   1.005  34.767  1.00  0.00    -0.109 N 
ATOM     14  H8  UNL     1      29.866   0.586  33.903  1.00  0.00     0.208 HD
ENDROOT
BRANCH   7  15
HETATM   15  N3  UNL     1      28.929   1.905  39.302  1.00  0.00    -0.373 N 
ATOM     16  H3  UNL     1      29.382   1.329  40.012  1.00  0.00     0.161 HD
BRANCH  15  17
HETATM   17  C5  UNL     1      28.330   3.172  39.677  1.00  0.00     0.123 C 
BRANCH  17  18
HETATM   18  C6  UNL     1      29.367   4.267  39.766  1.00  0.00     0.047 C 
BRANCH  18  19
HETATM   19  C7  UNL     1      29.011   5.155  40.924  1.00  0.00     0.231 C 
BRANCH  19  20
HETATM   20  N4  UNL     1      27.802   4.659  41.525  1.00  0.00    -0.079 N 
ATOM     21  H43 UNL     1      26.992   4.762  40.916  1.00  0.00     0.274 HD
ATOM     22  H42 UNL     1      27.792   3.642  41.603  1.00  0.00     0.274 HD
ATOM     23  H41 UNL     1      27.676   5.121  42.425  1.00  0.00     0.274 HD
ENDBRANCH  19  20
ENDBRANCH  18  19
ENDBRANCH  17  18
ENDBRANCH  15  17
ENDBRANCH   7  15
BRANCH   1  24
HETATM   24  N1  UNL     1      32.167   1.511  33.761  1.00  0.00    -0.233 N 
ATOM     25  H12 UNL     1      32.032   0.765  33.079  1.00  0.00     0.174 HD
ATOM     26  H11 UNL     1      32.867   2.243  33.638  1.00  0.00     0.174 HD
ENDBRANCH   1  24
TORSDOF 6
ENDMDL
