MODEL 1
REMARK VINA RESULT: -5.244903426      0.000      0.000
REMARK  6 active torsions:
REMARK  status: ('A' for Active; 'I' for Inactive)
REMARK    1  A    between atoms: C2_2  and  N1_3 
REMARK    2  A    between atoms: C3_4  and  N2_5 
REMARK    3  A    between atoms: N2_5  and  N3_7 
REMARK    4  A    between atoms: C4_12  and  C5_13 
REMARK    5  A    between atoms: C5_13  and  N5_14 
REMARK    6  A    between atoms: C5_13  and  C6_18 
REMARK       I    between atoms: C6_18  and  N6_20 
ROOT
HETATM    1  N1  UNL     1      42.718  42.222  19.499  1.00  0.00    -0.119 N 
HETATM    2  C3  UNL     1      41.635  42.091  18.736  1.00  0.00     0.706 A 
HETATM    3  N4  UNL     1      41.507  41.014  17.908  1.00  0.00    -0.189 N 
ATOM      4  H4  UNL     1      40.669  40.935  17.332  1.00  0.00     0.184 HD
HETATM    5  C4  UNL     1      42.436  40.060  17.823  1.00  0.00     0.096 A 
HETATM    6  C8  UNL     1      43.565  40.170  18.601  1.00  0.00     0.141 A 
HETATM    7  N7  UNL     1      44.587  39.179  18.547  1.00  0.00    -0.094 NA
HETATM    8  C9  UNL     1      43.693  41.250  19.429  1.00  0.00     0.292 A 
HETATM    9  O2  UNL     1      44.719  41.390  20.163  1.00  0.00    -0.265 OA
ENDROOT
BRANCH   5  10
HETATM   10  C5  UNL     1      42.262  38.882  16.898  1.00  0.00     0.326 C 
BRANCH  10  11
HETATM   11  N5  UNL     1      41.499  37.829  17.513  1.00  0.00    -0.061 N 
ATOM     12  H53 UNL     1      41.919  36.915  17.336  1.00  0.00     0.275 HD
ATOM     13  H52 UNL     1      41.587  37.851  18.529  1.00  0.00     0.275 HD
ATOM     14  H51 UNL     1      40.522  37.850  17.224  1.00  0.00     0.275 HD
ENDBRANCH  10  11
BRANCH  10  15
HETATM   15  C6  UNL     1      41.695  39.301  15.592  1.00  0.00     0.254 C 
HETATM   16  O1  UNL     1      41.839  40.473  15.125  1.00  0.00    -0.271 OA
HETATM   17  N6  UNL     1      40.959  38.387  14.809  1.00  0.00    -0.363 N 
HETATM   18  C7  UNL     1      40.375  38.724  13.523  1.00  0.00     0.149 C 
ATOM     19  H6  UNL     1      40.830  37.439  15.166  1.00  0.00     0.161 HD
ENDBRANCH  10  15
ENDBRANCH   5  10
BRANCH   2  20
HETATM   20  N2  UNL     1      40.707  42.969  18.739  1.00  0.00    -0.138 N 
ATOM     21  H2  UNL     1      39.964  42.931  19.437  1.00  0.00     0.205 HD
BRANCH  20  22
HETATM   22  N3  UNL     1      40.720  43.978  17.779  1.00  0.00    -0.331 N 
ATOM     23  H32 UNL     1      41.475  44.007  17.093  1.00  0.00     0.177 HD
ATOM     24  H31 UNL     1      39.974  44.674  17.776  1.00  0.00     0.177 HD
ENDBRANCH  20  22
ENDBRANCH   2  20
BRANCH   1  25
HETATM   25  C2  UNL     1      42.900  43.281  20.385  1.00  0.00     0.108 C 
HETATM   26  C1  UNL     1      43.442  44.429  20.201  1.00  0.00     0.031 C 
ENDBRANCH   1  25
TORSDOF 6
ENDMDL
MODEL 2
REMARK VINA RESULT: -5.135889846      1.784      2.543
REMARK  6 active torsions:
REMARK  status: ('A' for Active; 'I' for Inactive)
REMARK    1  A    between atoms: C2_2  and  N1_3 
REMARK    2  A    between atoms: C3_4  and  N2_5 
REMARK    3  A    between atoms: N2_5  and  N3_7 
REMARK    4  A    between atoms: C4_12  and  C5_13 
REMARK    5  A    between atoms: C5_13  and  N5_14 
REMARK    6  A    between atoms: C5_13  and  C6_18 
REMARK       I    between atoms: C6_18  and  N6_20 
ROOT
HETATM    1  N1  UNL     1      41.973  42.687  19.766  1.00  0.00    -0.119 N 
HETATM    2  C3  UNL     1      43.120  42.171  19.331  1.00  0.00     0.706 A 
HETATM    3  N4  UNL     1      43.114  41.070  18.524  1.00  0.00    -0.189 N 
ATOM      4  H4  UNL     1      44.005  40.691  18.203  1.00  0.00     0.184 HD
HETATM    5  C4  UNL     1      41.986  40.470  18.138  1.00  0.00     0.096 A 
HETATM    6  C8  UNL     1      40.787  40.982  18.573  1.00  0.00     0.141 A 
HETATM    7  N7  UNL     1      39.554  40.379  18.191  1.00  0.00    -0.094 NA
HETATM    8  C9  UNL     1      40.794  42.084  19.382  1.00  0.00     0.292 A 
HETATM    9  O2  UNL     1      39.709  42.589  19.806  1.00  0.00    -0.265 OA
ENDROOT
BRANCH   5  10
HETATM   10  C5  UNL     1      42.015  39.256  17.245  1.00  0.00     0.326 C 
BRANCH  10  11
HETATM   11  N5  UNL     1      41.136  38.221  17.721  1.00  0.00    -0.061 N 
ATOM     12  H53 UNL     1      40.380  38.608  18.287  1.00  0.00     0.275 HD
ATOM     13  H52 UNL     1      40.582  37.827  16.961  1.00  0.00     0.275 HD
ATOM     14  H51 UNL     1      41.644  37.496  18.227  1.00  0.00     0.275 HD
ENDBRANCH  10  11
BRANCH  10  15
HETATM   15  C6  UNL     1      41.745  39.620  15.832  1.00  0.00     0.254 C 
HETATM   16  O1  UNL     1      42.069  40.743  15.338  1.00  0.00    -0.271 OA
HETATM   17  N6  UNL     1      41.103  38.704  14.971  1.00  0.00    -0.363 N 
HETATM   18  C7  UNL     1      40.807  38.988  13.579  1.00  0.00     0.149 C 
ATOM     19  H6  UNL     1      40.833  37.794  15.347  1.00  0.00     0.161 HD
ENDBRANCH  10  15
ENDBRANCH   5  10
BRANCH   2  20
HETATM   20  N2  UNL     1      44.247  42.669  19.669  1.00  0.00    -0.138 N 
ATOM     21  H2  UNL     1      44.600  42.546  20.618  1.00  0.00     0.205 HD
BRANCH  20  22
HETATM   22  N3  UNL     1      44.988  43.382  18.729  1.00  0.00    -0.331 N 
ATOM     23  H32 UNL     1      44.597  44.234  18.327  1.00  0.00     0.177 HD
ATOM     24  H31 UNL     1      45.909  43.040  18.457  1.00  0.00     0.177 HD
ENDBRANCH  20  22
ENDBRANCH   2  20
BRANCH   1  25
HETATM   25  C2  UNL     1      41.907  43.823  20.569  1.00  0.00     0.108 C 
HETATM   26  C1  UNL     1      41.873  45.063  20.245  1.00  0.00     0.031 C 
ENDBRANCH   1  25
TORSDOF 6
ENDMDL
MODEL 3
REMARK VINA RESULT: -4.874935253      2.070      6.021
REMARK  6 active torsions:
REMARK  status: ('A' for Active; 'I' for Inactive)
REMARK    1  A    between atoms: C2_2  and  N1_3 
REMARK    2  A    between atoms: C3_4  and  N2_5 
REMARK    3  A    between atoms: N2_5  and  N3_7 
REMARK    4  A    between atoms: C4_12  and  C5_13 
REMARK    5  A    between atoms: C5_13  and  N5_14 
REMARK    6  A    between atoms: C5_13  and  C6_18 
REMARK       I    between atoms: C6_18  and  N6_20 
ROOT
HETATM    1  N1  UNL     1      41.865  40.326  18.138  1.00  0.00    -0.119 N 
HETATM    2  C3  UNL     1      43.068  40.838  18.389  1.00  0.00     0.706 A 
HETATM    3  N4  UNL     1      43.185  41.994  19.106  1.00  0.00    -0.189 N 
ATOM      4  H4  UNL     1      44.117  42.368  19.286  1.00  0.00     0.184 HD
HETATM    5  C4  UNL     1      42.127  42.654  19.580  1.00  0.00     0.096 A 
HETATM    6  C8  UNL     1      40.872  42.147  19.335  1.00  0.00     0.141 A 
HETATM    7  N7  UNL     1      39.709  42.813  19.818  1.00  0.00    -0.094 NA
HETATM    8  C9  UNL     1      40.756  40.990  18.616  1.00  0.00     0.292 A 
HETATM    9  O2  UNL     1      39.617  40.488  18.368  1.00  0.00    -0.265 OA
ENDROOT
BRANCH   5  10
HETATM   10  C5  UNL     1      42.291  43.928  20.369  1.00  0.00     0.326 C 
BRANCH  10  11
HETATM   11  N5  UNL     1      41.699  43.827  21.676  1.00  0.00    -0.061 N 
ATOM     12  H53 UNL     1      40.747  44.194  21.681  1.00  0.00     0.275 HD
ATOM     13  H52 UNL     1      41.498  42.857  21.919  1.00  0.00     0.275 HD
ATOM     14  H51 UNL     1      42.274  44.277  22.388  1.00  0.00     0.275 HD
ENDBRANCH  10  11
BRANCH  10  15
HETATM   15  C6  UNL     1      43.714  44.347  20.425  1.00  0.00     0.254 C 
HETATM   16  O1  UNL     1      44.338  44.794  19.414  1.00  0.00    -0.271 OA
HETATM   17  N6  UNL     1      44.435  44.260  21.634  1.00  0.00    -0.363 N 
HETATM   18  C7  UNL     1      45.827  44.652  21.765  1.00  0.00     0.149 C 
ATOM     19  H6  UNL     1      43.953  43.902  22.460  1.00  0.00     0.161 HD
ENDBRANCH  10  15
ENDBRANCH   5  10
BRANCH   2  20
HETATM   20  N2  UNL     1      44.134  40.283  17.954  1.00  0.00    -0.138 N 
ATOM     21  H2  UNL     1      44.272  39.278  18.064  1.00  0.00     0.205 HD
BRANCH  20  22
HETATM   22  N3  UNL     1      45.103  41.064  17.330  1.00  0.00    -0.331 N 
ATOM     23  H32 UNL     1      44.815  41.790  16.674  1.00  0.00     0.177 HD
ATOM     24  H31 UNL     1      46.088  40.897  17.536  1.00  0.00     0.177 HD
ENDBRANCH  20  22
ENDBRANCH   2  20
BRANCH   1  25
HETATM   25  C2  UNL     1      41.677  39.138  17.437  1.00  0.00     0.108 C 
HETATM   26  C1  UNL     1      41.626  38.922  16.174  1.00  0.00     0.031 C 
ENDBRANCH   1  25
TORSDOF 6
ENDMDL
MODEL 4
REMARK VINA RESULT: -4.839268632      7.394      8.982
REMARK  6 active torsions:
REMARK  status: ('A' for Active; 'I' for Inactive)
REMARK    1  A    between atoms: C2_2  and  N1_3 
REMARK    2  A    between atoms: C3_4  and  N2_5 
REMARK    3  A    between atoms: N2_5  and  N3_7 
REMARK    4  A    between atoms: C4_12  and  C5_13 
REMARK    5  A    between atoms: C5_13  and  N5_14 
REMARK    6  A    between atoms: C5_13  and  C6_18 
REMARK       I    between atoms: C6_18  and  N6_20 
ROOT
HETATM    1  N1  UNL     1      37.326  38.011  11.602  1.00  0.00    -0.119 N 
HETATM    2  C3  UNL     1      37.018  36.741  11.854  1.00  0.00     0.706 A 
HETATM    3  N4  UNL     1      37.978  35.877  12.296  1.00  0.00    -0.189 N 
ATOM      4  H4  UNL     1      37.719  34.908  12.481  1.00  0.00     0.184 HD
HETATM    5  C4  UNL     1      39.243  36.252  12.494  1.00  0.00     0.096 A 
HETATM    6  C8  UNL     1      39.589  37.559  12.242  1.00  0.00     0.141 A 
HETATM    7  N7  UNL     1      40.926  38.010  12.436  1.00  0.00    -0.094 NA
HETATM    8  C9  UNL     1      38.627  38.423  11.798  1.00  0.00     0.292 A 
HETATM    9  O2  UNL     1      38.903  39.637  11.554  1.00  0.00    -0.265 OA
ENDROOT
BRANCH   5  10
HETATM   10  C5  UNL     1      40.279  35.272  12.983  1.00  0.00     0.326 C 
BRANCH  10  11
HETATM   11  N5  UNL     1      40.863  35.690  14.230  1.00  0.00    -0.061 N 
ATOM     12  H53 UNL     1      41.859  35.474  14.264  1.00  0.00     0.275 HD
ATOM     13  H52 UNL     1      40.917  36.706  14.292  1.00  0.00     0.275 HD
ATOM     14  H51 UNL     1      40.369  35.294  15.030  1.00  0.00     0.275 HD
ENDBRANCH  10  11
BRANCH  10  15
HETATM   15  C6  UNL     1      39.730  33.895  13.050  1.00  0.00     0.254 C 
HETATM   16  O1  UNL     1      39.145  33.341  12.070  1.00  0.00    -0.271 OA
HETATM   17  N6  UNL     1      39.844  33.140  14.236  1.00  0.00    -0.363 N 
HETATM   18  C7  UNL     1      39.333  31.788  14.376  1.00  0.00     0.149 C 
ATOM     19  H6  UNL     1      40.311  33.566  15.038  1.00  0.00     0.161 HD
ENDBRANCH  10  15
ENDBRANCH   5  10
BRANCH   2  20
HETATM   20  N2  UNL     1      35.836  36.292  11.671  1.00  0.00    -0.138 N 
ATOM     21  H2  UNL     1      35.052  36.672  12.202  1.00  0.00     0.205 HD
BRANCH  20  22
HETATM   22  N3  UNL     1      35.627  35.278  10.739  1.00  0.00    -0.331 N 
ATOM     23  H32 UNL     1      35.683  34.304  11.039  1.00  0.00     0.177 HD
ATOM     24  H31 UNL     1      35.422  35.524   9.771  1.00  0.00     0.177 HD
ENDBRANCH  20  22
ENDBRANCH   2  20
BRANCH   1  25
HETATM   25  C2  UNL     1      36.389  38.950  11.176  1.00  0.00     0.108 C 
HETATM   26  C1  UNL     1      35.563  39.659  11.853  1.00  0.00     0.031 C 
ENDBRANCH   1  25
TORSDOF 6
ENDMDL
MODEL 5
REMARK VINA RESULT: -4.718453669      2.491      5.752
REMARK  6 active torsions:
REMARK  status: ('A' for Active; 'I' for Inactive)
REMARK    1  A    between atoms: C2_2  and  N1_3 
REMARK    2  A    between atoms: C3_4  and  N2_5 
REMARK    3  A    between atoms: N2_5  and  N3_7 
REMARK    4  A    between atoms: C4_12  and  C5_13 
REMARK    5  A    between atoms: C5_13  and  N5_14 
REMARK    6  A    between atoms: C5_13  and  C6_18 
REMARK       I    between atoms: C6_18  and  N6_20 
ROOT
HETATM    1  N1  UNL     1      41.909  40.824  17.933  1.00  0.00    -0.119 N 
HETATM    2  C3  UNL     1      43.043  41.479  18.172  1.00  0.00     0.706 A 
HETATM    3  N4  UNL     1      43.061  42.521  19.053  1.00  0.00    -0.189 N 
ATOM      4  H4  UNL     1      43.941  43.009  19.219  1.00  0.00     0.184 HD
HETATM    5  C4  UNL     1      41.969  42.928  19.704  1.00  0.00     0.096 A 
HETATM    6  C8  UNL     1      40.784  42.269  19.477  1.00  0.00     0.141 A 
HETATM    7  N7  UNL     1      39.590  42.663  20.146  1.00  0.00    -0.094 NA
HETATM    8  C9  UNL     1      40.767  41.225  18.593  1.00  0.00     0.292 A 
HETATM    9  O2  UNL     1      39.695  40.590  18.355  1.00  0.00    -0.265 OA
ENDROOT
BRANCH   5  10
HETATM   10  C5  UNL     1      42.023  44.083  20.671  1.00  0.00     0.326 C 
BRANCH  10  11
HETATM   11  N5  UNL     1      43.258  44.105  21.409  1.00  0.00    -0.061 N 
ATOM     12  H53 UNL     1      43.650  43.168  21.503  1.00  0.00     0.275 HD
ATOM     13  H52 UNL     1      44.006  44.537  20.867  1.00  0.00     0.275 HD
ATOM     14  H51 UNL     1      43.149  44.555  22.317  1.00  0.00     0.275 HD
ENDBRANCH  10  11
BRANCH  10  15
HETATM   15  C6  UNL     1      41.751  45.371  19.987  1.00  0.00     0.254 C 
HETATM   16  O1  UNL     1      42.408  46.430  20.229  1.00  0.00    -0.271 OA
HETATM   17  N6  UNL     1      40.727  45.462  19.021  1.00  0.00    -0.363 N 
HETATM   18  C7  UNL     1      40.404  46.687  18.311  1.00  0.00     0.149 C 
ATOM     19  H6  UNL     1      40.185  44.623  18.810  1.00  0.00     0.161 HD
ENDBRANCH  10  15
ENDBRANCH   5  10
BRANCH   2  20
HETATM   20  N2  UNL     1      44.130  41.170  17.575  1.00  0.00    -0.138 N 
ATOM     21  H2  UNL     1      44.524  40.234  17.673  1.00  0.00     0.205 HD
BRANCH  20  22
HETATM   22  N3  UNL     1      44.772  42.125  16.789  1.00  0.00    -0.331 N 
ATOM     23  H32 UNL     1      44.239  42.628  16.079  1.00  0.00     0.177 HD
ATOM     24  H31 UNL     1      45.765  42.306  16.935  1.00  0.00     0.177 HD
ENDBRANCH  20  22
ENDBRANCH   2  20
BRANCH   1  25
HETATM   25  C2  UNL     1      41.828  39.736  17.068  1.00  0.00     0.108 C 
HETATM   26  C1  UNL     1      42.055  38.492  17.281  1.00  0.00     0.031 C 
ENDBRANCH   1  25
TORSDOF 6
ENDMDL
