MODEL 1
REMARK VINA RESULT: -9.209991538      0.000      0.000
REMARK  15 active torsions:
REMARK  status: ('A' for Active; 'I' for Inactive)
REMARK    1  A    between atoms: C2_2  and  C4_4 
REMARK    2  A    between atoms: C4_4  and  N1_5 
REMARK    3  A    between atoms: C4_4  and  C16_23 
REMARK       I    between atoms: N1_5  and  C5_7 
REMARK    4  A    between atoms: C5_7  and  C6_9 
REMARK    5  A    between atoms: C6_9  and  N2_10 
REMARK    6  A    between atoms: C6_9  and  C12_19 
REMARK       I    between atoms: N2_10  and  C7_12 
REMARK    7  A    between atoms: C7_12  and  O3_14 
REMARK    8  A    between atoms: O3_14  and  C8_15 
REMARK       I    between atoms: C16_23  and  N3_25 
REMARK    9  A    between atoms: N3_25  and  C17_27 
REMARK   10  A    between atoms: C17_27  and  C18_28 
REMARK   11  A    between atoms: C17_27  and  C23_37 
REMARK   12  A    between atoms: C18_28  and  O5_29 
REMARK   13  A    between atoms: C18_28  and  N4_31 
REMARK   14  A    between atoms: N4_31  and  C19_33 
REMARK   15  A    between atoms: C19_33  and  C20_34 
ROOT
HETATM    1  C16 UNL     1     -10.445  16.033  27.821  1.00  0.00     0.245 C 
HETATM    2  O4  UNL     1      -9.308  16.116  28.324  1.00  0.00    -0.271 OA
HETATM    3  N3  UNL     1     -10.743  16.734  26.653  1.00  0.00    -0.325 N 
ATOM      4  H3  UNL     1     -11.691  16.587  26.303  1.00  0.00     0.169 HD
ENDROOT
BRANCH   1   5
HETATM    5  C4  UNL     1     -11.408  15.164  28.539  1.00  0.00     0.180 C 
BRANCH   5   6
HETATM    6  C2  UNL     1     -11.672  13.849  27.924  1.00  0.00     0.009 C 
HETATM    7  C1  UNL     1     -12.162  12.758  28.807  1.00  0.00     0.012 C 
HETATM    8  C3  UNL     1     -12.617  14.014  26.718  1.00  0.00     0.012 C 
ENDBRANCH   5   6
BRANCH   5   9
HETATM    9  N1  UNL     1     -11.089  15.141  29.951  1.00  0.00    -0.346 N 
HETATM   10  C5  UNL     1     -11.302  16.126  30.901  1.00  0.00     0.242 C 
HETATM   11  O1  UNL     1     -11.865  17.191  30.433  1.00  0.00    -0.271 OA
ATOM     12  H1  UNL     1     -10.650  14.285  30.292  1.00  0.00     0.163 HD
BRANCH  10  13
HETATM   13  C6  UNL     1     -11.000  16.156  32.319  1.00  0.00     0.186 C 
BRANCH  13  14
HETATM   14  N2  UNL     1     -11.555  15.042  33.065  1.00  0.00    -0.323 N 
HETATM   15  C7  UNL     1     -12.799  15.008  33.700  1.00  0.00     0.362 C 
HETATM   16  O2  UNL     1     -13.595  15.999  33.671  1.00  0.00    -0.238 OA
ATOM     17  H2  UNL     1     -10.981  14.201  33.132  1.00  0.00     0.165 HD
BRANCH  15  18
HETATM   18  O3  UNL     1     -13.234  13.899  34.396  1.00  0.00    -0.294 OA
BRANCH  18  19
HETATM   19  C8  UNL     1     -12.867  13.616  35.733  1.00  0.00     0.061 C 
HETATM   20  C9  UNL     1     -13.993  12.934  36.482  1.00  0.00     0.046 C 
HETATM   21  C10 UNL     1     -11.714  12.611  35.670  1.00  0.00     0.046 C 
HETATM   22  C11 UNL     1     -12.388  14.822  36.494  1.00  0.00     0.046 C 
ENDBRANCH  18  19
ENDBRANCH  15  18
ENDBRANCH  13  14
BRANCH  13  23
HETATM   23  C12 UNL     1      -9.590  16.354  32.753  1.00  0.00    -0.022 C 
HETATM   24  C13 UNL     1      -8.801  17.371  31.974  1.00  0.00     0.017 C 
HETATM   25  C14 UNL     1      -8.794  15.062  32.735  1.00  0.00     0.017 C 
HETATM   26  C15 UNL     1      -9.561  16.835  34.209  1.00  0.00     0.017 C 
ENDBRANCH  13  23
ENDBRANCH  10  13
ENDBRANCH   5   9
ENDBRANCH   1   5
BRANCH   3  27
HETATM   27  C17 UNL     1      -9.943  17.630  25.854  1.00  0.00     0.067 C 
BRANCH  27  28
HETATM   28  C18 UNL     1      -9.432  18.816  26.536  1.00  0.00     0.159 C 
BRANCH  28  29
HETATM   29  O5  UNL     1     -10.290  19.570  27.170  1.00  0.00    -0.345 OA
ATOM     30  H5  UNL     1     -10.514  19.332  28.061  1.00  0.00     0.219 HD
ENDBRANCH  28  29
BRANCH  28  31
HETATM   31  N4  UNL     1      -8.112  19.296  26.632  1.00  0.00    -0.369 N 
ATOM     32  H4  UNL     1      -7.750  19.917  25.908  1.00  0.00     0.161 HD
BRANCH  31  33
HETATM   33  C19 UNL     1      -7.253  18.916  27.757  1.00  0.00     0.126 C 
BRANCH  33  34
HETATM   34  C20 UNL     1      -5.897  18.462  27.226  1.00  0.00     0.003 A 
HETATM   35  C21 UNL     1      -5.397  17.147  27.772  1.00  0.00     0.007 A 
HETATM   36  C22 UNL     1      -5.923  17.223  26.384  1.00  0.00     0.007 A 
ENDBRANCH  33  34
ENDBRANCH  31  33
ENDBRANCH  28  31
ENDBRANCH  27  28
BRANCH  27  37
HETATM   37  C23 UNL     1      -9.187  16.933  24.823  1.00  0.00     0.045 C 
HETATM   38  C24 UNL     1      -8.856  15.498  24.977  1.00  0.00     0.011 C 
HETATM   39  C25 UNL     1      -8.006  15.098  23.760  1.00  0.00     0.006 C 
HETATM   40  C26 UNL     1      -8.589  15.659  22.506  1.00  0.00    -0.006 C 
HETATM   41  C27 UNL     1     -10.101  15.790  22.762  1.00  0.00     0.011 C 
HETATM   42  C29 UNL     1      -8.610  17.166  22.425  1.00  0.00    -0.040 C 
HETATM   43  C28 UNL     1      -9.753  17.124  23.417  1.00  0.00     0.004 C 
HETATM   44  C30 UNL     1      -9.148  17.544  21.033  1.00  0.00     0.015 C 
HETATM   45  C31 UNL     1      -7.389  17.908  22.782  1.00  0.00     0.015 C 
ENDBRANCH  27  37
ENDBRANCH   3  27
TORSDOF 15
ENDMDL
MODEL 2
REMARK VINA RESULT: -9.186745975      2.505     10.169
REMARK  15 active torsions:
REMARK  status: ('A' for Active; 'I' for Inactive)
REMARK    1  A    between atoms: C2_2  and  C4_4 
REMARK    2  A    between atoms: C4_4  and  N1_5 
REMARK    3  A    between atoms: C4_4  and  C16_23 
REMARK       I    between atoms: N1_5  and  C5_7 
REMARK    4  A    between atoms: C5_7  and  C6_9 
REMARK    5  A    between atoms: C6_9  and  N2_10 
REMARK    6  A    between atoms: C6_9  and  C12_19 
REMARK       I    between atoms: N2_10  and  C7_12 
REMARK    7  A    between atoms: C7_12  and  O3_14 
REMARK    8  A    between atoms: O3_14  and  C8_15 
REMARK       I    between atoms: C16_23  and  N3_25 
REMARK    9  A    between atoms: N3_25  and  C17_27 
REMARK   10  A    between atoms: C17_27  and  C18_28 
REMARK   11  A    between atoms: C17_27  and  C23_37 
REMARK   12  A    between atoms: C18_28  and  O5_29 
REMARK   13  A    between atoms: C18_28  and  N4_31 
REMARK   14  A    between atoms: N4_31  and  C19_33 
REMARK   15  A    between atoms: C19_33  and  C20_34 
ROOT
HETATM    1  C16 UNL     1      -8.602  17.081  27.965  1.00  0.00     0.245 C 
HETATM    2  O4  UNL     1      -9.201  16.108  27.465  1.00  0.00    -0.271 OA
HETATM    3  N3  UNL     1      -9.089  17.678  29.126  1.00  0.00    -0.325 N 
ATOM      4  H3  UNL     1      -8.521  18.451  29.473  1.00  0.00     0.169 HD
ENDROOT
BRANCH   1   5
HETATM    5  C4  UNL     1      -7.381  17.525  27.249  1.00  0.00     0.180 C 
BRANCH   5   6
HETATM    6  C2  UNL     1      -6.097  17.142  27.865  1.00  0.00     0.009 C 
HETATM    7  C1  UNL     1      -4.937  16.915  26.963  1.00  0.00     0.012 C 
HETATM    8  C3  UNL     1      -5.719  18.155  28.963  1.00  0.00     0.012 C 
ENDBRANCH   5   6
BRANCH   5   9
HETATM    9  N1  UNL     1      -7.508  17.234  25.836  1.00  0.00    -0.346 N 
HETATM   10  C5  UNL     1      -8.297  17.868  24.891  1.00  0.00     0.242 C 
HETATM   11  O1  UNL     1      -8.996  18.847  25.364  1.00  0.00    -0.271 OA
ATOM     12  H1  UNL     1      -6.941  16.459  25.491  1.00  0.00     0.163 HD
BRANCH  10  13
HETATM   13  C6  UNL     1      -8.464  17.617  23.472  1.00  0.00     0.186 C 
BRANCH  13  14
HETATM   14  N2  UNL     1      -7.216  17.544  22.735  1.00  0.00    -0.323 N 
HETATM   15  C7  UNL     1      -6.525  18.618  22.170  1.00  0.00     0.362 C 
HETATM   16  O2  UNL     1      -6.947  19.814  22.265  1.00  0.00    -0.238 OA
ATOM     17  H2  UNL     1      -6.804  16.618  22.617  1.00  0.00     0.165 HD
BRANCH  15  18
HETATM   18  O3  UNL     1      -5.345  18.443  21.475  1.00  0.00    -0.294 OA
BRANCH  18  19
HETATM   19  C8  UNL     1      -5.262  17.808  20.213  1.00  0.00     0.061 C 
HETATM   20  C9  UNL     1      -6.482  18.104  19.365  1.00  0.00     0.046 C 
HETATM   21  C10 UNL     1      -4.065  18.427  19.487  1.00  0.00     0.046 C 
HETATM   22  C11 UNL     1      -5.033  16.324  20.300  1.00  0.00     0.046 C 
ENDBRANCH  18  19
ENDBRANCH  15  18
ENDBRANCH  13  14
BRANCH  13  23
HETATM   23  C12 UNL     1      -9.332  16.488  23.037  1.00  0.00    -0.022 C 
HETATM   24  C13 UNL     1     -10.586  16.278  23.841  1.00  0.00     0.017 C 
HETATM   25  C14 UNL     1      -8.589  15.165  23.012  1.00  0.00     0.017 C 
HETATM   26  C15 UNL     1      -9.799  16.725  21.595  1.00  0.00     0.017 C 
ENDBRANCH  13  23
ENDBRANCH  10  13
ENDBRANCH   5   9
ENDBRANCH   1   5
BRANCH   3  27
HETATM   27  C17 UNL     1     -10.258  17.390  29.921  1.00  0.00     0.067 C 
BRANCH  27  28
HETATM   28  C18 UNL     1     -11.546  17.587  29.264  1.00  0.00     0.159 C 
BRANCH  28  29
HETATM   29  O5  UNL     1     -11.738  18.710  28.625  1.00  0.00    -0.345 OA
ATOM     30  H5  UNL     1     -12.111  18.665  27.753  1.00  0.00     0.219 HD
ENDBRANCH  28  29
BRANCH  28  31
HETATM   31  N4  UNL     1     -12.660  16.728  29.198  1.00  0.00    -0.369 N 
ATOM     32  H4  UNL     1     -13.390  16.796  29.907  1.00  0.00     0.161 HD
BRANCH  31  33
HETATM   33  C19 UNL     1     -12.783  15.738  28.125  1.00  0.00     0.126 C 
BRANCH  33  34
HETATM   34  C20 UNL     1     -12.758  14.336  28.726  1.00  0.00     0.003 A 
HETATM   35  C21 UNL     1     -12.275  13.245  27.801  1.00  0.00     0.007 A 
HETATM   36  C22 UNL     1     -11.395  13.737  28.894  1.00  0.00     0.007 A 
ENDBRANCH  33  34
ENDBRANCH  31  33
ENDBRANCH  28  31
ENDBRANCH  27  28
BRANCH  27  37
HETATM   37  C23 UNL     1     -10.026  16.326  30.888  1.00  0.00     0.045 C 
HETATM   38  C24 UNL     1      -8.799  15.500  30.814  1.00  0.00     0.011 C 
HETATM   39  C25 UNL     1      -8.901  14.440  31.923  1.00  0.00     0.006 C 
HETATM   40  C26 UNL     1      -9.380  15.057  33.195  1.00  0.00    -0.006 C 
HETATM   41  C27 UNL     1      -8.922  16.525  33.153  1.00  0.00     0.011 C 
HETATM   42  C29 UNL     1     -10.775  15.631  33.145  1.00  0.00    -0.040 C 
HETATM   43  C28 UNL     1     -10.191  16.772  32.340  1.00  0.00     0.004 C 
HETATM   44  C30 UNL     1     -11.119  16.123  34.562  1.00  0.00     0.015 C 
HETATM   45  C31 UNL     1     -11.850  14.820  32.549  1.00  0.00     0.015 C 
ENDBRANCH  27  37
ENDBRANCH   3  27
TORSDOF 15
ENDMDL
MODEL 3
REMARK VINA RESULT: -9.064550417      1.326      3.890
REMARK  15 active torsions:
REMARK  status: ('A' for Active; 'I' for Inactive)
REMARK    1  A    between atoms: C2_2  and  C4_4 
REMARK    2  A    between atoms: C4_4  and  N1_5 
REMARK    3  A    between atoms: C4_4  and  C16_23 
REMARK       I    between atoms: N1_5  and  C5_7 
REMARK    4  A    between atoms: C5_7  and  C6_9 
REMARK    5  A    between atoms: C6_9  and  N2_10 
REMARK    6  A    between atoms: C6_9  and  C12_19 
REMARK       I    between atoms: N2_10  and  C7_12 
REMARK    7  A    between atoms: C7_12  and  O3_14 
REMARK    8  A    between atoms: O3_14  and  C8_15 
REMARK       I    between atoms: C16_23  and  N3_25 
REMARK    9  A    between atoms: N3_25  and  C17_27 
REMARK   10  A    between atoms: C17_27  and  C18_28 
REMARK   11  A    between atoms: C17_27  and  C23_37 
REMARK   12  A    between atoms: C18_28  and  O5_29 
REMARK   13  A    between atoms: C18_28  and  N4_31 
REMARK   14  A    between atoms: N4_31  and  C19_33 
REMARK   15  A    between atoms: C19_33  and  C20_34 
ROOT
HETATM    1  C16 UNL     1      -9.710  14.845  27.709  1.00  0.00     0.245 C 
HETATM    2  O4  UNL     1      -8.732  14.171  28.086  1.00  0.00    -0.271 OA
HETATM    3  N3  UNL     1      -9.575  15.735  26.645  1.00  0.00    -0.325 N 
ATOM      4  H3  UNL     1     -10.434  16.225  26.394  1.00  0.00     0.169 HD
ENDROOT
BRANCH   1   5
HETATM    5  C4  UNL     1     -10.973  14.626  28.456  1.00  0.00     0.180 C 
BRANCH   5   6
HETATM    6  C2  UNL     1     -11.751  13.433  28.072  1.00  0.00     0.009 C 
HETATM    7  C1  UNL     1     -12.453  12.688  29.149  1.00  0.00     0.012 C 
HETATM    8  C3  UNL     1     -12.742  13.793  26.949  1.00  0.00     0.012 C 
ENDBRANCH   5   6
BRANCH   5   9
HETATM    9  N1  UNL     1     -10.736  14.787  29.876  1.00  0.00    -0.346 N 
HETATM   10  C5  UNL     1     -11.198  15.783  30.720  1.00  0.00     0.242 C 
HETATM   11  O1  UNL     1     -11.938  16.666  30.134  1.00  0.00    -0.271 OA
ATOM     12  H1  UNL     1     -10.153  14.073  30.312  1.00  0.00     0.163 HD
BRANCH  10  13
HETATM   13  C6  UNL     1     -10.991  15.993  32.140  1.00  0.00     0.186 C 
BRANCH  13  14
HETATM   14  N2  UNL     1     -11.538  14.943  32.979  1.00  0.00    -0.323 N 
HETATM   15  C7  UNL     1     -12.753  14.981  33.667  1.00  0.00     0.362 C 
HETATM   16  O2  UNL     1     -13.527  15.989  33.608  1.00  0.00    -0.238 OA
ATOM     17  H2  UNL     1     -10.980  14.094  33.076  1.00  0.00     0.165 HD
BRANCH  15  18
HETATM   18  O3  UNL     1     -13.181  13.930  34.451  1.00  0.00    -0.294 OA
BRANCH  18  19
HETATM   19  C8  UNL     1     -12.752  13.715  35.782  1.00  0.00     0.061 C 
HETATM   20  C9  UNL     1     -13.857  13.118  36.629  1.00  0.00     0.046 C 
HETATM   21  C10 UNL     1     -11.636  12.667  35.720  1.00  0.00     0.046 C 
HETATM   22  C11 UNL     1     -12.194  14.946  36.441  1.00  0.00     0.046 C 
ENDBRANCH  18  19
ENDBRANCH  15  18
ENDBRANCH  13  14
BRANCH  13  23
HETATM   23  C12 UNL     1      -9.622  16.318  32.629  1.00  0.00    -0.022 C 
HETATM   24  C13 UNL     1      -9.535  16.841  34.038  1.00  0.00     0.017 C 
HETATM   25  C14 UNL     1      -8.913  17.319  31.736  1.00  0.00     0.017 C 
HETATM   26  C15 UNL     1      -8.752  15.055  32.602  1.00  0.00     0.017 C 
ENDBRANCH  13  23
ENDBRANCH  10  13
ENDBRANCH   5   9
ENDBRANCH   1   5
BRANCH   3  27
HETATM   27  C17 UNL     1      -8.430  16.083  25.839  1.00  0.00     0.067 C 
BRANCH  27  28
HETATM   28  C18 UNL     1      -8.547  15.815  24.409  1.00  0.00     0.159 C 
BRANCH  28  29
HETATM   29  O5  UNL     1      -7.702  14.974  23.876  1.00  0.00    -0.345 OA
ATOM     30  H5  UNL     1      -6.958  15.331  23.407  1.00  0.00     0.219 HD
ENDBRANCH  28  29
BRANCH  28  31
HETATM   31  N4  UNL     1      -9.461  16.332  23.471  1.00  0.00    -0.369 N 
ATOM     32  H4  UNL     1     -10.135  17.040  23.764  1.00  0.00     0.161 HD
BRANCH  31  33
HETATM   33  C19 UNL     1      -9.457  15.867  22.082  1.00  0.00     0.126 C 
BRANCH  33  34
HETATM   34  C20 UNL     1      -8.863  16.951  21.188  1.00  0.00     0.003 A 
HETATM   35  C21 UNL     1      -7.579  16.578  20.487  1.00  0.00     0.007 A 
HETATM   36  C22 UNL     1      -8.852  16.637  19.724  1.00  0.00     0.007 A 
ENDBRANCH  33  34
ENDBRANCH  31  33
ENDBRANCH  28  31
ENDBRANCH  27  28
BRANCH  27  37
HETATM   37  C23 UNL     1      -7.707  17.232  26.365  1.00  0.00     0.045 C 
HETATM   38  C24 UNL     1      -8.442  18.415  26.866  1.00  0.00     0.011 C 
HETATM   39  C25 UNL     1      -7.390  19.458  27.278  1.00  0.00     0.006 C 
HETATM   40  C26 UNL     1      -6.285  18.813  28.047  1.00  0.00    -0.006 C 
HETATM   41  C27 UNL     1      -6.908  17.587  28.737  1.00  0.00     0.011 C 
HETATM   42  C29 UNL     1      -5.474  17.799  27.277  1.00  0.00    -0.040 C 
HETATM   43  C28 UNL     1      -6.658  16.866  27.414  1.00  0.00     0.004 C 
HETATM   44  C30 UNL     1      -4.335  17.327  28.199  1.00  0.00     0.015 C 
HETATM   45  C31 UNL     1      -5.002  18.152  25.928  1.00  0.00     0.015 C 
ENDBRANCH  27  37
ENDBRANCH   3  27
TORSDOF 15
ENDMDL
MODEL 4
REMARK VINA RESULT: -9.059894924      2.530      9.828
REMARK  15 active torsions:
REMARK  status: ('A' for Active; 'I' for Inactive)
REMARK    1  A    between atoms: C2_2  and  C4_4 
REMARK    2  A    between atoms: C4_4  and  N1_5 
REMARK    3  A    between atoms: C4_4  and  C16_23 
REMARK       I    between atoms: N1_5  and  C5_7 
REMARK    4  A    between atoms: C5_7  and  C6_9 
REMARK    5  A    between atoms: C6_9  and  N2_10 
REMARK    6  A    between atoms: C6_9  and  C12_19 
REMARK       I    between atoms: N2_10  and  C7_12 
REMARK    7  A    between atoms: C7_12  and  O3_14 
REMARK    8  A    between atoms: O3_14  and  C8_15 
REMARK       I    between atoms: C16_23  and  N3_25 
REMARK    9  A    between atoms: N3_25  and  C17_27 
REMARK   10  A    between atoms: C17_27  and  C18_28 
REMARK   11  A    between atoms: C17_27  and  C23_37 
REMARK   12  A    between atoms: C18_28  and  O5_29 
REMARK   13  A    between atoms: C18_28  and  N4_31 
REMARK   14  A    between atoms: N4_31  and  C19_33 
REMARK   15  A    between atoms: C19_33  and  C20_34 
ROOT
HETATM    1  C16 UNL     1      -7.707  16.355  28.316  1.00  0.00     0.245 C 
HETATM    2  O4  UNL     1      -7.555  15.120  28.238  1.00  0.00    -0.271 OA
HETATM    3  N3  UNL     1      -8.672  16.886  29.169  1.00  0.00    -0.325 N 
ATOM      4  H3  UNL     1      -8.708  17.906  29.183  1.00  0.00     0.169 HD
ENDROOT
BRANCH   1   5
HETATM    5  C4  UNL     1      -6.809  17.171  27.463  1.00  0.00     0.180 C 
BRANCH   5   6
HETATM    6  C2  UNL     1      -5.374  17.118  27.801  1.00  0.00     0.009 C 
HETATM    7  C1  UNL     1      -4.396  17.314  26.699  1.00  0.00     0.012 C 
HETATM    8  C3  UNL     1      -5.070  18.095  28.953  1.00  0.00     0.012 C 
ENDBRANCH   5   6
BRANCH   5   9
HETATM    9  N1  UNL     1      -7.131  16.958  26.067  1.00  0.00    -0.346 N 
HETATM   10  C5  UNL     1      -7.965  17.701  25.250  1.00  0.00     0.242 C 
HETATM   11  O1  UNL     1      -8.508  18.716  25.839  1.00  0.00    -0.271 OA
ATOM     12  H1  UNL     1      -6.684  16.153  25.628  1.00  0.00     0.163 HD
BRANCH  10  13
HETATM   13  C6  UNL     1      -8.323  17.531  23.854  1.00  0.00     0.186 C 
BRANCH  13  14
HETATM   14  N2  UNL     1      -7.185  17.458  22.957  1.00  0.00    -0.323 N 
HETATM   15  C7  UNL     1      -6.639  18.514  22.224  1.00  0.00     0.362 C 
HETATM   16  O2  UNL     1      -7.113  19.693  22.289  1.00  0.00    -0.238 OA
ATOM     17  H2  UNL     1      -6.740  16.546  22.852  1.00  0.00     0.165 HD
BRANCH  15  18
HETATM   18  O3  UNL     1      -5.557  18.339  21.386  1.00  0.00    -0.294 OA
BRANCH  18  19
HETATM   19  C8  UNL     1      -5.653  17.811  20.077  1.00  0.00     0.061 C 
HETATM   20  C9  UNL     1      -4.567  18.364  19.177  1.00  0.00     0.046 C 
HETATM   21  C10 UNL     1      -5.400  16.305  20.191  1.00  0.00     0.046 C 
HETATM   22  C11 UNL     1      -7.005  18.006  19.447  1.00  0.00     0.046 C 
ENDBRANCH  18  19
ENDBRANCH  15  18
ENDBRANCH  13  14
BRANCH  13  23
HETATM   23  C12 UNL     1      -9.283  16.455  23.482  1.00  0.00    -0.022 C 
HETATM   24  C13 UNL     1     -10.483  16.308  24.379  1.00  0.00     0.017 C 
HETATM   25  C14 UNL     1      -8.619  15.094  23.397  1.00  0.00     0.017 C 
HETATM   26  C15 UNL     1      -9.845  16.729  22.081  1.00  0.00     0.017 C 
ENDBRANCH  13  23
ENDBRANCH  10  13
ENDBRANCH   5   9
ENDBRANCH   1   5
BRANCH   3  27
HETATM   27  C17 UNL     1      -9.630  16.242  30.034  1.00  0.00     0.067 C 
BRANCH  27  28
HETATM   28  C18 UNL     1      -9.624  16.670  31.430  1.00  0.00     0.159 C 
BRANCH  28  29
HETATM   29  O5  UNL     1      -8.730  17.550  31.793  1.00  0.00    -0.345 OA
ATOM     30  H5  UNL     1      -8.974  18.467  31.765  1.00  0.00     0.219 HD
ENDBRANCH  28  29
BRANCH  28  31
HETATM   31  N4  UNL     1     -10.462  16.279  32.492  1.00  0.00    -0.369 N 
ATOM     32  H4  UNL     1     -11.473  16.364  32.392  1.00  0.00     0.161 HD
BRANCH  31  33
HETATM   33  C19 UNL     1      -9.899  15.751  33.738  1.00  0.00     0.126 C 
BRANCH  33  34
HETATM   34  C20 UNL     1     -10.356  16.620  34.906  1.00  0.00     0.003 A 
HETATM   35  C21 UNL     1     -10.755  15.867  36.153  1.00  0.00     0.007 A 
HETATM   36  C22 UNL     1      -9.461  16.596  36.107  1.00  0.00     0.007 A 
ENDBRANCH  33  34
ENDBRANCH  31  33
ENDBRANCH  28  31
ENDBRANCH  27  28
BRANCH  27  37
HETATM   37  C23 UNL     1     -10.852  15.871  29.334  1.00  0.00     0.045 C 
HETATM   38  C24 UNL     1     -11.303  16.641  28.153  1.00  0.00     0.011 C 
HETATM   39  C25 UNL     1     -12.643  16.034  27.704  1.00  0.00     0.006 C 
HETATM   40  C26 UNL     1     -12.572  14.544  27.713  1.00  0.00    -0.006 C 
HETATM   41  C27 UNL     1     -11.096  14.187  27.465  1.00  0.00     0.011 C 
HETATM   42  C29 UNL     1     -12.355  13.919  29.069  1.00  0.00    -0.040 C 
HETATM   43  C28 UNL     1     -10.919  14.389  28.968  1.00  0.00     0.004 C 
HETATM   44  C30 UNL     1     -12.412  12.392  28.885  1.00  0.00     0.015 C 
HETATM   45  C31 UNL     1     -13.175  14.385  30.200  1.00  0.00     0.015 C 
ENDBRANCH  27  37
ENDBRANCH   3  27
TORSDOF 15
ENDMDL
MODEL 5
REMARK VINA RESULT: -9.032304801      2.536      9.959
REMARK  15 active torsions:
REMARK  status: ('A' for Active; 'I' for Inactive)
REMARK    1  A    between atoms: C2_2  and  C4_4 
REMARK    2  A    between atoms: C4_4  and  N1_5 
REMARK    3  A    between atoms: C4_4  and  C16_23 
REMARK       I    between atoms: N1_5  and  C5_7 
REMARK    4  A    between atoms: C5_7  and  C6_9 
REMARK    5  A    between atoms: C6_9  and  N2_10 
REMARK    6  A    between atoms: C6_9  and  C12_19 
REMARK       I    between atoms: N2_10  and  C7_12 
REMARK    7  A    between atoms: C7_12  and  O3_14 
REMARK    8  A    between atoms: O3_14  and  C8_15 
REMARK       I    between atoms: C16_23  and  N3_25 
REMARK    9  A    between atoms: N3_25  and  C17_27 
REMARK   10  A    between atoms: C17_27  and  C18_28 
REMARK   11  A    between atoms: C17_27  and  C23_37 
REMARK   12  A    between atoms: C18_28  and  O5_29 
REMARK   13  A    between atoms: C18_28  and  N4_31 
REMARK   14  A    between atoms: N4_31  and  C19_33 
REMARK   15  A    between atoms: C19_33  and  C20_34 
ROOT
HETATM    1  C16 UNL     1      -8.559  17.080  28.021  1.00  0.00     0.245 C 
HETATM    2  O4  UNL     1      -9.145  16.103  27.513  1.00  0.00    -0.271 OA
HETATM    3  N3  UNL     1      -9.066  17.674  29.175  1.00  0.00    -0.325 N 
ATOM      4  H3  UNL     1      -8.508  18.451  29.530  1.00  0.00     0.169 HD
ENDROOT
BRANCH   1   5
HETATM    5  C4  UNL     1      -7.331  17.531  27.323  1.00  0.00     0.180 C 
BRANCH   5   6
HETATM    6  C2  UNL     1      -6.053  17.149  27.953  1.00  0.00     0.009 C 
HETATM    7  C1  UNL     1      -4.881  16.932  27.064  1.00  0.00     0.012 C 
HETATM    8  C3  UNL     1      -5.693  18.155  29.062  1.00  0.00     0.012 C 
ENDBRANCH   5   6
BRANCH   5   9
HETATM    9  N1  UNL     1      -7.440  17.247  25.907  1.00  0.00    -0.346 N 
HETATM   10  C5  UNL     1      -8.249  17.857  24.963  1.00  0.00     0.242 C 
HETATM   11  O1  UNL     1      -8.989  18.804  25.441  1.00  0.00    -0.271 OA
ATOM     12  H1  UNL     1      -6.841  16.499  25.558  1.00  0.00     0.163 HD
BRANCH  10  13
HETATM   13  C6  UNL     1      -8.399  17.612  23.542  1.00  0.00     0.186 C 
BRANCH  13  14
HETATM   14  N2  UNL     1      -7.142  17.530  22.821  1.00  0.00    -0.323 N 
HETATM   15  C7  UNL     1      -6.430  18.601  22.276  1.00  0.00     0.362 C 
HETATM   16  O2  UNL     1      -6.839  19.801  22.376  1.00  0.00    -0.238 OA
ATOM     17  H2  UNL     1      -6.741  16.600  22.700  1.00  0.00     0.165 HD
BRANCH  15  18
HETATM   18  O3  UNL     1      -5.244  18.417  21.595  1.00  0.00    -0.294 OA
BRANCH  18  19
HETATM   19  C8  UNL     1      -3.974  18.398  22.218  1.00  0.00     0.061 C 
HETATM   20  C9  UNL     1      -3.145  17.221  21.746  1.00  0.00     0.046 C 
HETATM   21  C10 UNL     1      -3.239  19.660  21.759  1.00  0.00     0.046 C 
HETATM   22  C11 UNL     1      -4.040  18.423  23.721  1.00  0.00     0.046 C 
ENDBRANCH  18  19
ENDBRANCH  15  18
ENDBRANCH  13  14
BRANCH  13  23
HETATM   23  C12 UNL     1      -9.272  16.492  23.091  1.00  0.00    -0.022 C 
HETATM   24  C13 UNL     1     -10.525  16.274  23.894  1.00  0.00     0.017 C 
HETATM   25  C14 UNL     1      -8.533  15.168  23.046  1.00  0.00     0.017 C 
HETATM   26  C15 UNL     1      -9.741  16.751  21.654  1.00  0.00     0.017 C 
ENDBRANCH  13  23
ENDBRANCH  10  13
ENDBRANCH   5   9
ENDBRANCH   1   5
BRANCH   3  27
HETATM   27  C17 UNL     1     -10.245  17.379  29.954  1.00  0.00     0.067 C 
BRANCH  27  28
HETATM   28  C18 UNL     1     -11.525  17.566  29.278  1.00  0.00     0.159 C 
BRANCH  28  29
HETATM   29  O5  UNL     1     -11.709  18.680  28.620  1.00  0.00    -0.345 OA
ATOM     30  H5  UNL     1     -11.024  19.336  28.662  1.00  0.00     0.219 HD
ENDBRANCH  28  29
BRANCH  28  31
HETATM   31  N4  UNL     1     -12.638  16.706  29.210  1.00  0.00    -0.369 N 
ATOM     32  H4  UNL     1     -13.336  16.728  29.953  1.00  0.00     0.161 HD
BRANCH  31  33
HETATM   33  C19 UNL     1     -12.805  15.780  28.087  1.00  0.00     0.126 C 
BRANCH  33  34
HETATM   34  C20 UNL     1     -12.834  14.348  28.613  1.00  0.00     0.003 A 
HETATM   35  C21 UNL     1     -12.154  13.324  27.736  1.00  0.00     0.007 A 
HETATM   36  C22 UNL     1     -11.501  13.779  28.991  1.00  0.00     0.007 A 
ENDBRANCH  33  34
ENDBRANCH  31  33
ENDBRANCH  28  31
ENDBRANCH  27  28
BRANCH  27  37
HETATM   37  C23 UNL     1     -10.020  16.318  30.925  1.00  0.00     0.045 C 
HETATM   38  C24 UNL     1      -8.798  15.485  30.855  1.00  0.00     0.011 C 
HETATM   39  C25 UNL     1      -8.907  14.430  31.969  1.00  0.00     0.006 C 
HETATM   40  C26 UNL     1      -9.382  15.055  33.238  1.00  0.00    -0.006 C 
HETATM   41  C27 UNL     1      -8.916  16.521  33.190  1.00  0.00     0.011 C 
HETATM   42  C29 UNL     1     -10.774  15.638  33.185  1.00  0.00    -0.040 C 
HETATM   43  C28 UNL     1     -10.182  16.772  32.375  1.00  0.00     0.004 C 
HETATM   44  C30 UNL     1     -11.116  16.139  34.600  1.00  0.00     0.015 C 
HETATM   45  C31 UNL     1     -11.854  14.831  32.592  1.00  0.00     0.015 C 
ENDBRANCH  27  37
ENDBRANCH   3  27
TORSDOF 15
ENDMDL
