MODEL 1
REMARK VINA RESULT: -7.568730979      0.000      0.000
REMARK  10 active torsions:
REMARK  status: ('A' for Active; 'I' for Inactive)
REMARK    1  A    between atoms: C4_5  and  C5_6 
REMARK    2  A    between atoms: N4_14  and  C9_15 
REMARK    3  A    between atoms: C9_15  and  C10_16 
REMARK    4  A    between atoms: C10_16  and  N5_17 
REMARK    5  A    between atoms: C10_16  and  C17_36 
REMARK       I    between atoms: N5_17  and  C11_19 
REMARK    6  A    between atoms: C11_19  and  C12_21 
REMARK    7  A    between atoms: C12_21  and  N6_22 
REMARK    8  A    between atoms: C12_21  and  C13_27 
REMARK    9  A    between atoms: C17_36  and  O4_37 
REMARK   10  A    between atoms: C17_36  and  O5_39 
ROOT
HETATM    1  C10 UNL     1      12.313  -8.140  67.425  1.00  0.00     0.157 C 
ENDROOT
BRANCH   1   2
HETATM    2  C9  UNL     1      13.623  -8.373  66.702  1.00  0.00     0.161 C 
BRANCH   2   3
HETATM    3  N4  UNL     1      13.649  -9.600  65.956  1.00  0.00    -0.325 N 
HETATM    4  C6  UNL     1      13.472  -9.645  64.604  1.00  0.00     0.143 A 
HETATM    5  N2  UNL     1      13.265  -8.697  63.673  1.00  0.00    -0.324 N 
HETATM    6  C7  UNL     1      13.549 -10.983  64.265  1.00  0.00     0.146 A 
HETATM    7  C5  UNL     1      13.122  -8.993  62.370  1.00  0.00     0.138 A 
ATOM      8  H2  UNL     1      13.215  -7.721  63.965  1.00  0.00     0.169 HD
HETATM    9  N10 UNL     1      13.197 -10.300  62.045  1.00  0.00    -0.306 N 
HETATM   10  C18 UNL     1      13.401 -11.291  62.920  1.00  0.00     0.277 A 
ATOM     11  H10 UNL     1      13.090 -10.550  61.062  1.00  0.00     0.170 HD
HETATM   12  O6  UNL     1      13.466 -12.498  62.586  1.00  0.00    -0.265 OA
HETATM   13  N3  UNL     1      13.761 -11.671  65.386  1.00  0.00    -0.345 N 
HETATM   14  C8  UNL     1      13.826 -10.840  66.443  1.00  0.00     0.185 A 
ATOM     15  H3  UNL     1      13.860 -12.685  65.436  1.00  0.00     0.167 HD
BRANCH   7  16
HETATM   16  C4  UNL     1      12.903  -7.967  61.355  1.00  0.00     0.093 A 
HETATM   17  C3  UNL     1      13.791  -6.999  60.937  1.00  0.00     0.053 A 
HETATM   18  C2  UNL     1      13.127  -6.259  59.952  1.00  0.00     0.112 A 
HETATM   19  N1  UNL     1      11.907  -6.768  59.801  1.00  0.00    -0.307 N 
HETATM   20  C1  UNL     1      10.884  -6.279  58.860  1.00  0.00     0.177 C 
HETATM   21  N11 UNL     1      11.805  -7.774  60.642  1.00  0.00    -0.296 N 
ATOM     22  H11 UNL     1      10.966  -8.347  60.735  1.00  0.00     0.187 HD
ENDBRANCH   7  16
ENDBRANCH   2   3
ENDBRANCH   1   2
BRANCH   1  23
HETATM   23  N5  UNL     1      12.195  -6.786  67.896  1.00  0.00    -0.348 N 
HETATM   24  C11 UNL     1      11.657  -6.420  69.155  1.00  0.00     0.246 C 
HETATM   25  O1  UNL     1      11.263  -7.352  69.899  1.00  0.00    -0.271 OA
ATOM     26  H5  UNL     1      12.520  -6.039  67.282  1.00  0.00     0.163 HD
BRANCH  24  27
HETATM   27  C12 UNL     1      11.532  -5.042  69.637  1.00  0.00     0.242 C 
BRANCH  27  28
HETATM   28  N6  UNL     1      10.707  -4.221  68.812  1.00  0.00    -0.325 N 
HETATM   29  N7  UNL     1       9.740  -3.572  69.169  1.00  0.00    -0.348 N 
ATOM     30  H72 UNL     1       9.511  -3.633  70.160  1.00  0.00     0.176 HD
ATOM     31  H71 UNL     1       9.150  -2.986  68.578  1.00  0.00     0.176 HD
ATOM     32  H6  UNL     1      10.952  -4.173  67.822  1.00  0.00     0.180 HD
ENDBRANCH  27  28
BRANCH  27  33
HETATM   33  C13 UNL     1      12.906  -4.386  69.848  1.00  0.00     0.177 C 
HETATM   34  C14 UNL     1      13.788  -5.294  70.689  1.00  0.00     0.070 C 
HETATM   35  N8  UNL     1      13.518  -4.323  68.530  1.00  0.00    -0.097 NA
HETATM   36  N9  UNL     1      14.805  -3.775  68.587  1.00  0.00    -0.269 N 
HETATM   37  C15 UNL     1      15.031  -2.888  69.676  1.00  0.00     0.257 C 
ATOM     38  H9  UNL     1      15.525  -3.994  67.900  1.00  0.00     0.185 HD
HETATM   39  O2  UNL     1      16.191  -2.644  70.082  1.00  0.00    -0.270 OA
HETATM   40  C16 UNL     1      13.806  -2.293  70.270  1.00  0.00     0.274 C 
HETATM   41  O3  UNL     1      12.770  -3.166  70.439  1.00  0.00    -0.351 OA
ENDBRANCH  27  33
ENDBRANCH  24  27
ENDBRANCH   1  23
BRANCH   1  42
HETATM   42  C17 UNL     1      11.160  -8.395  66.484  1.00  0.00     0.278 C 
BRANCH  42  43
HETATM   43  O4  UNL     1      11.022  -7.347  65.557  1.00  0.00    -0.369 OA
ATOM     44  H4  UNL     1      10.174  -7.376  65.131  1.00  0.00     0.212 HD
ENDBRANCH  42  43
BRANCH  42  45
HETATM   45  O5  UNL     1       9.938  -8.414  67.177  1.00  0.00    -0.369 OA
ATOM     46  H5  UNL     1       9.923  -9.111  67.822  1.00  0.00     0.212 HD
ENDBRANCH  42  45
ENDBRANCH   1  42
TORSDOF 10
ENDMDL
MODEL 2
REMARK VINA RESULT: -7.519601726      1.702      2.516
REMARK  10 active torsions:
REMARK  status: ('A' for Active; 'I' for Inactive)
REMARK    1  A    between atoms: C4_5  and  C5_6 
REMARK    2  A    between atoms: N4_14  and  C9_15 
REMARK    3  A    between atoms: C9_15  and  C10_16 
REMARK    4  A    between atoms: C10_16  and  N5_17 
REMARK    5  A    between atoms: C10_16  and  C17_36 
REMARK       I    between atoms: N5_17  and  C11_19 
REMARK    6  A    between atoms: C11_19  and  C12_21 
REMARK    7  A    between atoms: C12_21  and  N6_22 
REMARK    8  A    between atoms: C12_21  and  C13_27 
REMARK    9  A    between atoms: C17_36  and  O4_37 
REMARK   10  A    between atoms: C17_36  and  O5_39 
ROOT
HETATM    1  C10 UNL     1      10.461  -7.970  67.823  1.00  0.00     0.157 C 
ENDROOT
BRANCH   1   2
HETATM    2  C9  UNL     1      10.084  -8.523  66.464  1.00  0.00     0.161 C 
BRANCH   2   3
HETATM    3  N4  UNL     1      10.918  -9.614  66.046  1.00  0.00    -0.325 N 
HETATM    4  C6  UNL     1      11.579  -9.622  64.851  1.00  0.00     0.143 A 
HETATM    5  N2  UNL     1      11.662  -8.737  63.843  1.00  0.00    -0.324 N 
HETATM    6  C7  UNL     1      12.251 -10.829  64.808  1.00  0.00     0.146 A 
HETATM    7  C5  UNL     1      12.398  -8.972  62.744  1.00  0.00     0.138 A 
ATOM      8  H2  UNL     1      11.150  -7.857  63.915  1.00  0.00     0.169 HD
HETATM    9  N10 UNL     1      13.052 -10.151  62.706  1.00  0.00    -0.306 N 
HETATM   10  C18 UNL     1      13.012 -11.074  63.674  1.00  0.00     0.277 A 
ATOM     11  H10 UNL     1      13.616 -10.353  61.881  1.00  0.00     0.170 HD
HETATM   12  O6  UNL     1      13.631 -12.162  63.609  1.00  0.00    -0.265 OA
HETATM   13  N3  UNL     1      11.980 -11.482  65.938  1.00  0.00    -0.345 N 
HETATM   14  C8  UNL     1      11.160 -10.753  66.717  1.00  0.00     0.185 A 
ATOM     15  H3  UNL     1      12.344 -12.404  66.178  1.00  0.00     0.167 HD
BRANCH   7  16
HETATM   16  C4  UNL     1      12.497  -8.011  61.649  1.00  0.00     0.093 A 
HETATM   17  C3  UNL     1      13.616  -7.316  61.243  1.00  0.00     0.053 A 
HETATM   18  C2  UNL     1      13.212  -6.525  60.160  1.00  0.00     0.112 A 
HETATM   19  N1  UNL     1      11.919  -6.747  59.943  1.00  0.00    -0.307 N 
HETATM   20  C1  UNL     1      11.105  -6.112  58.891  1.00  0.00     0.177 C 
HETATM   21  N11 UNL     1      11.525  -7.627  60.837  1.00  0.00    -0.296 N 
ATOM     22  H11 UNL     1      10.570  -7.978  60.898  1.00  0.00     0.187 HD
ENDBRANCH   7  16
ENDBRANCH   2   3
ENDBRANCH   1   2
BRANCH   1  23
HETATM   23  N5  UNL     1      11.490  -6.969  67.726  1.00  0.00    -0.348 N 
HETATM   24  C11 UNL     1      12.693  -6.983  68.475  1.00  0.00     0.246 C 
HETATM   25  O1  UNL     1      12.858  -7.941  69.272  1.00  0.00    -0.271 OA
ATOM     26  H5  UNL     1      11.344  -6.198  67.075  1.00  0.00     0.163 HD
BRANCH  24  27
HETATM   27  C12 UNL     1      13.741  -5.964  68.383  1.00  0.00     0.242 C 
BRANCH  27  28
HETATM   28  N6  UNL     1      14.994  -6.384  68.922  1.00  0.00    -0.325 N 
HETATM   29  N7  UNL     1      15.635  -7.365  68.590  1.00  0.00    -0.348 N 
ATOM     30  H72 UNL     1      15.220  -7.933  67.851  1.00  0.00     0.176 HD
ATOM     31  H71 UNL     1      16.530  -7.665  68.975  1.00  0.00     0.176 HD
ATOM     32  H6  UNL     1      15.393  -5.804  69.660  1.00  0.00     0.180 HD
ENDBRANCH  27  28
BRANCH  27  33
HETATM   33  C13 UNL     1      13.301  -4.635  69.016  1.00  0.00     0.177 C 
HETATM   34  C14 UNL     1      12.965  -3.630  67.926  1.00  0.00     0.070 C 
HETATM   35  N8  UNL     1      12.054  -4.924  69.708  1.00  0.00    -0.097 NA
HETATM   36  N9  UNL     1      11.519  -3.775  70.303  1.00  0.00    -0.269 N 
HETATM   37  C15 UNL     1      12.473  -2.776  70.645  1.00  0.00     0.257 C 
ATOM     38  H9  UNL     1      10.521  -3.663  70.479  1.00  0.00     0.185 HD
HETATM   39  O2  UNL     1      12.132  -1.581  70.803  1.00  0.00    -0.270 OA
HETATM   40  C16 UNL     1      13.869  -3.263  70.795  1.00  0.00     0.274 C 
HETATM   41  O3  UNL     1      14.274  -4.147  69.836  1.00  0.00    -0.351 OA
ENDBRANCH  27  33
ENDBRANCH  24  27
ENDBRANCH   1  23
BRANCH   1  42
HETATM   42  C17 UNL     1       9.255  -7.320  68.459  1.00  0.00     0.278 C 
BRANCH  42  43
HETATM   43  O4  UNL     1       8.194  -7.216  67.543  1.00  0.00    -0.369 OA
ATOM     44  H4  UNL     1       7.523  -7.865  67.721  1.00  0.00     0.212 HD
ENDBRANCH  42  43
BRANCH  42  45
HETATM   45  O5  UNL     1       9.534  -5.993  68.827  1.00  0.00    -0.369 OA
ATOM     46  H5  UNL     1       8.916  -5.392  68.427  1.00  0.00     0.212 HD
ENDBRANCH  42  45
ENDBRANCH   1  42
TORSDOF 10
ENDMDL
MODEL 3
REMARK VINA RESULT: -7.485849967      3.639      8.176
REMARK  10 active torsions:
REMARK  status: ('A' for Active; 'I' for Inactive)
REMARK    1  A    between atoms: C4_5  and  C5_6 
REMARK    2  A    between atoms: N4_14  and  C9_15 
REMARK    3  A    between atoms: C9_15  and  C10_16 
REMARK    4  A    between atoms: C10_16  and  N5_17 
REMARK    5  A    between atoms: C10_16  and  C17_36 
REMARK       I    between atoms: N5_17  and  C11_19 
REMARK    6  A    between atoms: C11_19  and  C12_21 
REMARK    7  A    between atoms: C12_21  and  N6_22 
REMARK    8  A    between atoms: C12_21  and  C13_27 
REMARK    9  A    between atoms: C17_36  and  O4_37 
REMARK   10  A    between atoms: C17_36  and  O5_39 
ROOT
HETATM    1  C10 UNL     1      12.316 -12.301  60.977  1.00  0.00     0.157 C 
ENDROOT
BRANCH   1   2
HETATM    2  C9  UNL     1      12.135 -12.565  62.457  1.00  0.00     0.161 C 
BRANCH   2   3
HETATM    3  N4  UNL     1      10.927 -12.000  62.990  1.00  0.00    -0.325 N 
HETATM    4  C6  UNL     1      10.923 -11.111  64.026  1.00  0.00     0.143 A 
HETATM    5  N2  UNL     1      11.901 -10.553  64.760  1.00  0.00    -0.324 N 
HETATM    6  C7  UNL     1       9.592 -10.815  64.255  1.00  0.00     0.146 A 
HETATM    7  C5  UNL     1      11.644  -9.681  65.749  1.00  0.00     0.138 A 
ATOM      8  H2  UNL     1      12.871 -10.799  64.559  1.00  0.00     0.169 HD
HETATM    9  N10 UNL     1      10.344  -9.395  65.969  1.00  0.00    -0.306 N 
HETATM   10  C18 UNL     1       9.324  -9.915  65.276  1.00  0.00     0.277 A 
ATOM     11  H10 UNL     1      10.123  -8.737  66.715  1.00  0.00     0.170 HD
HETATM   12  O6  UNL     1       8.125  -9.629  65.504  1.00  0.00    -0.265 OA
HETATM   13  N3  UNL     1       8.868 -11.511  63.379  1.00  0.00    -0.345 N 
HETATM   14  C8  UNL     1       9.669 -12.249  62.588  1.00  0.00     0.185 A 
ATOM     15  H3  UNL     1       7.851 -11.487  63.316  1.00  0.00     0.167 HD
BRANCH   7  16
HETATM   16  C4  UNL     1      12.703  -9.067  66.545  1.00  0.00     0.093 A 
HETATM   17  C3  UNL     1      13.916  -9.621  66.895  1.00  0.00     0.053 A 
HETATM   18  C2  UNL     1      14.583  -8.651  67.654  1.00  0.00     0.112 A 
HETATM   19  N1  UNL     1      13.798  -7.581  67.744  1.00  0.00    -0.307 N 
HETATM   20  C1  UNL     1      14.125  -6.336  68.459  1.00  0.00     0.177 C 
HETATM   21  N11 UNL     1      12.696  -7.857  67.081  1.00  0.00    -0.296 N 
ATOM     22  H11 UNL     1      11.917  -7.205  66.988  1.00  0.00     0.187 HD
ENDBRANCH   7  16
ENDBRANCH   2   3
ENDBRANCH   1   2
BRANCH   1  23
HETATM   23  N5  UNL     1      12.913 -11.015  60.733  1.00  0.00    -0.348 N 
HETATM   24  C11 UNL     1      13.875 -10.406  61.577  1.00  0.00     0.246 C 
HETATM   25  O1  UNL     1      14.220 -11.044  62.603  1.00  0.00    -0.271 OA
ATOM     26  H5  UNL     1      12.626 -10.508  59.896  1.00  0.00     0.163 HD
BRANCH  24  27
HETATM   27  C12 UNL     1      14.483  -9.095  61.334  1.00  0.00     0.242 C 
BRANCH  27  28
HETATM   28  N6  UNL     1      15.049  -8.504  62.502  1.00  0.00    -0.325 N 
HETATM   29  N7  UNL     1      14.497  -8.344  63.576  1.00  0.00    -0.348 N 
ATOM     30  H72 UNL     1      13.533  -8.672  63.629  1.00  0.00     0.176 HD
ATOM     31  H71 UNL     1      14.903  -7.921  64.411  1.00  0.00     0.176 HD
ATOM     32  H6  UNL     1      16.015  -8.182  62.430  1.00  0.00     0.180 HD
ENDBRANCH  27  28
BRANCH  27  33
HETATM   33  C13 UNL     1      13.496  -8.126  60.663  1.00  0.00     0.177 C 
HETATM   34  C14 UNL     1      14.090  -6.727  60.628  1.00  0.00     0.070 C 
HETATM   35  N8  UNL     1      13.394  -8.564  59.280  1.00  0.00    -0.097 NA
HETATM   36  N9  UNL     1      12.546  -7.733  58.539  1.00  0.00    -0.269 N 
HETATM   37  C15 UNL     1      11.545  -7.067  59.299  1.00  0.00     0.257 C 
ATOM     38  H9  UNL     1      12.638  -7.614  57.531  1.00  0.00     0.185 HD
HETATM   39  O2  UNL     1      10.993  -6.026  58.873  1.00  0.00    -0.270 OA
HETATM   40  C16 UNL     1      11.220  -7.698  60.605  1.00  0.00     0.274 C 
HETATM   41  O3  UNL     1      12.302  -8.125  61.320  1.00  0.00    -0.351 OA
ENDBRANCH  27  33
ENDBRANCH  24  27
ENDBRANCH   1  23
BRANCH   1  42
HETATM   42  C17 UNL     1      13.231 -13.346  60.384  1.00  0.00     0.278 C 
BRANCH  42  43
HETATM   43  O4  UNL     1      14.201 -13.757  61.314  1.00  0.00    -0.369 OA
ATOM     44  H4  UNL     1      14.676 -13.013  61.665  1.00  0.00     0.212 HD
ENDBRANCH  42  43
BRANCH  42  45
HETATM   45  O5  UNL     1      13.972 -12.816  59.313  1.00  0.00    -0.369 OA
ATOM     46  H5  UNL     1      13.783 -13.280  58.506  1.00  0.00     0.212 HD
ENDBRANCH  42  45
ENDBRANCH   1  42
TORSDOF 10
ENDMDL
MODEL 4
REMARK VINA RESULT: -7.461325162      6.633      9.514
REMARK  10 active torsions:
REMARK  status: ('A' for Active; 'I' for Inactive)
REMARK    1  A    between atoms: C4_5  and  C5_6 
REMARK    2  A    between atoms: N4_14  and  C9_15 
REMARK    3  A    between atoms: C9_15  and  C10_16 
REMARK    4  A    between atoms: C10_16  and  N5_17 
REMARK    5  A    between atoms: C10_16  and  C17_36 
REMARK       I    between atoms: N5_17  and  C11_19 
REMARK    6  A    between atoms: C11_19  and  C12_21 
REMARK    7  A    between atoms: C12_21  and  N6_22 
REMARK    8  A    between atoms: C12_21  and  C13_27 
REMARK    9  A    between atoms: C17_36  and  O4_37 
REMARK   10  A    between atoms: C17_36  and  O5_39 
ROOT
HETATM    1  C10 UNL     1      13.413 -13.930  59.068  1.00  0.00     0.157 C 
ENDROOT
BRANCH   1   2
HETATM    2  C9  UNL     1      13.337 -15.299  59.712  1.00  0.00     0.161 C 
BRANCH   2   3
HETATM    3  N4  UNL     1      12.137 -16.016  59.381  1.00  0.00    -0.325 N 
HETATM    4  C6  UNL     1      10.904 -15.631  59.821  1.00  0.00     0.143 A 
HETATM    5  N2  UNL     1      10.477 -14.605  60.578  1.00  0.00    -0.324 N 
HETATM    6  C7  UNL     1      10.022 -16.566  59.311  1.00  0.00     0.146 A 
HETATM    7  C5  UNL     1       9.180 -14.430  60.880  1.00  0.00     0.138 A 
ATOM      8  H2  UNL     1      11.162 -13.938  60.935  1.00  0.00     0.169 HD
HETATM    9  N10 UNL     1       8.324 -15.344  60.381  1.00  0.00    -0.306 N 
HETATM   10  C18 UNL     1       8.681 -16.387  59.622  1.00  0.00     0.277 A 
ATOM     11  H10 UNL     1       7.334 -15.234  60.598  1.00  0.00     0.170 HD
HETATM   12  O6  UNL     1       7.860 -17.221  59.173  1.00  0.00    -0.265 OA
HETATM   13  N3  UNL     1      10.731 -17.448  58.608  1.00  0.00    -0.345 N 
HETATM   14  C8  UNL     1      12.038 -17.130  58.636  1.00  0.00     0.185 A 
ATOM     15  H3  UNL     1      10.338 -18.251  58.117  1.00  0.00     0.167 HD
BRANCH   7  16
HETATM   16  C4  UNL     1       8.712 -13.314  61.696  1.00  0.00     0.093 A 
HETATM   17  C3  UNL     1       7.476 -12.704  61.651  1.00  0.00     0.053 A 
HETATM   18  C2  UNL     1       7.504 -11.694  62.620  1.00  0.00     0.112 A 
HETATM   19  N1  UNL     1       8.699 -11.711  63.204  1.00  0.00    -0.307 N 
HETATM   20  C1  UNL     1       9.140 -10.807  64.281  1.00  0.00     0.177 C 
HETATM   21  N11 UNL     1       9.389 -12.677  62.638  1.00  0.00    -0.296 N 
ATOM     22  H11 UNL     1      10.347 -12.911  62.897  1.00  0.00     0.187 HD
ENDBRANCH   7  16
ENDBRANCH   2   3
ENDBRANCH   1   2
BRANCH   1  23
HETATM   23  N5  UNL     1      13.961 -12.947  59.965  1.00  0.00    -0.348 N 
HETATM   24  C11 UNL     1      13.186 -12.090  60.783  1.00  0.00     0.246 C 
HETATM   25  O1  UNL     1      11.937 -12.208  60.711  1.00  0.00    -0.271 OA
ATOM     26  H5  UNL     1      14.977 -12.863  60.014  1.00  0.00     0.163 HD
BRANCH  24  27
HETATM   27  C12 UNL     1      13.739 -11.085  61.695  1.00  0.00     0.242 C 
BRANCH  27  28
HETATM   28  N6  UNL     1      13.132 -11.089  62.985  1.00  0.00    -0.325 N 
HETATM   29  N7  UNL     1      12.757 -12.066  63.608  1.00  0.00    -0.348 N 
ATOM     30  H72 UNL     1      12.898 -12.964  63.146  1.00  0.00     0.176 HD
ATOM     31  H71 UNL     1      12.323 -12.069  64.531  1.00  0.00     0.176 HD
ATOM     32  H6  UNL     1      12.999 -10.182  63.432  1.00  0.00     0.180 HD
ENDBRANCH  27  28
BRANCH  27  33
HETATM   33  C13 UNL     1      13.695  -9.676  61.082  1.00  0.00     0.177 C 
HETATM   34  C14 UNL     1      12.836  -8.765  61.945  1.00  0.00     0.070 C 
HETATM   35  N8  UNL     1      15.054  -9.166  61.172  1.00  0.00    -0.097 NA
HETATM   36  N9  UNL     1      15.146  -7.859  60.677  1.00  0.00    -0.269 N 
HETATM   37  C15 UNL     1      14.169  -7.516  59.702  1.00  0.00     0.257 C 
ATOM     38  H9  UNL     1      15.860  -7.203  60.992  1.00  0.00     0.185 HD
HETATM   39  O2  UNL     1      13.875  -6.321  59.472  1.00  0.00    -0.270 OA
HETATM   40  C16 UNL     1      13.547  -8.670  59.001  1.00  0.00     0.274 C 
HETATM   41  O3  UNL     1      13.217  -9.721  59.807  1.00  0.00    -0.351 OA
ENDBRANCH  27  33
ENDBRANCH  24  27
ENDBRANCH   1  23
BRANCH   1  42
HETATM   42  C17 UNL     1      14.311 -13.989  57.856  1.00  0.00     0.278 C 
BRANCH  42  43
HETATM   43  O4  UNL     1      13.608 -14.442  56.726  1.00  0.00    -0.369 OA
ATOM     44  H4  UNL     1      13.963 -15.264  56.409  1.00  0.00     0.212 HD
ENDBRANCH  42  43
BRANCH  42  45
HETATM   45  O5  UNL     1      15.337 -14.933  58.034  1.00  0.00    -0.369 OA
ATOM     46  H5  UNL     1      16.187 -14.550  57.851  1.00  0.00     0.212 HD
ENDBRANCH  42  45
ENDBRANCH   1  42
TORSDOF 10
ENDMDL
MODEL 5
REMARK VINA RESULT: -7.452378079      6.251      9.320
REMARK  10 active torsions:
REMARK  status: ('A' for Active; 'I' for Inactive)
REMARK    1  A    between atoms: C4_5  and  C5_6 
REMARK    2  A    between atoms: N4_14  and  C9_15 
REMARK    3  A    between atoms: C9_15  and  C10_16 
REMARK    4  A    between atoms: C10_16  and  N5_17 
REMARK    5  A    between atoms: C10_16  and  C17_36 
REMARK       I    between atoms: N5_17  and  C11_19 
REMARK    6  A    between atoms: C11_19  and  C12_21 
REMARK    7  A    between atoms: C12_21  and  N6_22 
REMARK    8  A    between atoms: C12_21  and  C13_27 
REMARK    9  A    between atoms: C17_36  and  O4_37 
REMARK   10  A    between atoms: C17_36  and  O5_39 
ROOT
HETATM    1  C10 UNL     1      12.573 -12.430  60.762  1.00  0.00     0.157 C 
ENDROOT
BRANCH   1   2
HETATM    2  C9  UNL     1      11.744 -12.503  62.027  1.00  0.00     0.161 C 
BRANCH   2   3
HETATM    3  N4  UNL     1      10.337 -12.643  61.776  1.00  0.00    -0.325 N 
HETATM    4  C6  UNL     1       9.811 -13.704  61.097  1.00  0.00     0.143 A 
HETATM    5  N2  UNL     1      10.356 -14.800  60.542  1.00  0.00    -0.324 N 
HETATM    6  C7  UNL     1       8.449 -13.473  61.049  1.00  0.00     0.146 A 
HETATM    7  C5  UNL     1       9.615 -15.729  59.915  1.00  0.00     0.138 A 
ATOM      8  H2  UNL     1      11.366 -14.932  60.600  1.00  0.00     0.169 HD
HETATM    9  N10 UNL     1       8.287 -15.499  59.870  1.00  0.00    -0.306 N 
HETATM   10  C18 UNL     1       7.681 -14.430  60.401  1.00  0.00     0.277 A 
ATOM     11  H10 UNL     1       7.702 -16.188  59.398  1.00  0.00     0.170 HD
HETATM   12  O6  UNL     1       6.443 -14.245  60.343  1.00  0.00    -0.265 OA
HETATM   13  N3  UNL     1       8.212 -12.323  61.678  1.00  0.00    -0.345 N 
HETATM   14  C8  UNL     1       9.361 -11.792  62.135  1.00  0.00     0.185 A 
ATOM     15  H3  UNL     1       7.290 -11.904  61.797  1.00  0.00     0.167 HD
BRANCH   7  16
HETATM   16  C4  UNL     1      10.201 -16.924  59.317  1.00  0.00     0.093 A 
HETATM   17  C3  UNL     1       9.582 -18.134  59.085  1.00  0.00     0.053 A 
HETATM   18  C2  UNL     1      10.548 -18.960  58.498  1.00  0.00     0.112 A 
HETATM   19  N1  UNL     1      11.678 -18.267  58.391  1.00  0.00    -0.307 N 
HETATM   20  C1  UNL     1      12.942 -18.769  57.824  1.00  0.00     0.177 C 
HETATM   21  N11 UNL     1      11.442 -17.070  58.883  1.00  0.00    -0.296 N 
ATOM     22  H11 UNL     1      12.144 -16.331  58.926  1.00  0.00     0.187 HD
ENDBRANCH   7  16
ENDBRANCH   2   3
ENDBRANCH   1   2
BRANCH   1  23
HETATM   23  N5  UNL     1      13.162 -11.130  60.583  1.00  0.00    -0.348 N 
HETATM   24  C11 UNL     1      13.924 -10.454  61.568  1.00  0.00     0.246 C 
HETATM   25  O1  UNL     1      14.089 -11.044  62.665  1.00  0.00    -0.271 OA
ATOM     26  H5  UNL     1      13.022 -10.663  59.687  1.00  0.00     0.163 HD
BRANCH  24  27
HETATM   27  C12 UNL     1      14.523  -9.129  61.392  1.00  0.00     0.242 C 
BRANCH  27  28
HETATM   28  N6  UNL     1      15.035  -8.569  62.599  1.00  0.00    -0.325 N 
HETATM   29  N7  UNL     1      14.431  -8.431  63.649  1.00  0.00    -0.348 N 
ATOM     30  H72 UNL     1      13.464  -8.753  63.646  1.00  0.00     0.176 HD
ATOM     31  H71 UNL     1      14.797  -8.030  64.512  1.00  0.00     0.176 HD
ATOM     32  H6  UNL     1      16.004  -8.251  62.583  1.00  0.00     0.180 HD
ENDBRANCH  27  28
BRANCH  27  33
HETATM   33  C13 UNL     1      13.551  -8.151  60.713  1.00  0.00     0.177 C 
HETATM   34  C14 UNL     1      14.129  -6.745  60.741  1.00  0.00     0.070 C 
HETATM   35  N8  UNL     1      13.506  -8.549  59.315  1.00  0.00    -0.097 NA
HETATM   36  N9  UNL     1      12.676  -7.706  58.567  1.00  0.00    -0.269 N 
HETATM   37  C15 UNL     1      11.639  -7.073  59.308  1.00  0.00     0.257 C 
ATOM     38  H9  UNL     1      12.804  -7.556  57.567  1.00  0.00     0.185 HD
HETATM   39  O2  UNL     1      11.090  -6.027  58.892  1.00  0.00    -0.270 OA
HETATM   40  C16 UNL     1      11.274  -7.747  60.582  1.00  0.00     0.274 C 
HETATM   41  O3  UNL     1      12.333  -8.183  61.324  1.00  0.00    -0.351 OA
ENDBRANCH  27  33
ENDBRANCH  24  27
ENDBRANCH   1  23
BRANCH   1  42
HETATM   42  C17 UNL     1      13.700 -13.432  60.834  1.00  0.00     0.278 C 
BRANCH  42  43
HETATM   43  O4  UNL     1      13.379 -14.608  60.134  1.00  0.00    -0.369 OA
ATOM     44  H4  UNL     1      13.773 -14.610  59.270  1.00  0.00     0.212 HD
ENDBRANCH  42  43
BRANCH  42  45
HETATM   45  O5  UNL     1      13.912 -13.857  62.157  1.00  0.00    -0.369 OA
ATOM     46  H5  UNL     1      13.446 -14.665  62.334  1.00  0.00     0.212 HD
ENDBRANCH  42  45
ENDBRANCH   1  42
TORSDOF 10
ENDMDL
