MODEL 1
REMARK VINA RESULT: -7.753286637      0.000      0.000
REMARK  11 active torsions:
REMARK  status: ('A' for Active; 'I' for Inactive)
REMARK    1  A    between atoms: N1_1  and  C1_4 
REMARK    2  A    between atoms: C3_8  and  C4_9 
REMARK    3  A    between atoms: C4_9  and  O2_11 
REMARK    4  A    between atoms: O2_11  and  C5_12 
REMARK    5  A    between atoms: C6_16  and  O3_17 
REMARK    6  A    between atoms: C7_19  and  O4_20 
REMARK    7  A    between atoms: O4_20  and  N4_21 
REMARK    8  A    between atoms: C9_25  and  N5_26 
REMARK    9  A    between atoms: C14_35  and  C15_36 
REMARK   10  A    between atoms: C15_36  and  S1_37 
REMARK   11  A    between atoms: S1_37  and  N7_38 
ROOT
HETATM    1  C5  UNL     1      13.943  -9.369  60.907  1.00  0.00     0.356 C 
HETATM    2  N3  UNL     1      15.011  -8.748  60.145  1.00  0.00    -0.018 N 
ATOM      3  H31 UNL     1      15.430  -9.414  59.496  1.00  0.00     0.283 HD
ATOM      4  H32 UNL     1      15.820  -8.562  60.739  1.00  0.00     0.283 HD
HETATM    5  C6  UNL     1      14.602  -7.571  59.467  1.00  0.00     0.353 C 
HETATM    6  C7  UNL     1      13.779  -6.614  60.234  1.00  0.00     0.217 C 
HETATM    7  C8  UNL     1      12.914  -7.226  61.302  1.00  0.00     0.069 C 
HETATM    8  C9  UNL     1      13.577  -8.388  61.994  1.00  0.00     0.153 C 
ENDROOT
BRANCH   1   9
HETATM    9  O2  UNL     1      14.247 -10.636  61.361  1.00  0.00    -0.280 OA
BRANCH   9  10
HETATM   10  C4  UNL     1      13.794 -11.796  60.692  1.00  0.00     0.314 C 
HETATM   11  O1  UNL     1      13.957 -11.766  59.472  1.00  0.00    -0.257 OA
BRANCH  10  12
HETATM   12  C3  UNL     1      13.206 -12.863  61.488  1.00  0.00     0.132 A 
HETATM   13  N2  UNL     1      12.622 -12.542  62.669  1.00  0.00    -0.356 N 
HETATM   14  C2  UNL     1      12.062 -13.454  63.466  1.00  0.00     0.136 A 
ATOM     15  H2  UNL     1      12.610 -11.564  62.959  1.00  0.00     0.165 HD
HETATM   16  C1  UNL     1      12.075 -14.770  63.082  1.00  0.00     0.114 A 
HETATM   17  N8  UNL     1      12.646 -15.152  61.910  1.00  0.00    -0.342 N 
HETATM   18  C14 UNL     1      13.194 -14.197  61.146  1.00  0.00     0.057 A 
ATOM     19  H8  UNL     1      12.656 -16.130  61.621  1.00  0.00     0.167 HD
BRANCH  16  20
HETATM   20  N1  UNL     1      11.554 -15.711  63.799  1.00  0.00    -0.384 N 
ATOM     21  H12 UNL     1      11.335 -15.474  64.766  1.00  0.00     0.157 HD
ATOM     22  H11 UNL     1      11.367 -16.644  63.432  1.00  0.00     0.157 HD
ENDBRANCH  16  20
BRANCH  18  23
HETATM   23  C15 UNL     1      13.805 -14.548  59.855  1.00  0.00     0.191 C 
BRANCH  23  24
HETATM   24  S1  UNL     1      12.639 -14.935  58.571  1.00  0.00     0.113 S 
HETATM   25  O9  UNL     1      13.090 -14.490  57.216  1.00  0.00    -0.236 OA
BRANCH  24  26
HETATM   26  N7  UNL     1      11.063 -14.375  58.879  1.00  0.00    -0.349 NA
ATOM     27  H72 UNL     1      10.763 -14.662  59.810  1.00  0.00     0.166 HD
ATOM     28  H71 UNL     1      10.389 -14.613  58.151  1.00  0.00     0.166 HD
ENDBRANCH  24  26
ENDBRANCH  23  24
ENDBRANCH  18  23
ENDBRANCH  10  12
ENDBRANCH   9  10
ENDBRANCH   1   9
BRANCH   8  29
HETATM   29  N5  UNL     1      12.719  -8.909  63.008  1.00  0.00    -0.300 N 
HETATM   30  C10 UNL     1      11.433  -9.196  62.794  1.00  0.00     0.102 A 
HETATM   31  C11 UNL     1      10.637  -9.694  63.788  1.00  0.00     0.092 A 
HETATM   32  C12 UNL     1      11.187  -9.904  65.044  1.00  0.00     0.250 A 
HETATM   33  O7  UNL     1      10.502 -10.364  66.010  1.00  0.00    -0.268 OA
HETATM   34  N6  UNL     1      12.473  -9.613  65.240  1.00  0.00    -0.275 N 
HETATM   35  C13 UNL     1      13.220  -9.126  64.238  1.00  0.00     0.329 A 
ATOM     36  H6  UNL     1      12.892  -9.762  66.157  1.00  0.00     0.173 HD
HETATM   37  O8  UNL     1      14.428  -8.871  64.490  1.00  0.00    -0.246 OA
ENDBRANCH   8  29
BRANCH   5  38
HETATM   38  O3  UNL     1      14.014  -7.962  58.242  1.00  0.00    -0.368 OA
ATOM     39  H3  UNL     1      13.725  -7.175  57.795  1.00  0.00     0.212 HD
ENDBRANCH   5  38
BRANCH   6  40
HETATM   40  O4  UNL     1      12.882  -5.976  59.315  1.00  0.00    -0.211 OA
BRANCH  40  41
HETATM   41  N4  UNL     1      11.585  -6.350  59.161  1.00  0.00     0.005 N 
HETATM   42  O5  UNL     1      10.714  -5.463  59.095  1.00  0.00    -0.511 OA
HETATM   43  O6  UNL     1      11.245  -7.667  59.080  1.00  0.00    -0.511 OA
ENDBRANCH  40  41
ENDBRANCH   6  40
TORSDOF 11
ENDMDL
MODEL 2
REMARK VINA RESULT: -7.708402291      1.062      1.062
REMARK  11 active torsions:
REMARK  status: ('A' for Active; 'I' for Inactive)
REMARK    1  A    between atoms: N1_1  and  C1_4 
REMARK    2  A    between atoms: C3_8  and  C4_9 
REMARK    3  A    between atoms: C4_9  and  O2_11 
REMARK    4  A    between atoms: O2_11  and  C5_12 
REMARK    5  A    between atoms: C6_16  and  O3_17 
REMARK    6  A    between atoms: C7_19  and  O4_20 
REMARK    7  A    between atoms: O4_20  and  N4_21 
REMARK    8  A    between atoms: C9_25  and  N5_26 
REMARK    9  A    between atoms: C14_35  and  C15_36 
REMARK   10  A    between atoms: C15_36  and  S1_37 
REMARK   11  A    between atoms: S1_37  and  N7_38 
ROOT
HETATM    1  C5  UNL     1      13.961  -9.297  60.919  1.00  0.00     0.356 C 
HETATM    2  N3  UNL     1      15.024  -8.669  60.157  1.00  0.00    -0.018 N 
ATOM      3  H31 UNL     1      15.466  -9.342  59.529  1.00  0.00     0.283 HD
ATOM      4  H32 UNL     1      15.820  -8.449  60.755  1.00  0.00     0.283 HD
HETATM    5  C6  UNL     1      14.595  -7.520  59.444  1.00  0.00     0.353 C 
HETATM    6  C7  UNL     1      13.739  -6.565  60.177  1.00  0.00     0.217 C 
HETATM    7  C8  UNL     1      12.875  -7.171  61.248  1.00  0.00     0.069 C 
HETATM    8  C9  UNL     1      13.557  -8.300  61.978  1.00  0.00     0.153 C 
ENDROOT
BRANCH   1   9
HETATM    9  O2  UNL     1      14.288 -10.545  61.409  1.00  0.00    -0.280 OA
BRANCH   9  10
HETATM   10  C4  UNL     1      13.760 -11.729  60.846  1.00  0.00     0.314 C 
HETATM   11  O1  UNL     1      13.917 -11.818  59.629  1.00  0.00    -0.257 OA
BRANCH  10  12
HETATM   12  C3  UNL     1      13.111 -12.682  61.735  1.00  0.00     0.132 A 
HETATM   13  N2  UNL     1      13.114 -12.430  63.067  1.00  0.00    -0.356 N 
HETATM   14  C2  UNL     1      12.548 -13.249  63.955  1.00  0.00     0.136 A 
ATOM     15  H2  UNL     1      13.568 -11.580  63.403  1.00  0.00     0.165 HD
HETATM   16  C1  UNL     1      11.937 -14.392  63.510  1.00  0.00     0.114 A 
HETATM   17  N8  UNL     1      11.901 -14.697  62.187  1.00  0.00    -0.342 N 
HETATM   18  C14 UNL     1      12.484 -13.842  61.336  1.00  0.00     0.057 A 
ATOM     19  H8  UNL     1      11.446 -15.547  61.853  1.00  0.00     0.167 HD
BRANCH  16  20
HETATM   20  N1  UNL     1      11.366 -15.235  64.309  1.00  0.00    -0.384 N 
ATOM     21  H12 UNL     1      11.141 -16.148  63.915  1.00  0.00     0.157 HD
ATOM     22  H11 UNL     1      11.147 -15.013  65.280  1.00  0.00     0.157 HD
ENDBRANCH  16  20
BRANCH  18  23
HETATM   23  C15 UNL     1      12.456 -14.109  59.890  1.00  0.00     0.191 C 
BRANCH  23  24
HETATM   24  S1  UNL     1      13.706 -15.237  59.326  1.00  0.00     0.113 S 
HETATM   25  O9  UNL     1      14.333 -16.020  60.435  1.00  0.00    -0.236 OA
BRANCH  24  26
HETATM   26  N7  UNL     1      14.909 -14.512  58.366  1.00  0.00    -0.349 NA
ATOM     27  H72 UNL     1      15.116 -13.575  58.710  1.00  0.00     0.166 HD
ATOM     28  H71 UNL     1      14.711 -14.535  57.366  1.00  0.00     0.166 HD
ENDBRANCH  24  26
ENDBRANCH  23  24
ENDBRANCH  18  23
ENDBRANCH  10  12
ENDBRANCH   9  10
ENDBRANCH   1   9
BRANCH   8  29
HETATM   29  N5  UNL     1      12.698  -8.817  62.993  1.00  0.00    -0.300 N 
HETATM   30  C10 UNL     1      11.478  -9.293  62.739  1.00  0.00     0.102 A 
HETATM   31  C11 UNL     1      10.679  -9.782  63.735  1.00  0.00     0.092 A 
HETATM   32  C12 UNL     1      11.157  -9.778  65.038  1.00  0.00     0.250 A 
HETATM   33  O7  UNL     1      10.465 -10.217  66.009  1.00  0.00    -0.268 OA
HETATM   34  N6  UNL     1      12.378  -9.299  65.274  1.00  0.00    -0.275 N 
HETATM   35  C13 UNL     1      13.130  -8.829  64.268  1.00  0.00     0.329 A 
ATOM     36  H6  UNL     1      12.743  -9.289  66.226  1.00  0.00     0.173 HD
HETATM   37  O8  UNL     1      14.274  -8.390  64.559  1.00  0.00    -0.246 OA
ENDBRANCH   8  29
BRANCH   5  38
HETATM   38  O3  UNL     1      14.032  -7.955  58.221  1.00  0.00    -0.368 OA
ATOM     39  H3  UNL     1      14.224  -7.297  57.564  1.00  0.00     0.212 HD
ENDBRANCH   5  38
BRANCH   6  40
HETATM   40  O4  UNL     1      12.839  -5.972  59.230  1.00  0.00    -0.211 OA
BRANCH  40  41
HETATM   41  N4  UNL     1      11.538  -6.342  59.108  1.00  0.00     0.005 N 
HETATM   42  O5  UNL     1      10.669  -5.453  59.049  1.00  0.00    -0.511 OA
HETATM   43  O6  UNL     1      11.191  -7.659  59.053  1.00  0.00    -0.511 OA
ENDBRANCH  40  41
ENDBRANCH   6  40
TORSDOF 11
ENDMDL
MODEL 3
REMARK VINA RESULT: -7.708161897      1.352      1.455
REMARK  11 active torsions:
REMARK  status: ('A' for Active; 'I' for Inactive)
REMARK    1  A    between atoms: N1_1  and  C1_4 
REMARK    2  A    between atoms: C3_8  and  C4_9 
REMARK    3  A    between atoms: C4_9  and  O2_11 
REMARK    4  A    between atoms: O2_11  and  C5_12 
REMARK    5  A    between atoms: C6_16  and  O3_17 
REMARK    6  A    between atoms: C7_19  and  O4_20 
REMARK    7  A    between atoms: O4_20  and  N4_21 
REMARK    8  A    between atoms: C9_25  and  N5_26 
REMARK    9  A    between atoms: C14_35  and  C15_36 
REMARK   10  A    between atoms: C15_36  and  S1_37 
REMARK   11  A    between atoms: S1_37  and  N7_38 
ROOT
HETATM    1  C5  UNL     1      13.999  -9.305  61.000  1.00  0.00     0.356 C 
HETATM    2  N3  UNL     1      15.054  -8.692  60.213  1.00  0.00    -0.018 N 
ATOM      3  H31 UNL     1      15.500  -9.381  59.606  1.00  0.00     0.283 HD
ATOM      4  H32 UNL     1      15.850  -8.446  60.801  1.00  0.00     0.283 HD
HETATM    5  C6  UNL     1      14.613  -7.570  59.465  1.00  0.00     0.353 C 
HETATM    6  C7  UNL     1      13.750  -6.600  60.170  1.00  0.00     0.217 C 
HETATM    7  C8  UNL     1      12.897  -7.178  61.264  1.00  0.00     0.069 C 
HETATM    8  C9  UNL     1      13.590  -8.276  62.027  1.00  0.00     0.153 C 
ENDROOT
BRANCH   1   9
HETATM    9  O2  UNL     1      14.340 -10.533  61.529  1.00  0.00    -0.280 OA
BRANCH   9  10
HETATM   10  C4  UNL     1      13.573 -11.693  61.273  1.00  0.00     0.314 C 
HETATM   11  O1  UNL     1      13.597 -12.060  60.099  1.00  0.00    -0.257 OA
BRANCH  10  12
HETATM   12  C3  UNL     1      12.863 -12.305  62.386  1.00  0.00     0.132 A 
HETATM   13  N2  UNL     1      13.483 -12.372  63.591  1.00  0.00    -0.356 N 
HETATM   14  C2  UNL     1      12.912 -12.921  64.664  1.00  0.00     0.136 A 
ATOM     15  H2  UNL     1      14.424 -11.989  63.679  1.00  0.00     0.165 HD
HETATM   16  C1  UNL     1      11.647 -13.438  64.553  1.00  0.00     0.114 A 
HETATM   17  N8  UNL     1      10.976 -13.399  63.372  1.00  0.00    -0.342 N 
HETATM   18  C14 UNL     1      11.595 -12.838  62.324  1.00  0.00     0.057 A 
ATOM     19  H8  UNL     1      10.035 -13.783  63.287  1.00  0.00     0.167 HD
BRANCH  16  20
HETATM   20  N1  UNL     1      11.027 -13.985  65.547  1.00  0.00    -0.384 N 
ATOM     21  H12 UNL     1      10.429 -13.371  66.100  1.00  0.00     0.157 HD
ATOM     22  H11 UNL     1      11.119 -14.974  65.778  1.00  0.00     0.157 HD
ENDBRANCH  16  20
BRANCH  18  23
HETATM   23  C15 UNL     1      10.907 -12.747  61.027  1.00  0.00     0.191 C 
BRANCH  23  24
HETATM   24  S1  UNL     1      10.842 -14.273  60.121  1.00  0.00     0.113 S 
HETATM   25  O9  UNL     1      11.093 -15.474  60.976  1.00  0.00    -0.236 OA
BRANCH  24  26
HETATM   26  N7  UNL     1      11.850 -14.306  58.751  1.00  0.00    -0.349 NA
ATOM     27  H72 UNL     1      11.918 -13.375  58.341  1.00  0.00     0.166 HD
ATOM     28  H71 UNL     1      11.602 -15.025  58.071  1.00  0.00     0.166 HD
ENDBRANCH  24  26
ENDBRANCH  23  24
ENDBRANCH  18  23
ENDBRANCH  10  12
ENDBRANCH   9  10
ENDBRANCH   1   9
BRANCH   8  29
HETATM   29  N5  UNL     1      12.740  -8.767  63.062  1.00  0.00    -0.300 N 
HETATM   30  C10 UNL     1      11.460  -9.086  62.860  1.00  0.00     0.102 A 
HETATM   31  C11 UNL     1      10.671  -9.554  63.874  1.00  0.00     0.092 A 
HETATM   32  C12 UNL     1      11.224  -9.698  65.139  1.00  0.00     0.250 A 
HETATM   33  O7  UNL     1      10.546 -10.127  66.124  1.00  0.00    -0.268 OA
HETATM   34  N6  UNL     1      12.503  -9.376  65.323  1.00  0.00    -0.275 N 
HETATM   35  C13 UNL     1      13.243  -8.920  64.301  1.00  0.00     0.329 A 
ATOM     36  H6  UNL     1      12.924  -9.476  66.246  1.00  0.00     0.173 HD
HETATM   37  O8  UNL     1      14.446  -8.633  64.542  1.00  0.00    -0.246 OA
ENDBRANCH   8  29
BRANCH   5  38
HETATM   38  O3  UNL     1      14.049  -8.050  58.260  1.00  0.00    -0.368 OA
ATOM     39  H3  UNL     1      13.834  -7.297  57.721  1.00  0.00     0.212 HD
ENDBRANCH   5  38
BRANCH   6  40
HETATM   40  O4  UNL     1      12.842  -6.045  59.208  1.00  0.00    -0.211 OA
BRANCH  40  41
HETATM   41  N4  UNL     1      11.534  -6.402  59.130  1.00  0.00     0.005 N 
HETATM   42  O5  UNL     1      10.675  -5.504  59.069  1.00  0.00    -0.511 OA
HETATM   43  O6  UNL     1      11.171  -7.715  59.117  1.00  0.00    -0.511 OA
ENDBRANCH  40  41
ENDBRANCH   6  40
TORSDOF 11
ENDMDL
MODEL 4
REMARK VINA RESULT: -7.624227239      2.155      3.097
REMARK  11 active torsions:
REMARK  status: ('A' for Active; 'I' for Inactive)
REMARK    1  A    between atoms: N1_1  and  C1_4 
REMARK    2  A    between atoms: C3_8  and  C4_9 
REMARK    3  A    between atoms: C4_9  and  O2_11 
REMARK    4  A    between atoms: O2_11  and  C5_12 
REMARK    5  A    between atoms: C6_16  and  O3_17 
REMARK    6  A    between atoms: C7_19  and  O4_20 
REMARK    7  A    between atoms: O4_20  and  N4_21 
REMARK    8  A    between atoms: C9_25  and  N5_26 
REMARK    9  A    between atoms: C14_35  and  C15_36 
REMARK   10  A    between atoms: C15_36  and  S1_37 
REMARK   11  A    between atoms: S1_37  and  N7_38 
ROOT
HETATM    1  C5  UNL     1      13.878  -9.394  61.215  1.00  0.00     0.356 C 
HETATM    2  N3  UNL     1      14.939  -8.964  60.323  1.00  0.00    -0.018 N 
ATOM      3  H31 UNL     1      15.279  -9.745  59.761  1.00  0.00     0.283 HD
ATOM      4  H32 UNL     1      15.789  -8.751  60.846  1.00  0.00     0.283 HD
HETATM    5  C6  UNL     1      14.567  -7.871  59.498  1.00  0.00     0.353 C 
HETATM    6  C7  UNL     1      13.847  -6.760  60.153  1.00  0.00     0.217 C 
HETATM    7  C8  UNL     1      13.006  -7.150  61.337  1.00  0.00     0.069 C 
HETATM    8  C9  UNL     1      13.633  -8.244  62.162  1.00  0.00     0.153 C 
ENDROOT
BRANCH   1   9
HETATM    9  O2  UNL     1      14.127 -10.600  61.837  1.00  0.00    -0.280 OA
BRANCH   9  10
HETATM   10  C4  UNL     1      13.362 -11.756  61.556  1.00  0.00     0.314 C 
HETATM   11  O1  UNL     1      13.850 -12.479  60.688  1.00  0.00    -0.257 OA
BRANCH  10  12
HETATM   12  C3  UNL     1      12.126 -11.957  62.296  1.00  0.00     0.132 A 
HETATM   13  N2  UNL     1      10.948 -11.739  61.660  1.00  0.00    -0.356 N 
HETATM   14  C2  UNL     1       9.767 -11.895  62.261  1.00  0.00     0.136 A 
ATOM     15  H2  UNL     1      10.966 -11.445  60.684  1.00  0.00     0.165 HD
HETATM   16  C1  UNL     1       9.735 -12.290  63.573  1.00  0.00     0.114 A 
HETATM   17  N8  UNL     1      10.883 -12.524  64.263  1.00  0.00    -0.342 N 
HETATM   18  C14 UNL     1      12.043 -12.353  63.613  1.00  0.00     0.057 A 
ATOM     19  H8  UNL     1      10.863 -12.819  65.239  1.00  0.00     0.167 HD
BRANCH  16  20
HETATM   20  N1  UNL     1       8.631 -12.462  64.225  1.00  0.00    -0.384 N 
ATOM     21  H12 UNL     1       8.406 -11.758  64.927  1.00  0.00     0.157 HD
ATOM     22  H11 UNL     1       8.010 -13.253  64.056  1.00  0.00     0.157 HD
ENDBRANCH  16  20
BRANCH  18  23
HETATM   23  C15 UNL     1      13.316 -12.615  64.301  1.00  0.00     0.191 C 
BRANCH  23  24
HETATM   24  S1  UNL     1      13.144 -13.178  65.977  1.00  0.00     0.113 S 
HETATM   25  O9  UNL     1      12.433 -14.489  66.085  1.00  0.00    -0.236 OA
BRANCH  24  26
HETATM   26  N7  UNL     1      12.434 -12.037  67.019  1.00  0.00    -0.349 NA
ATOM     27  H72 UNL     1      11.458 -11.888  66.766  1.00  0.00     0.166 HD
ATOM     28  H71 UNL     1      12.961 -11.168  67.103  1.00  0.00     0.166 HD
ENDBRANCH  24  26
ENDBRANCH  23  24
ENDBRANCH  18  23
ENDBRANCH  10  12
ENDBRANCH   9  10
ENDBRANCH   1   9
BRANCH   8  29
HETATM   29  N5  UNL     1      12.801  -8.553  63.279  1.00  0.00    -0.300 N 
HETATM   30  C10 UNL     1      11.468  -8.547  63.216  1.00  0.00     0.102 A 
HETATM   31  C11 UNL     1      10.699  -8.849  64.306  1.00  0.00     0.092 A 
HETATM   32  C12 UNL     1      11.328  -9.167  65.501  1.00  0.00     0.250 A 
HETATM   33  O7  UNL     1      10.672  -9.456  66.550  1.00  0.00    -0.268 OA
HETATM   34  N6  UNL     1      12.660  -9.169  65.546  1.00  0.00    -0.275 N 
HETATM   35  C13 UNL     1      13.378  -8.868  64.454  1.00  0.00     0.329 A 
ATOM     36  H6  UNL     1      13.137  -9.400  66.417  1.00  0.00     0.173 HD
HETATM   37  O8  UNL     1      14.633  -8.887  64.565  1.00  0.00    -0.246 OA
ENDBRANCH   8  29
BRANCH   5  38
HETATM   38  O3  UNL     1      13.889  -8.393  58.372  1.00  0.00    -0.368 OA
ATOM     39  H3  UNL     1      13.490  -7.665  57.911  1.00  0.00     0.212 HD
ENDBRANCH   5  38
BRANCH   6  40
HETATM   40  O4  UNL     1      12.942  -6.200  59.191  1.00  0.00    -0.211 OA
BRANCH  40  41
HETATM   41  N4  UNL     1      11.615  -6.484  59.166  1.00  0.00     0.005 N 
HETATM   42  O5  UNL     1      10.805  -5.541  59.101  1.00  0.00    -0.511 OA
HETATM   43  O6  UNL     1      11.178  -7.774  59.213  1.00  0.00    -0.511 OA
ENDBRANCH  40  41
ENDBRANCH   6  40
TORSDOF 11
ENDMDL
MODEL 5
REMARK VINA RESULT: -7.501254666      1.939      2.430
REMARK  11 active torsions:
REMARK  status: ('A' for Active; 'I' for Inactive)
REMARK    1  A    between atoms: N1_1  and  C1_4 
REMARK    2  A    between atoms: C3_8  and  C4_9 
REMARK    3  A    between atoms: C4_9  and  O2_11 
REMARK    4  A    between atoms: O2_11  and  C5_12 
REMARK    5  A    between atoms: C6_16  and  O3_17 
REMARK    6  A    between atoms: C7_19  and  O4_20 
REMARK    7  A    between atoms: O4_20  and  N4_21 
REMARK    8  A    between atoms: C9_25  and  N5_26 
REMARK    9  A    between atoms: C14_35  and  C15_36 
REMARK   10  A    between atoms: C15_36  and  S1_37 
REMARK   11  A    between atoms: S1_37  and  N7_38 
ROOT
HETATM    1  C5  UNL     1      13.904  -9.342  61.041  1.00  0.00     0.356 C 
HETATM    2  N3  UNL     1      14.949  -8.845  60.166  1.00  0.00    -0.018 N 
ATOM      3  H31 UNL     1      15.310  -9.591  59.571  1.00  0.00     0.283 HD
ATOM      4  H32 UNL     1      15.795  -8.630  60.696  1.00  0.00     0.283 HD
HETATM    5  C6  UNL     1      14.544  -7.729  59.389  1.00  0.00     0.353 C 
HETATM    6  C7  UNL     1      13.795  -6.667  60.092  1.00  0.00     0.217 C 
HETATM    7  C8  UNL     1      12.969  -7.132  61.259  1.00  0.00     0.069 C 
HETATM    8  C9  UNL     1      13.629  -8.241  62.036  1.00  0.00     0.153 C 
ENDROOT
BRANCH   1   9
HETATM    9  O2  UNL     1      14.188 -10.567  61.610  1.00  0.00    -0.280 OA
BRANCH   9  10
HETATM   10  C4  UNL     1      13.307 -11.666  61.494  1.00  0.00     0.314 C 
HETATM   11  O1  UNL     1      13.184 -12.089  60.345  1.00  0.00    -0.257 OA
BRANCH  10  12
HETATM   12  C3  UNL     1      12.664 -12.161  62.702  1.00  0.00     0.132 A 
HETATM   13  N2  UNL     1      13.439 -12.445  63.778  1.00  0.00    -0.356 N 
HETATM   14  C2  UNL     1      12.936 -12.907  64.924  1.00  0.00     0.136 A 
ATOM     15  H2  UNL     1      14.446 -12.299  63.708  1.00  0.00     0.165 HD
HETATM   16  C1  UNL     1      11.584 -13.104  65.025  1.00  0.00     0.114 A 
HETATM   17  N8  UNL     1      10.756 -12.837  63.981  1.00  0.00    -0.342 N 
HETATM   18  C14 UNL     1      11.312 -12.375  62.852  1.00  0.00     0.057 A 
ATOM     19  H8  UNL     1       9.749 -12.983  64.053  1.00  0.00     0.167 HD
BRANCH  16  20
HETATM   20  N1  UNL     1      11.021 -13.549  66.102  1.00  0.00    -0.384 N 
ATOM     21  H12 UNL     1      10.035 -13.321  66.223  1.00  0.00     0.157 HD
ATOM     22  H11 UNL     1      11.523 -14.098  66.799  1.00  0.00     0.157 HD
ENDBRANCH  16  20
BRANCH  18  23
HETATM   23  C15 UNL     1      10.463 -12.046  61.696  1.00  0.00     0.191 C 
BRANCH  23  24
HETATM   24  S1  UNL     1       8.721 -12.235  61.986  1.00  0.00     0.113 S 
HETATM   25  O9  UNL     1       8.221 -11.397  63.120  1.00  0.00    -0.236 OA
BRANCH  24  26
HETATM   26  N7  UNL     1       8.225 -13.849  62.187  1.00  0.00    -0.349 NA
ATOM     27  H72 UNL     1       8.534 -14.203  63.092  1.00  0.00     0.166 HD
ATOM     28  H71 UNL     1       8.480 -14.460  61.411  1.00  0.00     0.166 HD
ENDBRANCH  24  26
ENDBRANCH  23  24
ENDBRANCH  18  23
ENDBRANCH  10  12
ENDBRANCH   9  10
ENDBRANCH   1   9
BRANCH   8  29
HETATM   29  N5  UNL     1      12.809  -8.621  63.140  1.00  0.00    -0.300 N 
HETATM   30  C10 UNL     1      11.479  -8.700  63.065  1.00  0.00     0.102 A 
HETATM   31  C11 UNL     1      10.722  -9.067  64.143  1.00  0.00     0.092 A 
HETATM   32  C12 UNL     1      11.361  -9.365  65.338  1.00  0.00     0.250 A 
HETATM   33  O7  UNL     1      10.716  -9.712  66.376  1.00  0.00    -0.268 OA
HETATM   34  N6  UNL     1      12.689  -9.282  65.396  1.00  0.00    -0.275 N 
HETATM   35  C13 UNL     1      13.396  -8.918  64.316  1.00  0.00     0.329 A 
ATOM     36  H6  UNL     1      13.173  -9.497  66.267  1.00  0.00     0.173 HD
HETATM   37  O8  UNL     1      14.648  -8.858  64.437  1.00  0.00    -0.246 OA
ENDBRANCH   8  29
BRANCH   5  38
HETATM   38  O3  UNL     1      13.878  -8.221  58.243  1.00  0.00    -0.368 OA
ATOM     39  H3  UNL     1      12.944  -8.117  58.383  1.00  0.00     0.212 HD
ENDBRANCH   5  38
BRANCH   6  40
HETATM   40  O4  UNL     1      12.872  -6.093  59.156  1.00  0.00    -0.211 OA
BRANCH  40  41
HETATM   41  N4  UNL     1      11.551  -6.406  59.128  1.00  0.00     0.005 N 
HETATM   42  O5  UNL     1      10.721  -5.480  59.080  1.00  0.00    -0.511 OA
HETATM   43  O6  UNL     1      11.143  -7.706  59.153  1.00  0.00    -0.511 OA
ENDBRANCH  40  41
ENDBRANCH   6  40
TORSDOF 11
ENDMDL
