MODEL 1
REMARK VINA RESULT: -8.121702407      0.000      0.000
REMARK  11 active torsions:
REMARK  status: ('A' for Active; 'I' for Inactive)
REMARK    1  A    between atoms: C2_2  and  N1_3 
REMARK       I    between atoms: N1_3  and  C3_4 
REMARK    2  A    between atoms: N1_3  and  C15_45 
REMARK    3  A    between atoms: C3_4  and  C4_6 
REMARK    4  A    between atoms: C6_11  and  N3_12 
REMARK       I    between atoms: N3_12  and  C7_14 
REMARK    5  A    between atoms: C7_14  and  C8_16 
REMARK    6  A    between atoms: C8_16  and  C9_17 
REMARK    7  A    between atoms: N6_21  and  C10_22 
REMARK    8  A    between atoms: C12_27  and  O5_28 
REMARK    9  A    between atoms: C13_30  and  C14_31 
REMARK   10  A    between atoms: C14_31  and  N8_32 
REMARK   11  A    between atoms: C14_31  and  O6_36 
ROOT
HETATM    1  C8  UNL     1      23.694  41.789  18.339  1.00  0.00     0.181 C 
ENDROOT
BRANCH   1   2
HETATM    2  C7  UNL     1      23.195  41.452  17.006  1.00  0.00     0.226 C 
HETATM    3  N3  UNL     1      22.044  42.048  16.436  1.00  0.00    -0.325 N 
ATOM      4  H3  UNL     1      21.546  42.745  16.989  1.00  0.00     0.165 HD
HETATM    5  O3  UNL     1      23.793  40.588  16.292  1.00  0.00    -0.273 OA
BRANCH   3   6
HETATM    6  C6  UNL     1      21.532  41.739  15.136  1.00  0.00     0.382 C 
HETATM    7  C5  UNL     1      21.590  42.852  14.175  1.00  0.00     0.270 C 
HETATM    8  N2  UNL     1      20.252  43.298  14.034  1.00  0.00    -0.322 N 
HETATM    9  O2  UNL     1      22.565  43.354  13.572  1.00  0.00    -0.269 OA
HETATM   10  C4  UNL     1      19.469  42.819  15.193  1.00  0.00     0.383 C 
ATOM     11  H2  UNL     1      19.889  43.856  13.262  1.00  0.00     0.165 HD
HETATM   12  N11 UNL     1      20.090  41.484  15.288  1.00  0.00    -0.016 N 
ATOM     13 2H11 UNL     1      19.844  40.969  16.134  1.00  0.00     0.283 HD
ATOM     14 1H11 UNL     1      19.715  40.802  14.628  1.00  0.00     0.283 HD
BRANCH  10  15
HETATM   15  C3  UNL     1      18.055  42.614  14.825  1.00  0.00     0.277 C 
HETATM   16  N1  UNL     1      16.968  42.554  15.725  1.00  0.00    -0.287 N 
HETATM   17  O1  UNL     1      17.844  42.487  13.595  1.00  0.00    -0.269 OA
BRANCH  16  18
HETATM   18  C2  UNL     1      17.128  42.720  17.161  1.00  0.00     0.130 C 
HETATM   19  C1  UNL     1      17.390  41.347  17.749  1.00  0.00     0.027 C 
ENDBRANCH  16  18
BRANCH  16  20
HETATM   20  C15 UNL     1      15.638  42.333  15.276  1.00  0.00     0.180 C 
HETATM   21  N12 UNL     1      15.292  41.367  14.453  1.00  0.00    -0.360 N 
HETATM   22  C16 UNL     1      13.893  41.378  14.168  1.00  0.00     0.142 C 
ATOM     23  H12 UNL     1      15.947  40.689  14.063  1.00  0.00     0.162 HD
HETATM   24  C17 UNL     1      13.518  42.821  14.476  1.00  0.00     0.142 C 
HETATM   25  N13 UNL     1      14.451  43.052  15.598  1.00  0.00    -0.360 N 
ATOM     26  H13 UNL     1      14.280  43.611  16.433  1.00  0.00     0.162 HD
ENDBRANCH  16  20
ENDBRANCH  10  15
ENDBRANCH   3   6
ENDBRANCH   1   2
BRANCH   1  27
HETATM   27  C9  UNL     1      22.781  41.258  19.403  1.00  0.00     0.119 A 
HETATM   28  N4  UNL     1      23.053  41.121  20.721  1.00  0.00    -0.269 N 
HETATM   29  N5  UNL     1      21.973  40.617  21.299  1.00  0.00     0.018 NA
ATOM     30  H4  UNL     1      23.929  41.363  21.185  1.00  0.00     0.185 HD
HETATM   31  N6  UNL     1      21.012  40.420  20.414  1.00  0.00    -0.003 N 
HETATM   32  N10 UNL     1      21.521  40.817  19.250  1.00  0.00    -0.253 N 
ATOM     33  H10 UNL     1      21.021  40.791  18.361  1.00  0.00     0.190 HD
BRANCH  31  34
HETATM   34  C10 UNL     1      19.705  39.896  20.636  1.00  0.00     0.720 A 
HETATM   35  N7  UNL     1      18.743  40.644  21.202  1.00  0.00    -0.151 N 
HETATM   36  C11 UNL     1      17.499  40.179  21.427  1.00  0.00     0.295 A 
ATOM     37  H7  UNL     1      18.963  41.603  21.472  1.00  0.00     0.188 HD
HETATM   38  O4  UNL     1      16.601  40.902  21.964  1.00  0.00    -0.265 OA
HETATM   39  C12 UNL     1      17.201  38.891  21.063  1.00  0.00     0.162 A 
HETATM   40  C13 UNL     1      18.190  38.122  20.481  1.00  0.00     0.120 A 
HETATM   41  N9  UNL     1      19.417  38.641  20.281  1.00  0.00    -0.185 N 
ATOM     42  H9  UNL     1      20.140  38.064  19.849  1.00  0.00     0.184 HD
BRANCH  39  43
HETATM   43  O5  UNL     1      15.919  38.391  21.289  1.00  0.00    -0.354 OA
ATOM     44  H5  UNL     1      15.593  37.677  20.753  1.00  0.00     0.218 HD
ENDBRANCH  39  43
BRANCH  40  45
HETATM   45  C14 UNL     1      17.846  36.729  20.096  1.00  0.00     0.370 C 
BRANCH  45  46
HETATM   46  N8  UNL     1      16.737  36.758  19.156  1.00  0.00    -0.047 N 
ATOM     47  H83 UNL     1      16.208  37.629  19.206  1.00  0.00     0.277 HD
ATOM     48  H82 UNL     1      17.050  36.837  18.188  1.00  0.00     0.277 HD
ATOM     49  H81 UNL     1      16.150  35.938  19.310  1.00  0.00     0.277 HD
ENDBRANCH  45  46
BRANCH  45  50
HETATM   50  O6  UNL     1      17.434  36.002  21.205  1.00  0.00    -0.365 OA
ATOM     51  H6  UNL     1      18.145  35.467  21.539  1.00  0.00     0.212 HD
ENDBRANCH  45  50
ENDBRANCH  40  45
ENDBRANCH  31  34
ENDBRANCH   1  27
TORSDOF 11
ENDMDL
MODEL 2
REMARK VINA RESULT: -7.750522888      1.069      1.902
REMARK  11 active torsions:
REMARK  status: ('A' for Active; 'I' for Inactive)
REMARK    1  A    between atoms: C2_2  and  N1_3 
REMARK       I    between atoms: N1_3  and  C3_4 
REMARK    2  A    between atoms: N1_3  and  C15_45 
REMARK    3  A    between atoms: C3_4  and  C4_6 
REMARK    4  A    between atoms: C6_11  and  N3_12 
REMARK       I    between atoms: N3_12  and  C7_14 
REMARK    5  A    between atoms: C7_14  and  C8_16 
REMARK    6  A    between atoms: C8_16  and  C9_17 
REMARK    7  A    between atoms: N6_21  and  C10_22 
REMARK    8  A    between atoms: C12_27  and  O5_28 
REMARK    9  A    between atoms: C13_30  and  C14_31 
REMARK   10  A    between atoms: C14_31  and  N8_32 
REMARK   11  A    between atoms: C14_31  and  O6_36 
ROOT
HETATM    1  C8  UNL     1      23.585  41.946  18.572  1.00  0.00     0.181 C 
ENDROOT
BRANCH   1   2
HETATM    2  C7  UNL     1      23.127  41.539  17.244  1.00  0.00     0.226 C 
HETATM    3  N3  UNL     1      22.017  42.130  16.591  1.00  0.00    -0.325 N 
ATOM      4  H3  UNL     1      21.521  42.875  17.080  1.00  0.00     0.165 HD
HETATM    5  O3  UNL     1      23.725  40.614  16.610  1.00  0.00    -0.273 OA
BRANCH   3   6
HETATM    6  C6  UNL     1      21.546  41.754  15.294  1.00  0.00     0.382 C 
HETATM    7  C5  UNL     1      21.646  42.811  14.276  1.00  0.00     0.270 C 
HETATM    8  N2  UNL     1      20.317  43.257  14.066  1.00  0.00    -0.322 N 
HETATM    9  O2  UNL     1      22.644  43.272  13.679  1.00  0.00    -0.269 OA
HETATM   10  C4  UNL     1      19.492  42.849  15.223  1.00  0.00     0.383 C 
ATOM     11  H2  UNL     1      19.985  43.775  13.253  1.00  0.00     0.165 HD
HETATM   12  N11 UNL     1      20.097  41.517  15.412  1.00  0.00    -0.016 N 
ATOM     13 2H11 UNL     1      19.819  41.051  16.276  1.00  0.00     0.283 HD
ATOM     14 1H11 UNL     1      19.739  40.802  14.778  1.00  0.00     0.283 HD
BRANCH  10  15
HETATM   15  C3  UNL     1      18.089  42.634  14.819  1.00  0.00     0.277 C 
HETATM   16  N1  UNL     1      16.981  42.552  15.693  1.00  0.00    -0.287 N 
HETATM   17  O1  UNL     1      17.908  42.519  13.583  1.00  0.00    -0.269 OA
BRANCH  16  18
HETATM   18  C2  UNL     1      17.106  42.703  17.134  1.00  0.00     0.130 C 
HETATM   19  C1  UNL     1      17.317  41.319  17.718  1.00  0.00     0.027 C 
ENDBRANCH  16  18
BRANCH  16  20
HETATM   20  C15 UNL     1      15.665  42.323  15.211  1.00  0.00     0.180 C 
HETATM   21  N12 UNL     1      15.327  41.300  14.455  1.00  0.00    -0.360 N 
HETATM   22  C16 UNL     1      13.942  41.317  14.114  1.00  0.00     0.142 C 
ATOM     23  H12 UNL     1      15.980  40.579  14.148  1.00  0.00     0.162 HD
HETATM   24  C17 UNL     1      13.589  42.788  14.289  1.00  0.00     0.142 C 
HETATM   25  N13 UNL     1      14.484  43.090  15.425  1.00  0.00    -0.360 N 
ATOM     26  H13 UNL     1      14.295  43.720  16.204  1.00  0.00     0.162 HD
ENDBRANCH  16  20
ENDBRANCH  10  15
ENDBRANCH   3   6
ENDBRANCH   1   2
BRANCH   1  27
HETATM   27  C9  UNL     1      22.770  41.289  19.645  1.00  0.00     0.119 A 
HETATM   28  N4  UNL     1      22.770  41.579  20.966  1.00  0.00    -0.269 N 
HETATM   29  N5  UNL     1      21.906  40.763  21.551  1.00  0.00     0.018 NA
ATOM     30  H4  UNL     1      23.332  42.294  21.426  1.00  0.00     0.185 HD
HETATM   31  N6  UNL     1      21.345  39.956  20.668  1.00  0.00    -0.003 N 
HETATM   32  N10 UNL     1      21.885  40.288  19.498  1.00  0.00    -0.253 N 
ATOM     33  H10 UNL     1      21.657  39.843  18.609  1.00  0.00     0.190 HD
BRANCH  31  34
HETATM   34  C10 UNL     1      20.370  38.942  20.897  1.00  0.00     0.720 A 
HETATM   35  N7  UNL     1      20.623  37.654  20.610  1.00  0.00    -0.151 N 
HETATM   36  C11 UNL     1      19.723  36.673  20.814  1.00  0.00     0.295 A 
ATOM     37  H7  UNL     1      21.534  37.409  20.222  1.00  0.00     0.188 HD
HETATM   38  O4  UNL     1      19.981  35.460  20.535  1.00  0.00    -0.265 OA
HETATM   39  C12 UNL     1      18.498  37.001  21.336  1.00  0.00     0.162 A 
HETATM   40  C13 UNL     1      18.237  38.324  21.633  1.00  0.00     0.120 A 
HETATM   41  N9  UNL     1      19.177  39.264  21.407  1.00  0.00    -0.185 N 
ATOM     42  H9  UNL     1      18.974  40.239  21.630  1.00  0.00     0.184 HD
BRANCH  39  43
HETATM   43  O5  UNL     1      17.552  36.000  21.554  1.00  0.00    -0.354 OA
ATOM     44  H5  UNL     1      17.602  35.471  22.341  1.00  0.00     0.218 HD
ENDBRANCH  39  43
BRANCH  40  45
HETATM   45  C14 UNL     1      16.904  38.657  22.196  1.00  0.00     0.370 C 
BRANCH  45  46
HETATM   46  N8  UNL     1      16.776  38.037  23.506  1.00  0.00    -0.047 N 
ATOM     47  H83 UNL     1      16.333  38.654  24.186  1.00  0.00     0.277 HD
ATOM     48  H82 UNL     1      16.082  37.290  23.515  1.00  0.00     0.277 HD
ATOM     49  H81 UNL     1      17.696  37.718  23.812  1.00  0.00     0.277 HD
ENDBRANCH  45  46
BRANCH  45  50
HETATM   50  O6  UNL     1      15.892  38.149  21.394  1.00  0.00    -0.365 OA
ATOM     51  H6  UNL     1      15.076  38.612  21.548  1.00  0.00     0.212 HD
ENDBRANCH  45  50
ENDBRANCH  40  45
ENDBRANCH  31  34
ENDBRANCH   1  27
TORSDOF 11
ENDMDL
MODEL 3
REMARK VINA RESULT: -7.507555081      0.851      1.154
REMARK  11 active torsions:
REMARK  status: ('A' for Active; 'I' for Inactive)
REMARK    1  A    between atoms: C2_2  and  N1_3 
REMARK       I    between atoms: N1_3  and  C3_4 
REMARK    2  A    between atoms: N1_3  and  C15_45 
REMARK    3  A    between atoms: C3_4  and  C4_6 
REMARK    4  A    between atoms: C6_11  and  N3_12 
REMARK       I    between atoms: N3_12  and  C7_14 
REMARK    5  A    between atoms: C7_14  and  C8_16 
REMARK    6  A    between atoms: C8_16  and  C9_17 
REMARK    7  A    between atoms: N6_21  and  C10_22 
REMARK    8  A    between atoms: C12_27  and  O5_28 
REMARK    9  A    between atoms: C13_30  and  C14_31 
REMARK   10  A    between atoms: C14_31  and  N8_32 
REMARK   11  A    between atoms: C14_31  and  O6_36 
ROOT
HETATM    1  C8  UNL     1      23.484  41.950  18.181  1.00  0.00     0.181 C 
ENDROOT
BRANCH   1   2
HETATM    2  C7  UNL     1      22.935  41.606  16.869  1.00  0.00     0.226 C 
HETATM    3  N3  UNL     1      21.743  42.174  16.356  1.00  0.00    -0.325 N 
ATOM      4  H3  UNL     1      21.252  42.854  16.937  1.00  0.00     0.165 HD
HETATM    5  O3  UNL     1      23.523  40.763  16.123  1.00  0.00    -0.273 OA
BRANCH   3   6
HETATM    6  C6  UNL     1      21.181  41.859  15.079  1.00  0.00     0.382 C 
HETATM    7  C5  UNL     1      20.985  43.018  14.193  1.00  0.00     0.270 C 
HETATM    8  N2  UNL     1      19.586  43.249  14.180  1.00  0.00    -0.322 N 
HETATM    9  O2  UNL     1      21.816  43.703  13.557  1.00  0.00    -0.269 OA
HETATM   10  C4  UNL     1      18.986  42.587  15.357  1.00  0.00     0.383 C 
ATOM     11  H2  UNL     1      19.078  43.784  13.475  1.00  0.00     0.165 HD
HETATM   12  N11 UNL     1      19.814  41.366  15.317  1.00  0.00    -0.016 N 
ATOM     13 2H11 UNL     1      19.722  40.773  16.142  1.00  0.00     0.283 HD
ATOM     14 1H11 UNL     1      19.498  40.670  14.641  1.00  0.00     0.283 HD
BRANCH  10  15
HETATM   15  C3  UNL     1      17.596  42.177  15.079  1.00  0.00     0.277 C 
HETATM   16  N1  UNL     1      16.474  43.036  15.037  1.00  0.00    -0.287 N 
HETATM   17  O1  UNL     1      17.441  40.951  14.867  1.00  0.00    -0.269 OA
BRANCH  16  18
HETATM   18  C2  UNL     1      16.577  44.472  15.246  1.00  0.00     0.130 C 
HETATM   19  C1  UNL     1      16.423  45.138  13.891  1.00  0.00     0.027 C 
ENDBRANCH  16  18
BRANCH  16  20
HETATM   20  C15 UNL     1      15.167  42.544  14.780  1.00  0.00     0.180 C 
HETATM   21  N12 UNL     1      14.888  41.645  13.860  1.00  0.00    -0.360 N 
HETATM   22  C16 UNL     1      13.496  41.335  13.816  1.00  0.00     0.142 C 
ATOM     23  H12 UNL     1      15.586  41.220  13.250  1.00  0.00     0.162 HD
HETATM   24  C17 UNL     1      12.873  42.575  14.442  1.00  0.00     0.142 C 
HETATM   25  N13 UNL     1      13.939  42.881  15.419  1.00  0.00    -0.360 N 
ATOM     26  H13 UNL     1      13.820  43.256  16.359  1.00  0.00     0.162 HD
ENDBRANCH  16  20
ENDBRANCH  10  15
ENDBRANCH   3   6
ENDBRANCH   1   2
BRANCH   1  27
HETATM   27  C9  UNL     1      22.659  41.352  19.281  1.00  0.00     0.119 A 
HETATM   28  N4  UNL     1      23.043  41.118  20.556  1.00  0.00    -0.269 N 
HETATM   29  N5  UNL     1      22.009  40.585  21.190  1.00  0.00     0.018 NA
ATOM     30  H4  UNL     1      23.959  41.316  20.957  1.00  0.00     0.185 HD
HETATM   31  N6  UNL     1      20.971  40.461  20.381  1.00  0.00    -0.003 N 
HETATM   32  N10 UNL     1      21.383  40.936  19.208  1.00  0.00    -0.253 N 
ATOM     33  H10 UNL     1      20.808  40.980  18.367  1.00  0.00     0.190 HD
BRANCH  31  34
HETATM   34  C10 UNL     1      19.680  39.937  20.680  1.00  0.00     0.720 A 
HETATM   35  N7  UNL     1      18.759  40.677  21.320  1.00  0.00    -0.151 N 
HETATM   36  C11 UNL     1      17.531  40.211  21.618  1.00  0.00     0.295 A 
ATOM     37  H7  UNL     1      18.999  41.631  21.590  1.00  0.00     0.188 HD
HETATM   38  O4  UNL     1      16.673  40.926  22.225  1.00  0.00    -0.265 OA
HETATM   39  C12 UNL     1      17.207  38.929  21.254  1.00  0.00     0.162 A 
HETATM   40  C13 UNL     1      18.153  38.168  20.596  1.00  0.00     0.120 A 
HETATM   41  N9  UNL     1      19.366  38.688  20.324  1.00  0.00    -0.185 N 
ATOM     42  H9  UNL     1      20.058  38.117  19.837  1.00  0.00     0.184 HD
BRANCH  39  43
HETATM   43  O5  UNL     1      15.941  38.428  21.555  1.00  0.00    -0.354 OA
ATOM     44  H5  UNL     1      15.651  37.615  21.155  1.00  0.00     0.218 HD
ENDBRANCH  39  43
BRANCH  40  45
HETATM   45  C14 UNL     1      17.781  36.782  20.212  1.00  0.00     0.370 C 
BRANCH  45  46
HETATM   46  N8  UNL     1      16.689  36.835  19.253  1.00  0.00    -0.047 N 
ATOM     47  H83 UNL     1      15.990  37.535  19.497  1.00  0.00     0.277 HD
ATOM     48  H82 UNL     1      16.978  37.228  18.356  1.00  0.00     0.277 HD
ATOM     49  H81 UNL     1      16.287  35.901  19.157  1.00  0.00     0.277 HD
ENDBRANCH  45  46
BRANCH  45  50
HETATM   50  O6  UNL     1      17.331  36.072  21.317  1.00  0.00    -0.365 OA
ATOM     51  H6  UNL     1      17.989  35.450  21.607  1.00  0.00     0.212 HD
ENDBRANCH  45  50
ENDBRANCH  40  45
ENDBRANCH  31  34
ENDBRANCH   1  27
TORSDOF 11
ENDMDL
MODEL 4
REMARK VINA RESULT: -7.494296684      2.591      6.417
REMARK  11 active torsions:
REMARK  status: ('A' for Active; 'I' for Inactive)
REMARK    1  A    between atoms: C2_2  and  N1_3 
REMARK       I    between atoms: N1_3  and  C3_4 
REMARK    2  A    between atoms: N1_3  and  C15_45 
REMARK    3  A    between atoms: C3_4  and  C4_6 
REMARK    4  A    between atoms: C6_11  and  N3_12 
REMARK       I    between atoms: N3_12  and  C7_14 
REMARK    5  A    between atoms: C7_14  and  C8_16 
REMARK    6  A    between atoms: C8_16  and  C9_17 
REMARK    7  A    between atoms: N6_21  and  C10_22 
REMARK    8  A    between atoms: C12_27  and  O5_28 
REMARK    9  A    between atoms: C13_30  and  C14_31 
REMARK   10  A    between atoms: C14_31  and  N8_32 
REMARK   11  A    between atoms: C14_31  and  O6_36 
ROOT
HETATM    1  C8  UNL     1      19.829  42.890  16.148  1.00  0.00     0.181 C 
ENDROOT
BRANCH   1   2
HETATM    2  C7  UNL     1      21.061  43.051  16.920  1.00  0.00     0.226 C 
HETATM    3  N3  UNL     1      22.150  42.149  16.837  1.00  0.00    -0.325 N 
ATOM      4  H3  UNL     1      22.061  41.353  16.206  1.00  0.00     0.165 HD
HETATM    5  O3  UNL     1      21.202  44.032  17.714  1.00  0.00    -0.273 OA
BRANCH   3   6
HETATM    6  C6  UNL     1      23.367  42.280  17.578  1.00  0.00     0.382 C 
HETATM    7  C5  UNL     1      24.249  41.103  17.519  1.00  0.00     0.270 C 
HETATM    8  N2  UNL     1      24.140  40.488  18.791  1.00  0.00    -0.322 N 
HETATM    9  O2  UNL     1      24.968  40.674  16.589  1.00  0.00    -0.269 OA
HETATM   10  C4  UNL     1      22.904  40.966  19.445  1.00  0.00     0.383 C 
ATOM     11  H2  UNL     1      24.805  39.825  19.189  1.00  0.00     0.165 HD
HETATM   12  N11 UNL     1      22.999  42.370  19.001  1.00  0.00    -0.016 N 
ATOM     13 2H11 UNL     1      22.160  42.922  19.182  1.00  0.00     0.283 HD
ATOM     14 1H11 UNL     1      23.633  42.942  19.560  1.00  0.00     0.283 HD
BRANCH  10  15
HETATM   15  C3  UNL     1      23.050  40.964  20.913  1.00  0.00     0.277 C 
HETATM   16  N1  UNL     1      22.050  40.595  21.842  1.00  0.00    -0.287 N 
HETATM   17  O1  UNL     1      24.175  41.329  21.331  1.00  0.00    -0.269 OA
BRANCH  16  18
HETATM   18  C2  UNL     1      20.732  40.136  21.435  1.00  0.00     0.130 C 
HETATM   19  C1  UNL     1      20.774  38.620  21.394  1.00  0.00     0.027 C 
ENDBRANCH  16  18
BRANCH  16  20
HETATM   20  C15 UNL     1      22.279  40.645  23.243  1.00  0.00     0.180 C 
HETATM   21  N12 UNL     1      21.406  41.102  24.114  1.00  0.00    -0.360 N 
HETATM   22  C16 UNL     1      21.896  41.037  25.453  1.00  0.00     0.142 C 
ATOM     23  H12 UNL     1      20.486  41.462  23.862  1.00  0.00     0.162 HD
HETATM   24  C17 UNL     1      23.403  41.006  25.238  1.00  0.00     0.142 C 
HETATM   25  N13 UNL     1      23.426  40.232  23.980  1.00  0.00    -0.360 N 
ATOM     26  H13 UNL     1      24.120  39.541  23.697  1.00  0.00     0.162 HD
ENDBRANCH  16  20
ENDBRANCH  10  15
ENDBRANCH   3   6
ENDBRANCH   1   2
BRANCH   1  27
HETATM   27  C9  UNL     1      18.824  42.074  16.906  1.00  0.00     0.119 A 
HETATM   28  N4  UNL     1      17.631  41.622  16.456  1.00  0.00    -0.269 N 
HETATM   29  N5  UNL     1      17.066  40.945  17.445  1.00  0.00     0.018 NA
ATOM     30  H4  UNL     1      17.239  41.775  15.527  1.00  0.00     0.185 HD
HETATM   31  N6  UNL     1      17.840  40.938  18.516  1.00  0.00    -0.003 N 
HETATM   32  N10 UNL     1      18.920  41.637  18.173  1.00  0.00    -0.253 N 
ATOM     33  H10 UNL     1      19.712  41.816  18.788  1.00  0.00     0.190 HD
BRANCH  31  34
HETATM   34  C10 UNL     1      17.592  40.321  19.776  1.00  0.00     0.720 A 
HETATM   35  N7  UNL     1      17.563  41.041  20.911  1.00  0.00    -0.151 N 
HETATM   36  C11 UNL     1      17.333  40.488  22.117  1.00  0.00     0.295 A 
ATOM     37  H7  UNL     1      17.723  42.047  20.856  1.00  0.00     0.188 HD
HETATM   38  O4  UNL     1      17.311  41.185  23.180  1.00  0.00    -0.265 OA
HETATM   39  C12 UNL     1      17.118  39.135  22.192  1.00  0.00     0.162 A 
HETATM   40  C13 UNL     1      17.146  38.395  21.026  1.00  0.00     0.120 A 
HETATM   41  N9  UNL     1      17.381  39.003  19.847  1.00  0.00    -0.185 N 
ATOM     42  H9  UNL     1      17.400  38.447  18.991  1.00  0.00     0.184 HD
BRANCH  39  43
HETATM   43  O5  UNL     1      16.878  38.544  23.431  1.00  0.00    -0.354 OA
ATOM     44  H5  UNL     1      16.480  37.682  23.471  1.00  0.00     0.218 HD
ENDBRANCH  39  43
BRANCH  40  45
HETATM   45  C14 UNL     1      16.911  36.932  21.130  1.00  0.00     0.370 C 
BRANCH  45  46
HETATM   46  N8  UNL     1      18.157  36.280  21.503  1.00  0.00    -0.047 N 
ATOM     47  H83 UNL     1      18.884  36.947  21.759  1.00  0.00     0.277 HD
ATOM     48  H82 UNL     1      18.087  35.794  22.398  1.00  0.00     0.277 HD
ATOM     49  H81 UNL     1      18.446  35.661  20.746  1.00  0.00     0.277 HD
ENDBRANCH  45  46
BRANCH  45  50
HETATM   50  O6  UNL     1      16.519  36.410  19.904  1.00  0.00    -0.365 OA
ATOM     51  H6  UNL     1      15.641  36.699  19.683  1.00  0.00     0.212 HD
ENDBRANCH  45  50
ENDBRANCH  40  45
ENDBRANCH  31  34
ENDBRANCH   1  27
TORSDOF 11
ENDMDL
MODEL 5
REMARK VINA RESULT: -7.368099964      1.545      2.081
REMARK  11 active torsions:
REMARK  status: ('A' for Active; 'I' for Inactive)
REMARK    1  A    between atoms: C2_2  and  N1_3 
REMARK       I    between atoms: N1_3  and  C3_4 
REMARK    2  A    between atoms: N1_3  and  C15_45 
REMARK    3  A    between atoms: C3_4  and  C4_6 
REMARK    4  A    between atoms: C6_11  and  N3_12 
REMARK       I    between atoms: N3_12  and  C7_14 
REMARK    5  A    between atoms: C7_14  and  C8_16 
REMARK    6  A    between atoms: C8_16  and  C9_17 
REMARK    7  A    between atoms: N6_21  and  C10_22 
REMARK    8  A    between atoms: C12_27  and  O5_28 
REMARK    9  A    between atoms: C13_30  and  C14_31 
REMARK   10  A    between atoms: C14_31  and  N8_32 
REMARK   11  A    between atoms: C14_31  and  O6_36 
ROOT
HETATM    1  C8  UNL     1      24.255  41.568  20.617  1.00  0.00     0.181 C 
ENDROOT
BRANCH   1   2
HETATM    2  C7  UNL     1      24.020  41.396  19.184  1.00  0.00     0.226 C 
HETATM    3  N3  UNL     1      23.808  42.480  18.297  1.00  0.00    -0.325 N 
ATOM      4  H3  UNL     1      23.822  43.422  18.687  1.00  0.00     0.165 HD
HETATM    5  O3  UNL     1      23.997  40.235  18.668  1.00  0.00    -0.273 OA
BRANCH   3   6
HETATM    6  C6  UNL     1      23.576  42.343  16.893  1.00  0.00     0.382 C 
HETATM    7  C5  UNL     1      23.620  43.607  16.139  1.00  0.00     0.270 C 
HETATM    8  N2  UNL     1      22.271  43.898  15.813  1.00  0.00    -0.322 N 
HETATM    9  O2  UNL     1      24.592  44.325  15.816  1.00  0.00    -0.269 OA
HETATM   10  C4  UNL     1      21.389  43.127  16.715  1.00  0.00     0.383 C 
ATOM     11  H2  UNL     1      21.961  44.533  15.079  1.00  0.00     0.165 HD
HETATM   12  N11 UNL     1      22.186  41.885  16.726  1.00  0.00    -0.016 N 
ATOM     13 2H11 UNL     1      21.885  41.203  17.422  1.00  0.00     0.283 HD
ATOM     14 1H11 UNL     1      22.038  41.289  15.912  1.00  0.00     0.283 HD
BRANCH  10  15
HETATM   15  C3  UNL     1      20.107  42.814  16.057  1.00  0.00     0.277 C 
HETATM   16  N1  UNL     1      18.877  42.582  16.714  1.00  0.00    -0.287 N 
HETATM   17  O1  UNL     1      20.157  42.759  14.805  1.00  0.00    -0.269 OA
BRANCH  16  18
HETATM   18  C2  UNL     1      18.732  42.655  18.159  1.00  0.00     0.130 C 
HETATM   19  C1  UNL     1      18.673  41.232  18.680  1.00  0.00     0.027 C 
ENDBRANCH  16  18
BRANCH  16  20
HETATM   20  C15 UNL     1      17.694  42.267  15.992  1.00  0.00     0.180 C 
HETATM   21  N12 UNL     1      16.516  42.794  16.248  1.00  0.00    -0.360 N 
HETATM   22  C16 UNL     1      15.503  42.299  15.372  1.00  0.00     0.142 C 
ATOM     23  H12 UNL     1      16.345  43.476  16.986  1.00  0.00     0.162 HD
HETATM   24  C17 UNL     1      16.101  40.975  14.913  1.00  0.00     0.142 C 
HETATM   25  N13 UNL     1      17.523  41.375  14.896  1.00  0.00    -0.360 N 
ATOM     26  H13 UNL     1      18.236  41.074  14.233  1.00  0.00     0.162 HD
ENDBRANCH  16  20
ENDBRANCH  10  15
ENDBRANCH   3   6
ENDBRANCH   1   2
BRANCH   1  27
HETATM   27  C9  UNL     1      23.091  41.062  21.416  1.00  0.00     0.119 A 
HETATM   28  N4  UNL     1      23.017  40.932  22.760  1.00  0.00    -0.269 N 
HETATM   29  N5  UNL     1      21.815  40.452  23.045  1.00  0.00     0.018 NA
ATOM     30  H4  UNL     1      23.750  41.160  23.430  1.00  0.00     0.185 HD
HETATM   31  N6  UNL     1      21.107  40.266  21.946  1.00  0.00    -0.003 N 
HETATM   32  N10 UNL     1      21.903  40.644  20.948  1.00  0.00    -0.253 N 
ATOM     33  H10 UNL     1      21.645  40.620  19.962  1.00  0.00     0.190 HD
BRANCH  31  34
HETATM   34  C10 UNL     1      19.776  39.769  21.830  1.00  0.00     0.720 A 
HETATM   35  N7  UNL     1      18.727  40.476  22.283  1.00  0.00    -0.151 N 
HETATM   36  C11 UNL     1      17.458  40.034  22.190  1.00  0.00     0.295 A 
ATOM     37  H7  UNL     1      18.898  41.385  22.714  1.00  0.00     0.188 HD
HETATM   38  O4  UNL     1      16.478  40.718  22.624  1.00  0.00    -0.265 OA
HETATM   39  C12 UNL     1      17.226  38.813  21.610  1.00  0.00     0.162 A 
HETATM   40  C13 UNL     1      18.304  38.086  21.144  1.00  0.00     0.120 A 
HETATM   41  N9  UNL     1      19.552  38.579  21.264  1.00  0.00    -0.185 N 
ATOM     42  H9  UNL     1      20.342  38.033  20.917  1.00  0.00     0.184 HD
BRANCH  39  43
HETATM   43  O5  UNL     1      15.920  38.338  21.505  1.00  0.00    -0.354 OA
ATOM     44  H5  UNL     1      15.695  37.496  21.884  1.00  0.00     0.218 HD
ENDBRANCH  39  43
BRANCH  40  45
HETATM   45  C14 UNL     1      18.030  36.766  20.521  1.00  0.00     0.370 C 
BRANCH  45  46
HETATM   46  N8  UNL     1      17.154  36.957  19.376  1.00  0.00    -0.047 N 
ATOM     47  H83 UNL     1      16.961  36.084  18.884  1.00  0.00     0.277 HD
ATOM     48  H82 UNL     1      16.197  37.180  19.652  1.00  0.00     0.277 HD
ATOM     49  H81 UNL     1      17.558  37.666  18.764  1.00  0.00     0.277 HD
ENDBRANCH  45  46
BRANCH  45  50
HETATM   50  O6  UNL     1      17.374  35.929  21.413  1.00  0.00    -0.365 OA
ATOM     51  H6  UNL     1      17.982  35.581  22.056  1.00  0.00     0.212 HD
ENDBRANCH  45  50
ENDBRANCH  40  45
ENDBRANCH  31  34
ENDBRANCH   1  27
TORSDOF 11
ENDMDL
