MODEL 1
REMARK VINA RESULT: -8.902700297      0.000      0.000
REMARK  8 active torsions:
REMARK  status: ('A' for Active; 'I' for Inactive)
REMARK    1  A    between atoms: O1_2  and  C2_3 
REMARK    2  A    between atoms: N1_5  and  C4_6 
REMARK    3  A    between atoms: C5_9  and  N3_10 
REMARK    4  A    between atoms: C8_13  and  C9_14 
REMARK    5  A    between atoms: C13_20  and  C14_21 
REMARK    6  A    between atoms: C14_21  and  N4_22 
REMARK    7  A    between atoms: C16_27  and  N5_28 
REMARK    8  A    between atoms: N5_28  and  C17_31 
ROOT
HETATM    1  C4  UNL     1      16.155 -13.737  20.657  1.00  0.00     0.113 A 
HETATM    2  N2  UNL     1      16.809 -14.179  21.746  1.00  0.00    -0.328 N 
ATOM      3  H2  UNL     1      16.248 -14.545  22.516  1.00  0.00     0.169 HD
HETATM    4  C5  UNL     1      18.180 -14.178  21.904  1.00  0.00     0.104 A 
HETATM    5  C11 UNL     1      18.868 -13.672  20.844  1.00  0.00     0.049 A 
HETATM    6  C12 UNL     1      18.244 -13.208  19.685  1.00  0.00     0.016 A 
HETATM    7  C13 UNL     1      16.845 -13.239  19.576  1.00  0.00     0.011 A 
ENDROOT
BRANCH   1   8
HETATM    8  N1  UNL     1      14.728 -13.964  20.569  1.00  0.00    -0.362 N 
HETATM    9  C3  UNL     1      13.843 -14.432  19.581  1.00  0.00     0.158 C 
HETATM   10  C2  UNL     1      12.616 -14.914  20.454  1.00  0.00     0.171 C 
HETATM   11  C16 UNL     1      12.485 -13.763  21.337  1.00  0.00     0.234 C 
HETATM   12  C15 UNL     1      13.956 -13.606  21.796  1.00  0.00     0.160 C 
BRANCH  10  13
HETATM   13  O1  UNL     1      11.610 -15.265  19.602  1.00  0.00    -0.387 OA
HETATM   14  C1  UNL     1      11.856 -16.601  19.206  1.00  0.00     0.202 C 
ENDBRANCH  10  13
BRANCH  11  15
HETATM   15  N5  UNL     1      11.625 -13.694  22.436  1.00  0.00    -0.062 N 
ATOM     16  H52 UNL     1      10.658 -13.867  22.161  1.00  0.00     0.278 HD
ATOM     17  H51 UNL     1      11.758 -14.489  23.061  1.00  0.00     0.278 HD
BRANCH  15  18
HETATM   18  C17 UNL     1      11.751 -12.454  23.140  1.00  0.00     0.190 C 
HETATM   19  C18 UNL     1      12.008 -11.234  22.359  1.00  0.00     0.059 C 
HETATM   20  C19 UNL     1      12.232 -10.051  23.302  1.00  0.00     0.169 C 
HETATM   21  O2  UNL     1      11.176  -9.959  24.168  1.00  0.00    -0.391 OA
HETATM   22  C20 UNL     1      11.168 -11.057  25.023  1.00  0.00     0.169 C 
HETATM   23  C21 UNL     1      10.721 -12.279  24.216  1.00  0.00     0.059 C 
ENDBRANCH  15  18
ENDBRANCH  11  15
ENDBRANCH   1   8
BRANCH   7  24
HETATM   24  C14 UNL     1      16.132 -12.678  18.432  1.00  0.00     0.271 C 
BRANCH  24  25
HETATM   25  N4  UNL     1      17.071 -12.502  17.286  1.00  0.00    -0.075 N 
ATOM     26  H43 UNL     1      17.876 -13.126  17.350  1.00  0.00     0.274 HD
ATOM     27  H42 UNL     1      16.679 -12.854  16.412  1.00  0.00     0.274 HD
ATOM     28  H41 UNL     1      17.351 -11.524  17.214  1.00  0.00     0.274 HD
ENDBRANCH  24  25
ENDBRANCH   7  24
BRANCH   4  29
HETATM   29  N3  UNL     1      18.731 -14.750  23.074  1.00  0.00    -0.367 N 
HETATM   30  C6  UNL     1      18.153 -15.866  23.810  1.00  0.00     0.125 C 
HETATM   31  C7  UNL     1      18.349 -15.427  25.267  1.00  0.00     0.031 C 
HETATM   32  C8  UNL     1      19.324 -14.306  25.230  1.00  0.00     0.070 C 
HETATM   33  C10 UNL     1      19.904 -14.439  23.802  1.00  0.00     0.134 C 
BRANCH  32  34
HETATM   34  C9  UNL     1      20.429 -14.386  26.262  1.00  0.00     0.358 C 
HETATM   35  F1  UNL     1      20.922 -13.074  26.350  1.00  0.00    -0.214 F 
HETATM   36  F2  UNL     1      19.823 -14.734  27.462  1.00  0.00    -0.214 F 
ENDBRANCH  32  34
ENDBRANCH   4  29
TORSDOF 8
ENDMDL
MODEL 2
REMARK VINA RESULT: -8.855273287      1.162      1.215
REMARK  8 active torsions:
REMARK  status: ('A' for Active; 'I' for Inactive)
REMARK    1  A    between atoms: O1_2  and  C2_3 
REMARK    2  A    between atoms: N1_5  and  C4_6 
REMARK    3  A    between atoms: C5_9  and  N3_10 
REMARK    4  A    between atoms: C8_13  and  C9_14 
REMARK    5  A    between atoms: C13_20  and  C14_21 
REMARK    6  A    between atoms: C14_21  and  N4_22 
REMARK    7  A    between atoms: C16_27  and  N5_28 
REMARK    8  A    between atoms: N5_28  and  C17_31 
ROOT
HETATM    1  C4  UNL     1      16.722 -14.395  21.235  1.00  0.00     0.113 A 
HETATM    2  N2  UNL     1      17.421 -14.712  22.340  1.00  0.00    -0.328 N 
ATOM      3  H2  UNL     1      16.913 -15.155  23.106  1.00  0.00     0.169 HD
HETATM    4  C5  UNL     1      18.770 -14.484  22.519  1.00  0.00     0.104 A 
HETATM    5  C11 UNL     1      19.385 -13.886  21.462  1.00  0.00     0.049 A 
HETATM    6  C12 UNL     1      18.714 -13.544  20.287  1.00  0.00     0.016 A 
HETATM    7  C13 UNL     1      17.341 -13.804  20.157  1.00  0.00     0.011 A 
ENDROOT
BRANCH   1   8
HETATM    8  N1  UNL     1      15.354 -14.853  21.128  1.00  0.00    -0.362 N 
HETATM    9  C3  UNL     1      14.676 -15.837  20.385  1.00  0.00     0.158 C 
HETATM   10  C2  UNL     1      13.382 -16.067  21.263  1.00  0.00     0.171 C 
HETATM   11  C16 UNL     1      13.011 -14.679  21.508  1.00  0.00     0.234 C 
HETATM   12  C15 UNL     1      14.374 -14.114  21.979  1.00  0.00     0.160 C 
BRANCH  10  13
HETATM   13  O1  UNL     1      12.555 -16.906  20.577  1.00  0.00    -0.387 OA
HETATM   14  C1  UNL     1      12.312 -16.304  19.319  1.00  0.00     0.202 C 
ENDBRANCH  10  13
BRANCH  11  15
HETATM   15  N5  UNL     1      11.991 -14.266  22.369  1.00  0.00    -0.062 N 
ATOM     16  H52 UNL     1      11.074 -14.544  22.017  1.00  0.00     0.278 HD
ATOM     17  H51 UNL     1      12.000 -14.802  23.236  1.00  0.00     0.278 HD
BRANCH  15  18
HETATM   18  C17 UNL     1      12.044 -12.859  22.627  1.00  0.00     0.190 C 
HETATM   19  C18 UNL     1      12.051 -11.941  21.478  1.00  0.00     0.059 C 
HETATM   20  C19 UNL     1      12.236 -10.502  21.964  1.00  0.00     0.169 C 
HETATM   21  O2  UNL     1      11.287 -10.221  22.910  1.00  0.00    -0.391 OA
HETATM   22  C20 UNL     1      11.519 -10.981  24.053  1.00  0.00     0.169 C 
HETATM   23  C21 UNL     1      11.136 -12.430  23.742  1.00  0.00     0.059 C 
ENDBRANCH  15  18
ENDBRANCH  11  15
ENDBRANCH   1   8
BRANCH   7  24
HETATM   24  C14 UNL     1      16.567 -13.382  18.993  1.00  0.00     0.271 C 
BRANCH  24  25
HETATM   25  N4  UNL     1      15.855 -12.105  19.294  1.00  0.00    -0.075 N 
ATOM     26  H43 UNL     1      15.569 -12.047  20.271  1.00  0.00     0.274 HD
ATOM     27  H42 UNL     1      16.485 -11.302  19.275  1.00  0.00     0.274 HD
ATOM     28  H41 UNL     1      15.067 -11.989  18.657  1.00  0.00     0.274 HD
ENDBRANCH  24  25
ENDBRANCH   7  24
BRANCH   4  29
HETATM   29  N3  UNL     1      19.385 -14.945  23.706  1.00  0.00    -0.367 N 
HETATM   30  C6  UNL     1      18.941 -16.090  24.488  1.00  0.00     0.125 C 
HETATM   31  C7  UNL     1      19.090 -15.576  25.926  1.00  0.00     0.031 C 
HETATM   32  C8  UNL     1      19.931 -14.353  25.840  1.00  0.00     0.070 C 
HETATM   33  C10 UNL     1      20.518 -14.474  24.413  1.00  0.00     0.134 C 
BRANCH  32  34
HETATM   34  C9  UNL     1      21.041 -14.267  26.865  1.00  0.00     0.358 C 
HETATM   35  F1  UNL     1      22.197 -14.015  26.110  1.00  0.00    -0.214 F 
HETATM   36  F2  UNL     1      20.757 -13.163  27.660  1.00  0.00    -0.214 F 
ENDBRANCH  32  34
ENDBRANCH   4  29
TORSDOF 8
ENDMDL
MODEL 3
REMARK VINA RESULT: -8.853635833      2.062      3.476
REMARK  8 active torsions:
REMARK  status: ('A' for Active; 'I' for Inactive)
REMARK    1  A    between atoms: O1_2  and  C2_3 
REMARK    2  A    between atoms: N1_5  and  C4_6 
REMARK    3  A    between atoms: C5_9  and  N3_10 
REMARK    4  A    between atoms: C8_13  and  C9_14 
REMARK    5  A    between atoms: C13_20  and  C14_21 
REMARK    6  A    between atoms: C14_21  and  N4_22 
REMARK    7  A    between atoms: C16_27  and  N5_28 
REMARK    8  A    between atoms: N5_28  and  C17_31 
ROOT
HETATM    1  C4  UNL     1      16.843 -15.378  21.690  1.00  0.00     0.113 A 
HETATM    2  N2  UNL     1      17.762 -15.368  22.673  1.00  0.00    -0.328 N 
ATOM      3  H2  UNL     1      18.329 -14.526  22.778  1.00  0.00     0.169 HD
HETATM    4  C5  UNL     1      17.999 -16.407  23.550  1.00  0.00     0.104 A 
HETATM    5  C11 UNL     1      17.213 -17.501  23.351  1.00  0.00     0.049 A 
HETATM    6  C12 UNL     1      16.237 -17.564  22.356  1.00  0.00     0.016 A 
HETATM    7  C13 UNL     1      16.036 -16.475  21.495  1.00  0.00     0.011 A 
ENDROOT
BRANCH   1   8
HETATM    8  N1  UNL     1      16.594 -14.152  20.965  1.00  0.00    -0.362 N 
HETATM    9  C3  UNL     1      17.023 -13.599  19.744  1.00  0.00     0.158 C 
HETATM   10  C2  UNL     1      15.871 -12.560  19.441  1.00  0.00     0.171 C 
HETATM   11  C16 UNL     1      15.767 -11.931  20.751  1.00  0.00     0.234 C 
HETATM   12  C15 UNL     1      15.680 -13.190  21.649  1.00  0.00     0.160 C 
BRANCH  10  13
HETATM   13  O1  UNL     1      16.236 -11.841  18.342  1.00  0.00    -0.387 OA
HETATM   14  C1  UNL     1      16.730 -12.766  17.391  1.00  0.00     0.202 C 
ENDBRANCH  10  13
BRANCH  11  15
HETATM   15  N5  UNL     1      14.785 -11.005  21.116  1.00  0.00    -0.062 N 
ATOM     16  H52 UNL     1      15.166 -10.285  21.730  1.00  0.00     0.278 HD
ATOM     17  H51 UNL     1      14.518 -10.419  20.326  1.00  0.00     0.278 HD
BRANCH  15  18
HETATM   18  C17 UNL     1      13.643 -11.638  21.703  1.00  0.00     0.190 C 
HETATM   19  C18 UNL     1      12.895 -10.904  22.734  1.00  0.00     0.059 C 
HETATM   20  C19 UNL     1      11.798 -11.798  23.315  1.00  0.00     0.169 C 
HETATM   21  O2  UNL     1      11.028 -12.286  22.295  1.00  0.00    -0.391 OA
HETATM   22  C20 UNL     1      11.777 -13.161  21.512  1.00  0.00     0.169 C 
HETATM   23  C21 UNL     1      12.771 -12.329  20.697  1.00  0.00     0.059 C 
ENDBRANCH  15  18
ENDBRANCH  11  15
ENDBRANCH   1   8
BRANCH   7  24
HETATM   24  C14 UNL     1      15.100 -16.520  20.375  1.00  0.00     0.271 C 
BRANCH  24  25
HETATM   25  N4  UNL     1      13.718 -16.229  20.856  1.00  0.00    -0.075 N 
ATOM     26  H43 UNL     1      13.285 -17.042  21.294  1.00  0.00     0.274 HD
ATOM     27  H42 UNL     1      13.718 -15.607  21.665  1.00  0.00     0.274 HD
ATOM     28  H41 UNL     1      13.154 -15.861  20.090  1.00  0.00     0.274 HD
ENDBRANCH  24  25
ENDBRANCH   7  24
BRANCH   4  29
HETATM   29  N3  UNL     1      18.944 -16.221  24.585  1.00  0.00    -0.367 N 
HETATM   30  C6  UNL     1      18.930 -16.915  25.865  1.00  0.00     0.125 C 
HETATM   31  C7  UNL     1      19.285 -15.791  26.846  1.00  0.00     0.031 C 
HETATM   32  C8  UNL     1      19.815 -14.676  26.019  1.00  0.00     0.070 C 
HETATM   33  C10 UNL     1      20.083 -15.384  24.669  1.00  0.00     0.134 C 
BRANCH  32  34
HETATM   34  C9  UNL     1      21.082 -14.036  26.544  1.00  0.00     0.358 C 
HETATM   35  F1  UNL     1      20.646 -13.191  27.576  1.00  0.00    -0.214 F 
HETATM   36  F2  UNL     1      21.849 -15.064  27.080  1.00  0.00    -0.214 F 
ENDBRANCH  32  34
ENDBRANCH   4  29
TORSDOF 8
ENDMDL
MODEL 4
REMARK VINA RESULT: -8.848124046      1.399      3.758
REMARK  8 active torsions:
REMARK  status: ('A' for Active; 'I' for Inactive)
REMARK    1  A    between atoms: O1_2  and  C2_3 
REMARK    2  A    between atoms: N1_5  and  C4_6 
REMARK    3  A    between atoms: C5_9  and  N3_10 
REMARK    4  A    between atoms: C8_13  and  C9_14 
REMARK    5  A    between atoms: C13_20  and  C14_21 
REMARK    6  A    between atoms: C14_21  and  N4_22 
REMARK    7  A    between atoms: C16_27  and  N5_28 
REMARK    8  A    between atoms: N5_28  and  C17_31 
ROOT
HETATM    1  C4  UNL     1      16.584 -13.257  21.445  1.00  0.00     0.113 A 
HETATM    2  N2  UNL     1      17.316 -13.732  22.468  1.00  0.00    -0.328 N 
ATOM      3  H2  UNL     1      16.851 -13.839  23.370  1.00  0.00     0.169 HD
HETATM    4  C5  UNL     1      18.647 -14.088  22.394  1.00  0.00     0.104 A 
HETATM    5  C11 UNL     1      19.208 -13.917  21.166  1.00  0.00     0.049 A 
HETATM    6  C12 UNL     1      18.496 -13.437  20.066  1.00  0.00     0.016 A 
HETATM    7  C13 UNL     1      17.141 -13.096  20.197  1.00  0.00     0.011 A 
ENDROOT
BRANCH   1   8
HETATM    8  N1  UNL     1      15.159 -13.093  21.632  1.00  0.00    -0.362 N 
HETATM    9  C3  UNL     1      14.282 -12.002  21.785  1.00  0.00     0.158 C 
HETATM   10  C2  UNL     1      12.902 -12.638  21.352  1.00  0.00     0.171 C 
HETATM   11  C16 UNL     1      12.965 -13.882  22.107  1.00  0.00     0.234 C 
HETATM   12  C15 UNL     1      14.383 -14.366  21.714  1.00  0.00     0.160 C 
BRANCH  10  13
HETATM   13  O1  UNL     1      11.925 -11.718  21.592  1.00  0.00    -0.387 OA
HETATM   14  C1  UNL     1      12.216 -11.128  22.846  1.00  0.00     0.202 C 
ENDBRANCH  10  13
BRANCH  11  15
HETATM   15  N5  UNL     1      12.047 -14.931  21.997  1.00  0.00    -0.062 N 
ATOM     16  H52 UNL     1      11.848 -15.345  22.907  1.00  0.00     0.278 HD
ATOM     17  H51 UNL     1      11.115 -14.584  21.770  1.00  0.00     0.278 HD
BRANCH  15  18
HETATM   18  C17 UNL     1      12.476 -15.921  21.057  1.00  0.00     0.190 C 
HETATM   19  C18 UNL     1      12.476 -17.329  21.482  1.00  0.00     0.059 C 
HETATM   20  C19 UNL     1      13.081 -18.204  20.382  1.00  0.00     0.169 C 
HETATM   21  O2  UNL     1      12.423 -17.966  19.206  1.00  0.00    -0.391 OA
HETATM   22  C20 UNL     1      12.686 -16.671  18.769  1.00  0.00     0.169 C 
HETATM   23  C21 UNL     1      11.922 -15.704  19.679  1.00  0.00     0.059 C 
ENDBRANCH  15  18
ENDBRANCH  11  15
ENDBRANCH   1   8
BRANCH   7  24
HETATM   24  C14 UNL     1      16.372 -12.498  19.109  1.00  0.00     0.271 C 
BRANCH  24  25
HETATM   25  N4  UNL     1      16.991 -12.849  17.798  1.00  0.00    -0.075 N 
ATOM     26  H43 UNL     1      17.707 -13.568  17.892  1.00  0.00     0.274 HD
ATOM     27  H42 UNL     1      16.346 -13.359  17.194  1.00  0.00     0.274 HD
ATOM     28  H41 UNL     1      17.351 -12.007  17.348  1.00  0.00     0.274 HD
ENDBRANCH  24  25
ENDBRANCH   7  24
BRANCH   4  29
HETATM   29  N3  UNL     1      19.265 -14.650  23.535  1.00  0.00    -0.367 N 
HETATM   30  C6  UNL     1      18.773 -15.808  24.268  1.00  0.00     0.125 C 
HETATM   31  C7  UNL     1      18.991 -15.385  25.726  1.00  0.00     0.031 C 
HETATM   32  C8  UNL     1      19.902 -14.211  25.681  1.00  0.00     0.070 C 
HETATM   33  C10 UNL     1      20.443 -14.287  24.233  1.00  0.00     0.134 C 
BRANCH  32  34
HETATM   34  C9  UNL     1      21.042 -14.248  26.676  1.00  0.00     0.358 C 
HETATM   35  F1  UNL     1      22.178 -13.919  25.920  1.00  0.00    -0.214 F 
HETATM   36  F2  UNL     1      20.792 -13.240  27.599  1.00  0.00    -0.214 F 
ENDBRANCH  32  34
ENDBRANCH   4  29
TORSDOF 8
ENDMDL
MODEL 5
REMARK VINA RESULT: -8.843563938      1.756      2.688
REMARK  8 active torsions:
REMARK  status: ('A' for Active; 'I' for Inactive)
REMARK    1  A    between atoms: O1_2  and  C2_3 
REMARK    2  A    between atoms: N1_5  and  C4_6 
REMARK    3  A    between atoms: C5_9  and  N3_10 
REMARK    4  A    between atoms: C8_13  and  C9_14 
REMARK    5  A    between atoms: C13_20  and  C14_21 
REMARK    6  A    between atoms: C14_21  and  N4_22 
REMARK    7  A    between atoms: C16_27  and  N5_28 
REMARK    8  A    between atoms: N5_28  and  C17_31 
ROOT
HETATM    1  C4  UNL     1      16.741 -15.086  21.082  1.00  0.00     0.113 A 
HETATM    2  N2  UNL     1      17.720 -14.608  21.871  1.00  0.00    -0.328 N 
ATOM      3  H2  UNL     1      17.800 -13.594  21.959  1.00  0.00     0.169 HD
HETATM    4  C5  UNL     1      18.625 -15.380  22.570  1.00  0.00     0.104 A 
HETATM    5  C11 UNL     1      18.466 -16.721  22.404  1.00  0.00     0.049 A 
HETATM    6  C12 UNL     1      17.463 -17.275  21.607  1.00  0.00     0.016 A 
HETATM    7  C13 UNL     1      16.566 -16.442  20.922  1.00  0.00     0.011 A 
ENDROOT
BRANCH   1   8
HETATM    8  N1  UNL     1      15.765 -14.159  20.552  1.00  0.00    -0.362 N 
HETATM    9  C3  UNL     1      15.736 -13.211  19.513  1.00  0.00     0.158 C 
HETATM   10  C2  UNL     1      14.185 -13.076  19.245  1.00  0.00     0.171 C 
HETATM   11  C16 UNL     1      13.715 -12.951  20.618  1.00  0.00     0.234 C 
HETATM   12  C15 UNL     1      14.453 -14.149  21.266  1.00  0.00     0.160 C 
BRANCH  10  13
HETATM   13  O1  UNL     1      14.002 -12.069  18.345  1.00  0.00    -0.387 OA
HETATM   14  C1  UNL     1      14.738 -12.415  17.186  1.00  0.00     0.202 C 
ENDBRANCH  10  13
BRANCH  11  15
HETATM   15  N5  UNL     1      12.373 -12.942  21.006  1.00  0.00    -0.062 N 
ATOM     16  H52 UNL     1      11.771 -12.623  20.246  1.00  0.00     0.278 HD
ATOM     17  H51 UNL     1      12.012 -13.890  21.109  1.00  0.00     0.278 HD
BRANCH  15  18
HETATM   18  C17 UNL     1      12.162 -12.173  22.195  1.00  0.00     0.190 C 
HETATM   19  C18 UNL     1      12.407 -10.724  22.138  1.00  0.00     0.059 C 
HETATM   20  C19 UNL     1      12.247 -10.115  23.532  1.00  0.00     0.169 C 
HETATM   21  O2  UNL     1      11.024 -10.465  24.037  1.00  0.00    -0.391 OA
HETATM   22  C20 UNL     1      10.984 -11.835  24.277  1.00  0.00     0.169 C 
HETATM   23  C21 UNL     1      10.906 -12.548  22.924  1.00  0.00     0.059 C 
ENDBRANCH  15  18
ENDBRANCH  11  15
ENDBRANCH   1   8
BRANCH   7  24
HETATM   24  C14 UNL     1      15.561 -16.959  19.998  1.00  0.00     0.271 C 
BRANCH  24  25
HETATM   25  N4  UNL     1      14.562 -17.780  20.742  1.00  0.00    -0.075 N 
ATOM     26  H43 UNL     1      14.187 -17.286  21.552  1.00  0.00     0.274 HD
ATOM     27  H42 UNL     1      13.693 -17.891  20.220  1.00  0.00     0.274 HD
ATOM     28  H41 UNL     1      14.973 -18.678  20.999  1.00  0.00     0.274 HD
ENDBRANCH  24  25
ENDBRANCH   7  24
BRANCH   4  29
HETATM   29  N3  UNL     1      19.549 -14.737  23.425  1.00  0.00    -0.367 N 
HETATM   30  C6  UNL     1      20.950 -14.494  23.111  1.00  0.00     0.125 C 
HETATM   31  C7  UNL     1      21.642 -14.827  24.438  1.00  0.00     0.031 C 
HETATM   32  C8  UNL     1      20.566 -14.872  25.462  1.00  0.00     0.070 C 
HETATM   33  C10 UNL     1      19.395 -14.184  24.720  1.00  0.00     0.134 C 
BRANCH  32  34
HETATM   34  C9  UNL     1      20.879 -14.142  26.751  1.00  0.00     0.358 C 
HETATM   35  F1  UNL     1      20.745 -12.783  26.426  1.00  0.00    -0.214 F 
HETATM   36  F2  UNL     1      19.889 -14.501  27.658  1.00  0.00    -0.214 F 
ENDBRANCH  32  34
ENDBRANCH   4  29
TORSDOF 8
ENDMDL
