MODEL 1
REMARK VINA RESULT: -6.593638045      0.000      0.000
REMARK  12 active torsions:
REMARK  status: ('A' for Active; 'I' for Inactive)
REMARK    1  A    between atoms: C2_2  and  O1_4 
REMARK    2  A    between atoms: O1_4  and  S1_5 
REMARK    3  A    between atoms: S1_5  and  C4_8 
REMARK    4  A    between atoms: C4_8  and  C5_9 
REMARK    5  A    between atoms: C5_9  and  N1_10 
REMARK    6  A    between atoms: N1_10  and  C6_12 
REMARK    7  A    between atoms: C6_12  and  N2_13 
REMARK    8  A    between atoms: C6_12  and  C13_25 
REMARK    9  A    between atoms: N2_13  and  C8_15 
REMARK   10  A    between atoms: C8_15  and  O4_16 
REMARK   11  A    between atoms: C8_15  and  C9_18 
REMARK   12  A    between atoms: C11_21  and  O6_22 
ROOT
HETATM    1  C6  UNL     1      17.582 -14.507  21.514  1.00  0.00     0.136 C 
ENDROOT
BRANCH   1   2
HETATM    2  N1  UNL     1      16.297 -14.039  21.869  1.00  0.00    -0.375 N 
ATOM      3  H1  UNL     1      16.246 -13.158  22.381  1.00  0.00     0.160 HD
BRANCH   2   4
HETATM    4  C5  UNL     1      15.111 -14.671  21.583  1.00  0.00     0.138 C 
BRANCH   4   5
HETATM    5  C4  UNL     1      14.426 -13.963  20.391  1.00  0.00     0.190 C 
BRANCH   5   6
HETATM    6  S1  UNL     1      14.096 -12.293  20.802  1.00  0.00     0.267 S 
HETATM    7  O2  UNL     1      15.362 -11.499  20.676  1.00  0.00    -0.199 OA
HETATM    8  O3  UNL     1      13.105 -11.697  19.825  1.00  0.00    -0.199 OA
BRANCH   6   9
HETATM    9  O1  UNL     1      13.563 -12.127  22.378  1.00  0.00    -0.271 OA
BRANCH   9  10
HETATM   10  C2  UNL     1      12.342 -11.516  22.509  1.00  0.00     0.134 C 
HETATM   11  C1  UNL     1      11.412 -12.484  23.223  1.00  0.00     0.040 C 
HETATM   12  C3  UNL     1      12.372 -10.266  23.367  1.00  0.00     0.040 C 
ENDBRANCH   9  10
ENDBRANCH   6   9
ENDBRANCH   5   6
ENDBRANCH   4   5
ENDBRANCH   2   4
ENDBRANCH   1   2
BRANCH   1  13
HETATM   13  N2  UNL     1      18.320 -15.253  22.483  1.00  0.00    -0.318 N 
HETATM   14  C7  UNL     1      18.733 -16.616  22.067  1.00  0.00     0.159 C 
BRANCH  13  15
HETATM   15  C8  UNL     1      18.718 -14.912  23.780  1.00  0.00     0.151 C 
BRANCH  15  16
HETATM   16  O4  UNL     1      17.728 -14.864  24.646  1.00  0.00    -0.345 OA
ATOM     17  H4  UNL     1      17.583 -14.002  25.017  1.00  0.00     0.219 HD
ENDBRANCH  15  16
BRANCH  15  18
HETATM   18  C9  UNL     1      20.009 -14.606  24.334  1.00  0.00     0.022 A 
HETATM   19  C10 UNL     1      20.165 -14.051  25.650  1.00  0.00     0.221 A 
HETATM   20  O5  UNL     1      21.435 -13.920  25.911  1.00  0.00    -0.326 OA
HETATM   21  C11 UNL     1      22.169 -14.323  24.922  1.00  0.00     0.178 A 
HETATM   22  C12 UNL     1      21.288 -14.759  23.920  1.00  0.00     0.077 A 
BRANCH  21  23
HETATM   23  O6  UNL     1      23.554 -14.317  24.880  1.00  0.00    -0.341 OA
ATOM     24  H6  UNL     1      24.130 -14.865  25.400  1.00  0.00     0.220 HD
ENDBRANCH  21  23
ENDBRANCH  15  18
ENDBRANCH  13  15
ENDBRANCH   1  13
BRANCH   1  25
HETATM   25  C13 UNL     1      18.502 -13.586  20.779  1.00  0.00     0.246 C 
HETATM   26 CL1  UNL     1      20.131 -14.164  20.464  1.00  0.00    -0.075 Cl
HETATM   27 CL2  UNL     1      17.743 -13.343  19.154  1.00  0.00    -0.075 Cl
HETATM   28 CL3  UNL     1      18.516 -11.951  21.504  1.00  0.00    -0.075 Cl
ENDBRANCH   1  25
TORSDOF 12
ENDMDL
MODEL 2
REMARK VINA RESULT: -6.567058171      3.082      4.288
REMARK  12 active torsions:
REMARK  status: ('A' for Active; 'I' for Inactive)
REMARK    1  A    between atoms: C2_2  and  O1_4 
REMARK    2  A    between atoms: O1_4  and  S1_5 
REMARK    3  A    between atoms: S1_5  and  C4_8 
REMARK    4  A    between atoms: C4_8  and  C5_9 
REMARK    5  A    between atoms: C5_9  and  N1_10 
REMARK    6  A    between atoms: N1_10  and  C6_12 
REMARK    7  A    between atoms: C6_12  and  N2_13 
REMARK    8  A    between atoms: C6_12  and  C13_25 
REMARK    9  A    between atoms: N2_13  and  C8_15 
REMARK   10  A    between atoms: C8_15  and  O4_16 
REMARK   11  A    between atoms: C8_15  and  C9_18 
REMARK   12  A    between atoms: C11_21  and  O6_22 
ROOT
HETATM    1  C6  UNL     1      14.341 -13.974  20.355  1.00  0.00     0.136 C 
ENDROOT
BRANCH   1   2
HETATM    2  N1  UNL     1      13.014 -13.515  20.201  1.00  0.00    -0.375 N 
ATOM      3  H1  UNL     1      12.681 -13.355  19.250  1.00  0.00     0.160 HD
BRANCH   2   4
HETATM    4  C5  UNL     1      12.132 -13.266  21.227  1.00  0.00     0.138 C 
BRANCH   4   5
HETATM    5  C4  UNL     1      12.870 -12.532  22.371  1.00  0.00     0.190 C 
BRANCH   5   6
HETATM    6  S1  UNL     1      12.825 -10.805  22.095  1.00  0.00     0.267 S 
HETATM    7  O2  UNL     1      13.981 -10.418  21.222  1.00  0.00    -0.199 OA
HETATM    8  O3  UNL     1      11.565 -10.424  21.347  1.00  0.00    -0.199 OA
BRANCH   6   9
HETATM    9  O1  UNL     1      12.967  -9.937  23.517  1.00  0.00    -0.271 OA
BRANCH   9  10
HETATM   10  C2  UNL     1      11.775  -9.597  24.103  1.00  0.00     0.134 C 
HETATM   11  C1  UNL     1      11.305 -10.789  24.925  1.00  0.00     0.040 C 
HETATM   12  C3  UNL     1      11.879  -8.441  25.079  1.00  0.00     0.040 C 
ENDBRANCH   9  10
ENDBRANCH   6   9
ENDBRANCH   5   6
ENDBRANCH   4   5
ENDBRANCH   2   4
ENDBRANCH   1   2
BRANCH   1  13
HETATM   13  N2  UNL     1      15.390 -13.222  19.743  1.00  0.00    -0.318 N 
HETATM   14  C7  UNL     1      15.198 -12.902  18.306  1.00  0.00     0.159 C 
BRANCH  13  15
HETATM   15  C8  UNL     1      16.588 -12.736  20.275  1.00  0.00     0.151 C 
BRANCH  15  16
HETATM   16  O4  UNL     1      16.536 -11.472  20.641  1.00  0.00    -0.345 OA
ATOM     17  H4  UNL     1      17.388 -11.070  20.761  1.00  0.00     0.219 HD
ENDBRANCH  15  16
BRANCH  15  18
HETATM   18  C9  UNL     1      17.863 -13.365  20.493  1.00  0.00     0.022 A 
HETATM   19  C10 UNL     1      18.960 -13.207  19.581  1.00  0.00     0.221 A 
HETATM   20  O5  UNL     1      19.998 -13.842  20.046  1.00  0.00    -0.326 OA
HETATM   21  C11 UNL     1      19.737 -14.418  21.177  1.00  0.00     0.178 A 
HETATM   22  C12 UNL     1      18.397 -14.127  21.475  1.00  0.00     0.077 A 
BRANCH  21  23
HETATM   23  O6  UNL     1      20.623 -15.170  21.932  1.00  0.00    -0.341 OA
ATOM     24  H6  UNL     1      20.413 -15.650  22.725  1.00  0.00     0.220 HD
ENDBRANCH  21  23
ENDBRANCH  15  18
ENDBRANCH  13  15
ENDBRANCH   1  13
BRANCH   1  25
HETATM   25  C13 UNL     1      14.616 -15.436  20.205  1.00  0.00     0.246 C 
HETATM   26 CL1  UNL     1      15.739 -15.915  18.942  1.00  0.00    -0.075 Cl
HETATM   27 CL2  UNL     1      15.382 -15.944  21.764  1.00  0.00    -0.075 Cl
HETATM   28 CL3  UNL     1      13.102 -16.387  20.132  1.00  0.00    -0.075 Cl
ENDBRANCH   1  25
TORSDOF 12
ENDMDL
MODEL 3
REMARK VINA RESULT: -6.536388784      2.572      3.621
REMARK  12 active torsions:
REMARK  status: ('A' for Active; 'I' for Inactive)
REMARK    1  A    between atoms: C2_2  and  O1_4 
REMARK    2  A    between atoms: O1_4  and  S1_5 
REMARK    3  A    between atoms: S1_5  and  C4_8 
REMARK    4  A    between atoms: C4_8  and  C5_9 
REMARK    5  A    between atoms: C5_9  and  N1_10 
REMARK    6  A    between atoms: N1_10  and  C6_12 
REMARK    7  A    between atoms: C6_12  and  N2_13 
REMARK    8  A    between atoms: C6_12  and  C13_25 
REMARK    9  A    between atoms: N2_13  and  C8_15 
REMARK   10  A    between atoms: C8_15  and  O4_16 
REMARK   11  A    between atoms: C8_15  and  C9_18 
REMARK   12  A    between atoms: C11_21  and  O6_22 
ROOT
HETATM    1  C6  UNL     1      14.702 -13.458  19.056  1.00  0.00     0.136 C 
ENDROOT
BRANCH   1   2
HETATM    2  N1  UNL     1      13.739 -12.594  19.622  1.00  0.00    -0.375 N 
ATOM      3  H1  UNL     1      13.763 -11.615  19.337  1.00  0.00     0.160 HD
BRANCH   2   4
HETATM    4  C5  UNL     1      12.770 -12.963  20.526  1.00  0.00     0.138 C 
BRANCH   4   5
HETATM    5  C4  UNL     1      13.143 -12.423  21.926  1.00  0.00     0.190 C 
BRANCH   5   6
HETATM    6  S1  UNL     1      12.982 -10.680  21.953  1.00  0.00     0.267 S 
HETATM    7  O2  UNL     1      14.159 -10.069  21.252  1.00  0.00    -0.199 OA
HETATM    8  O3  UNL     1      11.747 -10.254  21.189  1.00  0.00    -0.199 OA
BRANCH   6   9
HETATM    9  O1  UNL     1      12.967 -10.074  23.512  1.00  0.00    -0.271 OA
BRANCH   9  10
HETATM   10  C2  UNL     1      11.718  -9.796  24.006  1.00  0.00     0.134 C 
HETATM   11  C1  UNL     1      11.249 -11.010  24.794  1.00  0.00     0.040 C 
HETATM   12  C3  UNL     1      11.690  -8.637  24.983  1.00  0.00     0.040 C 
ENDBRANCH   9  10
ENDBRANCH   6   9
ENDBRANCH   5   6
ENDBRANCH   4   5
ENDBRANCH   2   4
ENDBRANCH   1   2
BRANCH   1  13
HETATM   13  N2  UNL     1      15.766 -13.921  19.889  1.00  0.00    -0.318 N 
HETATM   14  C7  UNL     1      15.947 -15.393  19.944  1.00  0.00     0.159 C 
BRANCH  13  15
HETATM   15  C8  UNL     1      16.676 -13.210  20.679  1.00  0.00     0.151 C 
BRANCH  15  16
HETATM   16  O4  UNL     1      16.437 -11.916  20.733  1.00  0.00    -0.345 OA
ATOM     17  H4  UNL     1      16.980 -11.400  20.149  1.00  0.00     0.219 HD
ENDBRANCH  15  16
BRANCH  15  18
HETATM   18  C9  UNL     1      17.820 -13.635  21.439  1.00  0.00     0.022 A 
HETATM   19  C10 UNL     1      17.709 -14.115  22.787  1.00  0.00     0.221 A 
HETATM   20  O5  UNL     1      18.887 -14.474  23.212  1.00  0.00    -0.326 OA
HETATM   21  C11 UNL     1      19.796 -14.295  22.306  1.00  0.00     0.178 A 
HETATM   22  C12 UNL     1      19.142 -13.768  21.181  1.00  0.00     0.077 A 
BRANCH  21  23
HETATM   23  O6  UNL     1      21.146 -14.576  22.439  1.00  0.00    -0.341 OA
ATOM     24  H6  UNL     1      21.862 -14.035  22.128  1.00  0.00     0.220 HD
ENDBRANCH  21  23
ENDBRANCH  15  18
ENDBRANCH  13  15
ENDBRANCH   1  13
BRANCH   1  25
HETATM   25  C13 UNL     1      15.229 -13.148  17.692  1.00  0.00     0.246 C 
HETATM   26 CL1  UNL     1      16.968 -12.951  17.529  1.00  0.00    -0.075 Cl
HETATM   27 CL2  UNL     1      14.799 -14.580  16.672  1.00  0.00    -0.075 Cl
HETATM   28 CL3  UNL     1      14.342 -11.790  16.936  1.00  0.00    -0.075 Cl
ENDBRANCH   1  25
TORSDOF 12
ENDMDL
MODEL 4
REMARK VINA RESULT: -6.516425388      2.625      7.310
REMARK  12 active torsions:
REMARK  status: ('A' for Active; 'I' for Inactive)
REMARK    1  A    between atoms: C2_2  and  O1_4 
REMARK    2  A    between atoms: O1_4  and  S1_5 
REMARK    3  A    between atoms: S1_5  and  C4_8 
REMARK    4  A    between atoms: C4_8  and  C5_9 
REMARK    5  A    between atoms: C5_9  and  N1_10 
REMARK    6  A    between atoms: N1_10  and  C6_12 
REMARK    7  A    between atoms: C6_12  and  N2_13 
REMARK    8  A    between atoms: C6_12  and  C13_25 
REMARK    9  A    between atoms: N2_13  and  C8_15 
REMARK   10  A    between atoms: C8_15  and  O4_16 
REMARK   11  A    between atoms: C8_15  and  C9_18 
REMARK   12  A    between atoms: C11_21  and  O6_22 
ROOT
HETATM    1  C6  UNL     1      15.700 -13.601  20.782  1.00  0.00     0.136 C 
ENDROOT
BRANCH   1   2
HETATM    2  N1  UNL     1      16.755 -13.143  21.603  1.00  0.00    -0.375 N 
ATOM      3  H1  UNL     1      16.638 -13.237  22.612  1.00  0.00     0.160 HD
BRANCH   2   4
HETATM    4  C5  UNL     1      17.928 -12.581  21.155  1.00  0.00     0.138 C 
BRANCH   4   5
HETATM    5  C4  UNL     1      18.852 -13.692  20.605  1.00  0.00     0.190 C 
BRANCH   5   6
HETATM    6  S1  UNL     1      19.664 -14.500  21.928  1.00  0.00     0.267 S 
HETATM    7  O2  UNL     1      19.629 -15.981  21.694  1.00  0.00    -0.199 OA
HETATM    8  O3  UNL     1      21.123 -14.098  21.974  1.00  0.00    -0.199 OA
BRANCH   6   9
HETATM    9  O1  UNL     1      18.914 -14.213  23.395  1.00  0.00    -0.271 OA
BRANCH   9  10
HETATM   10  C2  UNL     1      19.377 -14.978  24.435  1.00  0.00     0.134 C 
HETATM   11  C1  UNL     1      20.129 -14.061  25.387  1.00  0.00     0.040 C 
HETATM   12  C3  UNL     1      18.278 -15.617  25.262  1.00  0.00     0.040 C 
ENDBRANCH   9  10
ENDBRANCH   6   9
ENDBRANCH   5   6
ENDBRANCH   4   5
ENDBRANCH   2   4
ENDBRANCH   1   2
BRANCH   1  13
HETATM   13  N2  UNL     1      14.576 -12.742  20.587  1.00  0.00    -0.318 N 
HETATM   14  C7  UNL     1      13.860 -12.903  19.297  1.00  0.00     0.159 C 
BRANCH  13  15
HETATM   15  C8  UNL     1      14.034 -11.754  21.416  1.00  0.00     0.151 C 
BRANCH  15  16
HETATM   16  O4  UNL     1      14.666 -10.601  21.355  1.00  0.00    -0.345 OA
ATOM     17  H4  UNL     1      14.415 -10.063  20.614  1.00  0.00     0.219 HD
ENDBRANCH  15  16
BRANCH  15  18
HETATM   18  C9  UNL     1      12.915 -11.772  22.319  1.00  0.00     0.022 A 
HETATM   19  C10 UNL     1      12.440 -10.585  22.973  1.00  0.00     0.221 A 
HETATM   20  O5  UNL     1      11.394 -10.882  23.691  1.00  0.00    -0.326 OA
HETATM   21  C11 UNL     1      11.097 -12.140  23.602  1.00  0.00     0.178 A 
HETATM   22  C12 UNL     1      12.043 -12.716  22.742  1.00  0.00     0.077 A 
BRANCH  21  23
HETATM   23  O6  UNL     1      10.043 -12.775  24.241  1.00  0.00    -0.341 OA
ATOM     24  H6  UNL     1      10.107 -13.551  24.785  1.00  0.00     0.220 HD
ENDBRANCH  21  23
ENDBRANCH  15  18
ENDBRANCH  13  15
ENDBRANCH   1  13
BRANCH   1  25
HETATM   25  C13 UNL     1      15.234 -15.013  20.936  1.00  0.00     0.246 C 
HETATM   26 CL1  UNL     1      13.517 -15.266  21.207  1.00  0.00    -0.075 Cl
HETATM   27 CL2  UNL     1      15.606 -15.817  19.357  1.00  0.00    -0.075 Cl
HETATM   28 CL3  UNL     1      16.225 -15.909  22.127  1.00  0.00    -0.075 Cl
ENDBRANCH   1  25
TORSDOF 12
ENDMDL
MODEL 5
REMARK VINA RESULT: -6.464843880      1.082      1.380
REMARK  12 active torsions:
REMARK  status: ('A' for Active; 'I' for Inactive)
REMARK    1  A    between atoms: C2_2  and  O1_4 
REMARK    2  A    between atoms: O1_4  and  S1_5 
REMARK    3  A    between atoms: S1_5  and  C4_8 
REMARK    4  A    between atoms: C4_8  and  C5_9 
REMARK    5  A    between atoms: C5_9  and  N1_10 
REMARK    6  A    between atoms: N1_10  and  C6_12 
REMARK    7  A    between atoms: C6_12  and  N2_13 
REMARK    8  A    between atoms: C6_12  and  C13_25 
REMARK    9  A    between atoms: N2_13  and  C8_15 
REMARK   10  A    between atoms: C8_15  and  O4_16 
REMARK   11  A    between atoms: C8_15  and  C9_18 
REMARK   12  A    between atoms: C11_21  and  O6_22 
ROOT
HETATM    1  C6  UNL     1      17.292 -14.634  20.562  1.00  0.00     0.136 C 
ENDROOT
BRANCH   1   2
HETATM    2  N1  UNL     1      15.910 -14.402  20.383  1.00  0.00    -0.375 N 
ATOM      3  H1  UNL     1      15.633 -13.498  20.001  1.00  0.00     0.160 HD
BRANCH   2   4
HETATM    4  C5  UNL     1      14.907 -15.294  20.683  1.00  0.00     0.138 C 
BRANCH   4   5
HETATM    5  C4  UNL     1      13.537 -14.590  20.543  1.00  0.00     0.190 C 
BRANCH   5   6
HETATM    6  S1  UNL     1      13.620 -12.984  21.234  1.00  0.00     0.267 S 
HETATM    7  O2  UNL     1      14.548 -13.007  22.413  1.00  0.00    -0.199 OA
HETATM    8  O3  UNL     1      14.205 -12.010  20.235  1.00  0.00    -0.199 OA
BRANCH   6   9
HETATM    9  O1  UNL     1      12.132 -12.460  21.787  1.00  0.00    -0.271 OA
BRANCH   9  10
HETATM   10  C2  UNL     1      12.152 -11.890  23.034  1.00  0.00     0.134 C 
HETATM   11  C1  UNL     1      12.123 -10.379  22.855  1.00  0.00     0.040 C 
HETATM   12  C3  UNL     1      10.940 -12.226  23.881  1.00  0.00     0.040 C 
ENDBRANCH   9  10
ENDBRANCH   6   9
ENDBRANCH   5   6
ENDBRANCH   4   5
ENDBRANCH   2   4
ENDBRANCH   1   2
BRANCH   1  13
HETATM   13  N2  UNL     1      17.716 -15.302  21.751  1.00  0.00    -0.318 N 
HETATM   14  C7  UNL     1      18.100 -16.726  21.586  1.00  0.00     0.159 C 
BRANCH  13  15
HETATM   15  C8  UNL     1      17.825 -14.835  23.065  1.00  0.00     0.151 C 
BRANCH  15  16
HETATM   16  O4  UNL     1      16.694 -14.387  23.567  1.00  0.00    -0.345 OA
ATOM     17  H4  UNL     1      16.341 -14.929  24.263  1.00  0.00     0.219 HD
ENDBRANCH  15  16
BRANCH  15  18
HETATM   18  C9  UNL     1      18.947 -14.755  23.962  1.00  0.00     0.022 A 
HETATM   19  C10 UNL     1      18.866 -15.183  25.329  1.00  0.00     0.221 A 
HETATM   20  O5  UNL     1      20.032 -15.043  25.892  1.00  0.00    -0.326 OA
HETATM   21  C11 UNL     1      20.907 -14.567  25.062  1.00  0.00     0.178 A 
HETATM   22  C12 UNL     1      20.241 -14.380  23.841  1.00  0.00     0.077 A 
BRANCH  21  23
HETATM   23  O6  UNL     1      22.237 -14.301  25.345  1.00  0.00    -0.341 OA
ATOM     24  H6  UNL     1      22.987 -14.648  24.876  1.00  0.00     0.220 HD
ENDBRANCH  21  23
ENDBRANCH  15  18
ENDBRANCH  13  15
ENDBRANCH   1  13
BRANCH   1  25
HETATM   25  C13 UNL     1      18.251 -13.535  20.232  1.00  0.00     0.246 C 
HETATM   26 CL1  UNL     1      19.958 -13.947  20.186  1.00  0.00    -0.075 Cl
HETATM   27 CL2  UNL     1      17.825 -13.013  18.552  1.00  0.00    -0.075 Cl
HETATM   28 CL3  UNL     1      17.954 -12.080  21.230  1.00  0.00    -0.075 Cl
ENDBRANCH   1  25
TORSDOF 12
ENDMDL
