MODEL 1
REMARK VINA RESULT: -9.279272256      0.000      0.000
REMARK  6 active torsions:
REMARK  status: ('A' for Active; 'I' for Inactive)
REMARK       I    between atoms: C1_2  and  N1_3 
REMARK    1  A    between atoms: C1_2  and  C18_26 
REMARK    2  A    between atoms: N1_3  and  C2_5 
REMARK    3  A    between atoms: N2_8  and  C5_9 
REMARK    4  A    between atoms: C5_9  and  C6_10 
REMARK    5  A    between atoms: C6_10  and  C7_11 
REMARK    6  A    between atoms: C6_10  and  N4_18 
ROOT
HETATM    1  C2  UNL     1      20.036 129.398  -2.594  1.00  0.00     0.087 C 
HETATM    2  C3  UNL     1      18.642 129.798  -2.137  1.00  0.00     0.055 C 
HETATM    3  C4  UNL     1      17.666 128.689  -2.308  1.00  0.00     0.274 C 
HETATM    4  N2  UNL     1      17.629 128.096  -3.635  1.00  0.00     0.091 N 
HETATM    5  C16 UNL     1      18.972 127.884  -4.147  1.00  0.00     0.274 C 
HETATM    6  C17 UNL     1      19.870 129.068  -4.073  1.00  0.00     0.055 C 
ENDROOT
BRANCH   1   7
HETATM    7  N1  UNL     1      20.952 130.475  -2.380  1.00  0.00    -0.356 N 
HETATM    8  C1  UNL     1      22.327 130.226  -2.176  1.00  0.00     0.226 C 
HETATM    9  O1  UNL     1      22.740 129.047  -2.182  1.00  0.00    -0.273 OA
ATOM     10  H1  UNL     1      20.609 131.435  -2.376  1.00  0.00     0.162 HD
BRANCH   8  11
HETATM   11  C18 UNL     1      23.267 131.342  -1.957  1.00  0.00     0.042 C 
HETATM   12  C19 UNL     1      22.520 132.510  -1.366  1.00  0.00     0.024 C 
HETATM   13  C20 UNL     1      23.204 133.821  -1.457  1.00  0.00    -0.013 C 
HETATM   14  C21 UNL     1      24.091 134.133  -0.277  1.00  0.00     0.005 C 
HETATM   15  C26 UNL     1      23.996 134.035  -2.715  1.00  0.00     0.009 C 
HETATM   16  C22 UNL     1      24.695 132.901   0.336  1.00  0.00     0.005 C 
HETATM   17  C23 UNL     1      25.302 131.960  -0.650  1.00  0.00    -0.013 C 
HETATM   18  C24 UNL     1      25.870 132.603  -1.870  1.00  0.00     0.009 C 
HETATM   19  C28 UNL     1      24.304 130.871  -0.963  1.00  0.00     0.024 C 
HETATM   20  C25 UNL     1      24.894 132.839  -2.971  1.00  0.00    -0.013 C 
HETATM   21  C27 UNL     1      23.972 131.665  -3.233  1.00  0.00     0.024 C 
ENDBRANCH   8  11
ENDBRANCH   1   7
BRANCH   4  22
HETATM   22  C5  UNL     1      16.804 128.829  -4.527  1.00  0.00     0.313 C 
BRANCH  22  23
HETATM   23  C6  UNL     1      15.490 129.327  -4.029  1.00  0.00     0.285 C 
BRANCH  23  24
HETATM   24  C7  UNL     1      14.474 128.658  -4.930  1.00  0.00    -0.008 A 
HETATM   25  C8  UNL     1      13.205 128.477  -4.456  1.00  0.00     0.012 A 
HETATM   26  C9  UNL     1      12.228 127.860  -5.252  1.00  0.00     0.018 A 
HETATM   27  C10 UNL     1      12.572 127.445  -6.510  1.00  0.00     0.087 A 
HETATM   28  N3  UNL     1      13.820 127.629  -6.963  1.00  0.00    -0.375 N 
HETATM   29  C11 UNL     1      14.777 128.228  -6.192  1.00  0.00     0.096 A 
ATOM     30  H3  UNL     1      14.060 127.314  -7.904  1.00  0.00     0.164 HD
ENDBRANCH  23  24
BRANCH  23  31
HETATM   31  N4  UNL     1      15.264 130.759  -4.292  1.00  0.00     0.103 N 
HETATM   32  C12 UNL     1      16.300 131.366  -5.043  1.00  0.00     0.299 C 
HETATM   33  C13 UNL     1      16.223 132.892  -5.002  1.00  0.00     0.198 C 
HETATM   34  O2  UNL     1      16.475 133.210  -3.645  1.00  0.00    -0.388 OA
HETATM   35  C14 UNL     1      15.320 132.855  -2.962  1.00  0.00     0.198 C 
HETATM   36  C15 UNL     1      15.066 131.372  -2.994  1.00  0.00     0.299 C 
ENDBRANCH  23  31
ENDBRANCH  22  23
ENDBRANCH   4  22
TORSDOF 6
ENDMDL
MODEL 2
REMARK VINA RESULT: -9.228103488      0.406      1.592
REMARK  6 active torsions:
REMARK  status: ('A' for Active; 'I' for Inactive)
REMARK       I    between atoms: C1_2  and  N1_3 
REMARK    1  A    between atoms: C1_2  and  C18_26 
REMARK    2  A    between atoms: N1_3  and  C2_5 
REMARK    3  A    between atoms: N2_8  and  C5_9 
REMARK    4  A    between atoms: C5_9  and  C6_10 
REMARK    5  A    between atoms: C6_10  and  C7_11 
REMARK    6  A    between atoms: C6_10  and  N4_18 
ROOT
HETATM    1  C2  UNL     1      20.021 129.594  -2.504  1.00  0.00     0.087 C 
HETATM    2  C3  UNL     1      18.597 129.913  -2.077  1.00  0.00     0.055 C 
HETATM    3  C4  UNL     1      17.688 128.753  -2.273  1.00  0.00     0.274 C 
HETATM    4  N2  UNL     1      17.714 128.165  -3.602  1.00  0.00     0.091 N 
HETATM    5  C16 UNL     1      19.077 128.030  -4.086  1.00  0.00     0.274 C 
HETATM    6  C17 UNL     1      19.906 129.261  -3.988  1.00  0.00     0.055 C 
ENDROOT
BRANCH   1   7
HETATM    7  N1  UNL     1      20.871 130.719  -2.267  1.00  0.00    -0.356 N 
HETATM    8  C1  UNL     1      22.241 130.542  -1.976  1.00  0.00     0.226 C 
HETATM    9  O1  UNL     1      22.710 129.385  -1.927  1.00  0.00    -0.273 OA
ATOM     10  H1  UNL     1      20.482 131.661  -2.309  1.00  0.00     0.162 HD
BRANCH   8  11
HETATM   11  C18 UNL     1      23.112 131.708  -1.734  1.00  0.00     0.042 C 
HETATM   12  C19 UNL     1      24.469 131.227  -1.287  1.00  0.00     0.024 C 
HETATM   13  C20 UNL     1      25.323 132.241  -0.625  1.00  0.00    -0.013 C 
HETATM   14  C21 UNL     1      26.204 133.015  -1.575  1.00  0.00     0.005 C 
HETATM   15  C26 UNL     1      24.585 133.221   0.241  1.00  0.00     0.009 C 
HETATM   16  C22 UNL     1      25.586 133.182  -2.933  1.00  0.00     0.005 C 
HETATM   17  C23 UNL     1      24.166 133.642  -2.908  1.00  0.00    -0.013 C 
HETATM   18  C24 UNL     1      23.806 134.517  -1.756  1.00  0.00     0.009 C 
HETATM   19  C28 UNL     1      23.262 132.441  -3.047  1.00  0.00     0.024 C 
HETATM   20  C25 UNL     1      23.402 133.794  -0.517  1.00  0.00    -0.013 C 
HETATM   21  C27 UNL     1      22.457 132.635  -0.766  1.00  0.00     0.024 C 
ENDBRANCH   8  11
ENDBRANCH   1   7
BRANCH   4  22
HETATM   22  C5  UNL     1      16.869 128.855  -4.510  1.00  0.00     0.313 C 
BRANCH  22  23
HETATM   23  C6  UNL     1      15.552 129.350  -4.015  1.00  0.00     0.285 C 
BRANCH  23  24
HETATM   24  C7  UNL     1      14.541 128.678  -4.919  1.00  0.00    -0.008 A 
HETATM   25  C8  UNL     1      13.265 128.512  -4.456  1.00  0.00     0.012 A 
HETATM   26  C9  UNL     1      12.292 127.894  -5.256  1.00  0.00     0.018 A 
HETATM   27  C10 UNL     1      12.645 127.463  -6.505  1.00  0.00     0.087 A 
HETATM   28  N3  UNL     1      13.898 127.632  -6.948  1.00  0.00    -0.375 N 
HETATM   29  C11 UNL     1      14.853 128.233  -6.174  1.00  0.00     0.096 A 
ATOM     30  H3  UNL     1      14.145 127.306  -7.883  1.00  0.00     0.164 HD
ENDBRANCH  23  24
BRANCH  23  31
HETATM   31  N4  UNL     1      15.324 130.781  -4.279  1.00  0.00     0.103 N 
HETATM   32  C12 UNL     1      16.364 131.392  -5.022  1.00  0.00     0.299 C 
HETATM   33  C13 UNL     1      16.282 132.917  -4.981  1.00  0.00     0.198 C 
HETATM   34  O2  UNL     1      16.524 133.235  -3.622  1.00  0.00    -0.388 OA
HETATM   35  C14 UNL     1      15.364 132.876  -2.947  1.00  0.00     0.198 C 
HETATM   36  C15 UNL     1      15.115 131.393  -2.981  1.00  0.00     0.299 C 
ENDBRANCH  23  31
ENDBRANCH  22  23
ENDBRANCH   4  22
TORSDOF 6
ENDMDL
MODEL 3
REMARK VINA RESULT: -9.187085750      5.090      7.900
REMARK  6 active torsions:
REMARK  status: ('A' for Active; 'I' for Inactive)
REMARK       I    between atoms: C1_2  and  N1_3 
REMARK    1  A    between atoms: C1_2  and  C18_26 
REMARK    2  A    between atoms: N1_3  and  C2_5 
REMARK    3  A    between atoms: N2_8  and  C5_9 
REMARK    4  A    between atoms: C5_9  and  C6_10 
REMARK    5  A    between atoms: C6_10  and  C7_11 
REMARK    6  A    between atoms: C6_10  and  N4_18 
ROOT
HETATM    1  C2  UNL     1      14.719 134.447  -3.429  1.00  0.00     0.087 C 
HETATM    2  C3  UNL     1      15.963 134.080  -4.224  1.00  0.00     0.055 C 
HETATM    3  C4  UNL     1      15.621 133.422  -5.512  1.00  0.00     0.274 C 
HETATM    4  N2  UNL     1      14.717 132.289  -5.407  1.00  0.00     0.091 N 
HETATM    5  C16 UNL     1      13.622 132.579  -4.499  1.00  0.00     0.274 C 
HETATM    6  C17 UNL     1      14.028 133.113  -3.171  1.00  0.00     0.055 C 
ENDROOT
BRANCH   1   7
HETATM    7  N1  UNL     1      15.087 135.109  -2.217  1.00  0.00    -0.356 N 
HETATM    8  C1  UNL     1      14.910 136.502  -2.070  1.00  0.00     0.226 C 
HETATM    9  O1  UNL     1      14.426 137.158  -3.017  1.00  0.00    -0.273 OA
ATOM     10  H1  UNL     1      15.481 134.568  -1.447  1.00  0.00     0.162 HD
BRANCH   8  11
HETATM   11  C18 UNL     1      15.290 137.179  -0.815  1.00  0.00     0.042 C 
HETATM   12  C19 UNL     1      16.217 138.324  -1.131  1.00  0.00     0.024 C 
HETATM   13  C20 UNL     1      17.002 138.848   0.011  1.00  0.00    -0.013 C 
HETATM   14  C21 UNL     1      16.316 139.961   0.766  1.00  0.00     0.005 C 
HETATM   15  C26 UNL     1      17.450 137.811   0.999  1.00  0.00     0.009 C 
HETATM   16  C22 UNL     1      14.819 139.835   0.750  1.00  0.00     0.005 C 
HETATM   17  C23 UNL     1      14.315 138.471   1.085  1.00  0.00    -0.013 C 
HETATM   18  C24 UNL     1      15.170 137.696   2.029  1.00  0.00     0.009 C 
HETATM   19  C28 UNL     1      14.024 137.730  -0.198  1.00  0.00     0.024 C 
HETATM   20  C25 UNL     1      16.279 136.931   1.393  1.00  0.00    -0.013 C 
HETATM   21  C27 UNL     1      15.868 136.187   0.138  1.00  0.00     0.024 C 
ENDBRANCH   8  11
ENDBRANCH   1   7
BRANCH   4  22
HETATM   22  C5  UNL     1      15.400 131.086  -5.087  1.00  0.00     0.313 C 
BRANCH  22  23
HETATM   23  C6  UNL     1      14.714 130.095  -4.208  1.00  0.00     0.285 C 
BRANCH  23  24
HETATM   24  C7  UNL     1      15.772 129.702  -3.199  1.00  0.00    -0.008 A 
HETATM   25  C8  UNL     1      16.337 128.462  -3.300  1.00  0.00     0.012 A 
HETATM   26  C9  UNL     1      17.321 128.050  -2.388  1.00  0.00     0.018 A 
HETATM   27  C10 UNL     1      17.701 128.915  -1.397  1.00  0.00     0.087 A 
HETATM   28  N3  UNL     1      17.140 130.128  -1.309  1.00  0.00    -0.375 N 
HETATM   29  C11 UNL     1      16.180 130.536  -2.194  1.00  0.00     0.096 A 
ATOM     30  H3  UNL     1      17.434 130.761  -0.565  1.00  0.00     0.164 HD
ENDBRANCH  23  24
BRANCH  23  31
HETATM   31  N4  UNL     1      14.416 128.819  -4.880  1.00  0.00     0.103 N 
HETATM   32  C12 UNL     1      14.618 128.857  -6.282  1.00  0.00     0.299 C 
HETATM   33  C13 UNL     1      13.980 127.662  -6.988  1.00  0.00     0.198 C 
HETATM   34  O2  UNL     1      12.591 127.845  -6.780  1.00  0.00    -0.388 OA
HETATM   35  C14 UNL     1      12.372 127.528  -5.446  1.00  0.00     0.198 C 
HETATM   36  C15 UNL     1      13.055 128.486  -4.508  1.00  0.00     0.299 C 
ENDBRANCH  23  31
ENDBRANCH  22  23
ENDBRANCH   4  22
TORSDOF 6
ENDMDL
MODEL 4
REMARK VINA RESULT: -9.039923062      1.580      2.095
REMARK  6 active torsions:
REMARK  status: ('A' for Active; 'I' for Inactive)
REMARK       I    between atoms: C1_2  and  N1_3 
REMARK    1  A    between atoms: C1_2  and  C18_26 
REMARK    2  A    between atoms: N1_3  and  C2_5 
REMARK    3  A    between atoms: N2_8  and  C5_9 
REMARK    4  A    between atoms: C5_9  and  C6_10 
REMARK    5  A    between atoms: C6_10  and  C7_11 
REMARK    6  A    between atoms: C6_10  and  N4_18 
ROOT
HETATM    1  C2  UNL     1      18.791 130.992  -1.668  1.00  0.00     0.087 C 
HETATM    2  C3  UNL     1      17.966 132.040  -2.398  1.00  0.00     0.055 C 
HETATM    3  C4  UNL     1      16.519 131.923  -2.082  1.00  0.00     0.274 C 
HETATM    4  N2  UNL     1      15.952 130.597  -2.262  1.00  0.00     0.091 N 
HETATM    5  C16 UNL     1      16.834 129.576  -1.724  1.00  0.00     0.274 C 
HETATM    6  C17 UNL     1      18.248 129.661  -2.178  1.00  0.00     0.055 C 
ENDROOT
BRANCH   1   7
HETATM    7  N1  UNL     1      20.179 131.159  -1.968  1.00  0.00    -0.356 N 
HETATM    8  C1  UNL     1      21.166 130.896  -0.994  1.00  0.00     0.226 C 
HETATM    9  O1  UNL     1      20.816 130.513   0.142  1.00  0.00    -0.273 OA
ATOM     10  H1  UNL     1      20.459 131.473  -2.897  1.00  0.00     0.162 HD
BRANCH   8  11
HETATM   11  C18 UNL     1      22.597 131.070  -1.311  1.00  0.00     0.042 C 
HETATM   12  C19 UNL     1      22.794 132.394  -2.004  1.00  0.00     0.024 C 
HETATM   13  C20 UNL     1      24.070 132.549  -2.739  1.00  0.00    -0.013 C 
HETATM   14  C21 UNL     1      25.192 133.121  -1.906  1.00  0.00     0.005 C 
HETATM   15  C26 UNL     1      24.568 131.303  -3.413  1.00  0.00     0.009 C 
HETATM   16  C22 UNL     1      25.088 132.742  -0.456  1.00  0.00     0.005 C 
HETATM   17  C23 UNL     1      24.831 131.291  -0.219  1.00  0.00    -0.013 C 
HETATM   18  C24 UNL     1      25.405 130.372  -1.244  1.00  0.00     0.009 C 
HETATM   19  C28 UNL     1      23.351 131.087  -0.000  1.00  0.00     0.024 C 
HETATM   20  C25 UNL     1      24.543 130.142  -2.437  1.00  0.00    -0.013 C 
HETATM   21  C27 UNL     1      23.085 129.902  -2.102  1.00  0.00     0.024 C 
ENDBRANCH   8  11
ENDBRANCH   1   7
BRANCH   4  22
HETATM   22  C5  UNL     1      15.577 130.352  -3.609  1.00  0.00     0.313 C 
BRANCH  22  23
HETATM   23  C6  UNL     1      14.144 130.518  -3.987  1.00  0.00     0.285 C 
BRANCH  23  24
HETATM   24  C7  UNL     1      13.883 129.383  -4.955  1.00  0.00    -0.008 A 
HETATM   25  C8  UNL     1      12.755 128.630  -4.784  1.00  0.00     0.012 A 
HETATM   26  C9  UNL     1      12.470 127.567  -5.654  1.00  0.00     0.018 A 
HETATM   27  C10 UNL     1      13.341 127.302  -6.675  1.00  0.00     0.087 A 
HETATM   28  N3  UNL     1      14.443 128.048  -6.832  1.00  0.00    -0.375 N 
HETATM   29  C11 UNL     1      14.729 129.085  -5.988  1.00  0.00     0.096 A 
ATOM     30  H3  UNL     1      15.083 127.838  -7.599  1.00  0.00     0.164 HD
ENDBRANCH  23  24
BRANCH  23  31
HETATM   31  N4  UNL     1      13.885 131.713  -4.808  1.00  0.00     0.103 N 
HETATM   32  C12 UNL     1      15.041 132.214  -5.456  1.00  0.00     0.299 C 
HETATM   33  C13 UNL     1      14.827 133.625  -6.004  1.00  0.00     0.198 C 
HETATM   34  O2  UNL     1      14.645 134.417  -4.844  1.00  0.00    -0.388 OA
HETATM   35  C14 UNL     1      13.374 134.104  -4.379  1.00  0.00     0.198 C 
HETATM   36  C15 UNL     1      13.266 132.676  -3.919  1.00  0.00     0.299 C 
ENDBRANCH  23  31
ENDBRANCH  22  23
ENDBRANCH   4  22
TORSDOF 6
ENDMDL
MODEL 5
REMARK VINA RESULT: -9.024671790      2.425      9.801
REMARK  6 active torsions:
REMARK  status: ('A' for Active; 'I' for Inactive)
REMARK       I    between atoms: C1_2  and  N1_3 
REMARK    1  A    between atoms: C1_2  and  C18_26 
REMARK    2  A    between atoms: N1_3  and  C2_5 
REMARK    3  A    between atoms: N2_8  and  C5_9 
REMARK    4  A    between atoms: C5_9  and  C6_10 
REMARK    5  A    between atoms: C6_10  and  C7_11 
REMARK    6  A    between atoms: C6_10  and  N4_18 
ROOT
HETATM    1  C2  UNL     1      19.279 129.475  -2.440  1.00  0.00     0.087 C 
HETATM    2  C3  UNL     1      20.559 129.886  -3.151  1.00  0.00     0.055 C 
HETATM    3  C4  UNL     1      21.767 129.554  -2.350  1.00  0.00     0.274 C 
HETATM    4  N2  UNL     1      21.753 130.040  -0.980  1.00  0.00     0.091 N 
HETATM    5  C16 UNL     1      20.460 129.810  -0.359  1.00  0.00     0.274 C 
HETATM    6  C17 UNL     1      19.289 130.282  -1.146  1.00  0.00     0.055 C 
ENDROOT
BRANCH   1   7
HETATM    7  N1  UNL     1      18.144 129.776  -3.256  1.00  0.00    -0.356 N 
HETATM    8  C1  UNL     1      17.003 128.945  -3.242  1.00  0.00     0.226 C 
HETATM    9  O1  UNL     1      16.992 127.936  -2.506  1.00  0.00    -0.273 OA
ATOM     10  H1  UNL     1      18.159 130.601  -3.855  1.00  0.00     0.162 HD
BRANCH   8  11
HETATM   11  C18 UNL     1      15.834 129.263  -4.085  1.00  0.00     0.042 C 
HETATM   12  C19 UNL     1      16.300 129.978  -5.328  1.00  0.00     0.024 C 
HETATM   13  C20 UNL     1      15.253 130.714  -6.075  1.00  0.00    -0.013 C 
HETATM   14  C21 UNL     1      14.559 129.888  -7.131  1.00  0.00     0.005 C 
HETATM   15  C26 UNL     1      14.205 131.366  -5.219  1.00  0.00     0.009 C 
HETATM   16  C22 UNL     1      14.479 128.433  -6.770  1.00  0.00     0.005 C 
HETATM   17  C23 UNL     1      14.000 128.171  -5.380  1.00  0.00    -0.013 C 
HETATM   18  C24 UNL     1      13.043 129.179  -4.842  1.00  0.00     0.009 C 
HETATM   19  C28 UNL     1      15.196 127.952  -4.485  1.00  0.00     0.024 C 
HETATM   20  C25 UNL     1      13.671 130.371  -4.206  1.00  0.00    -0.013 C 
HETATM   21  C27 UNL     1      14.833 130.033  -3.291  1.00  0.00     0.024 C 
ENDBRANCH   8  11
ENDBRANCH   1   7
BRANCH   4  22
HETATM   22  C5  UNL     1      22.182 131.390  -0.886  1.00  0.00     0.313 C 
BRANCH  22  23
HETATM   23  C6  UNL     1      23.639 131.660  -0.725  1.00  0.00     0.285 C 
BRANCH  23  24
HETATM   24  C7  UNL     1      23.872 131.557   0.767  1.00  0.00    -0.008 A 
HETATM   25  C8  UNL     1      24.969 130.869   1.207  1.00  0.00     0.012 A 
HETATM   26  C9  UNL     1      25.228 130.744   2.580  1.00  0.00     0.018 A 
HETATM   27  C10 UNL     1      24.363 131.323   3.467  1.00  0.00     0.087 A 
HETATM   28  N3  UNL     1      23.292 131.996   3.024  1.00  0.00    -0.375 N 
HETATM   29  C11 UNL     1      23.032 132.121   1.687  1.00  0.00     0.096 A 
ATOM     30  H3  UNL     1      22.656 132.423   3.698  1.00  0.00     0.164 HD
ENDBRANCH  23  24
BRANCH  23  31
HETATM   31  N4  UNL     1      24.015 133.054  -1.017  1.00  0.00     0.103 N 
HETATM   32  C12 UNL     1      22.967 133.815  -1.591  1.00  0.00     0.299 C 
HETATM   33  C13 UNL     1      23.471 135.123  -2.199  1.00  0.00     0.198 C 
HETATM   34  O2  UNL     1      24.294 134.705  -3.273  1.00  0.00    -0.388 OA
HETATM   35  C14 UNL     1      25.449 134.210  -2.681  1.00  0.00     0.198 C 
HETATM   36  C15 UNL     1      25.192 132.977  -1.860  1.00  0.00     0.299 C 
ENDBRANCH  23  31
ENDBRANCH  22  23
ENDBRANCH   4  22
TORSDOF 6
ENDMDL
