MODEL 1
REMARK VINA RESULT: -6.167368588      0.000      0.000
REMARK  3 active torsions:
REMARK  status: ('A' for Active; 'I' for Inactive)
REMARK    1  A    between atoms: N1_1  and  N2_4 
REMARK    2  A    between atoms: C4_8  and  C5_9 
REMARK    3  A    between atoms: C5_9  and  N3_10 
ROOT
HETATM    1  N2  UNL     1      78.434  73.499  97.331  1.00  0.00    -0.285 N 
HETATM    2  C1  UNL     1      77.455  74.409  97.380  1.00  0.00     0.115 A 
HETATM    3  C2  UNL     1      77.516  75.529  98.190  1.00  0.00     0.020 A 
HETATM    4  C3  UNL     1      78.628  75.720  98.978  1.00  0.00     0.012 A 
HETATM    5  C4  UNL     1      79.637  74.793  98.933  1.00  0.00    -0.022 A 
HETATM    6  C11 UNL     1      79.509  73.702  98.105  1.00  0.00     0.123 A 
ENDROOT
BRANCH   5   7
HETATM    7  C5  UNL     1      80.867  74.909  99.739  1.00  0.00     0.167 C 
BRANCH   7   8
HETATM    8  N3  UNL     1      81.912  75.652  99.106  1.00  0.00    -0.362 N 
HETATM    9  C6  UNL     1      81.796  76.945  98.769  1.00  0.00     0.090 A 
HETATM   10  C7  UNL     1      82.845  77.601  98.160  1.00  0.00     0.017 A 
HETATM   11  C8  UNL     1      84.033  76.969  97.878  1.00  0.00     0.003 A 
HETATM   12  C9  UNL     1      84.145  75.638  98.227  1.00  0.00     0.017 A 
HETATM   13  C10 UNL     1      83.070  75.021  98.835  1.00  0.00     0.090 A 
ENDBRANCH   7   8
ENDBRANCH   5   7
BRANCH   1  14
HETATM   14  N1  UNL     1      78.353  72.370  96.503  1.00  0.00    -0.339 N 
ATOM     15  H12 UNL     1      77.790  71.564  96.776  1.00  0.00     0.177 HD
ATOM     16  H11 UNL     1      78.848  72.319  95.613  1.00  0.00     0.177 HD
ENDBRANCH   1  14
TORSDOF 3
ENDMDL
MODEL 2
REMARK VINA RESULT: -6.087595772      0.062      1.248
REMARK  3 active torsions:
REMARK  status: ('A' for Active; 'I' for Inactive)
REMARK    1  A    between atoms: N1_1  and  N2_4 
REMARK    2  A    between atoms: C4_8  and  C5_9 
REMARK    3  A    between atoms: C5_9  and  N3_10 
ROOT
HETATM    1  N2  UNL     1      78.439  73.496  97.334  1.00  0.00    -0.285 N 
HETATM    2  C1  UNL     1      77.458  74.406  97.364  1.00  0.00     0.115 A 
HETATM    3  C2  UNL     1      77.503  75.526  98.175  1.00  0.00     0.020 A 
HETATM    4  C3  UNL     1      78.598  75.718  98.985  1.00  0.00     0.012 A 
HETATM    5  C4  UNL     1      79.609  74.791  98.960  1.00  0.00    -0.022 A 
HETATM    6  C11 UNL     1      79.498  73.700  98.130  1.00  0.00     0.123 A 
ENDROOT
BRANCH   5   7
HETATM    7  C5  UNL     1      80.823  74.908  99.790  1.00  0.00     0.167 C 
BRANCH   7   8
HETATM    8  N3  UNL     1      81.918  75.554  99.136  1.00  0.00    -0.362 N 
HETATM    9  C6  UNL     1      83.073  74.935  98.849  1.00  0.00     0.090 A 
HETATM   10  C7  UNL     1      84.089  75.621  98.215  1.00  0.00     0.017 A 
HETATM   11  C8  UNL     1      83.962  76.943  97.858  1.00  0.00     0.003 A 
HETATM   12  C9  UNL     1      82.771  77.572  98.158  1.00  0.00     0.017 A 
HETATM   13  C10 UNL     1      81.781  76.849  98.792  1.00  0.00     0.090 A 
ENDBRANCH   7   8
ENDBRANCH   5   7
BRANCH   1  14
HETATM   14  N1  UNL     1      78.374  72.367  96.506  1.00  0.00    -0.339 N 
ATOM     15  H12 UNL     1      79.226  71.905  96.187  1.00  0.00     0.177 HD
ATOM     16  H11 UNL     1      77.483  71.977  96.198  1.00  0.00     0.177 HD
ENDBRANCH   1  14
TORSDOF 3
ENDMDL
MODEL 3
REMARK VINA RESULT: -5.782720951      1.478      1.963
REMARK  3 active torsions:
REMARK  status: ('A' for Active; 'I' for Inactive)
REMARK    1  A    between atoms: N1_1  and  N2_4 
REMARK    2  A    between atoms: C4_8  and  C5_9 
REMARK    3  A    between atoms: C5_9  and  N3_10 
ROOT
HETATM    1  N2  UNL     1      78.123  75.326  99.175  1.00  0.00    -0.285 N 
HETATM    2  C1  UNL     1      77.632  74.933  97.993  1.00  0.00     0.115 A 
HETATM    3  C2  UNL     1      78.411  74.318  97.029  1.00  0.00     0.020 A 
HETATM    4  C3  UNL     1      79.744  74.099  97.290  1.00  0.00     0.012 A 
HETATM    5  C4  UNL     1      80.255  74.498  98.499  1.00  0.00    -0.022 A 
HETATM    6  C11 UNL     1      79.423  75.104  99.411  1.00  0.00     0.123 A 
ENDROOT
BRANCH   5   7
HETATM    7  C5  UNL     1      81.669  74.307  98.873  1.00  0.00     0.167 C 
BRANCH   7   8
HETATM    8  N3  UNL     1      82.513  75.415  98.551  1.00  0.00    -0.362 N 
HETATM    9  C6  UNL     1      82.047  76.651  98.314  1.00  0.00     0.090 A 
HETATM   10  C7  UNL     1      82.920  77.675  98.009  1.00  0.00     0.017 A 
HETATM   11  C8  UNL     1      84.279  77.476  97.936  1.00  0.00     0.003 A 
HETATM   12  C9  UNL     1      84.749  76.202  98.181  1.00  0.00     0.017 A 
HETATM   13  C10 UNL     1      83.842  75.207  98.483  1.00  0.00     0.090 A 
ENDBRANCH   7   8
ENDBRANCH   5   7
BRANCH   1  14
HETATM   14  N1  UNL     1      77.317  75.949 100.139  1.00  0.00    -0.339 N 
ATOM     15  H12 UNL     1      76.557  76.569  99.860  1.00  0.00     0.177 HD
ATOM     16  H11 UNL     1      77.465  75.803 101.138  1.00  0.00     0.177 HD
ENDBRANCH   1  14
TORSDOF 3
ENDMDL
MODEL 4
REMARK VINA RESULT: -5.728964661      1.313      1.567
REMARK  3 active torsions:
REMARK  status: ('A' for Active; 'I' for Inactive)
REMARK    1  A    between atoms: N1_1  and  N2_4 
REMARK    2  A    between atoms: C4_8  and  C5_9 
REMARK    3  A    between atoms: C5_9  and  N3_10 
ROOT
HETATM    1  N2  UNL     1      77.226  73.443  96.871  1.00  0.00    -0.285 N 
HETATM    2  C1  UNL     1      76.366  74.221  97.540  1.00  0.00     0.115 A 
HETATM    3  C2  UNL     1      76.718  74.910  98.686  1.00  0.00     0.020 A 
HETATM    4  C3  UNL     1      78.005  74.798  99.162  1.00  0.00     0.012 A 
HETATM    5  C4  UNL     1      78.893  74.004  98.483  1.00  0.00    -0.022 A 
HETATM    6  C11 UNL     1      78.474  73.346  97.350  1.00  0.00     0.123 A 
ENDROOT
BRANCH   5   7
HETATM    7  C5  UNL     1      80.293  73.820  98.912  1.00  0.00     0.167 C 
BRANCH   7   8
HETATM    8  N3  UNL     1      81.120  74.969  98.716  1.00  0.00    -0.362 N 
HETATM    9  C6  UNL     1      81.550  75.369  97.509  1.00  0.00     0.090 A 
HETATM   10  C7  UNL     1      82.347  76.489  97.393  1.00  0.00     0.017 A 
HETATM   11  C8  UNL     1      82.728  77.228  98.488  1.00  0.00     0.003 A 
HETATM   12  C9  UNL     1      82.282  76.809  99.725  1.00  0.00     0.017 A 
HETATM   13  C10 UNL     1      81.486  75.684  99.796  1.00  0.00     0.090 A 
ENDBRANCH   7   8
ENDBRANCH   5   7
BRANCH   1  14
HETATM   14  N1  UNL     1      76.849  72.752  95.711  1.00  0.00    -0.339 N 
ATOM     15  H12 UNL     1      76.527  71.785  95.763  1.00  0.00     0.177 HD
ATOM     16  H11 UNL     1      76.885  73.188  94.790  1.00  0.00     0.177 HD
ENDBRANCH   1  14
TORSDOF 3
ENDMDL
MODEL 5
REMARK VINA RESULT: -5.710513661      1.314      1.517
REMARK  3 active torsions:
REMARK  status: ('A' for Active; 'I' for Inactive)
REMARK    1  A    between atoms: N1_1  and  N2_4 
REMARK    2  A    between atoms: C4_8  and  C5_9 
REMARK    3  A    between atoms: C5_9  and  N3_10 
ROOT
HETATM    1  N2  UNL     1      77.226  73.439  96.888  1.00  0.00    -0.285 N 
HETATM    2  C1  UNL     1      76.380  74.227  97.562  1.00  0.00     0.115 A 
HETATM    3  C2  UNL     1      76.749  74.914  98.705  1.00  0.00     0.020 A 
HETATM    4  C3  UNL     1      78.038  74.787  99.171  1.00  0.00     0.012 A 
HETATM    5  C4  UNL     1      78.912  73.983  98.486  1.00  0.00    -0.022 A 
HETATM    6  C11 UNL     1      78.477  73.328  97.356  1.00  0.00     0.123 A 
ENDROOT
BRANCH   5   7
HETATM    7  C5  UNL     1      80.313  73.782  98.904  1.00  0.00     0.167 C 
BRANCH   7   8
HETATM    8  N3  UNL     1      81.124  74.956  98.812  1.00  0.00    -0.362 N 
HETATM    9  C6  UNL     1      81.491  75.683  99.878  1.00  0.00     0.090 A 
HETATM   10  C7  UNL     1      82.276  76.806  99.716  1.00  0.00     0.017 A 
HETATM   11  C8  UNL     1      82.706  77.220  98.478  1.00  0.00     0.003 A 
HETATM   12  C9  UNL     1      82.323  76.467  97.386  1.00  0.00     0.017 A 
HETATM   13  C10 UNL     1      81.538  75.351  97.593  1.00  0.00     0.090 A 
ENDBRANCH   7   8
ENDBRANCH   5   7
BRANCH   1  14
HETATM   14  N1  UNL     1      76.832  72.751  95.732  1.00  0.00    -0.339 N 
ATOM     15  H12 UNL     1      76.786  73.229  94.831  1.00  0.00     0.177 HD
ATOM     16  H11 UNL     1      76.581  71.763  95.755  1.00  0.00     0.177 HD
ENDBRANCH   1  14
TORSDOF 3
ENDMDL
