MODEL 1
REMARK VINA RESULT: -7.348539630      0.000      0.000
REMARK  6 active torsions:
REMARK  status: ('A' for Active; 'I' for Inactive)
REMARK    1  A    between atoms: C2_2  and  C3_3 
REMARK    2  A    between atoms: C3_3  and  C4_4 
REMARK    3  A    between atoms: C4_4  and  C5_5 
REMARK       I    between atoms: C5_5  and  N1_7 
REMARK    4  A    between atoms: N1_7  and  N2_9 
REMARK       I    between atoms: N2_9  and  C6_10 
REMARK    5  A    between atoms: C6_10  and  C7_12 
REMARK       I    between atoms: C7_12  and  N3_14 
REMARK    6  A    between atoms: N3_14  and  N4_16 
REMARK       I    between atoms: N4_16  and  C8_17 
REMARK       I    between atoms: C8_17  and  N5_19 
ROOT
HETATM    1  N2  UNL     1      55.269  15.375  42.427  1.00  0.00    -0.274 NA
HETATM    2  C6  UNL     1      55.170  15.013  43.749  1.00  0.00     0.405 C 
HETATM    3  O2  UNL     1      54.854  14.672  44.853  1.00  0.00    -0.244 OA
ENDROOT
BRANCH   2   4
HETATM    4  C7  UNL     1      56.817  15.318  44.145  1.00  0.00     0.354 C 
HETATM    5  O3  UNL     1      57.496  14.437  44.312  1.00  0.00    -0.258 OA
HETATM    6  N3  UNL     1      56.996  16.719  44.192  1.00  0.00    -0.188 N 
ATOM      7  H3  UNL     1      56.143  17.214  43.929  1.00  0.00     0.205 HD
BRANCH   6   8
HETATM    8  N4  UNL     1      57.924  17.519  44.471  1.00  0.00    -0.249 NA
HETATM    9  C8  UNL     1      58.937  18.572  44.733  1.00  0.00     0.490 C 
HETATM   10  O4  UNL     1      58.721  19.749  44.430  1.00  0.00    -0.212 OA
HETATM   11  N5  UNL     1      60.120  18.026  45.272  1.00  0.00    -0.363 NA
HETATM   12  C9  UNL     1      61.370  17.796  45.748  1.00  0.00     0.236 C 
ENDBRANCH   6   8
ENDBRANCH   2   4
BRANCH   1  13
HETATM   13  N1  UNL     1      55.338  15.695  41.252  1.00  0.00    -0.199 N 
HETATM   14  C5  UNL     1      56.062  15.652  40.072  1.00  0.00     0.246 C 
HETATM   15  O1  UNL     1      57.251  15.164  39.985  1.00  0.00    -0.271 OA
ATOM     16  H1  UNL     1      54.491  16.228  41.050  1.00  0.00     0.205 HD
BRANCH  14  17
HETATM   17  C4  UNL     1      55.407  16.143  38.811  1.00  0.00     0.105 C 
BRANCH  17  18
HETATM   18  C3  UNL     1      54.021  16.648  39.188  1.00  0.00     0.009 C 
BRANCH  18  19
HETATM   19  C2  UNL     1      53.877  18.119  38.804  1.00  0.00    -0.004 C 
HETATM   20  C1  UNL     1      54.152  18.907  40.119  1.00  0.00     0.005 C 
ENDBRANCH  18  19
ENDBRANCH  17  18
ENDBRANCH  14  17
ENDBRANCH   1  13
TORSDOF 6
ENDMDL
MODEL 2
REMARK VINA RESULT: -7.302694901      2.308      6.076
REMARK  6 active torsions:
REMARK  status: ('A' for Active; 'I' for Inactive)
REMARK    1  A    between atoms: C2_2  and  C3_3 
REMARK    2  A    between atoms: C3_3  and  C4_4 
REMARK    3  A    between atoms: C4_4  and  C5_5 
REMARK       I    between atoms: C5_5  and  N1_7 
REMARK    4  A    between atoms: N1_7  and  N2_9 
REMARK       I    between atoms: N2_9  and  C6_10 
REMARK    5  A    between atoms: C6_10  and  C7_12 
REMARK       I    between atoms: C7_12  and  N3_14 
REMARK    6  A    between atoms: N3_14  and  N4_16 
REMARK       I    between atoms: N4_16  and  C8_17 
REMARK       I    between atoms: C8_17  and  N5_19 
ROOT
HETATM    1  N2  UNL     1      58.983  17.562  45.058  1.00  0.00    -0.274 NA
HETATM    2  C6  UNL     1      59.978  18.401  44.619  1.00  0.00     0.405 C 
HETATM    3  O2  UNL     1      60.963  19.057  44.429  1.00  0.00    -0.244 OA
ENDROOT
BRANCH   2   4
HETATM    4  C7  UNL     1      59.097  19.052  43.292  1.00  0.00     0.354 C 
HETATM    5  O3  UNL     1      59.219  20.146  43.057  1.00  0.00    -0.258 OA
HETATM    6  N3  UNL     1      58.333  18.005  42.729  1.00  0.00    -0.188 N 
ATOM      7  H3  UNL     1      58.522  17.115  43.190  1.00  0.00     0.205 HD
BRANCH   6   8
HETATM    8  N4  UNL     1      57.485  17.877  41.811  1.00  0.00    -0.249 NA
HETATM    9  C8  UNL     1      56.579  17.628  40.661  1.00  0.00     0.490 C 
HETATM   10  O4  UNL     1      56.871  16.802  39.791  1.00  0.00    -0.212 OA
HETATM   11  N5  UNL     1      55.460  18.484  40.693  1.00  0.00    -0.363 NA
HETATM   12  C9  UNL     1      54.325  19.184  40.435  1.00  0.00     0.236 C 
ENDBRANCH   6   8
ENDBRANCH   2   4
BRANCH   1  13
HETATM   13  N1  UNL     1      58.109  16.814  45.463  1.00  0.00    -0.199 N 
HETATM   14  C5  UNL     1      57.615  16.059  46.514  1.00  0.00     0.246 C 
HETATM   15  O1  UNL     1      58.249  15.880  47.621  1.00  0.00    -0.271 OA
ATOM     16  H1  UNL     1      57.456  16.689  44.689  1.00  0.00     0.205 HD
BRANCH  14  17
HETATM   17  C4  UNL     1      56.239  15.466  46.387  1.00  0.00     0.105 C 
BRANCH  17  18
HETATM   18  C3  UNL     1      55.584  16.103  45.168  1.00  0.00     0.009 C 
BRANCH  18  19
HETATM   19  C2  UNL     1      54.935  15.028  44.299  1.00  0.00    -0.004 C 
HETATM   20  C1  UNL     1      55.939  14.795  43.131  1.00  0.00     0.005 C 
ENDBRANCH  18  19
ENDBRANCH  17  18
ENDBRANCH  14  17
ENDBRANCH   1  13
TORSDOF 6
ENDMDL
MODEL 3
REMARK VINA RESULT: -7.143307154      2.381      6.002
REMARK  6 active torsions:
REMARK  status: ('A' for Active; 'I' for Inactive)
REMARK    1  A    between atoms: C2_2  and  C3_3 
REMARK    2  A    between atoms: C3_3  and  C4_4 
REMARK    3  A    between atoms: C4_4  and  C5_5 
REMARK       I    between atoms: C5_5  and  N1_7 
REMARK    4  A    between atoms: N1_7  and  N2_9 
REMARK       I    between atoms: N2_9  and  C6_10 
REMARK    5  A    between atoms: C6_10  and  C7_12 
REMARK       I    between atoms: C7_12  and  N3_14 
REMARK    6  A    between atoms: N3_14  and  N4_16 
REMARK       I    between atoms: N4_16  and  C8_17 
REMARK       I    between atoms: C8_17  and  N5_19 
ROOT
HETATM    1  N2  UNL     1      58.974  17.547  45.132  1.00  0.00    -0.274 NA
HETATM    2  C6  UNL     1      59.965  18.398  44.708  1.00  0.00     0.405 C 
HETATM    3  O2  UNL     1      60.947  19.060  44.527  1.00  0.00    -0.244 OA
ENDROOT
BRANCH   2   4
HETATM    4  C7  UNL     1      59.074  19.078  43.401  1.00  0.00     0.354 C 
HETATM    5  O3  UNL     1      59.268  20.151  43.127  1.00  0.00    -0.258 OA
HETATM    6  N3  UNL     1      58.208  18.077  42.906  1.00  0.00    -0.188 N 
ATOM      7  H3  UNL     1      58.349  17.189  43.386  1.00  0.00     0.205 HD
BRANCH   6   8
HETATM    8  N4  UNL     1      57.310  17.990  42.031  1.00  0.00    -0.249 NA
HETATM    9  C8  UNL     1      56.182  18.006  41.066  1.00  0.00     0.490 C 
HETATM   10  O4  UNL     1      55.313  18.880  41.120  1.00  0.00    -0.212 OA
HETATM   11  N5  UNL     1      56.231  16.895  40.198  1.00  0.00    -0.363 NA
HETATM   12  C9  UNL     1      55.993  15.933  39.271  1.00  0.00     0.236 C 
ENDBRANCH   6   8
ENDBRANCH   2   4
BRANCH   1  13
HETATM   13  N1  UNL     1      58.104  16.787  45.524  1.00  0.00    -0.199 N 
HETATM   14  C5  UNL     1      57.608  16.019  46.566  1.00  0.00     0.246 C 
HETATM   15  O1  UNL     1      58.235  15.838  47.677  1.00  0.00    -0.271 OA
ATOM     16  H1  UNL     1      57.458  16.662  44.744  1.00  0.00     0.205 HD
BRANCH  14  17
HETATM   17  C4  UNL     1      56.239  15.414  46.422  1.00  0.00     0.105 C 
BRANCH  17  18
HETATM   18  C3  UNL     1      55.587  16.056  45.204  1.00  0.00     0.009 C 
BRANCH  18  19
HETATM   19  C2  UNL     1      54.817  15.005  44.408  1.00  0.00    -0.004 C 
HETATM   20  C1  UNL     1      55.672  14.763  43.129  1.00  0.00     0.005 C 
ENDBRANCH  18  19
ENDBRANCH  17  18
ENDBRANCH  14  17
ENDBRANCH   1  13
TORSDOF 6
ENDMDL
MODEL 4
REMARK VINA RESULT: -6.960607243      0.929      1.221
REMARK  6 active torsions:
REMARK  status: ('A' for Active; 'I' for Inactive)
REMARK    1  A    between atoms: C2_2  and  C3_3 
REMARK    2  A    between atoms: C3_3  and  C4_4 
REMARK    3  A    between atoms: C4_4  and  C5_5 
REMARK       I    between atoms: C5_5  and  N1_7 
REMARK    4  A    between atoms: N1_7  and  N2_9 
REMARK       I    between atoms: N2_9  and  C6_10 
REMARK    5  A    between atoms: C6_10  and  C7_12 
REMARK       I    between atoms: C7_12  and  N3_14 
REMARK    6  A    between atoms: N3_14  and  N4_16 
REMARK       I    between atoms: N4_16  and  C8_17 
REMARK       I    between atoms: C8_17  and  N5_19 
ROOT
HETATM    1  N2  UNL     1      55.143  15.445  42.492  1.00  0.00    -0.274 NA
HETATM    2  C6  UNL     1      55.132  15.055  43.810  1.00  0.00     0.405 C 
HETATM    3  O2  UNL     1      54.890  14.691  44.925  1.00  0.00    -0.244 OA
ENDROOT
BRANCH   2   4
HETATM    4  C7  UNL     1      56.803  15.348  44.100  1.00  0.00     0.354 C 
HETATM    5  O3  UNL     1      57.495  14.463  44.167  1.00  0.00    -0.258 OA
HETATM    6  N3  UNL     1      56.981  16.745  44.212  1.00  0.00    -0.188 N 
ATOM      7  H3  UNL     1      56.110  17.248  44.041  1.00  0.00     0.205 HD
BRANCH   6   8
HETATM    8  N4  UNL     1      57.926  17.534  44.467  1.00  0.00    -0.249 NA
HETATM    9  C8  UNL     1      58.960  18.574  44.697  1.00  0.00     0.490 C 
HETATM   10  O4  UNL     1      58.770  19.744  44.353  1.00  0.00    -0.212 OA
HETATM   11  N5  UNL     1      60.130  18.021  45.257  1.00  0.00    -0.363 NA
HETATM   12  C9  UNL     1      61.374  17.781  45.745  1.00  0.00     0.236 C 
ENDBRANCH   6   8
ENDBRANCH   2   4
BRANCH   1  13
HETATM   13  N1  UNL     1      55.133  15.790  41.322  1.00  0.00    -0.199 N 
HETATM   14  C5  UNL     1      55.755  16.506  40.312  1.00  0.00     0.246 C 
HETATM   15  O1  UNL     1      56.771  17.274  40.506  1.00  0.00    -0.271 OA
ATOM     16  H1  UNL     1      54.305  15.366  40.904  1.00  0.00     0.205 HD
BRANCH  14  17
HETATM   17  C4  UNL     1      55.263  16.332  38.902  1.00  0.00     0.105 C 
BRANCH  17  18
HETATM   18  C3  UNL     1      54.218  17.413  38.652  1.00  0.00     0.009 C 
BRANCH  18  19
HETATM   19  C2  UNL     1      52.893  16.776  38.241  1.00  0.00    -0.004 C 
HETATM   20  C1  UNL     1      52.750  17.089  36.722  1.00  0.00     0.005 C 
ENDBRANCH  18  19
ENDBRANCH  17  18
ENDBRANCH  14  17
ENDBRANCH   1  13
TORSDOF 6
ENDMDL
MODEL 5
REMARK VINA RESULT: -6.904835729      1.413      1.744
REMARK  6 active torsions:
REMARK  status: ('A' for Active; 'I' for Inactive)
REMARK    1  A    between atoms: C2_2  and  C3_3 
REMARK    2  A    between atoms: C3_3  and  C4_4 
REMARK    3  A    between atoms: C4_4  and  C5_5 
REMARK       I    between atoms: C5_5  and  N1_7 
REMARK    4  A    between atoms: N1_7  and  N2_9 
REMARK       I    between atoms: N2_9  and  C6_10 
REMARK    5  A    between atoms: C6_10  and  C7_12 
REMARK       I    between atoms: C7_12  and  N3_14 
REMARK    6  A    between atoms: N3_14  and  N4_16 
REMARK       I    between atoms: N4_16  and  C8_17 
REMARK       I    between atoms: C8_17  and  N5_19 
ROOT
HETATM    1  N2  UNL     1      55.348  15.461  42.892  1.00  0.00    -0.274 NA
HETATM    2  C6  UNL     1      55.254  15.058  44.202  1.00  0.00     0.405 C 
HETATM    3  O2  UNL     1      55.040  14.531  45.257  1.00  0.00    -0.244 OA
ENDROOT
BRANCH   2   4
HETATM    4  C7  UNL     1      56.111  16.395  44.865  1.00  0.00     0.354 C 
HETATM    5  O3  UNL     1      55.555  17.100  45.543  1.00  0.00    -0.258 OA
HETATM    6  N3  UNL     1      57.437  16.339  44.381  1.00  0.00    -0.188 N 
ATOM      7  H3  UNL     1      57.592  15.506  43.812  1.00  0.00     0.205 HD
BRANCH   6   8
HETATM    8  N4  UNL     1      58.477  17.039  44.464  1.00  0.00    -0.249 NA
HETATM    9  C8  UNL     1      59.734  17.795  44.694  1.00  0.00     0.490 C 
HETATM   10  O4  UNL     1      60.459  17.542  45.660  1.00  0.00    -0.212 OA
HETATM   11  N5  UNL     1      59.901  18.818  43.738  1.00  0.00    -0.363 NA
HETATM   12  C9  UNL     1      60.307  19.887  43.006  1.00  0.00     0.236 C 
ENDBRANCH   6   8
ENDBRANCH   2   4
BRANCH   1  13
HETATM   13  N1  UNL     1      55.419  15.804  41.723  1.00  0.00    -0.199 N 
HETATM   14  C5  UNL     1      56.074  15.679  40.509  1.00  0.00     0.246 C 
HETATM   15  O1  UNL     1      57.157  15.001  40.351  1.00  0.00    -0.271 OA
ATOM     16  H1  UNL     1      54.668  16.479  41.576  1.00  0.00     0.205 HD
BRANCH  14  17
HETATM   17  C4  UNL     1      55.458  16.316  39.294  1.00  0.00     0.105 C 
BRANCH  17  18
HETATM   18  C3  UNL     1      55.091  17.746  39.670  1.00  0.00     0.009 C 
BRANCH  18  19
HETATM   19  C2  UNL     1      53.661  18.053  39.233  1.00  0.00    -0.004 C 
HETATM   20  C1  UNL     1      53.312  16.945  38.194  1.00  0.00     0.005 C 
ENDBRANCH  18  19
ENDBRANCH  17  18
ENDBRANCH  14  17
ENDBRANCH   1  13
TORSDOF 6
ENDMDL
