MODEL 1
REMARK VINA RESULT: -6.801549980      0.000      0.000
REMARK  6 active torsions:
REMARK  status: ('A' for Active; 'I' for Inactive)
REMARK    1  A    between atoms: C2_2  and  C3_3 
REMARK    2  A    between atoms: C3_3  and  N1_4 
REMARK    3  A    between atoms: C5_7  and  C6_8 
REMARK    4  A    between atoms: C6_8  and  N2_9 
REMARK    5  A    between atoms: N2_9  and  C7_12 
REMARK    6  A    between atoms: C12_20  and  C13_21 
ROOT
HETATM    1  N1  UNL     1      50.540  56.368  20.856  1.00  0.00    -0.347 N 
HETATM    2  C4  UNL     1      51.041  55.277  20.154  1.00  0.00     0.229 C 
HETATM    3  O1  UNL     1      50.938  54.033  20.745  1.00  0.00    -0.339 OA
HETATM    4  C5  UNL     1      49.861  53.850  21.563  1.00  0.00     0.157 C 
HETATM    5  C11 UNL     1      48.762  54.835  21.262  1.00  0.00     0.059 C 
HETATM    6  C12 UNL     1      49.388  56.191  21.655  1.00  0.00     0.092 C 
ENDROOT
BRANCH   4   7
HETATM    7  C6  UNL     1      49.401  52.452  21.712  1.00  0.00     0.265 C 
BRANCH   7   8
HETATM    8  N2  UNL     1      50.416  51.488  22.065  1.00  0.00    -0.067 N 
ATOM      9  H22 UNL     1      51.366  51.852  21.993  1.00  0.00     0.277 HD
ATOM     10  H21 UNL     1      50.443  51.270  23.060  1.00  0.00     0.277 HD
BRANCH   8  11
HETATM   11  C7  UNL     1      50.174  50.333  21.226  1.00  0.00     0.213 C 
HETATM   12  C8  UNL     1      49.201  50.576  20.100  1.00  0.00     0.062 C 
HETATM   13  C9  UNL     1      49.531  49.368  19.210  1.00  0.00     0.234 C 
HETATM   14  N3  UNL     1      50.950  49.159  19.346  1.00  0.00    -0.073 N 
HETATM   15  C10 UNL     1      51.412  49.908  20.477  1.00  0.00     0.265 C 
ATOM     16  H32 UNL     1      51.196  48.171  19.403  1.00  0.00     0.277 HD
ATOM     17  H31 UNL     1      51.462  49.381  18.493  1.00  0.00     0.277 HD
ENDBRANCH   8  11
ENDBRANCH   7   8
ENDBRANCH   4   7
BRANCH   6  18
HETATM   18  C13 UNL     1      48.383  57.269  21.706  1.00  0.00     0.021 C 
HETATM   19  C14 UNL     1      47.098  57.038  20.990  1.00  0.00     0.007 C 
ENDBRANCH   6  18
BRANCH   1  20
HETATM   20  C3  UNL     1      51.245  57.579  20.941  1.00  0.00     0.065 C 
BRANCH  20  21
HETATM   21  C2  UNL     1      52.717  57.609  21.058  1.00  0.00     0.040 C 
HETATM   22  C1  UNL     1      53.377  57.007  22.249  1.00  0.00     0.010 C 
ENDBRANCH  20  21
ENDBRANCH   1  20
TORSDOF 6
ENDMDL
MODEL 2
REMARK VINA RESULT: -6.690399659      5.005      9.258
REMARK  6 active torsions:
REMARK  status: ('A' for Active; 'I' for Inactive)
REMARK    1  A    between atoms: C2_2  and  C3_3 
REMARK    2  A    between atoms: C3_3  and  N1_4 
REMARK    3  A    between atoms: C5_7  and  C6_8 
REMARK    4  A    between atoms: C6_8  and  N2_9 
REMARK    5  A    between atoms: N2_9  and  C7_12 
REMARK    6  A    between atoms: C12_20  and  C13_21 
ROOT
HETATM    1  N1  UNL     1      45.513  46.377  17.084  1.00  0.00    -0.347 N 
HETATM    2  C4  UNL     1      46.890  46.208  17.188  1.00  0.00     0.229 C 
HETATM    3  O1  UNL     1      47.668  47.344  17.298  1.00  0.00    -0.339 OA
HETATM    4  C5  UNL     1      47.087  48.404  17.931  1.00  0.00     0.157 C 
HETATM    5  C11 UNL     1      45.941  47.968  18.806  1.00  0.00     0.059 C 
HETATM    6  C12 UNL     1      44.904  47.439  17.790  1.00  0.00     0.092 C 
ENDROOT
BRANCH   4   7
HETATM    7  C6  UNL     1      48.019  49.353  18.578  1.00  0.00     0.265 C 
BRANCH   7   8
HETATM    8  N2  UNL     1      49.424  49.117  18.342  1.00  0.00    -0.067 N 
ATOM      9  H22 UNL     1      49.630  48.170  18.024  1.00  0.00     0.277 HD
ATOM     10  H21 UNL     1      49.787  49.603  17.523  1.00  0.00     0.277 HD
BRANCH   8  11
HETATM   11  C7  UNL     1      50.098  49.473  19.573  1.00  0.00     0.213 C 
HETATM   12  C8  UNL     1      49.876  50.898  20.012  1.00  0.00     0.062 C 
HETATM   13  C9  UNL     1      50.313  50.785  21.481  1.00  0.00     0.234 C 
HETATM   14  N3  UNL     1      49.897  49.476  21.912  1.00  0.00    -0.073 N 
HETATM   15  C10 UNL     1      49.566  48.700  20.753  1.00  0.00     0.265 C 
ATOM     16  H32 UNL     1      50.591  49.019  22.504  1.00  0.00     0.277 HD
ATOM     17  H31 UNL     1      49.137  49.511  22.591  1.00  0.00     0.277 HD
ENDBRANCH   8  11
ENDBRANCH   7   8
ENDBRANCH   4   7
BRANCH   6  18
HETATM   18  C13 UNL     1      43.585  47.219  18.411  1.00  0.00     0.021 C 
HETATM   19  C14 UNL     1      43.548  46.429  19.672  1.00  0.00     0.007 C 
ENDBRANCH   6  18
BRANCH   1  20
HETATM   20  C3  UNL     1      44.746  45.646  16.164  1.00  0.00     0.065 C 
BRANCH  20  21
HETATM   21  C2  UNL     1      44.287  46.244  14.894  1.00  0.00     0.040 C 
HETATM   22  C1  UNL     1      45.207  47.111  14.108  1.00  0.00     0.010 C 
ENDBRANCH  20  21
ENDBRANCH   1  20
TORSDOF 6
ENDMDL
MODEL 3
REMARK VINA RESULT: -6.678061695      3.933      7.449
REMARK  6 active torsions:
REMARK  status: ('A' for Active; 'I' for Inactive)
REMARK    1  A    between atoms: C2_2  and  C3_3 
REMARK    2  A    between atoms: C3_3  and  N1_4 
REMARK    3  A    between atoms: C5_7  and  C6_8 
REMARK    4  A    between atoms: C6_8  and  N2_9 
REMARK    5  A    between atoms: N2_9  and  C7_12 
REMARK    6  A    between atoms: C12_20  and  C13_21 
ROOT
HETATM    1  N1  UNL     1      46.383  49.036  17.764  1.00  0.00    -0.347 N 
HETATM    2  C4  UNL     1      47.250  48.451  18.682  1.00  0.00     0.229 C 
HETATM    3  O1  UNL     1      48.605  48.649  18.497  1.00  0.00    -0.339 OA
HETATM    4  C5  UNL     1      48.961  49.832  17.918  1.00  0.00     0.157 C 
HETATM    5  C11 UNL     1      47.876  50.869  18.062  1.00  0.00     0.059 C 
HETATM    6  C12 UNL     1      46.723  50.290  17.212  1.00  0.00     0.092 C 
ENDROOT
BRANCH   4   7
HETATM    7  C6  UNL     1      50.318  50.322  18.245  1.00  0.00     0.265 C 
BRANCH   7   8
HETATM    8  N2  UNL     1      51.044  49.557  19.231  1.00  0.00    -0.067 N 
ATOM      9  H22 UNL     1      50.678  48.615  19.366  1.00  0.00     0.277 HD
ATOM     10  H21 UNL     1      51.978  49.284  18.927  1.00  0.00     0.277 HD
BRANCH   8  11
HETATM   11  C7  UNL     1      51.039  50.359  20.437  1.00  0.00     0.213 C 
HETATM   12  C8  UNL     1      50.736  51.819  20.210  1.00  0.00     0.062 C 
HETATM   13  C9  UNL     1      50.372  52.231  21.645  1.00  0.00     0.234 C 
HETATM   14  N3  UNL     1      49.699  51.095  22.219  1.00  0.00    -0.073 N 
HETATM   15  C10 UNL     1      49.932  49.957  21.378  1.00  0.00     0.265 C 
ATOM     16  H32 UNL     1      49.968  50.928  23.188  1.00  0.00     0.277 HD
ATOM     17  H31 UNL     1      48.706  51.267  22.378  1.00  0.00     0.277 HD
ENDBRANCH   8  11
ENDBRANCH   7   8
ENDBRANCH   4   7
BRANCH   6  18
HETATM   18  C13 UNL     1      45.656  51.283  16.982  1.00  0.00     0.021 C 
HETATM   19  C14 UNL     1      45.746  52.106  15.746  1.00  0.00     0.007 C 
ENDBRANCH   6  18
BRANCH   1  20
HETATM   20  C3  UNL     1      45.285  48.338  17.239  1.00  0.00     0.065 C 
BRANCH  20  21
HETATM   21  C2  UNL     1      44.059  48.115  18.033  1.00  0.00     0.040 C 
HETATM   22  C1  UNL     1      43.937  46.897  18.879  1.00  0.00     0.010 C 
ENDBRANCH  20  21
ENDBRANCH   1  20
TORSDOF 6
ENDMDL
MODEL 4
REMARK VINA RESULT: -6.674911392      4.649      8.675
REMARK  6 active torsions:
REMARK  status: ('A' for Active; 'I' for Inactive)
REMARK    1  A    between atoms: C2_2  and  C3_3 
REMARK    2  A    between atoms: C3_3  and  N1_4 
REMARK    3  A    between atoms: C5_7  and  C6_8 
REMARK    4  A    between atoms: C6_8  and  N2_9 
REMARK    5  A    between atoms: N2_9  and  C7_12 
REMARK    6  A    between atoms: C12_20  and  C13_21 
ROOT
HETATM    1  N1  UNL     1      46.218  47.263  16.521  1.00  0.00    -0.347 N 
HETATM    2  C4  UNL     1      47.599  47.107  16.578  1.00  0.00     0.229 C 
HETATM    3  O1  UNL     1      48.370  48.251  16.656  1.00  0.00    -0.339 OA
HETATM    4  C5  UNL     1      47.801  49.309  17.303  1.00  0.00     0.157 C 
HETATM    5  C11 UNL     1      46.689  48.867  18.219  1.00  0.00     0.059 C 
HETATM    6  C12 UNL     1      45.624  48.323  17.242  1.00  0.00     0.092 C 
ENDROOT
BRANCH   4   7
HETATM    7  C6  UNL     1      48.746  50.270  17.913  1.00  0.00     0.265 C 
BRANCH   7   8
HETATM    8  N2  UNL     1      50.107  49.810  18.056  1.00  0.00    -0.067 N 
ATOM      9  H22 UNL     1      50.198  48.795  18.044  1.00  0.00     0.277 HD
ATOM     10  H21 UNL     1      50.688  49.995  17.239  1.00  0.00     0.277 HD
BRANCH   8  11
HETATM   11  C7  UNL     1      50.606  50.422  19.270  1.00  0.00     0.213 C 
HETATM   12  C8  UNL     1      49.554  51.134  20.083  1.00  0.00     0.062 C 
HETATM   13  C9  UNL     1      50.294  51.238  21.426  1.00  0.00     0.234 C 
HETATM   14  N3  UNL     1      51.070  50.030  21.538  1.00  0.00    -0.073 N 
HETATM   15  C10 UNL     1      51.113  49.397  20.253  1.00  0.00     0.265 C 
ATOM     16  H32 UNL     1      51.999  50.195  21.925  1.00  0.00     0.277 HD
ATOM     17  H31 UNL     1      50.723  49.408  22.269  1.00  0.00     0.277 HD
ENDBRANCH   8  11
ENDBRANCH   7   8
ENDBRANCH   4   7
BRANCH   6  18
HETATM   18  C13 UNL     1      44.329  48.094  17.909  1.00  0.00     0.021 C 
HETATM   19  C14 UNL     1      44.316  47.167  19.074  1.00  0.00     0.007 C 
ENDBRANCH   6  18
BRANCH   1  20
HETATM   20  C3  UNL     1      45.427  46.520  15.632  1.00  0.00     0.065 C 
BRANCH  20  21
HETATM   21  C2  UNL     1      44.933  47.101  14.367  1.00  0.00     0.040 C 
HETATM   22  C1  UNL     1      45.858  47.879  13.498  1.00  0.00     0.010 C 
ENDBRANCH  20  21
ENDBRANCH   1  20
TORSDOF 6
ENDMDL
MODEL 5
REMARK VINA RESULT: -6.613784998      4.381      8.672
REMARK  6 active torsions:
REMARK  status: ('A' for Active; 'I' for Inactive)
REMARK    1  A    between atoms: C2_2  and  C3_3 
REMARK    2  A    between atoms: C3_3  and  N1_4 
REMARK    3  A    between atoms: C5_7  and  C6_8 
REMARK    4  A    between atoms: C6_8  and  N2_9 
REMARK    5  A    between atoms: N2_9  and  C7_12 
REMARK    6  A    between atoms: C12_20  and  C13_21 
ROOT
HETATM    1  N1  UNL     1      46.174  47.984  16.404  1.00  0.00    -0.347 N 
HETATM    2  C4  UNL     1      47.492  47.540  16.423  1.00  0.00     0.229 C 
HETATM    3  O1  UNL     1      48.396  48.251  17.188  1.00  0.00    -0.339 OA
HETATM    4  C5  UNL     1      47.889  48.852  18.303  1.00  0.00     0.157 C 
HETATM    5  C11 UNL     1      46.595  48.214  18.738  1.00  0.00     0.059 C 
HETATM    6  C12 UNL     1      45.631  48.551  17.579  1.00  0.00     0.092 C 
ENDROOT
BRANCH   4   7
HETATM    7  C6  UNL     1      48.853  49.081  19.401  1.00  0.00     0.265 C 
BRANCH   7   8
HETATM    8  N2  UNL     1      50.221  49.316  19.001  1.00  0.00    -0.067 N 
ATOM      9  H22 UNL     1      50.810  48.486  19.060  1.00  0.00     0.277 HD
ATOM     10  H21 UNL     1      50.331  49.474  18.000  1.00  0.00     0.277 HD
BRANCH   8  11
HETATM   11  C7  UNL     1      50.689  50.417  19.816  1.00  0.00     0.213 C 
HETATM   12  C8  UNL     1      49.851  51.667  19.711  1.00  0.00     0.062 C 
HETATM   13  C9  UNL     1      50.329  52.402  20.973  1.00  0.00     0.234 C 
HETATM   14  N3  UNL     1      50.569  51.377  21.955  1.00  0.00    -0.073 N 
HETATM   15  C10 UNL     1      50.599  50.109  21.289  1.00  0.00     0.265 C 
ATOM     16  H32 UNL     1      51.410  51.551  22.505  1.00  0.00     0.277 HD
ATOM     17  H31 UNL     1      49.894  51.402  22.720  1.00  0.00     0.277 HD
ENDBRANCH   8  11
ENDBRANCH   7   8
ENDBRANCH   4   7
BRANCH   6  18
HETATM   18  C13 UNL     1      44.227  48.262  17.927  1.00  0.00     0.021 C 
HETATM   19  C14 UNL     1      43.961  47.029  18.717  1.00  0.00     0.007 C 
ENDBRANCH   6  18
BRANCH   1  20
HETATM   20  C3  UNL     1      45.435  48.055  15.213  1.00  0.00     0.065 C 
BRANCH  20  21
HETATM   21  C2  UNL     1      45.064  46.839  14.461  1.00  0.00     0.040 C 
HETATM   22  C1  UNL     1      44.499  45.665  15.183  1.00  0.00     0.010 C 
ENDBRANCH  20  21
ENDBRANCH   1  20
TORSDOF 6
ENDMDL
