MODEL 1
REMARK VINA RESULT: -5.952878067      0.000      0.000
REMARK  4 active torsions:
REMARK  status: ('A' for Active; 'I' for Inactive)
REMARK    1  A    between atoms: C5_8  and  C6_9 
REMARK    2  A    between atoms: C6_9  and  C7_10 
REMARK    3  A    between atoms: C7_10  and  N3_11 
REMARK    4  A    between atoms: N3_11  and  C8_13 
ROOT
HETATM    1  C7  UNL     1       4.786  21.560  73.750  1.00  0.00     0.068 C 
ENDROOT
BRANCH   1   2
HETATM    2  C6  UNL     1       5.345  21.978  75.075  1.00  0.00     0.120 C 
BRANCH   2   3
HETATM    3  C5  UNL     1       5.962  20.822  75.802  1.00  0.00     0.079 C 
HETATM    4  N1  UNL     1       6.547  21.065  77.058  1.00  0.00    -0.375 N 
HETATM    5  C1  UNL     1       7.161  22.329  77.366  1.00  0.00     0.150 C 
HETATM    6  C2  UNL     1       6.519  19.981  78.044  1.00  0.00     0.125 C 
HETATM    7  C3  UNL     1       7.113  18.788  77.345  1.00  0.00     0.039 C 
HETATM    8  C4  UNL     1       6.553  18.531  75.995  1.00  0.00     0.122 C 
HETATM    9  N2  UNL     1       5.971  19.637  75.318  1.00  0.00    -0.380 N 
ATOM     10  H2  UNL     1       5.540  19.480  74.407  1.00  0.00     0.160 HD
ENDBRANCH   2   3
ENDBRANCH   1   2
BRANCH   1  11
HETATM   11  N3  UNL     1       5.571  21.820  72.633  1.00  0.00    -0.376 N 
ATOM     12  H3  UNL     1       5.434  22.725  72.183  1.00  0.00     0.164 HD
BRANCH  11  13
HETATM   13  C8  UNL     1       6.508  20.996  72.070  1.00  0.00    -0.011 C 
HETATM   14  C9  UNL     1       7.905  21.229  72.622  1.00  0.00     0.080 C 
HETATM   15  C10 UNL     1       8.804  20.062  72.209  1.00  0.00     0.238 C 
HETATM   16  N4  UNL     1       8.838  20.051  70.762  1.00  0.00    -0.074 N 
HETATM   17  C11 UNL     1       7.517  19.597  70.321  1.00  0.00     0.238 C 
ATOM     18  H42 UNL     1       9.114  20.945  70.357  1.00  0.00     0.277 HD
ATOM     19  H41 UNL     1       9.604  19.497  70.380  1.00  0.00     0.277 HD
HETATM   20  C12 UNL     1       6.526  20.734  70.595  1.00  0.00     0.080 C 
ENDBRANCH  11  13
ENDBRANCH   1  11
TORSDOF 4
ENDMDL
MODEL 2
REMARK VINA RESULT: -5.629375114      1.343      2.463
REMARK  4 active torsions:
REMARK  status: ('A' for Active; 'I' for Inactive)
REMARK    1  A    between atoms: C5_8  and  C6_9 
REMARK    2  A    between atoms: C6_9  and  C7_10 
REMARK    3  A    between atoms: C7_10  and  N3_11 
REMARK    4  A    between atoms: N3_11  and  C8_13 
ROOT
HETATM    1  C7  UNL     1       6.124  18.061  73.551  1.00  0.00     0.068 C 
ENDROOT
BRANCH   1   2
HETATM    2  C6  UNL     1       6.493  18.488  74.939  1.00  0.00     0.120 C 
BRANCH   2   3
HETATM    3  C5  UNL     1       5.999  19.870  75.240  1.00  0.00     0.079 C 
HETATM    4  N1  UNL     1       6.390  20.465  76.453  1.00  0.00    -0.375 N 
HETATM    5  C1  UNL     1       6.631  19.674  77.630  1.00  0.00     0.150 C 
HETATM    6  C2  UNL     1       6.536  21.923  76.481  1.00  0.00     0.125 C 
HETATM    7  C3  UNL     1       5.233  22.467  75.959  1.00  0.00     0.039 C 
HETATM    8  C4  UNL     1       4.765  21.827  74.704  1.00  0.00     0.122 C 
HETATM    9  N2  UNL     1       5.242  20.515  74.433  1.00  0.00    -0.380 N 
ATOM     10  H2  UNL     1       4.970  20.069  73.557  1.00  0.00     0.160 HD
ENDBRANCH   2   3
ENDBRANCH   1   2
BRANCH   1  11
HETATM   11  N3  UNL     1       6.176  19.038  72.565  1.00  0.00    -0.376 N 
ATOM     12  H3  UNL     1       5.318  19.565  72.402  1.00  0.00     0.164 HD
BRANCH  11  13
HETATM   13  C8  UNL     1       7.252  19.373  71.787  1.00  0.00    -0.011 C 
HETATM   14  C9  UNL     1       8.365  20.044  72.577  1.00  0.00     0.080 C 
HETATM   15  C10 UNL     1       9.635  20.065  71.726  1.00  0.00     0.238 C 
HETATM   16  N4  UNL     1       9.333  20.838  70.540  1.00  0.00    -0.074 N 
HETATM   17  C11 UNL     1       8.430  20.017  69.730  1.00  0.00     0.238 C 
ATOM     18  H42 UNL     1       8.961  21.766  70.746  1.00  0.00     0.277 HD
ATOM     19  H41 UNL     1      10.164  21.145  70.035  1.00  0.00     0.277 HD
HETATM   20  C12 UNL     1       7.070  19.997  70.438  1.00  0.00     0.080 C 
ENDBRANCH  11  13
ENDBRANCH   1  11
TORSDOF 4
ENDMDL
MODEL 3
REMARK VINA RESULT: -5.441192203      0.753      1.365
REMARK  4 active torsions:
REMARK  status: ('A' for Active; 'I' for Inactive)
REMARK    1  A    between atoms: C5_8  and  C6_9 
REMARK    2  A    between atoms: C6_9  and  C7_10 
REMARK    3  A    between atoms: C7_10  and  N3_11 
REMARK    4  A    between atoms: N3_11  and  C8_13 
ROOT
HETATM    1  C7  UNL     1       5.584  22.276  73.958  1.00  0.00     0.068 C 
ENDROOT
BRANCH   1   2
HETATM    2  C6  UNL     1       5.211  22.099  75.399  1.00  0.00     0.120 C 
BRANCH   2   3
HETATM    3  C5  UNL     1       5.881  20.900  75.997  1.00  0.00     0.079 C 
HETATM    4  N1  UNL     1       6.578  21.064  77.208  1.00  0.00    -0.375 N 
HETATM    5  C1  UNL     1       7.227  22.306  77.535  1.00  0.00     0.150 C 
HETATM    6  C2  UNL     1       6.628  19.923  78.126  1.00  0.00     0.125 C 
HETATM    7  C3  UNL     1       7.149  18.772  77.307  1.00  0.00     0.039 C 
HETATM    8  C4  UNL     1       6.468  18.599  75.999  1.00  0.00     0.122 C 
HETATM    9  N2  UNL     1       5.837  19.746  75.444  1.00  0.00    -0.380 N 
ATOM     10  H2  UNL     1       5.326  19.645  74.567  1.00  0.00     0.160 HD
ENDBRANCH   2   3
ENDBRANCH   1   2
BRANCH   1  11
HETATM   11  N3  UNL     1       6.884  21.935  73.605  1.00  0.00    -0.376 N 
ATOM     12  H3  UNL     1       7.615  22.182  74.273  1.00  0.00     0.164 HD
BRANCH  11  13
HETATM   13  C8  UNL     1       7.292  21.304  72.461  1.00  0.00    -0.011 C 
HETATM   14  C9  UNL     1       6.131  20.820  71.608  1.00  0.00     0.080 C 
HETATM   15  C10 UNL     1       6.655  20.451  70.219  1.00  0.00     0.238 C 
HETATM   16  N4  UNL     1       7.614  19.383  70.403  1.00  0.00    -0.074 N 
HETATM   17  C11 UNL     1       8.792  19.988  71.028  1.00  0.00     0.238 C 
ATOM     18  H42 UNL     1       7.242  18.590  70.925  1.00  0.00     0.277 HD
ATOM     19  H41 UNL     1       7.827  18.878  69.543  1.00  0.00     0.277 HD
HETATM   20  C12 UNL     1       8.422  20.321  72.478  1.00  0.00     0.080 C 
ENDBRANCH  11  13
ENDBRANCH   1  11
TORSDOF 4
ENDMDL
MODEL 4
REMARK VINA RESULT: -5.416128949      1.276      1.696
REMARK  4 active torsions:
REMARK  status: ('A' for Active; 'I' for Inactive)
REMARK    1  A    between atoms: C5_8  and  C6_9 
REMARK    2  A    between atoms: C6_9  and  C7_10 
REMARK    3  A    between atoms: C7_10  and  N3_11 
REMARK    4  A    between atoms: N3_11  and  C8_13 
ROOT
HETATM    1  C7  UNL     1       4.809  22.343  74.782  1.00  0.00     0.068 C 
ENDROOT
BRANCH   1   2
HETATM    2  C6  UNL     1       5.899  22.508  75.797  1.00  0.00     0.120 C 
BRANCH   2   3
HETATM    3  C5  UNL     1       6.261  21.201  76.434  1.00  0.00     0.079 C 
HETATM    4  N1  UNL     1       6.892  21.227  77.691  1.00  0.00    -0.375 N 
HETATM    5  C1  UNL     1       7.761  22.310  78.069  1.00  0.00     0.150 C 
HETATM    6  C2  UNL     1       6.640  20.108  78.603  1.00  0.00     0.125 C 
HETATM    7  C3  UNL     1       6.964  18.868  77.816  1.00  0.00     0.039 C 
HETATM    8  C4  UNL     1       6.354  18.828  76.462  1.00  0.00     0.122 C 
HETATM    9  N2  UNL     1       6.016  20.077  75.872  1.00  0.00    -0.380 N 
ATOM     10  H2  UNL     1       5.557  20.077  74.961  1.00  0.00     0.160 HD
ENDBRANCH   2   3
ENDBRANCH   1   2
BRANCH   1  11
HETATM   11  N3  UNL     1       5.200  22.325  73.448  1.00  0.00    -0.376 N 
ATOM     12  H3  UNL     1       5.111  23.204  72.938  1.00  0.00     0.164 HD
BRANCH  11  13
HETATM   13  C8  UNL     1       5.691  21.260  72.743  1.00  0.00    -0.011 C 
HETATM   14  C9  UNL     1       4.978  19.958  73.070  1.00  0.00     0.080 C 
HETATM   15  C10 UNL     1       5.339  18.914  72.012  1.00  0.00     0.238 C 
HETATM   16  N4  UNL     1       6.773  18.725  72.082  1.00  0.00    -0.074 N 
HETATM   17  C11 UNL     1       7.377  19.942  71.536  1.00  0.00     0.238 C 
ATOM     18  H42 UNL     1       7.105  18.493  73.018  1.00  0.00     0.277 HD
ATOM     19  H41 UNL     1       7.091  17.874  71.620  1.00  0.00     0.277 HD
HETATM   20  C12 UNL     1       7.165  21.060  72.564  1.00  0.00     0.080 C 
ENDBRANCH  11  13
ENDBRANCH   1  11
TORSDOF 4
ENDMDL
MODEL 5
REMARK VINA RESULT: -5.262581717      1.538      5.270
REMARK  4 active torsions:
REMARK  status: ('A' for Active; 'I' for Inactive)
REMARK    1  A    between atoms: C5_8  and  C6_9 
REMARK    2  A    between atoms: C6_9  and  C7_10 
REMARK    3  A    between atoms: C7_10  and  N3_11 
REMARK    4  A    between atoms: N3_11  and  C8_13 
ROOT
HETATM    1  C7  UNL     1       5.295  22.065  73.932  1.00  0.00     0.068 C 
ENDROOT
BRANCH   1   2
HETATM    2  C6  UNL     1       5.230  20.743  73.229  1.00  0.00     0.120 C 
BRANCH   2   3
HETATM    3  C5  UNL     1       6.527  20.413  72.555  1.00  0.00     0.079 C 
HETATM    4  N1  UNL     1       6.606  19.218  71.817  1.00  0.00    -0.375 N 
HETATM    5  C1  UNL     1       5.842  18.058  72.190  1.00  0.00     0.150 C 
HETATM    6  C2  UNL     1       7.502  19.191  70.658  1.00  0.00     0.125 C 
HETATM    7  C3  UNL     1       8.841  19.646  71.174  1.00  0.00     0.039 C 
HETATM    8  C4  UNL     1       8.788  20.880  71.999  1.00  0.00     0.122 C 
HETATM    9  N2  UNL     1       7.550  21.179  72.631  1.00  0.00    -0.380 N 
ATOM     10  H2  UNL     1       7.474  22.042  73.169  1.00  0.00     0.160 HD
ENDBRANCH   2   3
ENDBRANCH   1   2
BRANCH   1  11
HETATM   11  N3  UNL     1       5.078  22.050  75.305  1.00  0.00    -0.376 N 
ATOM     12  H3  UNL     1       4.389  22.712  75.662  1.00  0.00     0.164 HD
BRANCH  11  13
HETATM   13  C8  UNL     1       5.686  21.246  76.230  1.00  0.00    -0.011 C 
HETATM   14  C9  UNL     1       6.817  21.945  76.967  1.00  0.00     0.080 C 
HETATM   15  C10 UNL     1       7.199  21.115  78.194  1.00  0.00     0.238 C 
HETATM   16  N4  UNL     1       7.648  19.828  77.705  1.00  0.00    -0.074 N 
HETATM   17  C11 UNL     1       6.454  19.132  77.219  1.00  0.00     0.238 C 
ATOM     18  H42 UNL     1       8.389  19.896  77.008  1.00  0.00     0.277 HD
ATOM     19  H41 UNL     1       8.174  19.294  78.397  1.00  0.00     0.277 HD
HETATM   20  C12 UNL     1       6.021  19.819  75.919  1.00  0.00     0.080 C 
ENDBRANCH  11  13
ENDBRANCH   1  11
TORSDOF 4
ENDMDL
