MODEL 1
REMARK VINA RESULT: -7.600081335      0.000      0.000
REMARK  4 active torsions:
REMARK  status: ('A' for Active; 'I' for Inactive)
REMARK    1  A    between atoms: C2_2  and  C3_3 
REMARK    2  A    between atoms: C3_3  and  N1_4 
REMARK       I    between atoms: N1_4  and  C4_6 
REMARK       I    between atoms: C4_6  and  N2_8 
REMARK    3  A    between atoms: N7_25  and  C14_26 
REMARK    4  A    between atoms: C14_26  and  C15_27 
ROOT
HETATM    1  N1  UNL     1       9.787   8.714  24.886  1.00  0.00    -0.343 N 
ATOM      2  H1  UNL     1       8.933   8.427  25.365  1.00  0.00     0.164 HD
HETATM    3  C4  UNL     1       9.724   8.989  23.497  1.00  0.00     0.323 C 
HETATM    4  O1  UNL     1      10.820   9.352  22.941  1.00  0.00    -0.247 OA
HETATM    5  N2  UNL     1       8.553   8.885  22.725  1.00  0.00    -0.300 N 
HETATM    6  C5  UNL     1       8.499   9.183  21.309  1.00  0.00     0.148 C 
HETATM    7  C6  UNL     1       7.085   9.761  21.118  1.00  0.00     0.088 C 
HETATM    8  C7  UNL     1       7.119  10.566  19.921  1.00  0.00    -0.006 C 
HETATM    9  C8  UNL     1       7.955  11.815  20.085  1.00  0.00     0.064 C 
HETATM   10  N3  UNL     1       6.623  10.514  18.726  1.00  0.00    -0.346 N 
ATOM     11  H3  UNL     1       6.842  11.274  18.083  1.00  0.00     0.167 HD
HETATM   12  C9  UNL     1       5.795   9.466  18.257  1.00  0.00     0.162 A 
HETATM   13  C10 UNL     1       5.247   9.517  16.978  1.00  0.00     0.127 A 
HETATM   14 BR1  UNL     1       5.456  10.889  15.664  1.00  0.00    -0.027 Br
HETATM   15  N4  UNL     1       4.531   8.384  16.860  1.00  0.00    -0.342 N 
ATOM     16  H4  UNL     1       3.998   8.112  16.033  1.00  0.00     0.167 HD
HETATM   17  C11 UNL     1       4.620   7.661  17.995  1.00  0.00     0.209 A 
HETATM   18  N5  UNL     1       5.409   8.334  18.867  1.00  0.00    -0.234 N 
HETATM   19  N6  UNL     1       5.744   7.916  20.154  1.00  0.00    -0.303 N 
HETATM   20  C12 UNL     1       5.763   6.451  20.307  1.00  0.00     0.173 C 
HETATM   21  C13 UNL     1       6.056   8.742  21.282  1.00  0.00     0.192 C 
HETATM   22  N7  UNL     1       6.344   7.915  22.449  1.00  0.00    -0.255 NA
HETATM   23  C18 UNL     1       7.321   8.461  23.342  1.00  0.00     0.160 C 
ENDROOT
BRANCH   1  24
HETATM   24  C3  UNL     1      10.997   8.822  25.652  1.00  0.00     0.124 C 
BRANCH  24  25
HETATM   25  C2  UNL     1      11.309   7.641  26.513  1.00  0.00     0.015 C 
HETATM   26  C1  UNL     1       9.985   7.114  27.066  1.00  0.00     0.006 C 
ENDBRANCH  24  25
ENDBRANCH   1  24
BRANCH  22  27
HETATM   27  C14 UNL     1       5.152   7.588  23.165  1.00  0.00     0.103 C 
BRANCH  27  28
HETATM   28  C15 UNL     1       4.912   8.313  24.441  1.00  0.00    -0.001 A 
HETATM   29  C16 UNL     1       3.810   9.364  24.325  1.00  0.00     0.006 A 
HETATM   30  C17 UNL     1       3.536   8.143  25.116  1.00  0.00     0.006 A 
ENDBRANCH  27  28
ENDBRANCH  22  27
TORSDOF 4
ENDMDL
MODEL 2
REMARK VINA RESULT: -7.397351152      4.297      7.231
REMARK  4 active torsions:
REMARK  status: ('A' for Active; 'I' for Inactive)
REMARK    1  A    between atoms: C2_2  and  C3_3 
REMARK    2  A    between atoms: C3_3  and  N1_4 
REMARK       I    between atoms: N1_4  and  C4_6 
REMARK       I    between atoms: C4_6  and  N2_8 
REMARK    3  A    between atoms: N7_25  and  C14_26 
REMARK    4  A    between atoms: C14_26  and  C15_27 
ROOT
HETATM    1  N1  UNL     1       6.817   3.063  19.586  1.00  0.00    -0.343 N 
ATOM      2  H1  UNL     1       7.372   3.866  19.291  1.00  0.00     0.164 HD
HETATM    3  C4  UNL     1       5.772   3.270  20.522  1.00  0.00     0.323 C 
HETATM    4  O1  UNL     1       5.099   2.233  20.858  1.00  0.00    -0.247 OA
HETATM    5  N2  UNL     1       5.450   4.521  21.080  1.00  0.00    -0.300 N 
HETATM    6  C5  UNL     1       4.371   4.723  22.024  1.00  0.00     0.148 C 
HETATM    7  C6  UNL     1       3.860   6.135  21.688  1.00  0.00     0.088 C 
HETATM    8  C7  UNL     1       2.501   6.214  22.163  1.00  0.00    -0.006 C 
HETATM    9  C8  UNL     1       1.557   5.337  21.371  1.00  0.00     0.064 C 
HETATM   10  N3  UNL     1       1.854   6.838  23.096  1.00  0.00    -0.346 N 
ATOM     11  H3  UNL     1       0.850   6.673  23.175  1.00  0.00     0.167 HD
HETATM   12  C9  UNL     1       2.454   7.736  24.010  1.00  0.00     0.162 A 
HETATM   13  C10 UNL     1       1.677   8.419  24.943  1.00  0.00     0.127 A 
HETATM   14 BR1  UNL     1      -0.216   8.323  25.190  1.00  0.00    -0.027 Br
HETATM   15  N4  UNL     1       2.549   9.170  25.640  1.00  0.00    -0.342 N 
ATOM     16  H4  UNL     1       2.300   9.795  26.407  1.00  0.00     0.167 HD
HETATM   17  C11 UNL     1       3.800   8.974  25.178  1.00  0.00     0.209 A 
HETATM   18  N5  UNL     1       3.742   8.079  24.162  1.00  0.00    -0.234 N 
HETATM   19  N6  UNL     1       4.829   7.615  23.421  1.00  0.00    -0.303 N 
HETATM   20  C12 UNL     1       6.094   7.613  24.175  1.00  0.00     0.173 C 
HETATM   21  C13 UNL     1       4.824   7.163  22.061  1.00  0.00     0.192 C 
HETATM   22  N7  UNL     1       6.168   6.768  21.655  1.00  0.00    -0.255 NA
HETATM   23  C18 UNL     1       6.217   5.687  20.717  1.00  0.00     0.160 C 
ENDROOT
BRANCH   1  24
HETATM   24  C3  UNL     1       7.129   1.774  19.035  1.00  0.00     0.124 C 
BRANCH  24  25
HETATM   25  C2  UNL     1       8.559   1.359  19.167  1.00  0.00     0.015 C 
HETATM   26  C1  UNL     1       8.948   0.636  17.877  1.00  0.00     0.006 C 
ENDBRANCH  24  25
ENDBRANCH   1  24
BRANCH  22  27
HETATM   27  C14 UNL     1       6.913   7.882  21.160  1.00  0.00     0.103 C 
BRANCH  27  28
HETATM   28  C15 UNL     1       8.396   7.772  21.201  1.00  0.00    -0.001 A 
HETATM   29  C16 UNL     1       9.095   9.037  20.707  1.00  0.00     0.006 A 
HETATM   30  C17 UNL     1       9.160   8.716  22.150  1.00  0.00     0.006 A 
ENDBRANCH  27  28
ENDBRANCH  22  27
TORSDOF 4
ENDMDL
MODEL 3
REMARK VINA RESULT: -7.102435709      0.984      1.108
REMARK  4 active torsions:
REMARK  status: ('A' for Active; 'I' for Inactive)
REMARK    1  A    between atoms: C2_2  and  C3_3 
REMARK    2  A    between atoms: C3_3  and  N1_4 
REMARK       I    between atoms: N1_4  and  C4_6 
REMARK       I    between atoms: C4_6  and  N2_8 
REMARK    3  A    between atoms: N7_25  and  C14_26 
REMARK    4  A    between atoms: C14_26  and  C15_27 
ROOT
HETATM    1  N1  UNL     1       9.830   8.628  25.311  1.00  0.00    -0.343 N 
ATOM      2  H1  UNL     1       9.014   8.552  25.918  1.00  0.00     0.164 HD
HETATM    3  C4  UNL     1       9.629   8.667  23.909  1.00  0.00     0.323 C 
HETATM    4  O1  UNL     1      10.683   8.768  23.188  1.00  0.00    -0.247 OA
HETATM    5  N2  UNL     1       8.367   8.602  23.291  1.00  0.00    -0.300 N 
HETATM    6  C5  UNL     1       8.173   8.659  21.857  1.00  0.00     0.148 C 
HETATM    7  C6  UNL     1       6.829   9.392  21.705  1.00  0.00     0.088 C 
HETATM    8  C7  UNL     1       6.812   9.968  20.383  1.00  0.00    -0.006 C 
HETATM    9  C8  UNL     1       7.809  11.093  20.226  1.00  0.00     0.064 C 
HETATM   10  N3  UNL     1       6.168   9.784  19.274  1.00  0.00    -0.346 N 
ATOM     11  H3  UNL     1       6.398  10.384  18.482  1.00  0.00     0.167 HD
HETATM   12  C9  UNL     1       5.165   8.802  19.094  1.00  0.00     0.162 A 
HETATM   13  C10 UNL     1       4.473   8.711  17.889  1.00  0.00     0.127 A 
HETATM   14 BR1  UNL     1       4.684   9.795  16.329  1.00  0.00    -0.027 Br
HETATM   15  N4  UNL     1       3.613   7.690  18.057  1.00  0.00    -0.342 N 
ATOM     16  H4  UNL     1       2.952   7.360  17.353  1.00  0.00     0.167 HD
HETATM   17  C11 UNL     1       3.753   7.166  19.291  1.00  0.00     0.209 A 
HETATM   18  N5  UNL     1       4.722   7.858  19.939  1.00  0.00    -0.234 N 
HETATM   19  N6  UNL     1       5.161   7.622  21.241  1.00  0.00    -0.303 N 
HETATM   20  C12 UNL     1       5.019   6.217  21.661  1.00  0.00     0.173 C 
HETATM   21  C13 UNL     1       5.710   8.575  22.159  1.00  0.00     0.192 C 
HETATM   22  N7  UNL     1       6.038   7.927  23.424  1.00  0.00    -0.255 NA
HETATM   23  C18 UNL     1       7.179   8.471  24.098  1.00  0.00     0.160 C 
ENDROOT
BRANCH   1  24
HETATM   24  C3  UNL     1      11.131   8.690  25.918  1.00  0.00     0.124 C 
BRANCH  24  25
HETATM   25  C2  UNL     1      11.528   7.472  26.689  1.00  0.00     0.015 C 
HETATM   26  C1  UNL     1      10.244   6.767  27.127  1.00  0.00     0.006 C 
ENDBRANCH  24  25
ENDBRANCH   1  24
BRANCH  22  27
HETATM   27  C14 UNL     1       4.914   7.902  24.305  1.00  0.00     0.103 C 
BRANCH  27  28
HETATM   28  C15 UNL     1       3.892   8.968  24.124  1.00  0.00    -0.001 A 
HETATM   29  C16 UNL     1       2.654   8.753  24.992  1.00  0.00     0.006 A 
HETATM   30  C17 UNL     1       3.568   9.865  25.336  1.00  0.00     0.006 A 
ENDBRANCH  27  28
ENDBRANCH  22  27
TORSDOF 4
ENDMDL
MODEL 4
REMARK VINA RESULT: -7.018437923      3.826      6.481
REMARK  4 active torsions:
REMARK  status: ('A' for Active; 'I' for Inactive)
REMARK    1  A    between atoms: C2_2  and  C3_3 
REMARK    2  A    between atoms: C3_3  and  N1_4 
REMARK       I    between atoms: N1_4  and  C4_6 
REMARK       I    between atoms: C4_6  and  N2_8 
REMARK    3  A    between atoms: N7_25  and  C14_26 
REMARK    4  A    between atoms: C14_26  and  C15_27 
ROOT
HETATM    1  N1  UNL     1       6.914   4.148  19.738  1.00  0.00    -0.343 N 
ATOM      2  H1  UNL     1       7.706   4.777  19.872  1.00  0.00     0.164 HD
HETATM    3  C4  UNL     1       5.644   4.546  20.226  1.00  0.00     0.323 C 
HETATM    4  O1  UNL     1       4.680   3.725  20.030  1.00  0.00    -0.247 OA
HETATM    5  N2  UNL     1       5.400   5.759  20.894  1.00  0.00    -0.300 N 
HETATM    6  C5  UNL     1       4.095   6.161  21.375  1.00  0.00     0.148 C 
HETATM    7  C6  UNL     1       4.106   7.691  21.208  1.00  0.00     0.088 C 
HETATM    8  C7  UNL     1       2.730   8.116  21.134  1.00  0.00    -0.006 C 
HETATM    9  C8  UNL     1       2.050   7.662  19.862  1.00  0.00     0.064 C 
HETATM   10  N3  UNL     1       1.902   8.790  21.868  1.00  0.00    -0.346 N 
ATOM     11  H3  UNL     1       0.953   8.924  21.519  1.00  0.00     0.167 HD
HETATM   12  C9  UNL     1       2.234   9.352  23.123  1.00  0.00     0.162 A 
HETATM   13  C10 UNL     1       1.305  10.120  23.821  1.00  0.00     0.127 A 
HETATM   14 BR1  UNL     1      -0.480  10.566  23.300  1.00  0.00    -0.027 Br
HETATM   15  N4  UNL     1       1.935  10.487  24.952  1.00  0.00    -0.342 N 
ATOM     16  H4  UNL     1       1.527  11.063  25.688  1.00  0.00     0.167 HD
HETATM   17  C11 UNL     1       3.185   9.983  24.969  1.00  0.00     0.209 A 
HETATM   18  N5  UNL     1       3.373   9.274  23.829  1.00  0.00    -0.234 N 
HETATM   19  N6  UNL     1       4.538   8.597  23.472  1.00  0.00    -0.303 N 
HETATM   20  C12 UNL     1       5.320   8.127  24.628  1.00  0.00     0.173 C 
HETATM   21  C13 UNL     1       5.018   8.333  22.147  1.00  0.00     0.192 C 
HETATM   22  N7  UNL     1       6.281   7.605  22.204  1.00  0.00    -0.255 NA
HETATM   23  C18 UNL     1       6.486   6.678  21.132  1.00  0.00     0.160 C 
ENDROOT
BRANCH   1  24
HETATM   24  C3  UNL     1       7.138   2.900  19.064  1.00  0.00     0.124 C 
BRANCH  24  25
HETATM   25  C2  UNL     1       7.879   1.874  19.860  1.00  0.00     0.015 C 
HETATM   26  C1  UNL     1       8.815   1.138  18.902  1.00  0.00     0.006 C 
ENDBRANCH  24  25
ENDBRANCH   1  24
BRANCH  22  27
HETATM   27  C14 UNL     1       7.393   8.495  22.304  1.00  0.00     0.103 C 
BRANCH  27  28
HETATM   28  C15 UNL     1       8.612   7.978  22.983  1.00  0.00    -0.001 A 
HETATM   29  C16 UNL     1       9.654   9.065  23.233  1.00  0.00     0.006 A 
HETATM   30  C17 UNL     1       8.927   8.508  24.396  1.00  0.00     0.006 A 
ENDBRANCH  27  28
ENDBRANCH  22  27
TORSDOF 4
ENDMDL
MODEL 5
REMARK VINA RESULT: -6.944703513      4.016      6.874
REMARK  4 active torsions:
REMARK  status: ('A' for Active; 'I' for Inactive)
REMARK    1  A    between atoms: C2_2  and  C3_3 
REMARK    2  A    between atoms: C3_3  and  N1_4 
REMARK       I    between atoms: N1_4  and  C4_6 
REMARK       I    between atoms: C4_6  and  N2_8 
REMARK    3  A    between atoms: N7_25  and  C14_26 
REMARK    4  A    between atoms: C14_26  and  C15_27 
ROOT
HETATM    1  N1  UNL     1       6.801   3.351  19.836  1.00  0.00    -0.343 N 
ATOM      2  H1  UNL     1       7.479   4.063  19.564  1.00  0.00     0.164 HD
HETATM    3  C4  UNL     1       5.714   3.735  20.661  1.00  0.00     0.323 C 
HETATM    4  O1  UNL     1       4.885   2.808  20.972  1.00  0.00    -0.247 OA
HETATM    5  N2  UNL     1       5.509   5.041  21.140  1.00  0.00    -0.300 N 
HETATM    6  C5  UNL     1       4.386   5.423  21.970  1.00  0.00     0.148 C 
HETATM    7  C6  UNL     1       4.094   6.870  21.536  1.00  0.00     0.088 C 
HETATM    8  C7  UNL     1       2.720   7.143  21.878  1.00  0.00    -0.006 C 
HETATM    9  C8  UNL     1       1.744   6.353  21.035  1.00  0.00     0.064 C 
HETATM   10  N3  UNL     1       2.080   7.889  22.722  1.00  0.00    -0.346 N 
ATOM     11  H3  UNL     1       1.060   7.855  22.714  1.00  0.00     0.167 HD
HETATM   12  C9  UNL     1       2.708   8.748  23.654  1.00  0.00     0.162 A 
HETATM   13  C10 UNL     1       1.948   9.568  24.484  1.00  0.00     0.127 A 
HETATM   14 BR1  UNL     1       0.043   9.723  24.557  1.00  0.00    -0.027 Br
HETATM   15  N4  UNL     1       2.844  10.236  25.232  1.00  0.00    -0.342 N 
ATOM     16  H4  UNL     1       2.612  10.925  25.947  1.00  0.00     0.167 HD
HETATM   17  C11 UNL     1       4.096   9.862  24.896  1.00  0.00     0.209 A 
HETATM   18  N5  UNL     1       4.012   8.933  23.913  1.00  0.00    -0.234 N 
HETATM   19  N6  UNL     1       5.090   8.300  23.295  1.00  0.00    -0.303 N 
HETATM   20  C12 UNL     1       6.273   8.176  24.164  1.00  0.00     0.173 C 
HETATM   21  C13 UNL     1       5.146   7.787  21.958  1.00  0.00     0.192 C 
HETATM   22  N7  UNL     1       6.458   7.207  21.695  1.00  0.00    -0.255 NA
HETATM   23  C18 UNL     1       6.449   6.083  20.807  1.00  0.00     0.160 C 
ENDROOT
BRANCH   1  24
HETATM   24  C3  UNL     1       6.991   2.008  19.366  1.00  0.00     0.124 C 
BRANCH  24  25
HETATM   25  C2  UNL     1       8.414   1.553  19.309  1.00  0.00     0.015 C 
HETATM   26  C1  UNL     1       8.595   0.777  18.004  1.00  0.00     0.006 C 
ENDBRANCH  24  25
ENDBRANCH   1  24
BRANCH  22  27
HETATM   27  C14 UNL     1       7.382   8.192  21.231  1.00  0.00     0.103 C 
BRANCH  27  28
HETATM   28  C15 UNL     1       6.817   9.342  20.473  1.00  0.00    -0.001 A 
HETATM   29  C16 UNL     1       7.700  10.585  20.542  1.00  0.00     0.006 A 
HETATM   30  C17 UNL     1       7.610   9.859  19.256  1.00  0.00     0.006 A 
ENDBRANCH  27  28
ENDBRANCH  22  27
TORSDOF 4
ENDMDL
