MODEL 1
REMARK VINA RESULT: -7.700854592      0.000      0.000
REMARK  6 active torsions:
REMARK  status: ('A' for Active; 'I' for Inactive)
REMARK    1  A    between atoms: N1_2  and  C2_3 
REMARK    2  A    between atoms: N1_2  and  C7_10 
REMARK    3  A    between atoms: C2_3  and  C3_4 
REMARK    4  A    between atoms: C15_18  and  C16_19 
REMARK       I    between atoms: C16_19  and  N2_21 
REMARK    5  A    between atoms: N2_21  and  C17_23 
REMARK    6  A    between atoms: C17_23  and  C18_24 
ROOT
HETATM    1  C7  UNL     1       6.634   8.662  22.924  1.00  0.00     0.081 C 
HETATM    2  C8  UNL     1       5.476   9.150  22.079  1.00  0.00     0.026 C 
HETATM    3  C9  UNL     1       4.152   8.636  22.487  1.00  0.00     0.017 C 
HETATM    4  C10 UNL     1       4.164   7.503  23.473  1.00  0.00     0.017 C 
HETATM    5  C11 UNL     1       3.810   7.981  24.879  1.00  0.00     0.015 C 
HETATM    6  C12 UNL     1       2.349   8.387  24.732  1.00  0.00     0.008 C 
HETATM    7  C13 UNL     1       1.839   7.687  23.490  1.00  0.00     0.018 C 
HETATM    8  C14 UNL     1       0.699   6.792  23.894  1.00  0.00     0.048 C 
HETATM    9  C15 UNL     1       1.372   5.523  24.276  1.00  0.00     0.214 C 
HETATM   10  O4  UNL     1       2.733   5.628  24.068  1.00  0.00    -0.370 OA
HETATM   11  C22 UNL     1       2.924   6.674  23.178  1.00  0.00     0.138 C 
HETATM   12  C23 UNL     1       5.343   6.611  23.427  1.00  0.00     0.183 C 
HETATM   13  F1  UNL     1       5.045   5.422  22.739  1.00  0.00    -0.248 F 
HETATM   14  C24 UNL     1       6.603   7.162  22.873  1.00  0.00     0.063 C 
ENDROOT
BRANCH   1  15
HETATM   15  N1  UNL     1       7.827   9.257  22.488  1.00  0.00    -0.410 N 
HETATM   16  C1  UNL     1       7.828  10.188  21.447  1.00  0.00     0.143 C 
BRANCH  15  17
HETATM   17  C2  UNL     1       9.035   8.585  22.772  1.00  0.00     0.150 C 
BRANCH  17  18
HETATM   18  C3  UNL     1       9.432   8.577  24.211  1.00  0.00     0.162 C 
HETATM   19  C4  UNL     1      10.909   8.850  24.428  1.00  0.00     0.201 C 
HETATM   20  O1  UNL     1      11.031   9.171  25.778  1.00  0.00    -0.386 OA
HETATM   21  C5  UNL     1      10.747   8.073  26.538  1.00  0.00     0.193 C 
HETATM   22  C6  UNL     1       9.565   7.276  26.127  1.00  0.00     0.194 C 
HETATM   23  O2  UNL     1       9.111   7.419  24.868  1.00  0.00    -0.380 OA
ENDBRANCH  17  18
ENDBRANCH  15  17
ENDBRANCH   1  15
BRANCH   9  24
HETATM   24  C16 UNL     1       0.767   4.343  23.539  1.00  0.00     0.250 C 
HETATM   25  O3  UNL     1      -0.426   4.470  23.278  1.00  0.00    -0.270 OA
HETATM   26  N2  UNL     1       1.641   3.280  23.262  1.00  0.00    -0.338 N 
ATOM     27  H2  UNL     1       2.602   3.385  23.588  1.00  0.00     0.167 HD
BRANCH  26  28
HETATM   28  C17 UNL     1       1.337   2.089  22.585  1.00  0.00     0.072 C 
BRANCH  28  29
HETATM   29  C18 UNL     1       2.386   1.156  22.159  1.00  0.00    -0.019 C 
HETATM   30  C19 UNL     1       3.762   1.650  21.958  1.00  0.00     0.020 C 
HETATM   31  C20 UNL     1       1.964   0.517  20.808  1.00  0.00     0.020 C 
HETATM   32  C21 UNL     1       2.427  -0.074  23.107  1.00  0.00     0.020 C 
ENDBRANCH  28  29
ENDBRANCH  26  28
ENDBRANCH   9  24
TORSDOF 6
ENDMDL
MODEL 2
REMARK VINA RESULT: -7.566915061      0.791      1.359
REMARK  6 active torsions:
REMARK  status: ('A' for Active; 'I' for Inactive)
REMARK    1  A    between atoms: N1_2  and  C2_3 
REMARK    2  A    between atoms: N1_2  and  C7_10 
REMARK    3  A    between atoms: C2_3  and  C3_4 
REMARK    4  A    between atoms: C15_18  and  C16_19 
REMARK       I    between atoms: C16_19  and  N2_21 
REMARK    5  A    between atoms: N2_21  and  C17_23 
REMARK    6  A    between atoms: C17_23  and  C18_24 
ROOT
HETATM    1  C7  UNL     1       7.243   8.614  23.072  1.00  0.00     0.081 C 
HETATM    2  C8  UNL     1       6.213   9.141  22.095  1.00  0.00     0.026 C 
HETATM    3  C9  UNL     1       4.819   8.757  22.399  1.00  0.00     0.017 C 
HETATM    4  C10 UNL     1       4.645   7.686  23.438  1.00  0.00     0.017 C 
HETATM    5  C11 UNL     1       4.204   8.271  24.777  1.00  0.00     0.015 C 
HETATM    6  C12 UNL     1       2.802   8.781  24.469  1.00  0.00     0.008 C 
HETATM    7  C13 UNL     1       2.352   8.052  23.221  1.00  0.00     0.018 C 
HETATM    8  C14 UNL     1       1.108   7.276  23.556  1.00  0.00     0.048 C 
HETATM    9  C15 UNL     1       1.635   5.981  24.065  1.00  0.00     0.214 C 
HETATM   10  O4  UNL     1       3.014   5.967  23.984  1.00  0.00    -0.370 OA
HETATM   11  C22 UNL     1       3.372   6.941  23.066  1.00  0.00     0.138 C 
HETATM   12  C23 UNL     1       5.744   6.703  23.550  1.00  0.00     0.183 C 
HETATM   13  F1  UNL     1       5.413   5.504  22.897  1.00  0.00    -0.248 F 
HETATM   14  C24 UNL     1       7.091   7.120  23.094  1.00  0.00     0.063 C 
ENDROOT
BRANCH   1  15
HETATM   15  N1  UNL     1       8.517   9.086  22.724  1.00  0.00    -0.410 N 
HETATM   16  C1  UNL     1       9.123   8.705  21.525  1.00  0.00     0.143 C 
BRANCH  15  17
HETATM   17  C2  UNL     1       9.350   9.551  23.765  1.00  0.00     0.150 C 
BRANCH  17  18
HETATM   18  C3  UNL     1       9.959   8.484  24.612  1.00  0.00     0.162 C 
HETATM   19  C4  UNL     1       9.093   8.087  25.793  1.00  0.00     0.201 C 
HETATM   20  O1  UNL     1       9.609   6.873  26.238  1.00  0.00    -0.386 OA
HETATM   21  C5  UNL     1      10.860   7.066  26.751  1.00  0.00     0.193 C 
HETATM   22  C6  UNL     1      11.762   7.950  25.973  1.00  0.00     0.194 C 
HETATM   23  O2  UNL     1      11.207   8.796  25.083  1.00  0.00    -0.380 OA
ENDBRANCH  17  18
ENDBRANCH  15  17
ENDBRANCH   1  15
BRANCH   9  24
HETATM   24  C16 UNL     1       1.004   4.811  23.333  1.00  0.00     0.250 C 
HETATM   25  O3  UNL     1      -0.138   5.024  22.934  1.00  0.00    -0.270 OA
HETATM   26  N2  UNL     1       1.800   3.661  23.215  1.00  0.00    -0.338 N 
ATOM     27  H2  UNL     1       2.726   3.704  23.639  1.00  0.00     0.167 HD
BRANCH  26  28
HETATM   28  C17 UNL     1       1.458   2.459  22.576  1.00  0.00     0.072 C 
BRANCH  28  29
HETATM   29  C18 UNL     1       2.463   1.429  22.288  1.00  0.00    -0.019 C 
HETATM   30  C19 UNL     1       2.666   0.323  23.244  1.00  0.00     0.020 C 
HETATM   31  C20 UNL     1       3.847   2.115  22.133  1.00  0.00     0.020 C 
HETATM   32  C21 UNL     1       2.230   0.833  20.872  1.00  0.00     0.020 C 
ENDBRANCH  28  29
ENDBRANCH  26  28
ENDBRANCH   9  24
TORSDOF 6
ENDMDL
MODEL 3
REMARK VINA RESULT: -7.553013231      3.418      4.164
REMARK  6 active torsions:
REMARK  status: ('A' for Active; 'I' for Inactive)
REMARK    1  A    between atoms: N1_2  and  C2_3 
REMARK    2  A    between atoms: N1_2  and  C7_10 
REMARK    3  A    between atoms: C2_3  and  C3_4 
REMARK    4  A    between atoms: C15_18  and  C16_19 
REMARK       I    between atoms: C16_19  and  N2_21 
REMARK    5  A    between atoms: N2_21  and  C17_23 
REMARK    6  A    between atoms: C17_23  and  C18_24 
ROOT
HETATM    1  C7  UNL     1       7.247   7.884  21.602  1.00  0.00     0.081 C 
HETATM    2  C8  UNL     1       6.103   8.240  20.675  1.00  0.00     0.026 C 
HETATM    3  C9  UNL     1       5.056   7.203  20.559  1.00  0.00     0.017 C 
HETATM    4  C10 UNL     1       5.400   5.857  21.128  1.00  0.00     0.017 C 
HETATM    5  C11 UNL     1       4.716   5.627  22.473  1.00  0.00     0.015 C 
HETATM    6  C12 UNL     1       3.244   5.551  22.088  1.00  0.00     0.008 C 
HETATM    7  C13 UNL     1       3.212   5.240  20.606  1.00  0.00     0.018 C 
HETATM    8  C14 UNL     1       2.484   3.937  20.418  1.00  0.00     0.048 C 
HETATM    9  C15 UNL     1       3.557   2.917  20.560  1.00  0.00     0.214 C 
HETATM   10  O4  UNL     1       4.777   3.537  20.747  1.00  0.00    -0.370 OA
HETATM   11  C22 UNL     1       4.640   4.839  20.292  1.00  0.00     0.138 C 
HETATM   12  C23 UNL     1       6.833   5.491  21.119  1.00  0.00     0.183 C 
HETATM   13  F1  UNL     1       7.121   4.621  20.054  1.00  0.00    -0.248 F 
HETATM   14  C24 UNL     1       7.825   6.593  21.097  1.00  0.00     0.063 C 
ENDROOT
BRANCH   1  15
HETATM   15  N1  UNL     1       8.146   8.957  21.683  1.00  0.00    -0.410 N 
HETATM   16  C1  UNL     1       9.115   9.160  20.698  1.00  0.00     0.143 C 
BRANCH  15  17
HETATM   17  C2  UNL     1       8.369   9.530  22.954  1.00  0.00     0.150 C 
BRANCH  17  18
HETATM   18  C3  UNL     1       9.197   8.706  23.883  1.00  0.00     0.162 C 
HETATM   19  C4  UNL     1       8.407   8.138  25.048  1.00  0.00     0.201 C 
HETATM   20  O1  UNL     1       9.209   7.131  25.580  1.00  0.00    -0.386 OA
HETATM   21  C5  UNL     1      10.330   7.680  26.133  1.00  0.00     0.193 C 
HETATM   22  C6  UNL     1      11.000   8.743  25.345  1.00  0.00     0.194 C 
HETATM   23  O2  UNL     1      10.286   9.367  24.388  1.00  0.00    -0.380 OA
ENDBRANCH  17  18
ENDBRANCH  15  17
ENDBRANCH   1  15
BRANCH   9  24
HETATM   24  C16 UNL     1       3.569   1.971  19.374  1.00  0.00     0.250 C 
HETATM   25  O3  UNL     1       2.603   1.213  19.325  1.00  0.00    -0.270 OA
HETATM   26  N2  UNL     1       4.668   2.086  18.509  1.00  0.00    -0.338 N 
ATOM     27  H2  UNL     1       5.368   2.786  18.755  1.00  0.00     0.167 HD
BRANCH  26  28
HETATM   28  C17 UNL     1       4.907   1.344  17.342  1.00  0.00     0.072 C 
BRANCH  28  29
HETATM   29  C18 UNL     1       6.265   1.135  16.827  1.00  0.00    -0.019 C 
HETATM   30  C19 UNL     1       7.396   1.049  17.772  1.00  0.00     0.020 C 
HETATM   31  C20 UNL     1       6.612   2.297  15.857  1.00  0.00     0.020 C 
HETATM   32  C21 UNL     1       6.299  -0.102  15.887  1.00  0.00     0.020 C 
ENDBRANCH  28  29
ENDBRANCH  26  28
ENDBRANCH   9  24
TORSDOF 6
ENDMDL
MODEL 4
REMARK VINA RESULT: -7.513121792      1.016      1.379
REMARK  6 active torsions:
REMARK  status: ('A' for Active; 'I' for Inactive)
REMARK    1  A    between atoms: N1_2  and  C2_3 
REMARK    2  A    between atoms: N1_2  and  C7_10 
REMARK    3  A    between atoms: C2_3  and  C3_4 
REMARK    4  A    between atoms: C15_18  and  C16_19 
REMARK       I    between atoms: C16_19  and  N2_21 
REMARK    5  A    between atoms: N2_21  and  C17_23 
REMARK    6  A    between atoms: C17_23  and  C18_24 
ROOT
HETATM    1  C7  UNL     1       6.454   8.808  23.227  1.00  0.00     0.081 C 
HETATM    2  C8  UNL     1       5.451   9.231  22.173  1.00  0.00     0.026 C 
HETATM    3  C9  UNL     1       4.037   9.002  22.537  1.00  0.00     0.017 C 
HETATM    4  C10 UNL     1       3.803   8.137  23.743  1.00  0.00     0.017 C 
HETATM    5  C11 UNL     1       3.418   8.970  24.962  1.00  0.00     0.015 C 
HETATM    6  C12 UNL     1       2.051   9.517  24.572  1.00  0.00     0.008 C 
HETATM    7  C13 UNL     1       1.537   8.620  23.465  1.00  0.00     0.018 C 
HETATM    8  C14 UNL     1       0.248   7.999  23.927  1.00  0.00     0.048 C 
HETATM    9  C15 UNL     1       0.690   6.777  24.649  1.00  0.00     0.214 C 
HETATM   10  O4  UNL     1       2.064   6.654  24.573  1.00  0.00    -0.370 OA
HETATM   11  C22 UNL     1       2.478   7.430  23.503  1.00  0.00     0.138 C 
HETATM   12  C23 UNL     1       4.833   7.114  24.022  1.00  0.00     0.183 C 
HETATM   13  F1  UNL     1       4.414   5.847  23.582  1.00  0.00    -0.248 F 
HETATM   14  C24 UNL     1       6.201   7.353  23.502  1.00  0.00     0.063 C 
ENDROOT
BRANCH   1  15
HETATM   15  N1  UNL     1       7.753   9.125  22.804  1.00  0.00    -0.410 N 
HETATM   16  C1  UNL     1       7.969  10.026  21.758  1.00  0.00     0.143 C 
BRANCH  15  17
HETATM   17  C2  UNL     1       8.783   8.209  23.108  1.00  0.00     0.150 C 
BRANCH  17  18
HETATM   18  C3  UNL     1       9.331   8.310  24.493  1.00  0.00     0.162 C 
HETATM   19  C4  UNL     1      10.809   8.652  24.530  1.00  0.00     0.201 C 
HETATM   20  O1  UNL     1      11.059   9.065  25.837  1.00  0.00    -0.386 OA
HETATM   21  C5  UNL     1      10.907   8.009  26.688  1.00  0.00     0.193 C 
HETATM   22  C6  UNL     1       9.726   7.142  26.458  1.00  0.00     0.194 C 
HETATM   23  O2  UNL     1       9.133   7.185  25.250  1.00  0.00    -0.380 OA
ENDBRANCH  17  18
ENDBRANCH  15  17
ENDBRANCH   1  15
BRANCH   9  24
HETATM   24  C16 UNL     1      -0.027   5.546  24.128  1.00  0.00     0.250 C 
HETATM   25  O3  UNL     1      -1.250   5.595  24.230  1.00  0.00    -0.270 OA
HETATM   26  N2  UNL     1       0.793   4.533  23.607  1.00  0.00    -0.338 N 
ATOM     27  H2  UNL     1       1.799   4.703  23.634  1.00  0.00     0.167 HD
BRANCH  26  28
HETATM   28  C17 UNL     1       0.380   3.311  23.054  1.00  0.00     0.072 C 
BRANCH  28  29
HETATM   29  C18 UNL     1       1.289   2.164  22.956  1.00  0.00    -0.019 C 
HETATM   30  C19 UNL     1       0.903   0.875  23.564  1.00  0.00     0.020 C 
HETATM   31  C20 UNL     1       2.646   2.549  23.605  1.00  0.00     0.020 C 
HETATM   32  C21 UNL     1       1.690   1.921  21.474  1.00  0.00     0.020 C 
ENDBRANCH  28  29
ENDBRANCH  26  28
ENDBRANCH   9  24
TORSDOF 6
ENDMDL
MODEL 5
REMARK VINA RESULT: -7.394073330      2.144      2.794
REMARK  6 active torsions:
REMARK  status: ('A' for Active; 'I' for Inactive)
REMARK    1  A    between atoms: N1_2  and  C2_3 
REMARK    2  A    between atoms: N1_2  and  C7_10 
REMARK    3  A    between atoms: C2_3  and  C3_4 
REMARK    4  A    between atoms: C15_18  and  C16_19 
REMARK       I    between atoms: C16_19  and  N2_21 
REMARK    5  A    between atoms: N2_21  and  C17_23 
REMARK    6  A    between atoms: C17_23  and  C18_24 
ROOT
HETATM    1  C7  UNL     1       6.334   8.236  23.047  1.00  0.00     0.081 C 
HETATM    2  C8  UNL     1       5.371   8.952  22.123  1.00  0.00     0.026 C 
HETATM    3  C9  UNL     1       4.035   9.209  22.700  1.00  0.00     0.017 C 
HETATM    4  C10 UNL     1       3.725   8.489  23.982  1.00  0.00     0.017 C 
HETATM    5  C11 UNL     1       3.828   9.421  25.186  1.00  0.00     0.015 C 
HETATM    6  C12 UNL     1       2.669  10.383  24.960  1.00  0.00     0.008 C 
HETATM    7  C13 UNL     1       1.725   9.690  24.001  1.00  0.00     0.018 C 
HETATM    8  C14 UNL     1       0.394   9.538  24.683  1.00  0.00     0.048 C 
HETATM    9  C15 UNL     1       0.523   8.249  25.413  1.00  0.00     0.214 C 
HETATM   10  O4  UNL     1       1.752   7.677  25.149  1.00  0.00    -0.370 OA
HETATM   11  C22 UNL     1       2.222   8.256  23.981  1.00  0.00     0.138 C 
HETATM   12  C23 UNL     1       4.398   7.186  24.177  1.00  0.00     0.183 C 
HETATM   13  F1  UNL     1       3.526   6.123  23.887  1.00  0.00    -0.248 F 
HETATM   14  C24 UNL     1       5.669   6.952  23.452  1.00  0.00     0.063 C 
ENDROOT
BRANCH   1  15
HETATM   15  N1  UNL     1       7.582   8.099  22.422  1.00  0.00    -0.410 N 
HETATM   16  C1  UNL     1       7.963   6.891  21.832  1.00  0.00     0.143 C 
BRANCH  15  17
HETATM   17  C2  UNL     1       8.602   9.002  22.792  1.00  0.00     0.150 C 
BRANCH  17  18
HETATM   18  C3  UNL     1       9.139   8.819  24.172  1.00  0.00     0.162 C 
HETATM   19  C4  UNL     1      10.629   9.089  24.278  1.00  0.00     0.201 C 
HETATM   20  O1  UNL     1      10.881   9.239  25.639  1.00  0.00    -0.386 OA
HETATM   21  C5  UNL     1      10.680   8.049  26.277  1.00  0.00     0.193 C 
HETATM   22  C6  UNL     1       9.469   7.288  25.885  1.00  0.00     0.194 C 
HETATM   23  O2  UNL     1       8.891   7.581  24.704  1.00  0.00    -0.380 OA
ENDBRANCH  17  18
ENDBRANCH  15  17
ENDBRANCH   1  15
BRANCH   9  24
HETATM   24  C16 UNL     1      -0.628   7.318  25.082  1.00  0.00     0.250 C 
HETATM   25  O3  UNL     1      -1.661   7.892  24.748  1.00  0.00    -0.270 OA
HETATM   26  N2  UNL     1      -0.360   5.945  25.202  1.00  0.00    -0.338 N 
ATOM     27  H2  UNL     1       0.578   5.691  25.512  1.00  0.00     0.167 HD
BRANCH  26  28
HETATM   28  C17 UNL     1      -1.242   4.885  24.942  1.00  0.00     0.072 C 
BRANCH  28  29
HETATM   29  C18 UNL     1      -1.101   4.042  23.750  1.00  0.00    -0.019 C 
HETATM   30  C19 UNL     1      -1.547   2.635  23.797  1.00  0.00     0.020 C 
HETATM   31  C20 UNL     1       0.398   3.997  23.348  1.00  0.00     0.020 C 
HETATM   32  C21 UNL     1      -1.752   4.735  22.521  1.00  0.00     0.020 C 
ENDBRANCH  28  29
ENDBRANCH  26  28
ENDBRANCH   9  24
TORSDOF 6
ENDMDL
