MODEL 1
REMARK VINA RESULT: -7.751967450      0.000      0.000
REMARK  6 active torsions:
REMARK  status: ('A' for Active; 'I' for Inactive)
REMARK    1  A    between atoms: C2_5  and  C3_6 
REMARK    2  A    between atoms: C3_6  and  N3_7 
REMARK    3  A    between atoms: C3_6  and  C4_11 
REMARK    4  A    between atoms: C4_11  and  C5_12 
REMARK    5  A    between atoms: C7_17  and  N6_18 
REMARK    6  A    between atoms: C11_29  and  C12_30 
ROOT
HETATM    1  C3  UNL     1      13.218  49.341 -51.264  1.00  0.00     0.242 C 
ENDROOT
BRANCH   1   2
HETATM    2  C2  UNL     1      14.104  49.306 -52.474  1.00  0.00     0.083 A 
HETATM    3  N2  UNL     1      15.083  50.175 -52.775  1.00  0.00    -0.298 N 
HETATM    4  N1  UNL     1      15.674  49.831 -53.928  1.00  0.00    -0.290 N 
ATOM      5  H2  UNL     1      15.341  50.982 -52.207  1.00  0.00     0.187 HD
HETATM    6  C1  UNL     1      16.775  50.532 -54.572  1.00  0.00     0.178 C 
HETATM    7  C11 UNL     1      15.062  48.728 -54.371  1.00  0.00     0.141 A 
HETATM    8  C10 UNL     1      14.051  48.356 -53.472  1.00  0.00     0.105 A 
HETATM    9  N9  UNL     1      13.198  47.243 -53.616  1.00  0.00    -0.098 NA
BRANCH   7  10
HETATM   10  C12 UNL     1      15.341  47.972 -55.586  1.00  0.00     0.285 C 
HETATM   11  N10 UNL     1      16.499  47.163 -55.744  1.00  0.00    -0.056 NA
HETATM   12  O1  UNL     1      14.560  47.990 -56.581  1.00  0.00    -0.269 OA
ENDBRANCH   7  10
ENDBRANCH   1   2
BRANCH   1  13
HETATM   13  N3  UNL     1      13.378  48.038 -50.621  1.00  0.00    -0.069 N 
ATOM     14  H33 UNL     1      14.288  47.608 -50.788  1.00  0.00     0.275 HD
ATOM     15  H32 UNL     1      13.452  48.089 -49.606  1.00  0.00     0.275 HD
ATOM     16  H31 UNL     1      12.592  47.475 -50.946  1.00  0.00     0.275 HD
ENDBRANCH   1  13
BRANCH   1  17
HETATM   17  C4  UNL     1      13.631  50.444 -50.327  1.00  0.00     0.100 C 
BRANCH  17  18
HETATM   18  C5  UNL     1      13.379  50.158 -48.916  1.00  0.00     0.058 A 
HETATM   19  N4  UNL     1      14.352  49.919 -47.994  1.00  0.00    -0.352 N 
HETATM   20  C6  UNL     1      13.815  49.697 -46.792  1.00  0.00     0.209 A 
ATOM     21  H4  UNL     1      15.352  49.913 -48.194  1.00  0.00     0.166 HD
HETATM   22  N5  UNL     1      12.465  49.791 -46.931  1.00  0.00    -0.127 N 
HETATM   23  C7  UNL     1      11.465  49.655 -46.047  1.00  0.00     0.685 A 
HETATM   24  C9  UNL     1      12.191  50.074 -48.232  1.00  0.00     0.153 A 
HETATM   25  N7  UNL     1      10.191  49.799 -46.454  1.00  0.00    -0.188 N 
HETATM   26  C8  UNL     1       9.877  50.078 -47.726  1.00  0.00     0.199 A 
ATOM     27  H7  UNL     1       9.440  49.691 -45.773  1.00  0.00     0.185 HD
HETATM   28  N8  UNL     1      10.893  50.211 -48.597  1.00  0.00    -0.336 N 
ATOM     29  H8  UNL     1      10.678  50.423 -49.572  1.00  0.00     0.168 HD
BRANCH  23  30
HETATM   30  N6  UNL     1      11.746  49.388 -44.818  1.00  0.00    -0.234 N 
ATOM     31  H62 UNL     1      12.709  49.233 -44.518  1.00  0.00     0.174 HD
ATOM     32  H61 UNL     1      10.990  49.332 -44.136  1.00  0.00     0.174 HD
ENDBRANCH  23  30
ENDBRANCH  17  18
ENDBRANCH   1  17
TORSDOF 6
ENDMDL
MODEL 2
REMARK VINA RESULT: -7.749189595      1.760      2.541
REMARK  6 active torsions:
REMARK  status: ('A' for Active; 'I' for Inactive)
REMARK    1  A    between atoms: C2_5  and  C3_6 
REMARK    2  A    between atoms: C3_6  and  N3_7 
REMARK    3  A    between atoms: C3_6  and  C4_11 
REMARK    4  A    between atoms: C4_11  and  C5_12 
REMARK    5  A    between atoms: C7_17  and  N6_18 
REMARK    6  A    between atoms: C11_29  and  C12_30 
ROOT
HETATM    1  C3  UNL     1      13.722  48.446 -52.751  1.00  0.00     0.242 C 
ENDROOT
BRANCH   1   2
HETATM    2  C2  UNL     1      14.977  48.845 -53.469  1.00  0.00     0.083 A 
HETATM    3  N2  UNL     1      16.020  49.514 -52.949  1.00  0.00    -0.298 N 
HETATM    4  N1  UNL     1      16.971  49.689 -53.876  1.00  0.00    -0.290 N 
ATOM      5  H2  UNL     1      16.079  49.842 -51.985  1.00  0.00     0.187 HD
HETATM    6  C1  UNL     1      18.244  50.368 -53.684  1.00  0.00     0.178 C 
HETATM    7  C11 UNL     1      16.530  49.126 -55.005  1.00  0.00     0.141 A 
HETATM    8  C10 UNL     1      15.259  48.573 -54.792  1.00  0.00     0.105 A 
HETATM    9  N9  UNL     1      14.486  47.900 -55.760  1.00  0.00    -0.098 NA
BRANCH   7  10
HETATM   10  C12 UNL     1      17.203  49.055 -56.297  1.00  0.00     0.285 C 
HETATM   11  N10 UNL     1      17.433  50.197 -57.112  1.00  0.00    -0.056 NA
HETATM   12  O1  UNL     1      17.630  47.963 -56.772  1.00  0.00    -0.269 OA
ENDBRANCH   7  10
ENDBRANCH   1   2
BRANCH   1  13
HETATM   13  N3  UNL     1      13.460  47.066 -53.154  1.00  0.00    -0.069 N 
ATOM     14  H33 UNL     1      13.733  46.861 -54.115  1.00  0.00     0.275 HD
ATOM     15  H32 UNL     1      14.073  46.385 -52.706  1.00  0.00     0.275 HD
ATOM     16  H31 UNL     1      12.470  46.909 -52.968  1.00  0.00     0.275 HD
ENDBRANCH   1  13
BRANCH   1  17
HETATM   17  C4  UNL     1      13.905  48.533 -51.259  1.00  0.00     0.100 C 
BRANCH  17  18
HETATM   18  C5  UNL     1      13.254  49.687 -50.642  1.00  0.00     0.058 A 
HETATM   19  N4  UNL     1      13.093  50.894 -51.250  1.00  0.00    -0.352 N 
HETATM   20  C6  UNL     1      12.459  51.746 -50.442  1.00  0.00     0.209 A 
ATOM     21  H4  UNL     1      13.412  51.117 -52.194  1.00  0.00     0.166 HD
HETATM   22  N5  UNL     1      12.200  51.083 -49.282  1.00  0.00    -0.127 N 
HETATM   23  C7  UNL     1      11.593  51.469 -48.149  1.00  0.00     0.685 A 
HETATM   24  C9  UNL     1      12.686  49.819 -49.399  1.00  0.00     0.153 A 
HETATM   25  N7  UNL     1      11.469  50.599 -47.131  1.00  0.00    -0.188 N 
HETATM   26  C8  UNL     1      11.932  49.344 -47.205  1.00  0.00     0.199 A 
ATOM     27  H7  UNL     1      11.006  50.904 -46.275  1.00  0.00     0.185 HD
HETATM   28  N8  UNL     1      12.537  48.976 -48.348  1.00  0.00    -0.336 N 
ATOM     29  H8  UNL     1      12.899  48.026 -48.426  1.00  0.00     0.168 HD
BRANCH  23  30
HETATM   30  N6  UNL     1      11.139  52.671 -48.059  1.00  0.00    -0.234 N 
ATOM     31  H62 UNL     1      11.016  53.252 -48.888  1.00  0.00     0.174 HD
ATOM     32  H61 UNL     1      10.899  53.044 -47.141  1.00  0.00     0.174 HD
ENDBRANCH  23  30
ENDBRANCH  17  18
ENDBRANCH   1  17
TORSDOF 6
ENDMDL
MODEL 3
REMARK VINA RESULT: -7.712222743      6.945      8.315
REMARK  6 active torsions:
REMARK  status: ('A' for Active; 'I' for Inactive)
REMARK    1  A    between atoms: C2_5  and  C3_6 
REMARK    2  A    between atoms: C3_6  and  N3_7 
REMARK    3  A    between atoms: C3_6  and  C4_11 
REMARK    4  A    between atoms: C4_11  and  C5_12 
REMARK    5  A    between atoms: C7_17  and  N6_18 
REMARK    6  A    between atoms: C11_29  and  C12_30 
ROOT
HETATM    1  C3  UNL     1      19.475  47.938 -54.406  1.00  0.00     0.242 C 
ENDROOT
BRANCH   1   2
HETATM    2  C2  UNL     1      18.271  48.383 -55.182  1.00  0.00     0.083 A 
HETATM    3  N2  UNL     1      17.049  47.825 -55.154  1.00  0.00    -0.298 N 
HETATM    4  N1  UNL     1      16.214  48.490 -55.965  1.00  0.00    -0.290 N 
ATOM      5  H2  UNL     1      16.793  47.012 -54.595  1.00  0.00     0.187 HD
HETATM    6  C1  UNL     1      14.811  48.179 -56.195  1.00  0.00     0.178 C 
HETATM    7  C11 UNL     1      16.913  49.484 -56.521  1.00  0.00     0.141 A 
HETATM    8  C10 UNL     1      18.233  49.455 -56.048  1.00  0.00     0.105 A 
HETATM    9  N9  UNL     1      19.255  50.354 -56.419  1.00  0.00    -0.098 NA
BRANCH   7  10
HETATM   10  C12 UNL     1      16.449  50.483 -57.476  1.00  0.00     0.285 C 
HETATM   11  N10 UNL     1      16.210  50.191 -58.846  1.00  0.00    -0.056 NA
HETATM   12  O1  UNL     1      16.227  51.683 -57.138  1.00  0.00    -0.269 OA
ENDBRANCH   7  10
ENDBRANCH   1   2
BRANCH   1  13
HETATM   13  N3  UNL     1      20.629  48.456 -55.138  1.00  0.00    -0.069 N 
ATOM     14  H33 UNL     1      21.068  49.263 -54.693  1.00  0.00     0.275 HD
ATOM     15  H32 UNL     1      21.443  47.843 -55.106  1.00  0.00     0.275 HD
ATOM     16  H31 UNL     1      20.294  48.642 -56.082  1.00  0.00     0.275 HD
ENDBRANCH   1  13
BRANCH   1  17
HETATM   17  C4  UNL     1      19.448  48.491 -53.006  1.00  0.00     0.100 C 
BRANCH  17  18
HETATM   18  C5  UNL     1      20.458  49.515 -52.747  1.00  0.00     0.058 A 
HETATM   19  N4  UNL     1      21.660  49.276 -52.154  1.00  0.00    -0.352 N 
HETATM   20  C6  UNL     1      22.369  50.403 -52.059  1.00  0.00     0.209 A 
ATOM     21  H4  UNL     1      21.975  48.363 -51.827  1.00  0.00     0.166 HD
HETATM   22  N5  UNL     1      21.616  51.399 -52.601  1.00  0.00    -0.127 N 
HETATM   23  C7  UNL     1      21.849  52.711 -52.757  1.00  0.00     0.685 A 
HETATM   24  C9  UNL     1      20.443  50.859 -53.025  1.00  0.00     0.153 A 
HETATM   25  N7  UNL     1      20.916  53.489 -53.334  1.00  0.00    -0.188 N 
HETATM   26  C8  UNL     1      19.748  52.999 -53.767  1.00  0.00     0.199 A 
ATOM     27  H7  UNL     1      21.105  54.485 -53.446  1.00  0.00     0.185 HD
HETATM   28  N8  UNL     1      19.532  51.682 -53.602  1.00  0.00    -0.336 N 
ATOM     29  H8  UNL     1      18.648  51.286 -53.922  1.00  0.00     0.168 HD
BRANCH  23  30
HETATM   30  N6  UNL     1      22.968  53.201 -52.349  1.00  0.00    -0.234 N 
ATOM     31  H62 UNL     1      23.078  53.547 -51.396  1.00  0.00     0.174 HD
ATOM     32  H61 UNL     1      23.757  53.243 -52.995  1.00  0.00     0.174 HD
ENDBRANCH  23  30
ENDBRANCH  17  18
ENDBRANCH   1  17
TORSDOF 6
ENDMDL
MODEL 4
REMARK VINA RESULT: -7.596537398      0.812      1.916
REMARK  6 active torsions:
REMARK  status: ('A' for Active; 'I' for Inactive)
REMARK    1  A    between atoms: C2_5  and  C3_6 
REMARK    2  A    between atoms: C3_6  and  N3_7 
REMARK    3  A    between atoms: C3_6  and  C4_11 
REMARK    4  A    between atoms: C4_11  and  C5_12 
REMARK    5  A    between atoms: C7_17  and  N6_18 
REMARK    6  A    between atoms: C11_29  and  C12_30 
ROOT
HETATM    1  C3  UNL     1      13.048  49.291 -51.487  1.00  0.00     0.242 C 
ENDROOT
BRANCH   1   2
HETATM    2  C2  UNL     1      14.002  49.287 -52.645  1.00  0.00     0.083 A 
HETATM    3  N2  UNL     1      14.954  50.200 -52.901  1.00  0.00    -0.298 N 
HETATM    4  N1  UNL     1      15.626  49.874 -54.014  1.00  0.00    -0.290 N 
ATOM      5  H2  UNL     1      15.140  51.024 -52.329  1.00  0.00     0.187 HD
HETATM    6  C1  UNL     1      16.727  50.622 -54.603  1.00  0.00     0.178 C 
HETATM    7  C11 UNL     1      15.094  48.739 -54.477  1.00  0.00     0.141 A 
HETATM    8  C10 UNL     1      14.052  48.327 -53.633  1.00  0.00     0.105 A 
HETATM    9  N9  UNL     1      13.263  47.172 -53.811  1.00  0.00    -0.098 NA
BRANCH   7  10
HETATM   10  C12 UNL     1      15.478  47.986 -55.665  1.00  0.00     0.285 C 
HETATM   11  N10 UNL     1      16.722  47.309 -55.782  1.00  0.00    -0.056 NA
HETATM   12  O1  UNL     1      14.718  47.887 -56.672  1.00  0.00    -0.269 OA
ENDBRANCH   7  10
ENDBRANCH   1   2
BRANCH   1  13
HETATM   13  N3  UNL     1      13.300  48.045 -50.766  1.00  0.00    -0.069 N 
ATOM     14  H33 UNL     1      13.032  47.209 -51.286  1.00  0.00     0.275 HD
ATOM     15  H32 UNL     1      14.289  47.818 -50.675  1.00  0.00     0.275 HD
ATOM     16  H31 UNL     1      12.818  48.143 -49.873  1.00  0.00     0.275 HD
ENDBRANCH   1  13
BRANCH   1  17
HETATM   17  C4  UNL     1      13.292  50.476 -50.592  1.00  0.00     0.100 C 
BRANCH  17  18
HETATM   18  C5  UNL     1      12.778  50.316 -49.233  1.00  0.00     0.058 A 
HETATM   19  N4  UNL     1      11.466  50.435 -48.889  1.00  0.00    -0.352 N 
HETATM   20  C6  UNL     1      11.304  50.230 -47.581  1.00  0.00     0.209 A 
ATOM     21  H4  UNL     1      10.712  50.649 -49.542  1.00  0.00     0.166 HD
HETATM   22  N5  UNL     1      12.534  49.972 -47.058  1.00  0.00    -0.127 N 
HETATM   23  C7  UNL     1      12.933  49.703 -45.806  1.00  0.00     0.685 A 
HETATM   24  C9  UNL     1      13.442  50.023 -48.068  1.00  0.00     0.153 A 
HETATM   25  N7  UNL     1      14.237  49.485 -45.555  1.00  0.00    -0.188 N 
HETATM   26  C8  UNL     1      15.164  49.525 -46.520  1.00  0.00     0.199 A 
ATOM     27  H7  UNL     1      14.528  49.282 -44.599  1.00  0.00     0.185 HD
HETATM   28  N8  UNL     1      14.745  49.797 -47.768  1.00  0.00    -0.336 N 
ATOM     29  H8  UNL     1      15.434  49.834 -48.520  1.00  0.00     0.168 HD
BRANCH  23  30
HETATM   30  N6  UNL     1      12.056  49.657 -44.864  1.00  0.00    -0.234 N 
ATOM     31  H62 UNL     1      12.332  49.691 -43.883  1.00  0.00     0.174 HD
ATOM     32  H61 UNL     1      11.068  49.585 -45.108  1.00  0.00     0.174 HD
ENDBRANCH  23  30
ENDBRANCH  17  18
ENDBRANCH   1  17
TORSDOF 6
ENDMDL
MODEL 5
REMARK VINA RESULT: -7.518066080      3.939      5.846
REMARK  6 active torsions:
REMARK  status: ('A' for Active; 'I' for Inactive)
REMARK    1  A    between atoms: C2_5  and  C3_6 
REMARK    2  A    between atoms: C3_6  and  N3_7 
REMARK    3  A    between atoms: C3_6  and  C4_11 
REMARK    4  A    between atoms: C4_11  and  C5_12 
REMARK    5  A    between atoms: C7_17  and  N6_18 
REMARK    6  A    between atoms: C11_29  and  C12_30 
ROOT
HETATM    1  C3  UNL     1      19.547  48.057 -54.380  1.00  0.00     0.242 C 
ENDROOT
BRANCH   1   2
HETATM    2  C2  UNL     1      18.332  48.463 -55.162  1.00  0.00     0.083 A 
HETATM    3  N2  UNL     1      17.132  47.858 -55.147  1.00  0.00    -0.298 N 
HETATM    4  N1  UNL     1      16.278  48.497 -55.959  1.00  0.00    -0.290 N 
ATOM      5  H2  UNL     1      16.903  47.031 -54.597  1.00  0.00     0.187 HD
HETATM    6  C1  UNL     1      14.889  48.136 -56.201  1.00  0.00     0.178 C 
HETATM    7  C11 UNL     1      16.942  49.523 -56.501  1.00  0.00     0.141 A 
HETATM    8  C10 UNL     1      18.259  49.540 -56.020  1.00  0.00     0.105 A 
HETATM    9  N9  UNL     1      19.248  50.480 -56.375  1.00  0.00    -0.098 NA
BRANCH   7  10
HETATM   10  C12 UNL     1      16.447  50.512 -57.451  1.00  0.00     0.285 C 
HETATM   11  N10 UNL     1      16.211  50.217 -58.821  1.00  0.00    -0.056 NA
HETATM   12  O1  UNL     1      16.193  51.703 -57.108  1.00  0.00    -0.269 OA
ENDBRANCH   7  10
ENDBRANCH   1   2
BRANCH   1  13
HETATM   13  N3  UNL     1      20.686  48.335 -55.252  1.00  0.00    -0.069 N 
ATOM     14  H33 UNL     1      21.255  47.513 -55.458  1.00  0.00     0.275 HD
ATOM     15  H32 UNL     1      20.423  48.544 -56.215  1.00  0.00     0.275 HD
ATOM     16  H31 UNL     1      21.202  49.087 -54.797  1.00  0.00     0.275 HD
ENDBRANCH   1  13
BRANCH   1  17
HETATM   17  C4  UNL     1      19.655  48.848 -53.104  1.00  0.00     0.100 C 
BRANCH  17  18
HETATM   18  C5  UNL     1      18.681  48.470 -52.081  1.00  0.00     0.058 A 
HETATM   19  N4  UNL     1      18.380  47.186 -51.745  1.00  0.00    -0.352 N 
HETATM   20  C6  UNL     1      17.462  47.157 -50.776  1.00  0.00     0.209 A 
ATOM     21  H4  UNL     1      18.797  46.360 -52.173  1.00  0.00     0.166 HD
HETATM   22  N5  UNL     1      17.157  48.449 -50.473  1.00  0.00    -0.127 N 
HETATM   23  C7  UNL     1      16.304  48.980 -49.584  1.00  0.00     0.685 A 
HETATM   24  C9  UNL     1      17.903  49.258 -51.271  1.00  0.00     0.153 A 
HETATM   25  N7  UNL     1      16.191  50.317 -49.486  1.00  0.00    -0.188 N 
HETATM   26  C8  UNL     1      16.907  51.150 -50.252  1.00  0.00     0.199 A 
ATOM     27  H7  UNL     1      15.538  50.708 -48.808  1.00  0.00     0.185 HD
HETATM   28  N8  UNL     1      17.755  50.600 -51.137  1.00  0.00    -0.336 N 
ATOM     29  H8  UNL     1      18.310  51.215 -51.732  1.00  0.00     0.168 HD
BRANCH  23  30
HETATM   30  N6  UNL     1      15.608  48.195 -48.837  1.00  0.00    -0.234 N 
ATOM     31  H62 UNL     1      14.811  47.680 -49.210  1.00  0.00     0.174 HD
ATOM     32  H61 UNL     1      15.862  48.089 -47.855  1.00  0.00     0.174 HD
ENDBRANCH  23  30
ENDBRANCH  17  18
ENDBRANCH   1  17
TORSDOF 6
ENDMDL
