MODEL 1
REMARK VINA RESULT: -7.588750911      0.000      0.000
REMARK  7 active torsions:
REMARK  status: ('A' for Active; 'I' for Inactive)
REMARK    1  A    between atoms: C2_2  and  C3_4 
REMARK    2  A    between atoms: C3_4  and  N1_5 
REMARK    3  A    between atoms: C4_10  and  C5_11 
REMARK    4  A    between atoms: C5_11  and  C6_13 
REMARK    5  A    between atoms: C8_15  and  N4_16 
REMARK    6  A    between atoms: C10_22  and  N6_23 
REMARK    7  A    between atoms: N6_23  and  N7_25 
ROOT
HETATM    1  C6  UNL     1      13.584  49.273 -49.644  1.00  0.00     0.052 A 
HETATM    2  C7  UNL     1      14.679  48.471 -49.368  1.00  0.00     0.066 A 
HETATM    3  C8  UNL     1      14.948  48.069 -48.075  1.00  0.00     0.100 A 
HETATM    4  N5  UNL     1      14.178  48.428 -47.032  1.00  0.00    -0.338 N 
ATOM      5  H5  UNL     1      14.398  48.120 -46.085  1.00  0.00     0.167 HD
HETATM    6  C9  UNL     1      13.112  49.203 -47.275  1.00  0.00     0.110 A 
HETATM    7  C10 UNL     1      12.164  49.720 -46.417  1.00  0.00     0.164 A 
HETATM    8  N8  UNL     1      11.325  50.431 -47.199  1.00  0.00    -0.282 N 
ATOM      9  H8  UNL     1      10.511  50.939 -46.851  1.00  0.00     0.188 HD
HETATM   10  N9  UNL     1      11.686  50.390 -48.461  1.00  0.00    -0.296 N 
ATOM     11  H9  UNL     1      11.204  50.852 -49.232  1.00  0.00     0.187 HD
HETATM   12  C11 UNL     1      12.798  49.636 -48.568  1.00  0.00     0.093 A 
ENDROOT
BRANCH   1  13
HETATM   13  C5  UNL     1      13.228  49.737 -50.968  1.00  0.00     0.231 C 
HETATM   14  O2  UNL     1      12.536  50.799 -51.078  1.00  0.00    -0.283 OA
BRANCH  13  15
HETATM   15  C4  UNL     1      13.610  49.058 -52.204  1.00  0.00     0.189 A 
HETATM   16  N3  UNL     1      12.839  48.188 -52.919  1.00  0.00    -0.265 N 
HETATM   17  N2  UNL     1      13.561  47.798 -53.970  1.00  0.00    -0.224 N 
ATOM     18  H3  UNL     1      11.889  47.892 -52.692  1.00  0.00     0.190 HD
HETATM   19  N1  UNL     1      14.743  48.369 -53.962  1.00  0.00    -0.211 N 
ATOM     20  H2  UNL     1      13.238  47.144 -54.684  1.00  0.00     0.210 HD
HETATM   21  N10 UNL     1      14.764  49.136 -52.883  1.00  0.00    -0.263 N 
ATOM     22  H10 UNL     1      15.557  49.713 -52.603  1.00  0.00     0.190 HD
BRANCH  19  23
HETATM   23  C3  UNL     1      15.830  48.200 -54.935  1.00  0.00     0.248 C 
BRANCH  23  24
HETATM   24  C2  UNL     1      15.367  48.654 -56.270  1.00  0.00     0.144 C 
HETATM   25  C1  UNL     1      15.681  49.953 -56.894  1.00  0.00     0.093 C 
HETATM   26  O1  UNL     1      14.654  47.852 -56.892  1.00  0.00    -0.296 OA
ENDBRANCH  23  24
ENDBRANCH  19  23
ENDBRANCH  13  15
ENDBRANCH   1  13
BRANCH   3  27
HETATM   27  N4  UNL     1      15.975  47.316 -47.828  1.00  0.00    -0.385 N 
ATOM     28  H42 UNL     1      16.671  47.213 -48.567  1.00  0.00     0.157 HD
ATOM     29  H41 UNL     1      16.065  46.853 -46.924  1.00  0.00     0.157 HD
ENDBRANCH   3  27
BRANCH   7  30
HETATM   30  N6  UNL     1      12.047  49.574 -45.027  1.00  0.00    -0.289 N 
ATOM     31  H6  UNL     1      12.883  49.771 -44.477  1.00  0.00     0.188 HD
BRANCH  30  32
HETATM   32  N7  UNL     1      10.927  49.194 -44.326  1.00  0.00    -0.344 N 
ATOM     33  H72 UNL     1      10.045  49.567 -44.675  1.00  0.00     0.176 HD
ATOM     34  H71 UNL     1      10.892  48.587 -43.506  1.00  0.00     0.176 HD
ENDBRANCH  30  32
ENDBRANCH   7  30
TORSDOF 7
ENDMDL
MODEL 2
REMARK VINA RESULT: -7.445454724      0.986      1.041
REMARK  7 active torsions:
REMARK  status: ('A' for Active; 'I' for Inactive)
REMARK    1  A    between atoms: C2_2  and  C3_4 
REMARK    2  A    between atoms: C3_4  and  N1_5 
REMARK    3  A    between atoms: C4_10  and  C5_11 
REMARK    4  A    between atoms: C5_11  and  C6_13 
REMARK    5  A    between atoms: C8_15  and  N4_16 
REMARK    6  A    between atoms: C10_22  and  N6_23 
REMARK    7  A    between atoms: N6_23  and  N7_25 
ROOT
HETATM    1  C6  UNL     1      13.697  49.217 -49.571  1.00  0.00     0.052 A 
HETATM    2  C7  UNL     1      14.795  48.434 -49.254  1.00  0.00     0.066 A 
HETATM    3  C8  UNL     1      15.042  48.065 -47.946  1.00  0.00     0.100 A 
HETATM    4  N5  UNL     1      14.246  48.440 -46.928  1.00  0.00    -0.338 N 
ATOM      5  H5  UNL     1      14.449  48.157 -45.970  1.00  0.00     0.167 HD
HETATM    6  C9  UNL     1      13.177  49.197 -47.211  1.00  0.00     0.110 A 
HETATM    7  C10 UNL     1      12.206  49.723 -46.386  1.00  0.00     0.164 A 
HETATM    8  N8  UNL     1      11.375  50.407 -47.201  1.00  0.00    -0.282 N 
ATOM      9  H8  UNL     1      10.549  50.913 -46.882  1.00  0.00     0.188 HD
HETATM   10  N9  UNL     1      11.763  50.340 -48.454  1.00  0.00    -0.296 N 
ATOM     11  H9  UNL     1      11.292  50.778 -49.245  1.00  0.00     0.187 HD
HETATM   12  C11 UNL     1      12.885  49.596 -48.520  1.00  0.00     0.093 A 
ENDROOT
BRANCH   1  13
HETATM   13  C5  UNL     1      13.364  49.646 -50.913  1.00  0.00     0.231 C 
HETATM   14  O2  UNL     1      12.824  50.787 -51.074  1.00  0.00    -0.283 OA
BRANCH  13  15
HETATM   15  C4  UNL     1      13.605  48.847 -52.112  1.00  0.00     0.189 A 
HETATM   16  N3  UNL     1      13.183  47.566 -52.326  1.00  0.00    -0.265 N 
HETATM   17  N2  UNL     1      13.615  47.210 -53.537  1.00  0.00    -0.224 N 
ATOM     18  H3  UNL     1      12.640  46.991 -51.682  1.00  0.00     0.190 HD
HETATM   19  N1  UNL     1      14.286  48.188 -54.100  1.00  0.00    -0.211 N 
ATOM     20  H2  UNL     1      13.447  46.300 -53.967  1.00  0.00     0.210 HD
HETATM   21  N10 UNL     1      14.274  49.182 -53.224  1.00  0.00    -0.263 N 
ATOM     22  H10 UNL     1      14.717  50.088 -53.377  1.00  0.00     0.190 HD
BRANCH  19  23
HETATM   23  C3  UNL     1      14.927  48.195 -55.421  1.00  0.00     0.248 C 
BRANCH  23  24
HETATM   24  C2  UNL     1      16.401  48.147 -55.249  1.00  0.00     0.144 C 
HETATM   25  C1  UNL     1      17.394  48.131 -56.340  1.00  0.00     0.093 C 
HETATM   26  O1  UNL     1      16.803  48.116 -54.076  1.00  0.00    -0.296 OA
ENDBRANCH  23  24
ENDBRANCH  19  23
ENDBRANCH  13  15
ENDBRANCH   1  13
BRANCH   3  27
HETATM   27  N4  UNL     1      16.071  47.330 -47.660  1.00  0.00    -0.385 N 
ATOM     28  H42 UNL     1      16.183  46.457 -48.177  1.00  0.00     0.157 HD
ATOM     29  H41 UNL     1      16.732  47.630 -46.944  1.00  0.00     0.157 HD
ENDBRANCH   3  27
BRANCH   7  30
HETATM   30  N6  UNL     1      12.061  49.608 -44.995  1.00  0.00    -0.289 N 
ATOM     31  H6  UNL     1      12.886  49.820 -44.433  1.00  0.00     0.188 HD
BRANCH  30  32
HETATM   32  N7  UNL     1      10.929  49.242 -44.308  1.00  0.00    -0.344 N 
ATOM     33  H72 UNL     1      10.082  49.160 -44.871  1.00  0.00     0.176 HD
ATOM     34  H71 UNL     1      10.852  49.047 -43.309  1.00  0.00     0.176 HD
ENDBRANCH  30  32
ENDBRANCH   7  30
TORSDOF 7
ENDMDL
MODEL 3
REMARK VINA RESULT: -7.310832574      2.665      7.451
REMARK  7 active torsions:
REMARK  status: ('A' for Active; 'I' for Inactive)
REMARK    1  A    between atoms: C2_2  and  C3_4 
REMARK    2  A    between atoms: C3_4  and  N1_5 
REMARK    3  A    between atoms: C4_10  and  C5_11 
REMARK    4  A    between atoms: C5_11  and  C6_13 
REMARK    5  A    between atoms: C8_15  and  N4_16 
REMARK    6  A    between atoms: C10_22  and  N6_23 
REMARK    7  A    between atoms: N6_23  and  N7_25 
ROOT
HETATM    1  C6  UNL     1      14.527  49.342 -50.832  1.00  0.00     0.052 A 
HETATM    2  C7  UNL     1      15.371  50.410 -51.085  1.00  0.00     0.066 A 
HETATM    3  C8  UNL     1      15.758  50.710 -52.377  1.00  0.00     0.100 A 
HETATM    4  N5  UNL     1      15.345  49.993 -53.439  1.00  0.00    -0.338 N 
ATOM      5  H5  UNL     1      15.645  50.232 -54.383  1.00  0.00     0.167 HD
HETATM    6  C9  UNL     1      14.526  48.956 -53.217  1.00  0.00     0.110 A 
HETATM    7  C10 UNL     1      13.957  48.058 -54.095  1.00  0.00     0.164 A 
HETATM    8  N8  UNL     1      13.227  47.222 -53.329  1.00  0.00    -0.282 N 
ATOM      9  H8  UNL     1      12.681  46.441 -53.693  1.00  0.00     0.188 HD
HETATM   10  N9  UNL     1      13.307  47.536 -52.056  1.00  0.00    -0.296 N 
ATOM     11  H9  UNL     1      12.840  47.047 -51.293  1.00  0.00     0.187 HD
HETATM   12  C11 UNL     1      14.107  48.614 -51.927  1.00  0.00     0.093 A 
ENDROOT
BRANCH   1  13
HETATM   13  C5  UNL     1      14.070  48.962 -49.511  1.00  0.00     0.231 C 
HETATM   14  O2  UNL     1      14.494  47.872 -49.009  1.00  0.00    -0.283 OA
BRANCH  13  15
HETATM   15  C4  UNL     1      13.143  49.752 -48.706  1.00  0.00     0.189 A 
HETATM   16  N3  UNL     1      13.261  50.024 -47.373  1.00  0.00    -0.265 N 
HETATM   17  N2  UNL     1      12.209  50.769 -47.031  1.00  0.00    -0.224 N 
ATOM     18  H3  UNL     1      14.012  49.715 -46.756  1.00  0.00     0.190 HD
HETATM   19  N1  UNL     1      11.433  50.984 -48.068  1.00  0.00    -0.211 N 
ATOM     20  H2  UNL     1      12.032  51.124 -46.091  1.00  0.00     0.210 HD
HETATM   21  N10 UNL     1      12.010  50.361 -49.084  1.00  0.00    -0.263 N 
ATOM     22  H10 UNL     1      11.640  50.347 -50.034  1.00  0.00     0.190 HD
BRANCH  19  23
HETATM   23  C3  UNL     1      10.179  51.747 -48.109  1.00  0.00     0.248 C 
BRANCH  23  24
HETATM   24  C2  UNL     1       9.054  50.863 -47.713  1.00  0.00     0.144 C 
HETATM   25  C1  UNL     1       7.626  51.229 -47.729  1.00  0.00     0.093 C 
HETATM   26  O1  UNL     1       9.374  49.725 -47.339  1.00  0.00    -0.296 OA
ENDBRANCH  23  24
ENDBRANCH  19  23
ENDBRANCH  13  15
ENDBRANCH   1  13
BRANCH   3  27
HETATM   27  N4  UNL     1      16.547  51.714 -52.604  1.00  0.00    -0.385 N 
ATOM     28  H42 UNL     1      17.325  51.855 -51.960  1.00  0.00     0.157 HD
ATOM     29  H41 UNL     1      16.380  52.326 -53.403  1.00  0.00     0.157 HD
ENDBRANCH   3  27
BRANCH   7  30
HETATM   30  N6  UNL     1      14.076  47.981 -55.491  1.00  0.00    -0.289 N 
ATOM     31  H6  UNL     1      13.214  48.084 -56.027  1.00  0.00     0.188 HD
BRANCH  30  32
HETATM   32  N7  UNL     1      15.228  47.783 -56.214  1.00  0.00    -0.344 N 
ATOM     33  H72 UNL     1      15.324  48.359 -57.050  1.00  0.00     0.176 HD
ATOM     34  H71 UNL     1      15.982  47.129 -56.002  1.00  0.00     0.176 HD
ENDBRANCH  30  32
ENDBRANCH   7  30
TORSDOF 7
ENDMDL
MODEL 4
REMARK VINA RESULT: -7.188068343      1.853      3.080
REMARK  7 active torsions:
REMARK  status: ('A' for Active; 'I' for Inactive)
REMARK    1  A    between atoms: C2_2  and  C3_4 
REMARK    2  A    between atoms: C3_4  and  N1_5 
REMARK    3  A    between atoms: C4_10  and  C5_11 
REMARK    4  A    between atoms: C5_11  and  C6_13 
REMARK    5  A    between atoms: C8_15  and  N4_16 
REMARK    6  A    between atoms: C10_22  and  N6_23 
REMARK    7  A    between atoms: N6_23  and  N7_25 
ROOT
HETATM    1  C6  UNL     1      13.799  49.732 -51.253  1.00  0.00     0.052 A 
HETATM    2  C7  UNL     1      13.242  50.883 -51.786  1.00  0.00     0.066 A 
HETATM    3  C8  UNL     1      12.398  51.671 -51.029  1.00  0.00     0.100 A 
HETATM    4  N5  UNL     1      12.075  51.369 -49.758  1.00  0.00    -0.338 N 
ATOM      5  H5  UNL     1      11.448  51.966 -49.219  1.00  0.00     0.167 HD
HETATM    6  C9  UNL     1      12.602  50.260 -49.221  1.00  0.00     0.110 A 
HETATM    7  C10 UNL     1      12.449  49.711 -47.967  1.00  0.00     0.164 A 
HETATM    8  N8  UNL     1      13.204  48.592 -47.972  1.00  0.00    -0.282 N 
ATOM      9  H8  UNL     1      13.298  47.961 -47.176  1.00  0.00     0.188 HD
HETATM   10  N9  UNL     1      13.803  48.417 -49.127  1.00  0.00    -0.296 N 
ATOM     11  H9  UNL     1      14.423  47.643 -49.364  1.00  0.00     0.187 HD
HETATM   12  C11 UNL     1      13.463  49.431 -49.948  1.00  0.00     0.093 A 
ENDROOT
BRANCH   1  13
HETATM   13  C5  UNL     1      14.694  48.852 -51.975  1.00  0.00     0.231 C 
HETATM   14  O2  UNL     1      15.591  48.225 -51.324  1.00  0.00    -0.283 OA
BRANCH  13  15
HETATM   15  C4  UNL     1      14.641  48.633 -53.418  1.00  0.00     0.189 A 
HETATM   16  N3  UNL     1      13.644  47.999 -54.101  1.00  0.00    -0.265 N 
HETATM   17  N2  UNL     1      13.983  48.011 -55.391  1.00  0.00    -0.224 N 
ATOM     18  H3  UNL     1      12.797  47.592 -53.701  1.00  0.00     0.190 HD
HETATM   19  N1  UNL     1      15.137  48.615 -55.563  1.00  0.00    -0.211 N 
ATOM     20  H2  UNL     1      13.423  47.607 -56.141  1.00  0.00     0.210 HD
HETATM   21  N10 UNL     1      15.529  48.990 -54.356  1.00  0.00    -0.263 N 
ATOM     22  H10 UNL     1      16.398  49.489 -54.163  1.00  0.00     0.190 HD
BRANCH  19  23
HETATM   23  C3  UNL     1      15.859  48.831 -56.824  1.00  0.00     0.248 C 
BRANCH  23  24
HETATM   24  C2  UNL     1      15.995  50.289 -57.066  1.00  0.00     0.144 C 
HETATM   25  C1  UNL     1      15.141  51.097 -57.957  1.00  0.00     0.093 C 
HETATM   26  O1  UNL     1      16.916  50.850 -56.453  1.00  0.00    -0.296 OA
ENDBRANCH  23  24
ENDBRANCH  19  23
ENDBRANCH  13  15
ENDBRANCH   1  13
BRANCH   3  27
HETATM   27  N4  UNL     1      11.884  52.748 -51.536  1.00  0.00    -0.385 N 
ATOM     28  H42 UNL     1      12.004  52.900 -52.538  1.00  0.00     0.157 HD
ATOM     29  H41 UNL     1      11.382  53.406 -50.940  1.00  0.00     0.157 HD
ENDBRANCH   3  27
BRANCH   7  30
HETATM   30  N6  UNL     1      11.687  50.167 -46.881  1.00  0.00    -0.289 N 
ATOM     31  H6  UNL     1      12.111  50.890 -46.300  1.00  0.00     0.188 HD
BRANCH  30  32
HETATM   32  N7  UNL     1      10.429  49.747 -46.518  1.00  0.00    -0.344 N 
ATOM     33  H72 UNL     1      10.064  48.954 -47.045  1.00  0.00     0.176 HD
ATOM     34  H71 UNL     1       9.837  50.142 -45.787  1.00  0.00     0.176 HD
ENDBRANCH  30  32
ENDBRANCH   7  30
TORSDOF 7
ENDMDL
MODEL 5
REMARK VINA RESULT: -7.127281589      1.559      2.717
REMARK  7 active torsions:
REMARK  status: ('A' for Active; 'I' for Inactive)
REMARK    1  A    between atoms: C2_2  and  C3_4 
REMARK    2  A    between atoms: C3_4  and  N1_5 
REMARK    3  A    between atoms: C4_10  and  C5_11 
REMARK    4  A    between atoms: C5_11  and  C6_13 
REMARK    5  A    between atoms: C8_15  and  N4_16 
REMARK    6  A    between atoms: C10_22  and  N6_23 
REMARK    7  A    between atoms: N6_23  and  N7_25 
ROOT
HETATM    1  C6  UNL     1      13.760  49.673 -50.686  1.00  0.00     0.052 A 
HETATM    2  C7  UNL     1      13.138  50.833 -51.116  1.00  0.00     0.066 A 
HETATM    3  C8  UNL     1      12.355  51.573 -50.251  1.00  0.00     0.100 A 
HETATM    4  N5  UNL     1      12.157  51.213 -48.970  1.00  0.00    -0.338 N 
ATOM      5  H5  UNL     1      11.573  51.775 -48.350  1.00  0.00     0.167 HD
HETATM    6  C9  UNL     1      12.750  50.095 -48.531  1.00  0.00     0.110 A 
HETATM    7  C10 UNL     1      12.723  49.491 -47.292  1.00  0.00     0.164 A 
HETATM    8  N8  UNL     1      13.492  48.389 -47.414  1.00  0.00    -0.282 N 
ATOM      9  H8  UNL     1      13.670  47.728 -46.658  1.00  0.00     0.188 HD
HETATM   10  N9  UNL     1      13.983  48.273 -48.626  1.00  0.00    -0.296 N 
ATOM     11  H9  UNL     1      14.591  47.521 -48.952  1.00  0.00     0.187 HD
HETATM   12  C11 UNL     1      13.552  49.312 -49.369  1.00  0.00     0.093 A 
ENDROOT
BRANCH   1  13
HETATM   13  C5  UNL     1      14.598  48.841 -51.523  1.00  0.00     0.231 C 
HETATM   14  O2  UNL     1      15.689  48.395 -51.044  1.00  0.00    -0.283 OA
BRANCH  13  15
HETATM   15  C4  UNL     1      14.274  48.475 -52.900  1.00  0.00     0.189 A 
HETATM   16  N3  UNL     1      13.097  47.941 -53.337  1.00  0.00    -0.265 N 
HETATM   17  N2  UNL     1      13.215  47.755 -54.652  1.00  0.00    -0.224 N 
ATOM     18  H3  UNL     1      12.279  47.725 -52.766  1.00  0.00     0.190 HD
HETATM   19  N1  UNL     1      14.399  48.139 -55.072  1.00  0.00    -0.211 N 
ATOM     20  H2  UNL     1      12.486  47.367 -55.251  1.00  0.00     0.210 HD
HETATM   21  N10 UNL     1      15.036  48.577 -53.998  1.00  0.00    -0.263 N 
ATOM     22  H10 UNL     1      15.988  48.945 -54.005  1.00  0.00     0.190 HD
BRANCH  19  23
HETATM   23  C3  UNL     1      14.925  48.093 -56.443  1.00  0.00     0.248 C 
BRANCH  23  24
HETATM   24  C2  UNL     1      16.403  48.219 -56.404  1.00  0.00     0.144 C 
HETATM   25  C1  UNL     1      17.175  49.419 -56.779  1.00  0.00     0.093 C 
HETATM   26  O1  UNL     1      17.017  47.212 -56.021  1.00  0.00    -0.296 OA
ENDBRANCH  23  24
ENDBRANCH  19  23
ENDBRANCH  13  15
ENDBRANCH   1  13
BRANCH   3  27
HETATM   27  N4  UNL     1      11.779  52.660 -50.663  1.00  0.00    -0.385 N 
ATOM     28  H42 UNL     1      12.374  53.382 -51.068  1.00  0.00     0.157 HD
ATOM     29  H41 UNL     1      10.769  52.768 -50.577  1.00  0.00     0.157 HD
ENDBRANCH   3  27
BRANCH   7  30
HETATM   30  N6  UNL     1      12.058  49.889 -46.123  1.00  0.00    -0.289 N 
ATOM     31  H6  UNL     1      12.409  50.729 -45.664  1.00  0.00     0.188 HD
BRANCH  30  32
HETATM   32  N7  UNL     1      10.985  49.267 -45.529  1.00  0.00    -0.344 N 
ATOM     33  H72 UNL     1      11.183  48.360 -45.107  1.00  0.00     0.176 HD
ATOM     34  H71 UNL     1      10.028  49.617 -45.469  1.00  0.00     0.176 HD
ENDBRANCH  30  32
ENDBRANCH   7  30
TORSDOF 7
ENDMDL
