MODEL 1
REMARK VINA RESULT: -7.124664020      0.000      0.000
REMARK  5 active torsions:
REMARK  status: ('A' for Active; 'I' for Inactive)
REMARK    1  A    between atoms: S1_2  and  C2_3 
REMARK    2  A    between atoms: C4_10  and  C5_11 
REMARK    3  A    between atoms: N4_13  and  N5_15 
REMARK       I    between atoms: C7_17  and  N7_19 
REMARK    4  A    between atoms: N7_19  and  N8_21 
REMARK    5  A    between atoms: C8_28  and  N12_29 
ROOT
HETATM    1  N5  UNL     1      13.563  49.797 -50.280  1.00  0.00    -0.272 N 
ATOM      2  H5  UNL     1      12.736  49.886 -50.871  1.00  0.00     0.189 HD
HETATM    3  C7  UNL     1      13.440  49.977 -49.009  1.00  0.00     0.224 C 
HETATM    4  N6  UNL     1      14.581  49.855 -48.185  1.00  0.00    -0.061 NA
HETATM    5  N7  UNL     1      12.187  50.291 -48.441  1.00  0.00    -0.235 N 
ATOM      6  H7  UNL     1      11.504  50.805 -49.000  1.00  0.00     0.192 HD
ENDROOT
BRANCH   1   7
HETATM    7  N4  UNL     1      14.768  49.489 -50.866  1.00  0.00    -0.300 N 
HETATM    8  C5  UNL     1      14.936  48.499 -51.711  1.00  0.00     0.053 C 
HETATM    9  C6  UNL     1      13.748  47.703 -52.022  1.00  0.00     0.072 C 
ATOM     10  H4  UNL     1      15.578  50.062 -50.630  1.00  0.00     0.186 HD
BRANCH   8  11
HETATM   11  C4  UNL     1      16.274  48.290 -52.253  1.00  0.00     0.110 A 
HETATM   12  C2  UNL     1      16.644  48.640 -53.555  1.00  0.00     0.116 A 
HETATM   13  N1  UNL     1      17.937  48.283 -53.645  1.00  0.00    -0.277 N 
HETATM   14  N2  UNL     1      18.337  47.758 -52.505  1.00  0.00    -0.239 N 
ATOM     15  H1  UNL     1      18.521  48.400 -54.473  1.00  0.00     0.189 HD
HETATM   16  N3  UNL     1      17.329  47.748 -51.620  1.00  0.00    -0.278 N 
ATOM     17  H2  UNL     1      19.278  47.411 -52.322  1.00  0.00     0.208 HD
HETATM   18  C3  UNL     1      17.405  47.242 -50.254  1.00  0.00     0.179 C 
BRANCH  12  19
HETATM   19  S1  UNL     1      15.610  49.391 -54.800  1.00  0.00    -0.113 SA
HETATM   20  C1  UNL     1      14.702  48.087 -55.685  1.00  0.00     0.097 C 
ENDBRANCH  12  19
ENDBRANCH   8  11
ENDBRANCH   1   7
BRANCH   5  21
HETATM   21  N8  UNL     1      11.853  49.917 -47.128  1.00  0.00    -0.001 N 
HETATM   22  N9  UNL     1      12.601  50.036 -46.063  1.00  0.00    -0.191 N 
HETATM   23  N10 UNL     1      11.971  49.583 -44.996  1.00  0.00    -0.212 N 
ATOM     24  H9  UNL     1      13.543  50.426 -46.057  1.00  0.00     0.212 HD
HETATM   25  N11 UNL     1      10.790  49.168 -45.423  1.00  0.00    -0.114 N 
ATOM     26  H10 UNL     1      12.322  49.558 -44.039  1.00  0.00     0.210 HD
HETATM   27  C8  UNL     1      10.693  49.365 -46.750  1.00  0.00     0.729 A 
ATOM     28  H11 UNL     1      10.064  48.759 -44.836  1.00  0.00     0.207 HD
BRANCH  27  29
HETATM   29  N12 UNL     1       9.691  49.084 -47.509  1.00  0.00    -0.230 N 
ATOM     30 2H12 UNL     1       9.720  48.695 -48.453  1.00  0.00     0.174 HD
ATOM     31 1H12 UNL     1       8.703  49.207 -47.285  1.00  0.00     0.174 HD
ENDBRANCH  27  29
ENDBRANCH   5  21
TORSDOF 5
ENDMDL
MODEL 2
REMARK VINA RESULT: -6.911642856      1.393      2.451
REMARK  5 active torsions:
REMARK  status: ('A' for Active; 'I' for Inactive)
REMARK    1  A    between atoms: S1_2  and  C2_3 
REMARK    2  A    between atoms: C4_10  and  C5_11 
REMARK    3  A    between atoms: N4_13  and  N5_15 
REMARK       I    between atoms: C7_17  and  N7_19 
REMARK    4  A    between atoms: N7_19  and  N8_21 
REMARK    5  A    between atoms: C8_28  and  N12_29 
ROOT
HETATM    1  N5  UNL     1      13.431  49.870 -50.371  1.00  0.00    -0.272 N 
ATOM      2  H5  UNL     1      12.581  49.960 -50.928  1.00  0.00     0.189 HD
HETATM    3  C7  UNL     1      13.359  50.040 -49.095  1.00  0.00     0.224 C 
HETATM    4  N6  UNL     1      14.532  49.918 -48.319  1.00  0.00    -0.061 NA
HETATM    5  N7  UNL     1      12.127  50.344 -48.476  1.00  0.00    -0.235 N 
ATOM      6  H7  UNL     1      11.420  50.858 -49.002  1.00  0.00     0.192 HD
ENDROOT
BRANCH   1   7
HETATM    7  N4  UNL     1      14.613  49.573 -51.008  1.00  0.00    -0.300 N 
HETATM    8  C5  UNL     1      14.772  48.545 -51.808  1.00  0.00     0.053 C 
HETATM    9  C6  UNL     1      13.600  47.692 -52.008  1.00  0.00     0.072 C 
ATOM     10  H4  UNL     1      15.412  50.187 -50.849  1.00  0.00     0.186 HD
BRANCH   8  11
HETATM   11  C4  UNL     1      16.085  48.354 -52.413  1.00  0.00     0.110 A 
HETATM   12  C2  UNL     1      17.205  47.903 -51.708  1.00  0.00     0.116 A 
HETATM   13  N1  UNL     1      18.188  47.870 -52.623  1.00  0.00    -0.277 N 
HETATM   14  N2  UNL     1      17.728  48.264 -53.791  1.00  0.00    -0.239 N 
ATOM     15  H1  UNL     1      19.150  47.583 -52.439  1.00  0.00     0.189 HD
HETATM   16  N3  UNL     1      16.425  48.572 -53.696  1.00  0.00    -0.278 N 
ATOM     17  H2  UNL     1      18.281  48.326 -54.646  1.00  0.00     0.208 HD
HETATM   18  C3  UNL     1      15.583  49.044 -54.790  1.00  0.00     0.179 C 
BRANCH  12  19
HETATM   19  S1  UNL     1      17.281  47.474 -49.978  1.00  0.00    -0.113 SA
HETATM   20  C1  UNL     1      17.963  48.879 -49.046  1.00  0.00     0.097 C 
ENDBRANCH  12  19
ENDBRANCH   8  11
ENDBRANCH   1   7
BRANCH   5  21
HETATM   21  N8  UNL     1      11.848  49.957 -47.153  1.00  0.00    -0.001 N 
HETATM   22  N9  UNL     1      12.631  50.089 -46.114  1.00  0.00    -0.191 N 
HETATM   23  N10 UNL     1      12.049  49.619 -45.028  1.00  0.00    -0.212 N 
ATOM     24  H9  UNL     1      13.564  50.500 -46.140  1.00  0.00     0.212 HD
HETATM   25  N11 UNL     1      10.863  49.179 -45.415  1.00  0.00    -0.114 N 
ATOM     26  H10 UNL     1      12.434  49.598 -44.084  1.00  0.00     0.210 HD
HETATM   27  C8  UNL     1      10.715  49.379 -46.736  1.00  0.00     0.729 A 
ATOM     28  H11 UNL     1      10.167  48.753 -44.804  1.00  0.00     0.207 HD
BRANCH  27  29
HETATM   29  N12 UNL     1       9.693  49.079 -47.461  1.00  0.00    -0.230 N 
ATOM     30 2H12 UNL     1       9.653  49.019 -48.479  1.00  0.00     0.174 HD
ATOM     31 1H12 UNL     1       8.755  48.852 -47.128  1.00  0.00     0.174 HD
ENDBRANCH  27  29
ENDBRANCH   5  21
TORSDOF 5
ENDMDL
MODEL 3
REMARK VINA RESULT: -6.845439976      1.747      2.813
REMARK  5 active torsions:
REMARK  status: ('A' for Active; 'I' for Inactive)
REMARK    1  A    between atoms: S1_2  and  C2_3 
REMARK    2  A    between atoms: C4_10  and  C5_11 
REMARK    3  A    between atoms: N4_13  and  N5_15 
REMARK       I    between atoms: C7_17  and  N7_19 
REMARK    4  A    between atoms: N7_19  and  N8_21 
REMARK    5  A    between atoms: C8_28  and  N12_29 
ROOT
HETATM    1  N5  UNL     1      13.524  49.891 -51.988  1.00  0.00    -0.272 N 
ATOM      2  H5  UNL     1      12.593  49.881 -52.403  1.00  0.00     0.189 HD
HETATM    3  C7  UNL     1      13.643  50.153 -50.731  1.00  0.00     0.224 C 
HETATM    4  N6  UNL     1      14.931  50.169 -50.152  1.00  0.00    -0.061 NA
HETATM    5  N7  UNL     1      12.506  50.420 -49.939  1.00  0.00    -0.235 N 
ATOM      6  H7  UNL     1      11.686  50.844 -50.375  1.00  0.00     0.192 HD
ENDROOT
BRANCH   1   7
HETATM    7  N4  UNL     1      14.610  49.626 -52.789  1.00  0.00    -0.300 N 
HETATM    8  C5  UNL     1      14.904  48.431 -53.246  1.00  0.00     0.053 C 
HETATM    9  C6  UNL     1      14.000  47.348 -52.859  1.00  0.00     0.072 C 
ATOM     10  H4  UNL     1      15.222  50.401 -53.043  1.00  0.00     0.186 HD
BRANCH   8  11
HETATM   11  C4  UNL     1      16.089  48.299 -54.086  1.00  0.00     0.110 A 
HETATM   12  C2  UNL     1      17.397  48.340 -53.592  1.00  0.00     0.116 A 
HETATM   13  N1  UNL     1      18.172  48.185 -54.678  1.00  0.00    -0.277 N 
HETATM   14  N2  UNL     1      17.420  48.059 -55.752  1.00  0.00    -0.239 N 
ATOM     15  H1  UNL     1      19.192  48.168 -54.672  1.00  0.00     0.189 HD
HETATM   16  N3  UNL     1      16.122  48.126 -55.419  1.00  0.00    -0.278 N 
ATOM     17  H2  UNL     1      17.774  47.929 -56.700  1.00  0.00     0.208 HD
HETATM   18  C3  UNL     1      15.002  48.025 -56.349  1.00  0.00     0.179 C 
BRANCH  12  19
HETATM   19  S1  UNL     1      17.894  48.553 -51.892  1.00  0.00    -0.113 SA
HETATM   20  C1  UNL     1      17.527  47.030 -50.969  1.00  0.00     0.097 C 
ENDBRANCH  12  19
ENDBRANCH   8  11
ENDBRANCH   1   7
BRANCH   5  21
HETATM   21  N8  UNL     1      12.472  50.119 -48.566  1.00  0.00    -0.001 N 
HETATM   22  N9  UNL     1      13.230  49.266 -47.930  1.00  0.00    -0.191 N 
HETATM   23  N10 UNL     1      12.925  49.235 -46.647  1.00  0.00    -0.212 N 
ATOM     24  H9  UNL     1      13.958  48.701 -48.366  1.00  0.00     0.212 HD
HETATM   25  N11 UNL     1      11.939  50.103 -46.489  1.00  0.00    -0.114 N 
ATOM     26  H10 UNL     1      13.360  48.661 -45.925  1.00  0.00     0.210 HD
HETATM   27  C8  UNL     1      11.639  50.667 -47.672  1.00  0.00     0.729 A 
ATOM     28  H11 UNL     1      11.478  50.312 -45.605  1.00  0.00     0.207 HD
BRANCH  27  29
HETATM   29  N12 UNL     1      10.735  51.554 -47.906  1.00  0.00    -0.230 N 
ATOM     30 2H12 UNL     1      10.865  52.471 -48.336  1.00  0.00     0.174 HD
ATOM     31 1H12 UNL     1       9.739  51.480 -47.696  1.00  0.00     0.174 HD
ENDBRANCH  27  29
ENDBRANCH   5  21
TORSDOF 5
ENDMDL
MODEL 4
REMARK VINA RESULT: -6.806235470      2.704      7.754
REMARK  5 active torsions:
REMARK  status: ('A' for Active; 'I' for Inactive)
REMARK    1  A    between atoms: S1_2  and  C2_3 
REMARK    2  A    between atoms: C4_10  and  C5_11 
REMARK    3  A    between atoms: N4_13  and  N5_15 
REMARK       I    between atoms: C7_17  and  N7_19 
REMARK    4  A    between atoms: N7_19  and  N8_21 
REMARK    5  A    between atoms: C8_28  and  N12_29 
ROOT
HETATM    1  N5  UNL     1      13.627  48.587 -51.383  1.00  0.00    -0.272 N 
ATOM      2  H5  UNL     1      13.684  47.627 -51.045  1.00  0.00     0.189 HD
HETATM    3  C7  UNL     1      14.296  48.918 -52.434  1.00  0.00     0.224 C 
HETATM    4  N6  UNL     1      14.221  50.247 -52.906  1.00  0.00    -0.061 NA
HETATM    5  N7  UNL     1      15.095  47.970 -53.109  1.00  0.00    -0.235 N 
ATOM      6  H7  UNL     1      15.509  47.203 -52.579  1.00  0.00     0.192 HD
ENDROOT
BRANCH   1   7
HETATM    7  N4  UNL     1      12.838  49.484 -50.701  1.00  0.00    -0.300 N 
HETATM    8  C5  UNL     1      13.039  49.827 -49.450  1.00  0.00     0.053 C 
HETATM    9  C6  UNL     1      14.177  49.196 -48.779  1.00  0.00     0.072 C 
ATOM     10  H4  UNL     1      12.053  49.908 -51.195  1.00  0.00     0.186 HD
BRANCH   8  11
HETATM   11  C4  UNL     1      12.120  50.791 -48.855  1.00  0.00     0.110 A 
HETATM   12  C2  UNL     1      12.118  52.153 -49.170  1.00  0.00     0.116 A 
HETATM   13  N1  UNL     1      11.136  52.672 -48.414  1.00  0.00    -0.277 N 
HETATM   14  N2  UNL     1      10.576  51.723 -47.692  1.00  0.00    -0.239 N 
ATOM     15  H1  UNL     1      10.864  53.655 -48.400  1.00  0.00     0.189 HD
HETATM   16  N3  UNL     1      11.164  50.543 -47.942  1.00  0.00    -0.278 N 
ATOM     17  H2  UNL     1       9.807  51.864 -47.038  1.00  0.00     0.208 HD
HETATM   18  C3  UNL     1      10.807  49.270 -47.326  1.00  0.00     0.179 C 
BRANCH  12  19
HETATM   19  S1  UNL     1      13.191  52.989 -50.324  1.00  0.00    -0.113 SA
HETATM   20  C1  UNL     1      12.320  53.194 -51.907  1.00  0.00     0.097 C 
ENDBRANCH  12  19
ENDBRANCH   8  11
ENDBRANCH   1   7
BRANCH   5  21
HETATM   21  N8  UNL     1      15.336  48.055 -54.491  1.00  0.00    -0.001 N 
HETATM   22  N9  UNL     1      14.443  48.079 -55.445  1.00  0.00    -0.191 N 
HETATM   23  N10 UNL     1      15.022  48.163 -56.627  1.00  0.00    -0.212 N 
ATOM     24  H9  UNL     1      13.435  48.037 -55.296  1.00  0.00     0.212 HD
HETATM   25  N11 UNL     1      16.323  48.192 -56.390  1.00  0.00    -0.114 N 
ATOM     26  H10 UNL     1      14.563  48.200 -57.536  1.00  0.00     0.210 HD
HETATM   27  C8  UNL     1      16.544  48.125 -55.065  1.00  0.00     0.729 A 
ATOM     28  H11 UNL     1      17.049  48.254 -57.104  1.00  0.00     0.207 HD
BRANCH  27  29
HETATM   29  N12 UNL     1      17.683  48.128 -54.463  1.00  0.00    -0.230 N 
ATOM     30 2H12 UNL     1      17.953  47.576 -53.648  1.00  0.00     0.174 HD
ATOM     31 1H12 UNL     1      18.500  48.688 -54.708  1.00  0.00     0.174 HD
ENDBRANCH  27  29
ENDBRANCH   5  21
TORSDOF 5
ENDMDL
MODEL 5
REMARK VINA RESULT: -6.799130009      1.626      2.367
REMARK  5 active torsions:
REMARK  status: ('A' for Active; 'I' for Inactive)
REMARK    1  A    between atoms: S1_2  and  C2_3 
REMARK    2  A    between atoms: C4_10  and  C5_11 
REMARK    3  A    between atoms: N4_13  and  N5_15 
REMARK       I    between atoms: C7_17  and  N7_19 
REMARK    4  A    between atoms: N7_19  and  N8_21 
REMARK    5  A    between atoms: C8_28  and  N12_29 
ROOT
HETATM    1  N5  UNL     1      14.998  48.596 -48.165  1.00  0.00    -0.272 N 
ATOM      2  H5  UNL     1      15.387  48.687 -47.226  1.00  0.00     0.189 HD
HETATM    3  C7  UNL     1      13.748  48.852 -48.347  1.00  0.00     0.224 C 
HETATM    4  N6  UNL     1      13.204  48.729 -49.644  1.00  0.00    -0.061 NA
HETATM    5  N7  UNL     1      12.928  49.252 -47.270  1.00  0.00    -0.235 N 
ATOM      6  H7  UNL     1      13.151  48.926 -46.329  1.00  0.00     0.192 HD
ENDROOT
BRANCH   1   7
HETATM    7  N4  UNL     1      15.826  48.205 -49.191  1.00  0.00    -0.300 N 
HETATM    8  C5  UNL     1      16.813  48.938 -49.651  1.00  0.00     0.053 C 
HETATM    9  C6  UNL     1      17.010  50.238 -49.008  1.00  0.00     0.072 C 
ATOM     10  H4  UNL     1      15.664  47.294 -49.619  1.00  0.00     0.186 HD
BRANCH   8  11
HETATM   11  C4  UNL     1      17.608  48.394 -50.746  1.00  0.00     0.110 A 
HETATM   12  C2  UNL     1      17.220  48.452 -52.088  1.00  0.00     0.116 A 
HETATM   13  N1  UNL     1      18.217  47.846 -52.753  1.00  0.00    -0.277 N 
HETATM   14  N2  UNL     1      19.143  47.445 -51.907  1.00  0.00    -0.239 N 
ATOM     15  H1  UNL     1      18.252  47.714 -53.764  1.00  0.00     0.189 HD
HETATM   16  N3  UNL     1      18.796  47.770 -50.652  1.00  0.00    -0.278 N 
ATOM     17  H2  UNL     1      20.001  46.959 -52.167  1.00  0.00     0.208 HD
HETATM   18  C3  UNL     1      19.579  47.485 -49.455  1.00  0.00     0.179 C 
BRANCH  12  19
HETATM   19  S1  UNL     1      15.726  49.175 -52.742  1.00  0.00    -0.113 SA
HETATM   20  C1  UNL     1      14.478  47.870 -52.961  1.00  0.00     0.097 C 
ENDBRANCH  12  19
ENDBRANCH   8  11
ENDBRANCH   1   7
BRANCH   5  21
HETATM   21  N8  UNL     1      11.813  50.088 -47.458  1.00  0.00    -0.001 N 
HETATM   22  N9  UNL     1      11.817  51.314 -47.910  1.00  0.00    -0.191 N 
HETATM   23  N10 UNL     1      10.591  51.798 -47.957  1.00  0.00    -0.212 N 
ATOM     24  H9  UNL     1      12.653  51.825 -48.189  1.00  0.00     0.212 HD
HETATM   25  N11 UNL     1       9.803  50.833 -47.514  1.00  0.00    -0.114 N 
ATOM     26  H10 UNL     1      10.308  52.727 -48.270  1.00  0.00     0.210 HD
HETATM   27  C8  UNL     1      10.542  49.756 -47.196  1.00  0.00     0.729 A 
ATOM     28  H11 UNL     1       8.789  50.896 -47.427  1.00  0.00     0.207 HD
BRANCH  27  29
HETATM   29  N12 UNL     1      10.121  48.629 -46.734  1.00  0.00    -0.230 N 
ATOM     30 2H12 UNL     1      10.536  48.074 -45.986  1.00  0.00     0.174 HD
ATOM     31 1H12 UNL     1       9.299  48.112 -47.046  1.00  0.00     0.174 HD
ENDBRANCH  27  29
ENDBRANCH   5  21
TORSDOF 5
ENDMDL
