MODEL 1
REMARK VINA RESULT: -7.827169735      0.000      0.000
REMARK  15 active torsions:
REMARK  status: ('A' for Active; 'I' for Inactive)
REMARK    1  A    between atoms: N5_17  and  C6_19 
REMARK    2  A    between atoms: C6_19  and  C7_20 
REMARK    3  A    between atoms: C7_20  and  C8_21 
REMARK    4  A    between atoms: C8_21  and  C9_22 
REMARK    5  A    between atoms: C9_22  and  C10_23 
REMARK    6  A    between atoms: C10_23  and  C11_24 
REMARK    7  A    between atoms: C11_24  and  N6_25 
REMARK       I    between atoms: N6_25  and  C12_27 
REMARK    8  A    between atoms: C12_27  and  C13_29 
REMARK    9  A    between atoms: C13_29  and  C14_30 
REMARK   10  A    between atoms: C14_30  and  C15_31 
REMARK   11  A    between atoms: C15_31  and  C16_32 
REMARK   12  A    between atoms: C16_32  and  N7_33 
REMARK   13  A    between atoms: C17_39  and  C18_40 
REMARK   14  A    between atoms: C18_40  and  O2_41 
REMARK   15  A    between atoms: C21_47  and  O4_48 
ROOT
HETATM    1  N1  UNL     1      68.476  14.926  32.505  1.00  0.00    -0.386 N 
ATOM      2  H11 UNL     1      69.237  15.335  31.962  1.00  0.00     0.157 HD
ATOM      3  H12 UNL     1      68.688  14.187  33.175  1.00  0.00     0.157 HD
HETATM    4  C1  UNL     1      67.259  15.368  32.320  1.00  0.00     0.118 C 
HETATM    5  N2  UNL     1      66.201  14.800  33.075  1.00  0.00    -0.320 N 
ATOM      6  H2  UNL     1      66.337  13.898  33.529  1.00  0.00     0.169 HD
HETATM    7  C2  UNL     1      64.957  15.466  33.210  1.00  0.00     0.180 C 
HETATM    8 CL1  UNL     1      63.705  14.690  34.157  1.00  0.00    -0.045 Cl
HETATM    9  N3  UNL     1      64.799  16.598  32.639  1.00  0.00    -0.331 N 
ATOM     10  H3  UNL     1      63.901  17.072  32.737  1.00  0.00     0.168 HD
HETATM   11  C3  UNL     1      65.844  17.244  31.856  1.00  0.00     0.093 C 
HETATM   12  C4  UNL     1      65.731  18.513  31.535  1.00  0.00     0.145 C 
HETATM   13 CL2  UNL     1      64.260  19.357  32.078  1.00  0.00    -0.062 Cl
HETATM   14  N4  UNL     1      66.731  19.335  30.956  1.00  0.00    -0.179 N 
ATOM     15  H4  UNL     1      66.570  20.314  30.718  1.00  0.00     0.185 HD
HETATM   16  C5  UNL     1      67.990  18.678  30.729  1.00  0.00     0.676 C 
HETATM   17  N5  UNL     1      68.964  19.325  30.197  1.00  0.00    -0.226 N 
ATOM     18  H5  UNL     1      69.852  18.847  30.043  1.00  0.00     0.177 HD
HETATM   19  N8  UNL     1      68.105  17.315  31.110  1.00  0.00    -0.198 N 
ATOM     20  H8  UNL     1      69.041  16.925  31.221  1.00  0.00     0.179 HD
HETATM   21  C17 UNL     1      66.953  16.436  31.352  1.00  0.00     0.209 C 
ENDROOT
BRANCH  17  22
HETATM   22  C6  UNL     1      68.839  20.711  29.812  1.00  0.00     0.138 C 
BRANCH  22  23
HETATM   23  C7  UNL     1      69.812  21.011  28.688  1.00  0.00     0.020 C 
BRANCH  23  24
HETATM   24  C8  UNL     1      71.233  21.039  29.170  1.00  0.00     0.002 C 
BRANCH  24  25
HETATM   25  C9  UNL     1      71.513  22.288  29.993  1.00  0.00     0.002 C 
BRANCH  25  26
HETATM   26  C10 UNL     1      72.730  22.983  29.444  1.00  0.00     0.020 C 
BRANCH  26  27
HETATM   27  C11 UNL     1      73.243  22.247  28.253  1.00  0.00     0.122 C 
BRANCH  27  28
HETATM   28  N6  UNL     1      74.612  22.584  28.006  1.00  0.00    -0.361 N 
HETATM   29  C12 UNL     1      75.010  23.565  27.027  1.00  0.00     0.217 C 
HETATM   30  O1  UNL     1      74.069  24.107  26.398  1.00  0.00    -0.274 OA
ATOM     31  H6  UNL     1      75.337  22.111  28.547  1.00  0.00     0.162 HD
BRANCH  29  32
HETATM   32  C13 UNL     1      76.414  23.897  26.789  1.00  0.00     0.103 C 
BRANCH  32  33
HETATM   33  C14 UNL     1      77.237  24.126  28.004  1.00  0.00     0.011 C 
BRANCH  33  34
HETATM   34  C15 UNL     1      77.594  25.561  28.280  1.00  0.00     0.028 C 
BRANCH  34  35
HETATM   35  C16 UNL     1      78.934  25.798  27.567  1.00  0.00     0.229 C 
BRANCH  35  36
HETATM   36  N7  UNL     1      79.380  27.132  27.857  1.00  0.00    -0.079 N 
ATOM     37  H73 UNL     1      80.120  27.153  28.558  1.00  0.00     0.274 HD
ATOM     38  H72 UNL     1      79.905  27.543  27.085  1.00  0.00     0.274 HD
ATOM     39  H71 UNL     1      78.573  27.696  28.124  1.00  0.00     0.274 HD
ENDBRANCH  35  36
ENDBRANCH  34  35
ENDBRANCH  33  34
ENDBRANCH  32  33
ENDBRANCH  29  32
ENDBRANCH  27  28
ENDBRANCH  26  27
ENDBRANCH  25  26
ENDBRANCH  24  25
ENDBRANCH  23  24
ENDBRANCH  22  23
ENDBRANCH  17  22
BRANCH  21  40
HETATM   40  C18 UNL     1      66.696  15.825  29.975  1.00  0.00     0.231 C 
HETATM   41  O3  UNL     1      65.411  16.210  29.584  1.00  0.00    -0.347 OA
HETATM   42  C19 UNL     1      65.332  16.063  28.220  1.00  0.00     0.211 C 
HETATM   43  C20 UNL     1      66.696  15.857  27.660  1.00  0.00     0.228 C 
HETATM   44  F1  UNL     1      66.875  14.520  27.372  1.00  0.00    -0.244 F 
HETATM   45  C21 UNL     1      67.590  16.212  28.879  1.00  0.00     0.220 C 
BRANCH  40  46
HETATM   46  O2  UNL     1      66.643  14.431  30.062  1.00  0.00    -0.361 OA
ATOM     47  H2  UNL     1      67.018  14.035  29.284  1.00  0.00     0.213 HD
ENDBRANCH  40  46
BRANCH  45  48
HETATM   48  O4  UNL     1      68.757  15.427  28.780  1.00  0.00    -0.387 OA
ATOM     49  H4  UNL     1      68.601  14.490  28.796  1.00  0.00     0.210 HD
ENDBRANCH  45  48
ENDBRANCH  21  40
TORSDOF 15
ENDMDL
MODEL 2
REMARK VINA RESULT: -7.777013456      1.085      1.202
REMARK  15 active torsions:
REMARK  status: ('A' for Active; 'I' for Inactive)
REMARK    1  A    between atoms: N5_17  and  C6_19 
REMARK    2  A    between atoms: C6_19  and  C7_20 
REMARK    3  A    between atoms: C7_20  and  C8_21 
REMARK    4  A    between atoms: C8_21  and  C9_22 
REMARK    5  A    between atoms: C9_22  and  C10_23 
REMARK    6  A    between atoms: C10_23  and  C11_24 
REMARK    7  A    between atoms: C11_24  and  N6_25 
REMARK       I    between atoms: N6_25  and  C12_27 
REMARK    8  A    between atoms: C12_27  and  C13_29 
REMARK    9  A    between atoms: C13_29  and  C14_30 
REMARK   10  A    between atoms: C14_30  and  C15_31 
REMARK   11  A    between atoms: C15_31  and  C16_32 
REMARK   12  A    between atoms: C16_32  and  N7_33 
REMARK   13  A    between atoms: C17_39  and  C18_40 
REMARK   14  A    between atoms: C18_40  and  O2_41 
REMARK   15  A    between atoms: C21_47  and  O4_48 
ROOT
HETATM    1  N1  UNL     1      68.382  14.677  32.436  1.00  0.00    -0.386 N 
ATOM      2  H11 UNL     1      69.139  15.101  31.900  1.00  0.00     0.157 HD
ATOM      3  H12 UNL     1      68.596  13.909  33.072  1.00  0.00     0.157 HD
HETATM    4  C1  UNL     1      67.166  15.136  32.287  1.00  0.00     0.118 C 
HETATM    5  N2  UNL     1      66.114  14.547  33.033  1.00  0.00    -0.320 N 
ATOM      6  H2  UNL     1      66.248  13.625  33.448  1.00  0.00     0.169 HD
HETATM    7  C2  UNL     1      64.878  15.217  33.213  1.00  0.00     0.180 C 
HETATM    8 CL1  UNL     1      63.632  14.414  34.145  1.00  0.00    -0.045 Cl
HETATM    9  N3  UNL     1      64.723  16.374  32.692  1.00  0.00    -0.331 N 
ATOM     10  H3  UNL     1      63.831  16.850  32.822  1.00  0.00     0.168 HD
HETATM   11  C3  UNL     1      65.762  17.041  31.921  1.00  0.00     0.093 C 
HETATM   12  C4  UNL     1      65.657  18.324  31.654  1.00  0.00     0.145 C 
HETATM   13 CL2  UNL     1      64.201  19.158  32.252  1.00  0.00    -0.062 Cl
HETATM   14  N4  UNL     1      66.656  19.160  31.095  1.00  0.00    -0.179 N 
ATOM     15  H4  UNL     1      66.501  20.150  30.900  1.00  0.00     0.185 HD
HETATM   16  C5  UNL     1      67.906  18.503  30.824  1.00  0.00     0.676 C 
HETATM   17  N5  UNL     1      68.879  19.163  30.305  1.00  0.00    -0.226 N 
ATOM     18  H5  UNL     1      69.759  18.683  30.119  1.00  0.00     0.177 HD
HETATM   19  N8  UNL     1      68.013  17.124  31.146  1.00  0.00    -0.198 N 
ATOM     20  H8  UNL     1      68.947  16.721  31.228  1.00  0.00     0.179 HD
HETATM   21  C17 UNL     1      66.857  16.246  31.368  1.00  0.00     0.209 C 
ENDROOT
BRANCH  17  22
HETATM   22  C6  UNL     1      68.760  20.564  29.978  1.00  0.00     0.138 C 
BRANCH  22  23
HETATM   23  C7  UNL     1      69.516  20.847  28.694  1.00  0.00     0.020 C 
BRANCH  23  24
HETATM   24  C8  UNL     1      70.644  19.881  28.482  1.00  0.00     0.002 C 
BRANCH  24  25
HETATM   25  C9  UNL     1      71.988  20.593  28.476  1.00  0.00     0.002 C 
BRANCH  25  26
HETATM   26  C10 UNL     1      71.762  22.082  28.486  1.00  0.00     0.020 C 
BRANCH  26  27
HETATM   27  C11 UNL     1      72.940  22.771  29.089  1.00  0.00     0.122 C 
BRANCH  27  28
HETATM   28  N6  UNL     1      73.535  23.666  28.144  1.00  0.00    -0.361 N 
HETATM   29  C12 UNL     1      74.641  23.289  27.299  1.00  0.00     0.217 C 
HETATM   30  O1  UNL     1      75.052  22.112  27.449  1.00  0.00    -0.274 OA
ATOM     31  H6  UNL     1      73.160  24.612  28.065  1.00  0.00     0.162 HD
BRANCH  29  32
HETATM   32  C13 UNL     1      75.235  24.217  26.340  1.00  0.00     0.103 C 
BRANCH  32  33
HETATM   33  C14 UNL     1      76.060  25.307  26.923  1.00  0.00     0.011 C 
BRANCH  33  34
HETATM   34  C15 UNL     1      76.951  24.901  28.064  1.00  0.00     0.028 C 
BRANCH  34  35
HETATM   35  C16 UNL     1      78.091  24.090  27.430  1.00  0.00     0.229 C 
BRANCH  35  36
HETATM   36  N7  UNL     1      78.117  22.785  28.030  1.00  0.00    -0.079 N 
ATOM     37  H73 UNL     1      79.036  22.544  28.400  1.00  0.00     0.274 HD
ATOM     38  H72 UNL     1      77.598  22.749  28.907  1.00  0.00     0.274 HD
ATOM     39  H71 UNL     1      77.780  22.105  27.348  1.00  0.00     0.274 HD
ENDBRANCH  35  36
ENDBRANCH  34  35
ENDBRANCH  33  34
ENDBRANCH  32  33
ENDBRANCH  29  32
ENDBRANCH  27  28
ENDBRANCH  26  27
ENDBRANCH  25  26
ENDBRANCH  24  25
ENDBRANCH  23  24
ENDBRANCH  22  23
ENDBRANCH  17  22
BRANCH  21  40
HETATM   40  C18 UNL     1      66.575  15.694  29.971  1.00  0.00     0.231 C 
HETATM   41  O3  UNL     1      65.252  16.017  29.657  1.00  0.00    -0.347 OA
HETATM   42  C19 UNL     1      65.120  15.939  28.292  1.00  0.00     0.211 C 
HETATM   43  C20 UNL     1      66.468  15.850  27.664  1.00  0.00     0.228 C 
HETATM   44  F1  UNL     1      66.715  14.545  27.294  1.00  0.00    -0.244 F 
HETATM   45  C21 UNL     1      67.393  16.195  28.863  1.00  0.00     0.220 C 
BRANCH  40  46
HETATM   46  O2  UNL     1      66.611  14.297  29.982  1.00  0.00    -0.361 OA
ATOM     47  H2  UNL     1      66.600  13.957  29.095  1.00  0.00     0.213 HD
ENDBRANCH  40  46
BRANCH  45  48
HETATM   48  O4  UNL     1      68.600  15.493  28.670  1.00  0.00    -0.387 OA
ATOM     49  H4  UNL     1      68.665  15.049  27.831  1.00  0.00     0.210 HD
ENDBRANCH  45  48
ENDBRANCH  21  40
TORSDOF 15
ENDMDL
MODEL 3
REMARK VINA RESULT: -7.613100213      2.492      3.349
REMARK  15 active torsions:
REMARK  status: ('A' for Active; 'I' for Inactive)
REMARK    1  A    between atoms: N5_17  and  C6_19 
REMARK    2  A    between atoms: C6_19  and  C7_20 
REMARK    3  A    between atoms: C7_20  and  C8_21 
REMARK    4  A    between atoms: C8_21  and  C9_22 
REMARK    5  A    between atoms: C9_22  and  C10_23 
REMARK    6  A    between atoms: C10_23  and  C11_24 
REMARK    7  A    between atoms: C11_24  and  N6_25 
REMARK       I    between atoms: N6_25  and  C12_27 
REMARK    8  A    between atoms: C12_27  and  C13_29 
REMARK    9  A    between atoms: C13_29  and  C14_30 
REMARK   10  A    between atoms: C14_30  and  C15_31 
REMARK   11  A    between atoms: C15_31  and  C16_32 
REMARK   12  A    between atoms: C16_32  and  N7_33 
REMARK   13  A    between atoms: C17_39  and  C18_40 
REMARK   14  A    between atoms: C18_40  and  O2_41 
REMARK   15  A    between atoms: C21_47  and  O4_48 
ROOT
HETATM    1  N1  UNL     1      64.897  18.448  31.848  1.00  0.00    -0.386 N 
ATOM      2  H11 UNL     1      65.534  19.040  32.382  1.00  0.00     0.157 HD
ATOM      3  H12 UNL     1      63.899  18.482  32.055  1.00  0.00     0.157 HD
HETATM    4  C1  UNL     1      65.387  17.668  30.919  1.00  0.00     0.118 C 
HETATM    5  N2  UNL     1      64.502  16.845  30.176  1.00  0.00    -0.320 N 
ATOM      6  H2  UNL     1      63.569  16.656  30.541  1.00  0.00     0.169 HD
HETATM    7  C2  UNL     1      64.892  16.281  28.936  1.00  0.00     0.180 C 
HETATM    8 CL1  UNL     1      63.737  15.274  28.089  1.00  0.00    -0.045 Cl
HETATM    9  N3  UNL     1      66.063  16.529  28.488  1.00  0.00    -0.331 N 
ATOM     10  H3  UNL     1      66.339  16.118  27.596  1.00  0.00     0.168 HD
HETATM   11  C3  UNL     1      67.020  17.371  29.192  1.00  0.00     0.093 C 
HETATM   12  C4  UNL     1      68.084  17.817  28.564  1.00  0.00     0.145 C 
HETATM   13 CL2  UNL     1      68.288  17.324  26.865  1.00  0.00    -0.062 Cl
HETATM   14  N4  UNL     1      69.000  18.793  29.033  1.00  0.00    -0.179 N 
ATOM     15  H4  UNL     1      69.818  19.084  28.496  1.00  0.00     0.185 HD
HETATM   16  C5  UNL     1      68.686  19.339  30.325  1.00  0.00     0.676 C 
HETATM   17  N5  UNL     1      69.455  20.222  30.853  1.00  0.00    -0.226 N 
ATOM     18  H5  UNL     1      69.219  20.601  31.770  1.00  0.00     0.177 HD
HETATM   19  N8  UNL     1      67.516  18.868  30.977  1.00  0.00    -0.198 N 
ATOM     20  H8  UNL     1      67.130  19.429  31.737  1.00  0.00     0.179 HD
HETATM   21  C17 UNL     1      66.829  17.619  30.620  1.00  0.00     0.209 C 
ENDROOT
BRANCH  17  22
HETATM   22  C6  UNL     1      70.644  20.694  30.185  1.00  0.00     0.138 C 
BRANCH  22  23
HETATM   23  C7  UNL     1      70.599  22.207  30.085  1.00  0.00     0.020 C 
BRANCH  23  24
HETATM   24  C8  UNL     1      71.962  22.819  30.219  1.00  0.00     0.002 C 
BRANCH  24  25
HETATM   25  C9  UNL     1      72.802  22.077  31.248  1.00  0.00     0.002 C 
BRANCH  25  26
HETATM   26  C10 UNL     1      74.179  21.839  30.688  1.00  0.00     0.020 C 
BRANCH  26  27
HETATM   27  C11 UNL     1      74.112  21.731  29.201  1.00  0.00     0.122 C 
BRANCH  27  28
HETATM   28  N6  UNL     1      75.256  22.350  28.602  1.00  0.00    -0.361 N 
HETATM   29  C12 UNL     1      75.156  23.279  27.504  1.00  0.00     0.217 C 
HETATM   30  O1  UNL     1      73.989  23.511  27.103  1.00  0.00    -0.274 OA
ATOM     31  H6  UNL     1      76.181  22.124  28.968  1.00  0.00     0.162 HD
BRANCH  29  32
HETATM   32  C13 UNL     1      76.335  23.901  26.905  1.00  0.00     0.103 C 
BRANCH  32  33
HETATM   33  C14 UNL     1      77.511  24.049  27.800  1.00  0.00     0.011 C 
BRANCH  33  34
HETATM   34  C15 UNL     1      77.811  25.454  28.245  1.00  0.00     0.028 C 
BRANCH  34  35
HETATM   35  C16 UNL     1      79.093  25.857  27.502  1.00  0.00     0.229 C 
BRANCH  35  36
HETATM   36  N7  UNL     1      79.431  27.205  27.864  1.00  0.00    -0.079 N 
ATOM     37  H73 UNL     1      78.856  27.560  28.628  1.00  0.00     0.274 HD
ATOM     38  H72 UNL     1      80.337  27.269  28.328  1.00  0.00     0.274 HD
ATOM     39  H71 UNL     1      79.377  27.791  27.031  1.00  0.00     0.274 HD
ENDBRANCH  35  36
ENDBRANCH  34  35
ENDBRANCH  33  34
ENDBRANCH  32  33
ENDBRANCH  29  32
ENDBRANCH  27  28
ENDBRANCH  26  27
ENDBRANCH  25  26
ENDBRANCH  24  25
ENDBRANCH  23  24
ENDBRANCH  22  23
ENDBRANCH  17  22
BRANCH  21  40
HETATM   40  C18 UNL     1      67.508  16.588  31.521  1.00  0.00     0.231 C 
HETATM   41  O3  UNL     1      68.155  15.671  30.689  1.00  0.00    -0.347 OA
HETATM   42  C19 UNL     1      69.106  15.029  31.443  1.00  0.00     0.211 C 
HETATM   43  C20 UNL     1      69.292  15.749  32.733  1.00  0.00     0.228 C 
HETATM   44  F1  UNL     1      68.640  15.066  33.737  1.00  0.00    -0.244 F 
HETATM   45  C21 UNL     1      68.520  17.069  32.466  1.00  0.00     0.220 C 
BRANCH  40  46
HETATM   46  O2  UNL     1      66.549  15.836  32.208  1.00  0.00    -0.361 OA
ATOM     47  H2  UNL     1      66.938  15.042  32.557  1.00  0.00     0.213 HD
ENDBRANCH  40  46
BRANCH  45  48
HETATM   48  O4  UNL     1      67.999  17.502  33.703  1.00  0.00    -0.387 OA
ATOM     49  H4  UNL     1      68.420  17.113  34.462  1.00  0.00     0.210 HD
ENDBRANCH  45  48
ENDBRANCH  21  40
TORSDOF 15
ENDMDL
MODEL 4
REMARK VINA RESULT: -7.284298944      2.336      3.341
REMARK  15 active torsions:
REMARK  status: ('A' for Active; 'I' for Inactive)
REMARK    1  A    between atoms: N5_17  and  C6_19 
REMARK    2  A    between atoms: C6_19  and  C7_20 
REMARK    3  A    between atoms: C7_20  and  C8_21 
REMARK    4  A    between atoms: C8_21  and  C9_22 
REMARK    5  A    between atoms: C9_22  and  C10_23 
REMARK    6  A    between atoms: C10_23  and  C11_24 
REMARK    7  A    between atoms: C11_24  and  N6_25 
REMARK       I    between atoms: N6_25  and  C12_27 
REMARK    8  A    between atoms: C12_27  and  C13_29 
REMARK    9  A    between atoms: C13_29  and  C14_30 
REMARK   10  A    between atoms: C14_30  and  C15_31 
REMARK   11  A    between atoms: C15_31  and  C16_32 
REMARK   12  A    between atoms: C16_32  and  N7_33 
REMARK   13  A    between atoms: C17_39  and  C18_40 
REMARK   14  A    between atoms: C18_40  and  O2_41 
REMARK   15  A    between atoms: C21_47  and  O4_48 
ROOT
HETATM    1  N1  UNL     1      65.155  18.397  31.841  1.00  0.00    -0.386 N 
ATOM      2  H11 UNL     1      65.802  19.006  32.342  1.00  0.00     0.157 HD
ATOM      3  H12 UNL     1      64.170  18.399  32.105  1.00  0.00     0.157 HD
HETATM    4  C1  UNL     1      65.615  17.639  30.880  1.00  0.00     0.118 C 
HETATM    5  N2  UNL     1      64.715  16.793  30.182  1.00  0.00    -0.320 N 
ATOM      6  H2  UNL     1      63.811  16.572  30.598  1.00  0.00     0.169 HD
HETATM    7  C2  UNL     1      65.052  16.248  28.918  1.00  0.00     0.180 C 
HETATM    8 CL1  UNL     1      63.882  15.210  28.130  1.00  0.00    -0.045 Cl
HETATM    9  N3  UNL     1      66.186  16.536  28.405  1.00  0.00    -0.331 N 
ATOM     10  H3  UNL     1      66.424  16.139  27.496  1.00  0.00     0.168 HD
HETATM   11  C3  UNL     1      67.155  17.403  29.060  1.00  0.00     0.093 C 
HETATM   12  C4  UNL     1      68.167  17.887  28.376  1.00  0.00     0.145 C 
HETATM   13 CL2  UNL     1      68.290  17.410  26.665  1.00  0.00    -0.062 Cl
HETATM   14  N4  UNL     1      69.078  18.888  28.800  1.00  0.00    -0.179 N 
ATOM     15  H4  UNL     1      69.854  19.208  28.220  1.00  0.00     0.185 HD
HETATM   16  C5  UNL     1      68.821  19.417  30.112  1.00  0.00     0.676 C 
HETATM   17  N5  UNL     1      69.591  20.321  30.602  1.00  0.00    -0.226 N 
ATOM     18  H5  UNL     1      69.396  20.687  31.534  1.00  0.00     0.177 HD
HETATM   19  N8  UNL     1      67.705  18.905  30.826  1.00  0.00    -0.198 N 
ATOM     20  H8  UNL     1      67.346  19.449  31.610  1.00  0.00     0.179 HD
HETATM   21  C17 UNL     1      67.039  17.638  30.499  1.00  0.00     0.209 C 
ENDROOT
BRANCH  17  22
HETATM   22  C6  UNL     1      70.725  20.834  29.871  1.00  0.00     0.138 C 
BRANCH  22  23
HETATM   23  C7  UNL     1      70.724  22.349  29.938  1.00  0.00     0.020 C 
BRANCH  23  24
HETATM   24  C8  UNL     1      71.723  22.868  30.930  1.00  0.00     0.002 C 
BRANCH  24  25
HETATM   25  C9  UNL     1      72.817  23.671  30.243  1.00  0.00     0.002 C 
BRANCH  25  26
HETATM   26  C10 UNL     1      73.788  22.728  29.584  1.00  0.00     0.020 C 
BRANCH  26  27
HETATM   27  C11 UNL     1      73.899  23.046  28.130  1.00  0.00     0.122 C 
BRANCH  27  28
HETATM   28  N6  UNL     1      74.618  24.269  27.939  1.00  0.00    -0.361 N 
HETATM   29  C12 UNL     1      75.257  24.613  26.693  1.00  0.00     0.217 C 
HETATM   30  O1  UNL     1      75.141  23.761  25.779  1.00  0.00    -0.274 OA
ATOM     31  H6  UNL     1      74.681  24.926  28.718  1.00  0.00     0.162 HD
BRANCH  29  32
HETATM   32  C13 UNL     1      75.988  25.867  26.517  1.00  0.00     0.103 C 
BRANCH  32  33
HETATM   33  C14 UNL     1      76.737  26.349  27.705  1.00  0.00     0.011 C 
BRANCH  33  34
HETATM   34  C15 UNL     1      77.865  25.464  28.161  1.00  0.00     0.028 C 
BRANCH  34  35
HETATM   35  C16 UNL     1      79.102  25.939  27.385  1.00  0.00     0.229 C 
BRANCH  35  36
HETATM   36  N7  UNL     1      79.536  27.193  27.934  1.00  0.00    -0.079 N 
ATOM     37  H73 UNL     1      78.820  27.636  28.510  1.00  0.00     0.274 HD
ATOM     38  H72 UNL     1      80.246  27.077  28.657  1.00  0.00     0.274 HD
ATOM     39  H71 UNL     1      79.850  27.793  27.171  1.00  0.00     0.274 HD
ENDBRANCH  35  36
ENDBRANCH  34  35
ENDBRANCH  33  34
ENDBRANCH  32  33
ENDBRANCH  29  32
ENDBRANCH  27  28
ENDBRANCH  26  27
ENDBRANCH  25  26
ENDBRANCH  24  25
ENDBRANCH  23  24
ENDBRANCH  22  23
ENDBRANCH  17  22
BRANCH  21  40
HETATM   40  C18 UNL     1      67.799  16.623  31.353  1.00  0.00     0.231 C 
HETATM   41  O3  UNL     1      68.262  17.298  32.485  1.00  0.00    -0.347 OA
HETATM   42  C19 UNL     1      68.542  16.354  33.443  1.00  0.00     0.211 C 
HETATM   43  C20 UNL     1      67.968  15.042  33.035  1.00  0.00     0.228 C 
HETATM   44  F1  UNL     1      68.973  14.235  32.547  1.00  0.00    -0.244 F 
HETATM   45  C21 UNL     1      67.061  15.456  31.844  1.00  0.00     0.220 C 
BRANCH  40  46
HETATM   46  O2  UNL     1      68.954  16.197  30.690  1.00  0.00    -0.361 OA
ATOM     47  H2  UNL     1      69.471  15.633  31.253  1.00  0.00     0.213 HD
ENDBRANCH  40  46
BRANCH  45  48
HETATM   48  O4  UNL     1      67.032  14.368  30.948  1.00  0.00    -0.387 OA
ATOM     49  H4  UNL     1      66.334  14.411  30.304  1.00  0.00     0.210 HD
ENDBRANCH  45  48
ENDBRANCH  21  40
TORSDOF 15
ENDMDL
MODEL 5
REMARK VINA RESULT: -7.133080030      2.728      3.534
REMARK  15 active torsions:
REMARK  status: ('A' for Active; 'I' for Inactive)
REMARK    1  A    between atoms: N5_17  and  C6_19 
REMARK    2  A    between atoms: C6_19  and  C7_20 
REMARK    3  A    between atoms: C7_20  and  C8_21 
REMARK    4  A    between atoms: C8_21  and  C9_22 
REMARK    5  A    between atoms: C9_22  and  C10_23 
REMARK    6  A    between atoms: C10_23  and  C11_24 
REMARK    7  A    between atoms: C11_24  and  N6_25 
REMARK       I    between atoms: N6_25  and  C12_27 
REMARK    8  A    between atoms: C12_27  and  C13_29 
REMARK    9  A    between atoms: C13_29  and  C14_30 
REMARK   10  A    between atoms: C14_30  and  C15_31 
REMARK   11  A    between atoms: C15_31  and  C16_32 
REMARK   12  A    between atoms: C16_32  and  N7_33 
REMARK   13  A    between atoms: C17_39  and  C18_40 
REMARK   14  A    between atoms: C18_40  and  O2_41 
REMARK   15  A    between atoms: C21_47  and  O4_48 
ROOT
HETATM    1  N1  UNL     1      64.495  17.071  33.616  1.00  0.00    -0.386 N 
ATOM      2  H11 UNL     1      64.952  17.982  33.671  1.00  0.00     0.157 HD
ATOM      3  H12 UNL     1      63.575  16.952  34.041  1.00  0.00     0.157 HD
HETATM    4  C1  UNL     1      65.109  16.091  33.004  1.00  0.00     0.118 C 
HETATM    5  N2  UNL     1      64.475  14.825  32.928  1.00  0.00    -0.320 N 
ATOM      6  H2  UNL     1      63.710  14.609  33.566  1.00  0.00     0.169 HD
HETATM    7  C2  UNL     1      64.886  13.854  31.980  1.00  0.00     0.180 C 
HETATM    8 CL1  UNL     1      64.050  12.316  31.960  1.00  0.00    -0.045 Cl
HETATM    9  N3  UNL     1      65.844  14.139  31.184  1.00  0.00    -0.331 N 
ATOM     10  H3  UNL     1      66.138  13.436  30.506  1.00  0.00     0.168 HD
HETATM   11  C3  UNL     1      66.535  15.420  31.200  1.00  0.00     0.093 C 
HETATM   12  C4  UNL     1      67.306  15.761  30.192  1.00  0.00     0.145 C 
HETATM   13 CL2  UNL     1      67.467  14.586  28.864  1.00  0.00    -0.062 Cl
HETATM   14  N4  UNL     1      67.886  17.034  29.959  1.00  0.00    -0.179 N 
ATOM     15  H4  UNL     1      68.489  17.226  29.158  1.00  0.00     0.185 HD
HETATM   16  C5  UNL     1      67.557  18.032  30.939  1.00  0.00     0.676 C 
HETATM   17  N5  UNL     1      68.038  19.219  30.833  1.00  0.00    -0.226 N 
ATOM     18  H5  UNL     1      67.795  19.917  31.536  1.00  0.00     0.177 HD
HETATM   19  N8  UNL     1      66.698  17.657  32.006  1.00  0.00    -0.198 N 
ATOM     20  H8  UNL     1      66.236  18.396  32.534  1.00  0.00     0.179 HD
HETATM   21  C17 UNL     1      66.438  16.263  32.391  1.00  0.00     0.209 C 
ENDROOT
BRANCH  17  22
HETATM   22  C6  UNL     1      68.912  19.593  29.747  1.00  0.00     0.138 C 
BRANCH  22  23
HETATM   23  C7  UNL     1      69.409  21.009  29.964  1.00  0.00     0.020 C 
BRANCH  23  24
HETATM   24  C8  UNL     1      70.897  21.111  29.805  1.00  0.00     0.002 C 
BRANCH  24  25
HETATM   25  C9  UNL     1      71.489  22.121  30.778  1.00  0.00     0.002 C 
BRANCH  25  26
HETATM   26  C10 UNL     1      72.520  22.954  30.064  1.00  0.00     0.020 C 
BRANCH  26  27
HETATM   27  C11 UNL     1      72.683  22.471  28.662  1.00  0.00     0.122 C 
BRANCH  27  28
HETATM   28  N6  UNL     1      73.470  23.394  27.902  1.00  0.00    -0.361 N 
HETATM   29  C12 UNL     1      74.866  23.177  27.612  1.00  0.00     0.217 C 
HETATM   30  O1  UNL     1      75.350  22.115  28.074  1.00  0.00    -0.274 OA
ATOM     31  H6  UNL     1      73.024  24.242  27.551  1.00  0.00     0.162 HD
BRANCH  29  32
HETATM   32  C13 UNL     1      75.653  24.131  26.834  1.00  0.00     0.103 C 
BRANCH  32  33
HETATM   33  C14 UNL     1      76.482  25.078  27.624  1.00  0.00     0.011 C 
BRANCH  33  34
HETATM   34  C15 UNL     1      77.952  24.762  27.675  1.00  0.00     0.028 C 
BRANCH  34  35
HETATM   35  C16 UNL     1      78.659  26.115  27.846  1.00  0.00     0.229 C 
BRANCH  35  36
HETATM   36  N7  UNL     1      77.685  27.162  27.720  1.00  0.00    -0.079 N 
ATOM     37  H73 UNL     1      76.930  26.918  27.079  1.00  0.00     0.274 HD
ATOM     38  H72 UNL     1      77.124  27.276  28.563  1.00  0.00     0.274 HD
ATOM     39  H71 UNL     1      78.163  28.022  27.450  1.00  0.00     0.274 HD
ENDBRANCH  35  36
ENDBRANCH  34  35
ENDBRANCH  33  34
ENDBRANCH  32  33
ENDBRANCH  29  32
ENDBRANCH  27  28
ENDBRANCH  26  27
ENDBRANCH  25  26
ENDBRANCH  24  25
ENDBRANCH  23  24
ENDBRANCH  22  23
ENDBRANCH  17  22
BRANCH  21  40
HETATM   40  C18 UNL     1      67.524  15.989  33.431  1.00  0.00     0.231 C 
HETATM   41  O3  UNL     1      68.195  14.829  33.034  1.00  0.00    -0.347 OA
HETATM   42  C19 UNL     1      69.412  14.816  33.672  1.00  0.00     0.211 C 
HETATM   43  C20 UNL     1      69.673  16.152  34.276  1.00  0.00     0.228 C 
HETATM   44  F1  UNL     1      69.434  16.095  35.633  1.00  0.00    -0.244 F 
HETATM   45  C21 UNL     1      68.556  17.012  33.626  1.00  0.00     0.220 C 
BRANCH  40  46
HETATM   46  O2  UNL     1      66.949  15.668  34.664  1.00  0.00    -0.361 OA
ATOM     47  H2  UNL     1      67.613  15.638  35.343  1.00  0.00     0.213 HD
ENDBRANCH  40  46
BRANCH  45  48
HETATM   48  O4  UNL     1      68.210  18.014  34.555  1.00  0.00    -0.387 OA
ATOM     49  H4  UNL     1      68.800  18.759  34.565  1.00  0.00     0.210 HD
ENDBRANCH  45  48
ENDBRANCH  21  40
TORSDOF 15
ENDMDL
