MODEL 1
REMARK VINA RESULT: -4.818597606      0.000      0.000
REMARK  2 active torsions:
REMARK  status: ('A' for Active; 'I' for Inactive)
REMARK    1  A    between atoms: C4_4  and  O1_5 
REMARK    2  A    between atoms: C5_9  and  O4_10 
ROOT
HETATM    1  C1  UNL     1       5.887  34.804   0.433  1.00  0.00     0.015 C 
HETATM    2  C2  UNL     1       4.831  33.754   0.603  1.00  0.00     0.044 C 
HETATM    3  C3  UNL     1       3.848  33.917  -0.559  1.00  0.00     0.072 C 
HETATM    4  C4  UNL     1       3.253  32.574  -0.862  1.00  0.00     0.294 C 
HETATM    5  O2  UNL     1       3.294  31.728   0.229  1.00  0.00    -0.206 OA
HETATM    6  O3  UNL     1       4.488  31.385   0.593  1.00  0.00    -0.205 OA
HETATM    7  C5  UNL     1       5.428  32.380   0.509  1.00  0.00     0.297 C 
ENDROOT
BRANCH   4   8
HETATM    8  O1  UNL     1       1.896  32.769  -1.179  1.00  0.00    -0.368 OA
ATOM      9  H1  UNL     1       1.834  32.884  -2.120  1.00  0.00     0.212 HD
ENDBRANCH   4   8
BRANCH   7  10
HETATM   10  O4  UNL     1       6.185  32.218  -0.634  1.00  0.00    -0.368 OA
ATOM     11  H4  UNL     1       6.766  31.468  -0.575  1.00  0.00     0.212 HD
ENDBRANCH   7  10
TORSDOF 2
ENDMDL
MODEL 2
REMARK VINA RESULT: -4.481102839      2.506      3.179
REMARK  2 active torsions:
REMARK  status: ('A' for Active; 'I' for Inactive)
REMARK    1  A    between atoms: C4_4  and  O1_5 
REMARK    2  A    between atoms: C5_9  and  O4_10 
ROOT
HETATM    1  C1  UNL     1       3.545  37.082  -0.063  1.00  0.00     0.015 C 
HETATM    2  C2  UNL     1       4.149  35.875   0.588  1.00  0.00     0.044 C 
HETATM    3  C3  UNL     1       4.033  34.722  -0.411  1.00  0.00     0.072 C 
HETATM    4  C4  UNL     1       5.172  33.776  -0.170  1.00  0.00     0.294 C 
HETATM    5  O2  UNL     1       5.655  33.862   1.120  1.00  0.00    -0.206 OA
HETATM    6  O3  UNL     1       6.219  34.992   1.405  1.00  0.00    -0.205 OA
HETATM    7  C5  UNL     1       5.607  36.096   0.867  1.00  0.00     0.297 C 
ENDROOT
BRANCH   4   8
HETATM    8  O1  UNL     1       4.683  32.468  -0.339  1.00  0.00    -0.368 OA
ATOM      9  H1  UNL     1       5.430  31.882  -0.366  1.00  0.00     0.212 HD
ENDBRANCH   4   8
BRANCH   7  10
HETATM   10  O4  UNL     1       6.294  36.516  -0.254  1.00  0.00    -0.368 OA
ATOM     11  H4  UNL     1       7.157  36.852  -0.041  1.00  0.00     0.212 HD
ENDBRANCH   7  10
TORSDOF 2
ENDMDL
MODEL 3
REMARK VINA RESULT: -4.265957322      3.665      5.117
REMARK  2 active torsions:
REMARK  status: ('A' for Active; 'I' for Inactive)
REMARK    1  A    between atoms: C4_4  and  O1_5 
REMARK    2  A    between atoms: C5_9  and  O4_10 
ROOT
HETATM    1  C1  UNL     1       3.095  28.640   0.041  1.00  0.00     0.015 C 
HETATM    2  C2  UNL     1       3.727  29.315   1.220  1.00  0.00     0.044 C 
HETATM    3  C3  UNL     1       4.174  28.212   2.182  1.00  0.00     0.072 C 
HETATM    4  C4  UNL     1       5.367  28.707   2.943  1.00  0.00     0.294 C 
HETATM    5  O2  UNL     1       5.411  30.086   3.002  1.00  0.00    -0.206 OA
HETATM    6  O3  UNL     1       5.599  30.663   1.859  1.00  0.00    -0.205 OA
HETATM    7  C5  UNL     1       4.948  30.081   0.802  1.00  0.00     0.297 C 
ENDROOT
BRANCH   4   8
HETATM    8  O1  UNL     1       5.253  28.243   4.266  1.00  0.00    -0.368 OA
ATOM      9  H1  UNL     1       6.083  27.845   4.504  1.00  0.00     0.212 HD
ENDBRANCH   4   8
BRANCH   7  10
HETATM   10  O4  UNL     1       5.828  29.302   0.078  1.00  0.00    -0.368 OA
ATOM     11  H4  UNL     1       6.188  29.767  -0.669  1.00  0.00     0.212 HD
ENDBRANCH   7  10
TORSDOF 2
ENDMDL
MODEL 4
REMARK VINA RESULT: -4.224801999      1.562      3.090
REMARK  2 active torsions:
REMARK  status: ('A' for Active; 'I' for Inactive)
REMARK    1  A    between atoms: C4_4  and  O1_5 
REMARK    2  A    between atoms: C5_9  and  O4_10 
ROOT
HETATM    1  C1  UNL     1       2.624  32.773  -0.962  1.00  0.00     0.015 C 
HETATM    2  C2  UNL     1       4.049  33.236  -0.899  1.00  0.00     0.044 C 
HETATM    3  C3  UNL     1       4.086  34.443   0.040  1.00  0.00     0.072 C 
HETATM    4  C4  UNL     1       5.437  34.491   0.690  1.00  0.00     0.294 C 
HETATM    5  O2  UNL     1       6.400  33.851  -0.064  1.00  0.00    -0.206 OA
HETATM    6  O3  UNL     1       6.231  32.572  -0.173  1.00  0.00    -0.205 OA
HETATM    7  C5  UNL     1       4.927  32.170  -0.311  1.00  0.00     0.297 C 
ENDROOT
BRANCH   4   8
HETATM    8  O1  UNL     1       5.818  35.842   0.784  1.00  0.00    -0.368 OA
ATOM      9  H1  UNL     1       6.348  36.045   0.022  1.00  0.00     0.212 HD
ENDBRANCH   4   8
BRANCH   7  10
HETATM   10  O4  UNL     1       4.447  31.707   0.897  1.00  0.00    -0.368 OA
ATOM     11  H4  UNL     1       4.625  30.782   1.023  1.00  0.00     0.212 HD
ENDBRANCH   7  10
TORSDOF 2
ENDMDL
MODEL 5
REMARK VINA RESULT: -4.216287926      2.331      3.450
REMARK  2 active torsions:
REMARK  status: ('A' for Active; 'I' for Inactive)
REMARK    1  A    between atoms: C4_4  and  O1_5 
REMARK    2  A    between atoms: C5_9  and  O4_10 
ROOT
HETATM    1  C1  UNL     1       3.601  28.814   1.358  1.00  0.00     0.015 C 
HETATM    2  C2  UNL     1       4.405  29.674   0.430  1.00  0.00     0.044 C 
HETATM    3  C3  UNL     1       3.698  31.029   0.350  1.00  0.00     0.072 C 
HETATM    4  C4  UNL     1       4.732  32.082   0.079  1.00  0.00     0.294 C 
HETATM    5  O2  UNL     1       5.853  31.564  -0.537  1.00  0.00    -0.206 OA
HETATM    6  O3  UNL     1       6.534  30.742   0.196  1.00  0.00    -0.205 OA
HETATM    7  C5  UNL     1       5.782  29.906   0.980  1.00  0.00     0.297 C 
ENDROOT
BRANCH   4   8
HETATM    8  O1  UNL     1       4.168  33.014  -0.810  1.00  0.00    -0.368 OA
ATOM      9  H1  UNL     1       3.908  33.775  -0.303  1.00  0.00     0.212 HD
ENDBRANCH   4   8
BRANCH   7  10
HETATM   10  O4  UNL     1       5.751  30.378   2.277  1.00  0.00    -0.368 OA
ATOM     11  H4  UNL     1       6.622  30.468   2.647  1.00  0.00     0.212 HD
ENDBRANCH   7  10
TORSDOF 2
ENDMDL
