MODEL 1
REMARK VINA RESULT: -9.812741376      0.000      0.000
REMARK  14 active torsions:
REMARK  status: ('A' for Active; 'I' for Inactive)
REMARK    1  A    between atoms: N1_2  and  C2_4 
REMARK    2  A    between atoms: C3_7  and  N3_8 
REMARK    3  A    between atoms: C4_12  and  C5_13 
REMARK    4  A    between atoms: C5_13  and  N6_14 
REMARK    5  A    between atoms: N6_14  and  C6_16 
REMARK    6  A    between atoms: N7_19  and  C9_20 
REMARK    7  A    between atoms: C12_23  and  C13_24 
REMARK    8  A    between atoms: C13_24  and  O1_25 
REMARK    9  A    between atoms: O1_25  and  S1_26 
REMARK   10  A    between atoms: S1_26  and  N8_29 
REMARK   11  A    between atoms: N8_29  and  C14_31 
REMARK   12  A    between atoms: C14_31  and  C15_32 
REMARK   13  A    between atoms: C15_32  and  O4_33 
REMARK   14  A    between atoms: C22_53  and  N14_54 
ROOT
HETATM    1  N6  UNL     1      -9.636   7.655  26.943  1.00  0.00    -0.380 N 
ATOM      2  H6  UNL     1      -9.854   7.839  27.922  1.00  0.00     0.160 HD
ENDROOT
BRANCH   1   3
HETATM    3  C5  UNL     1     -10.282   8.454  25.950  1.00  0.00     0.199 C 
BRANCH   3   4
HETATM    4  C4  UNL     1     -11.762   8.325  26.097  1.00  0.00     0.129 A 
HETATM    5  N5  UNL     1     -12.570   7.550  25.320  1.00  0.00    -0.268 N 
HETATM    6  N4  UNL     1     -13.807   7.703  25.757  1.00  0.00     0.018 NA
ATOM      7  H5  UNL     1     -12.274   6.960  24.543  1.00  0.00     0.185 HD
HETATM    8  N3  UNL     1     -13.843   8.542  26.785  1.00  0.00    -0.003 N 
HETATM    9  N11 UNL     1     -12.589   8.913  26.980  1.00  0.00    -0.252 N 
ATOM     10  H11 UNL     1     -12.287   9.561  27.707  1.00  0.00     0.190 HD
BRANCH   8  11
HETATM   11  C3  UNL     1     -15.014   8.943  27.510  1.00  0.00     0.720 A 
HETATM   12  N2  UNL     1     -16.138   8.228  27.383  1.00  0.00    -0.172 N 
HETATM   13  C2  UNL     1     -17.268   8.576  28.054  1.00  0.00     0.148 A 
ATOM     14  H2  UNL     1     -16.146   7.409  26.775  1.00  0.00     0.186 HD
HETATM   15  C23 UNL     1     -17.264   9.681  28.878  1.00  0.00     0.138 A 
HETATM   16  C21 UNL     1     -16.112  10.421  29.014  1.00  0.00     0.168 A 
HETATM   17  N16 UNL     1     -18.354  10.072  29.566  1.00  0.00    -0.280 N 
HETATM   18  N12 UNL     1     -15.033  10.015  28.319  1.00  0.00    -0.171 N 
HETATM   19  N13 UNL     1     -16.095  11.504  29.817  1.00  0.00    -0.173 N 
ATOM     20  H12 UNL     1     -14.175  10.557  28.413  1.00  0.00     0.186 HD
HETATM   21  C22 UNL     1     -17.189  11.880  30.495  1.00  0.00     0.692 A 
ATOM     22  H13 UNL     1     -15.235  12.047  29.909  1.00  0.00     0.186 HD
HETATM   23  N15 UNL     1     -18.303  11.147  30.350  1.00  0.00    -0.132 N 
ATOM     24  H15 UNL     1     -19.142  11.423  30.860  1.00  0.00     0.205 HD
ATOM     25  H16 UNL     1     -19.222   9.543  29.486  1.00  0.00     0.188 HD
BRANCH  13  26
HETATM   26  N1  UNL     1     -18.359   7.905  27.948  1.00  0.00    -0.378 N 
HETATM   27  C1  UNL     1     -18.380   6.706  27.136  1.00  0.00     0.147 C 
ATOM     28  H1  UNL     1     -19.202   8.214  28.432  1.00  0.00     0.160 HD
ENDBRANCH  13  26
BRANCH  21  29
HETATM   29  N14 UNL     1     -17.186  12.928  31.276  1.00  0.00    -0.233 N 
ATOM     30 2H14 UNL     1     -16.304  13.352  31.567  1.00  0.00     0.174 HD
ATOM     31 1H14 UNL     1     -18.052  13.346  31.614  1.00  0.00     0.174 HD
ENDBRANCH  21  29
ENDBRANCH   8  11
ENDBRANCH   3   4
ENDBRANCH   1   3
BRANCH   1  32
HETATM   32  C6  UNL     1      -8.707   6.619  26.650  1.00  0.00     0.071 A 
HETATM   33  C7  UNL     1      -7.349   6.707  26.572  1.00  0.00     0.044 A 
HETATM   34  C8  UNL     1      -6.549   7.958  26.784  1.00  0.00     0.071 C 
HETATM   35  N7  UNL     1      -6.778   5.486  26.260  1.00  0.00    -0.282 N 
HETATM   36  C16 UNL     1      -7.821   4.634  26.146  1.00  0.00     0.138 A 
HETATM   37  C17 UNL     1      -9.011   5.311  26.382  1.00  0.00     0.105 A 
HETATM   38  N10 UNL     1      -7.844   3.322  25.853  1.00  0.00    -0.288 N 
HETATM   39  C18 UNL     1     -10.214   4.649  26.320  1.00  0.00     0.265 A 
HETATM   40  O6  UNL     1     -11.259   5.320  26.544  1.00  0.00    -0.267 OA
HETATM   41  N9  UNL     1     -10.231   3.353  26.031  1.00  0.00    -0.274 N 
HETATM   42  C19 UNL     1      -9.076   2.724  25.807  1.00  0.00     0.330 A 
ATOM     43  H9  UNL     1     -11.115   2.845  25.981  1.00  0.00     0.173 HD
HETATM   44  O7  UNL     1      -9.063   1.474  25.527  1.00  0.00    -0.246 OA
HETATM   45  C20 UNL     1      -6.658   2.582  25.593  1.00  0.00     0.163 C 
BRANCH  35  46
HETATM   46  C9  UNL     1      -5.410   5.280  26.121  1.00  0.00     0.126 C 
HETATM   47  C10 UNL     1      -4.652   4.607  27.241  1.00  0.00     0.087 C 
HETATM   48  C11 UNL     1      -3.328   4.384  26.489  1.00  0.00     0.043 C 
HETATM   49  C12 UNL     1      -3.323   5.479  25.487  1.00  0.00     0.155 C 
HETATM   50  O5  UNL     1      -4.579   6.034  25.363  1.00  0.00    -0.331 OA
BRANCH  49  51
HETATM   51  C13 UNL     1      -2.714   5.116  24.158  1.00  0.00     0.224 C 
BRANCH  51  52
HETATM   52  O1  UNL     1      -3.554   4.439  23.311  1.00  0.00    -0.257 OA
BRANCH  52  53
HETATM   53  S1  UNL     1      -3.780   5.419  21.954  1.00  0.00     0.357 S 
HETATM   54  O2  UNL     1      -2.824   4.947  20.877  1.00  0.00    -0.176 OA
HETATM   55  O3  UNL     1      -3.456   6.861  22.266  1.00  0.00    -0.176 OA
BRANCH  53  56
HETATM   56  N8  UNL     1      -5.382   5.362  21.360  1.00  0.00    -0.295 N 
ATOM     57  H8  UNL     1      -5.648   5.525  20.388  1.00  0.00     0.174 HD
BRANCH  56  58
HETATM   58  C14 UNL     1      -6.310   5.049  22.429  1.00  0.00     0.160 C 
BRANCH  58  59
HETATM   59  C15 UNL     1      -7.196   6.235  22.756  1.00  0.00     0.184 C 
BRANCH  59  60
HETATM   60  O4  UNL     1      -6.412   7.276  23.244  1.00  0.00    -0.399 OA
ATOM     61  H4  UNL     1      -6.972   8.003  23.490  1.00  0.00     0.209 HD
ENDBRANCH  59  60
ENDBRANCH  58  59
ENDBRANCH  56  58
ENDBRANCH  53  56
ENDBRANCH  52  53
ENDBRANCH  51  52
ENDBRANCH  49  51
ENDBRANCH  35  46
ENDBRANCH   1  32
TORSDOF 14
ENDMDL
MODEL 2
REMARK VINA RESULT: -9.750071884      2.394      3.372
REMARK  14 active torsions:
REMARK  status: ('A' for Active; 'I' for Inactive)
REMARK    1  A    between atoms: N1_2  and  C2_4 
REMARK    2  A    between atoms: C3_7  and  N3_8 
REMARK    3  A    between atoms: C4_12  and  C5_13 
REMARK    4  A    between atoms: C5_13  and  N6_14 
REMARK    5  A    between atoms: N6_14  and  C6_16 
REMARK    6  A    between atoms: N7_19  and  C9_20 
REMARK    7  A    between atoms: C12_23  and  C13_24 
REMARK    8  A    between atoms: C13_24  and  O1_25 
REMARK    9  A    between atoms: O1_25  and  S1_26 
REMARK   10  A    between atoms: S1_26  and  N8_29 
REMARK   11  A    between atoms: N8_29  and  C14_31 
REMARK   12  A    between atoms: C14_31  and  C15_32 
REMARK   13  A    between atoms: C15_32  and  O4_33 
REMARK   14  A    between atoms: C22_53  and  N14_54 
ROOT
HETATM    1  N6  UNL     1      -9.878   7.982  25.030  1.00  0.00    -0.380 N 
ATOM      2  H6  UNL     1      -9.772   8.620  25.818  1.00  0.00     0.160 HD
ENDROOT
BRANCH   1   3
HETATM    3  C5  UNL     1     -11.081   8.057  24.263  1.00  0.00     0.199 C 
BRANCH   3   4
HETATM    4  C4  UNL     1     -12.247   7.730  25.136  1.00  0.00     0.129 A 
HETATM    5  N5  UNL     1     -12.596   6.482  25.556  1.00  0.00    -0.268 N 
HETATM    6  N4  UNL     1     -13.677   6.603  26.305  1.00  0.00     0.018 NA
ATOM      7  H5  UNL     1     -12.112   5.612  25.332  1.00  0.00     0.185 HD
HETATM    8  N3  UNL     1     -14.048   7.874  26.394  1.00  0.00    -0.003 N 
HETATM    9  N11 UNL     1     -13.167   8.549  25.676  1.00  0.00    -0.252 N 
ATOM     10  H11 UNL     1     -13.183   9.560  25.548  1.00  0.00     0.190 HD
BRANCH   8  11
HETATM   11  C3  UNL     1     -15.176   8.377  27.124  1.00  0.00     0.720 A 
HETATM   12  N2  UNL     1     -16.355   7.753  27.017  1.00  0.00    -0.172 N 
HETATM   13  C2  UNL     1     -17.447   8.200  27.693  1.00  0.00     0.148 A 
ATOM     14  H2  UNL     1     -16.435   6.929  26.421  1.00  0.00     0.186 HD
HETATM   15  C23 UNL     1     -17.346   9.312  28.501  1.00  0.00     0.138 A 
HETATM   16  C21 UNL     1     -16.137   9.959  28.616  1.00  0.00     0.168 A 
HETATM   17  N16 UNL     1     -18.394   9.799  29.194  1.00  0.00    -0.280 N 
HETATM   18  N12 UNL     1     -15.101   9.458  27.918  1.00  0.00    -0.171 N 
HETATM   19  N13 UNL     1     -16.024  11.048  29.404  1.00  0.00    -0.173 N 
ATOM     20  H12 UNL     1     -14.201   9.931  27.997  1.00  0.00     0.186 HD
HETATM   21  C22 UNL     1     -17.079  11.519  30.087  1.00  0.00     0.692 A 
ATOM     22  H13 UNL     1     -15.124  11.520  29.481  1.00  0.00     0.186 HD
HETATM   23  N15 UNL     1     -18.249  10.876  29.962  1.00  0.00    -0.132 N 
ATOM     24  H15 UNL     1     -19.058  11.225  30.475  1.00  0.00     0.205 HD
ATOM     25  H16 UNL     1     -19.303   9.339  29.129  1.00  0.00     0.188 HD
BRANCH  13  26
HETATM   26  N1  UNL     1     -18.589   7.617  27.606  1.00  0.00    -0.378 N 
HETATM   27  C1  UNL     1     -18.651   6.234  27.182  1.00  0.00     0.147 C 
ATOM     28  H1  UNL     1     -19.444   8.125  27.834  1.00  0.00     0.160 HD
ENDBRANCH  13  26
BRANCH  21  29
HETATM   29  N14 UNL     1     -16.983  12.573  30.853  1.00  0.00    -0.233 N 
ATOM     30 2H14 UNL     1     -16.628  12.488  31.806  1.00  0.00     0.174 HD
ATOM     31 1H14 UNL     1     -17.259  13.499  30.526  1.00  0.00     0.174 HD
ENDBRANCH  21  29
ENDBRANCH   8  11
ENDBRANCH   3   4
ENDBRANCH   1   3
BRANCH   1  32
HETATM   32  C6  UNL     1      -8.818   7.071  24.762  1.00  0.00     0.071 A 
HETATM   33  C7  UNL     1      -7.933   7.096  23.727  1.00  0.00     0.044 A 
HETATM   34  C8  UNL     1      -7.908   8.121  22.633  1.00  0.00     0.071 C 
HETATM   35  N7  UNL     1      -7.042   6.038  23.795  1.00  0.00    -0.282 N 
HETATM   36  C16 UNL     1      -7.400   5.355  24.904  1.00  0.00     0.138 A 
HETATM   37  C17 UNL     1      -8.487   5.973  25.510  1.00  0.00     0.105 A 
HETATM   38  N10 UNL     1      -6.877   4.240  25.445  1.00  0.00    -0.288 N 
HETATM   39  C18 UNL     1      -9.032   5.454  26.660  1.00  0.00     0.265 A 
HETATM   40  O6  UNL     1     -10.018   6.062  27.161  1.00  0.00    -0.267 OA
HETATM   41  N9  UNL     1      -8.511   4.353  27.191  1.00  0.00    -0.274 N 
HETATM   42  C19 UNL     1      -7.469   3.777  26.591  1.00  0.00     0.330 A 
ATOM     43  H9  UNL     1      -8.903   3.955  28.044  1.00  0.00     0.173 HD
HETATM   44  O7  UNL     1      -6.946   2.715  27.082  1.00  0.00    -0.246 OA
HETATM   45  C20 UNL     1      -5.773   3.560  24.863  1.00  0.00     0.163 C 
BRANCH  35  46
HETATM   46  C9  UNL     1      -6.026   5.817  22.873  1.00  0.00     0.126 C 
HETATM   47  C10 UNL     1      -6.335   5.045  21.611  1.00  0.00     0.087 C 
HETATM   48  C11 UNL     1      -5.019   5.329  20.868  1.00  0.00     0.043 C 
HETATM   49  C12 UNL     1      -4.049   5.540  21.971  1.00  0.00     0.155 C 
HETATM   50  O5  UNL     1      -4.705   5.750  23.166  1.00  0.00    -0.331 OA
BRANCH  49  51
HETATM   51  C13 UNL     1      -2.996   6.582  21.696  1.00  0.00     0.224 C 
BRANCH  51  52
HETATM   52  O1  UNL     1      -1.722   6.210  22.038  1.00  0.00    -0.257 OA
BRANCH  52  53
HETATM   53  S1  UNL     1      -0.756   6.445  20.672  1.00  0.00     0.357 S 
HETATM   54  O2  UNL     1      -1.670   6.780  19.511  1.00  0.00    -0.176 OA
HETATM   55  O3  UNL     1       0.003   5.187  20.321  1.00  0.00    -0.176 OA
BRANCH  53  56
HETATM   56  N8  UNL     1       0.386   7.700  20.881  1.00  0.00    -0.295 N 
ATOM     57  H8  UNL     1       0.196   8.587  21.349  1.00  0.00     0.174 HD
BRANCH  56  58
HETATM   58  C14 UNL     1       1.662   7.329  20.299  1.00  0.00     0.160 C 
BRANCH  58  59
HETATM   59  C15 UNL     1       2.814   7.719  21.202  1.00  0.00     0.184 C 
BRANCH  59  60
HETATM   60  O4  UNL     1       2.318   8.101  22.446  1.00  0.00    -0.399 OA
ATOM     61  H4  UNL     1       2.451   7.396  23.068  1.00  0.00     0.209 HD
ENDBRANCH  59  60
ENDBRANCH  58  59
ENDBRANCH  56  58
ENDBRANCH  53  56
ENDBRANCH  52  53
ENDBRANCH  51  52
ENDBRANCH  49  51
ENDBRANCH  35  46
ENDBRANCH   1  32
TORSDOF 14
ENDMDL
MODEL 3
REMARK VINA RESULT: -9.720953505      3.507      5.370
REMARK  14 active torsions:
REMARK  status: ('A' for Active; 'I' for Inactive)
REMARK    1  A    between atoms: N1_2  and  C2_4 
REMARK    2  A    between atoms: C3_7  and  N3_8 
REMARK    3  A    between atoms: C4_12  and  C5_13 
REMARK    4  A    between atoms: C5_13  and  N6_14 
REMARK    5  A    between atoms: N6_14  and  C6_16 
REMARK    6  A    between atoms: N7_19  and  C9_20 
REMARK    7  A    between atoms: C12_23  and  C13_24 
REMARK    8  A    between atoms: C13_24  and  O1_25 
REMARK    9  A    between atoms: O1_25  and  S1_26 
REMARK   10  A    between atoms: S1_26  and  N8_29 
REMARK   11  A    between atoms: N8_29  and  C14_31 
REMARK   12  A    between atoms: C14_31  and  C15_32 
REMARK   13  A    between atoms: C15_32  and  O4_33 
REMARK   14  A    between atoms: C22_53  and  N14_54 
ROOT
HETATM    1  N6  UNL     1      -9.319   5.432  25.219  1.00  0.00    -0.380 N 
ATOM      2  H6  UNL     1      -9.226   5.808  24.276  1.00  0.00     0.160 HD
ENDROOT
BRANCH   1   3
HETATM    3  C5  UNL     1     -10.587   4.899  25.608  1.00  0.00     0.199 C 
BRANCH   3   4
HETATM    4  C4  UNL     1     -11.601   5.995  25.623  1.00  0.00     0.129 A 
HETATM    5  N5  UNL     1     -11.548   7.132  24.873  1.00  0.00    -0.268 N 
HETATM    6  N4  UNL     1     -12.617   7.850  25.165  1.00  0.00     0.018 NA
ATOM      7  H5  UNL     1     -10.816   7.384  24.209  1.00  0.00     0.185 HD
HETATM    8  N3  UNL     1     -13.366   7.232  26.070  1.00  0.00    -0.003 N 
HETATM    9  N11 UNL     1     -12.733   6.103  26.339  1.00  0.00    -0.252 N 
ATOM     10  H11 UNL     1     -13.062   5.404  27.004  1.00  0.00     0.190 HD
BRANCH   8  11
HETATM   11  C3  UNL     1     -14.599   7.716  26.621  1.00  0.00     0.720 A 
HETATM   12  N2  UNL     1     -15.749   7.134  26.261  1.00  0.00    -0.172 N 
HETATM   13  C2  UNL     1     -16.938   7.564  26.761  1.00  0.00     0.148 A 
ATOM     14  H2  UNL     1     -15.733   6.356  25.601  1.00  0.00     0.186 HD
HETATM   15  C23 UNL     1     -16.968   8.615  27.653  1.00  0.00     0.138 A 
HETATM   16  C21 UNL     1     -15.789   9.218  28.029  1.00  0.00     0.168 A 
HETATM   17  N16 UNL     1     -18.116   9.082  28.180  1.00  0.00    -0.280 N 
HETATM   18  N12 UNL     1     -14.652   8.738  27.492  1.00  0.00    -0.171 N 
HETATM   19  N13 UNL     1     -15.804  10.247  28.900  1.00  0.00    -0.173 N 
ATOM     20  H12 UNL     1     -13.774   9.178  27.764  1.00  0.00     0.186 HD
HETATM   21  C22 UNL     1     -16.956  10.700  29.416  1.00  0.00     0.692 A 
ATOM     22  H13 UNL     1     -14.925  10.688  29.171  1.00  0.00     0.186 HD
HETATM   23  N15 UNL     1     -18.094  10.100  29.038  1.00  0.00    -0.132 N 
ATOM     24  H15 UNL     1     -18.978  10.435  29.422  1.00  0.00     0.205 HD
ATOM     25  H16 UNL     1     -19.004   8.654  27.921  1.00  0.00     0.188 HD
BRANCH  13  26
HETATM   26  N1  UNL     1     -18.055   7.021  26.430  1.00  0.00    -0.378 N 
HETATM   27  C1  UNL     1     -18.412   5.733  26.988  1.00  0.00     0.147 C 
ATOM     28  H1  UNL     1     -18.683   7.493  25.780  1.00  0.00     0.160 HD
ENDBRANCH  13  26
BRANCH  21  29
HETATM   29  N14 UNL     1     -16.985  11.696  30.261  1.00  0.00    -0.233 N 
ATOM     30 2H14 UNL     1     -17.096  11.521  31.260  1.00  0.00     0.174 HD
ATOM     31 1H14 UNL     1     -16.898  12.663  29.951  1.00  0.00     0.174 HD
ENDBRANCH  21  29
ENDBRANCH   8  11
ENDBRANCH   3   4
ENDBRANCH   1   3
BRANCH   1  32
HETATM   32  C6  UNL     1      -8.177   5.469  26.067  1.00  0.00     0.071 A 
HETATM   33  C7  UNL     1      -7.378   4.431  26.443  1.00  0.00     0.044 A 
HETATM   34  C8  UNL     1      -7.558   3.003  26.022  1.00  0.00     0.071 C 
HETATM   35  N7  UNL     1      -6.361   4.852  27.282  1.00  0.00    -0.282 N 
HETATM   36  C16 UNL     1      -6.552   6.182  27.418  1.00  0.00     0.138 A 
HETATM   37  C17 UNL     1      -7.660   6.578  26.680  1.00  0.00     0.105 A 
HETATM   38  N10 UNL     1      -5.858   7.092  28.125  1.00  0.00    -0.288 N 
HETATM   39  C18 UNL     1      -8.054   7.895  26.665  1.00  0.00     0.265 A 
HETATM   40  O6  UNL     1      -9.069   8.190  25.976  1.00  0.00    -0.267 OA
HETATM   41  N9  UNL     1      -7.365   8.790  27.364  1.00  0.00    -0.274 N 
HETATM   42  C19 UNL     1      -6.304   8.387  28.066  1.00  0.00     0.330 A 
ATOM     43  H9  UNL     1      -7.642   9.772  27.364  1.00  0.00     0.173 HD
HETATM   44  O7  UNL     1      -5.621   9.229  28.748  1.00  0.00    -0.246 OA
HETATM   45  C20 UNL     1      -4.723   6.742  28.905  1.00  0.00     0.163 C 
BRANCH  35  46
HETATM   46  C9  UNL     1      -5.394   4.007  27.816  1.00  0.00     0.126 C 
HETATM   47  C10 UNL     1      -4.073   3.859  27.098  1.00  0.00     0.087 C 
HETATM   48  C11 UNL     1      -3.324   3.091  28.201  1.00  0.00     0.043 C 
HETATM   49  C12 UNL     1      -4.416   2.389  28.921  1.00  0.00     0.155 C 
HETATM   50  O5  UNL     1      -5.643   2.927  28.594  1.00  0.00    -0.331 OA
BRANCH  49  51
HETATM   51  C13 UNL     1      -4.214   2.267  30.410  1.00  0.00     0.224 C 
BRANCH  51  52
HETATM   52  O1  UNL     1      -4.355   0.995  30.902  1.00  0.00    -0.257 OA
BRANCH  52  53
HETATM   53  S1  UNL     1      -5.476   1.076  32.164  1.00  0.00     0.357 S 
HETATM   54  O2  UNL     1      -5.307   2.418  32.847  1.00  0.00    -0.176 OA
HETATM   55  O3  UNL     1      -5.219  -0.005  33.187  1.00  0.00    -0.176 OA
BRANCH  53  56
HETATM   56  N8  UNL     1      -7.089   0.909  31.624  1.00  0.00    -0.295 N 
ATOM     57  H8  UNL     1      -7.905   1.294  32.100  1.00  0.00     0.174 HD
BRANCH  56  58
HETATM   58  C14 UNL     1      -7.136   0.143  30.393  1.00  0.00     0.160 C 
BRANCH  58  59
HETATM   59  C15 UNL     1      -8.224   0.652  29.468  1.00  0.00     0.184 C 
BRANCH  59  60
HETATM   60  O4  UNL     1      -8.177   2.042  29.421  1.00  0.00    -0.399 OA
ATOM     61  H4  UNL     1      -8.452   2.337  28.561  1.00  0.00     0.209 HD
ENDBRANCH  59  60
ENDBRANCH  58  59
ENDBRANCH  56  58
ENDBRANCH  53  56
ENDBRANCH  52  53
ENDBRANCH  51  52
ENDBRANCH  49  51
ENDBRANCH  35  46
ENDBRANCH   1  32
TORSDOF 14
ENDMDL
MODEL 4
REMARK VINA RESULT: -9.703711464      2.359      3.023
REMARK  14 active torsions:
REMARK  status: ('A' for Active; 'I' for Inactive)
REMARK    1  A    between atoms: N1_2  and  C2_4 
REMARK    2  A    between atoms: C3_7  and  N3_8 
REMARK    3  A    between atoms: C4_12  and  C5_13 
REMARK    4  A    between atoms: C5_13  and  N6_14 
REMARK    5  A    between atoms: N6_14  and  C6_16 
REMARK    6  A    between atoms: N7_19  and  C9_20 
REMARK    7  A    between atoms: C12_23  and  C13_24 
REMARK    8  A    between atoms: C13_24  and  O1_25 
REMARK    9  A    between atoms: O1_25  and  S1_26 
REMARK   10  A    between atoms: S1_26  and  N8_29 
REMARK   11  A    between atoms: N8_29  and  C14_31 
REMARK   12  A    between atoms: C14_31  and  C15_32 
REMARK   13  A    between atoms: C15_32  and  O4_33 
REMARK   14  A    between atoms: C22_53  and  N14_54 
ROOT
HETATM    1  N6  UNL     1      -9.850   8.008  25.088  1.00  0.00    -0.380 N 
ATOM      2  H6  UNL     1      -9.765   8.650  25.876  1.00  0.00     0.160 HD
ENDROOT
BRANCH   1   3
HETATM    3  C5  UNL     1     -11.025   8.092  24.278  1.00  0.00     0.199 C 
BRANCH   3   4
HETATM    4  C4  UNL     1     -12.222   7.762  25.106  1.00  0.00     0.129 A 
HETATM    5  N5  UNL     1     -12.643   6.505  25.421  1.00  0.00    -0.268 N 
HETATM    6  N4  UNL     1     -13.730   6.624  26.162  1.00  0.00     0.018 NA
ATOM      7  H5  UNL     1     -12.200   5.631  25.137  1.00  0.00     0.185 HD
HETATM    8  N3  UNL     1     -14.037   7.902  26.344  1.00  0.00    -0.003 N 
HETATM    9  N11 UNL     1     -13.108   8.583  25.694  1.00  0.00    -0.252 N 
ATOM     10  H11 UNL     1     -13.070   9.601  25.646  1.00  0.00     0.190 HD
BRANCH   8  11
HETATM   11  C3  UNL     1     -15.151   8.407  27.094  1.00  0.00     0.720 A 
HETATM   12  N2  UNL     1     -16.331   7.783  27.011  1.00  0.00    -0.172 N 
HETATM   13  C2  UNL     1     -17.410   8.231  27.707  1.00  0.00     0.148 A 
ATOM     14  H2  UNL     1     -16.423   6.958  26.417  1.00  0.00     0.186 HD
HETATM   15  C23 UNL     1     -17.295   9.344  28.512  1.00  0.00     0.138 A 
HETATM   16  C21 UNL     1     -16.083   9.990  28.603  1.00  0.00     0.168 A 
HETATM   17  N16 UNL     1     -18.329   9.831  29.223  1.00  0.00    -0.280 N 
HETATM   18  N12 UNL     1     -15.061   9.489  27.886  1.00  0.00    -0.171 N 
HETATM   19  N13 UNL     1     -15.956  11.080  29.387  1.00  0.00    -0.173 N 
ATOM     20  H12 UNL     1     -14.159   9.961  27.947  1.00  0.00     0.186 HD
HETATM   21  C22 UNL     1     -16.997  11.553  30.089  1.00  0.00     0.692 A 
ATOM     22  H13 UNL     1     -15.054  11.553  29.447  1.00  0.00     0.186 HD
HETATM   23  N15 UNL     1     -18.169  10.909  29.987  1.00  0.00    -0.132 N 
ATOM     24  H15 UNL     1     -18.969  11.259  30.515  1.00  0.00     0.205 HD
ATOM     25  H16 UNL     1     -19.239   9.372  29.176  1.00  0.00     0.188 HD
BRANCH  13  26
HETATM   26  N1  UNL     1     -18.555   7.648  27.642  1.00  0.00    -0.378 N 
HETATM   27  C1  UNL     1     -18.618   6.243  27.298  1.00  0.00     0.147 C 
ATOM     28  H1  UNL     1     -19.409   8.171  27.832  1.00  0.00     0.160 HD
ENDBRANCH  13  26
BRANCH  21  29
HETATM   29  N14 UNL     1     -16.887  12.608  30.852  1.00  0.00    -0.233 N 
ATOM     30 2H14 UNL     1     -16.001  13.111  30.912  1.00  0.00     0.174 HD
ATOM     31 1H14 UNL     1     -17.672  12.953  31.403  1.00  0.00     0.174 HD
ENDBRANCH  21  29
ENDBRANCH   8  11
ENDBRANCH   3   4
ENDBRANCH   1   3
BRANCH   1  32
HETATM   32  C6  UNL     1      -8.793   7.083  24.862  1.00  0.00     0.071 A 
HETATM   33  C7  UNL     1      -7.851   7.111  23.878  1.00  0.00     0.044 A 
HETATM   34  C8  UNL     1      -7.749   8.155  22.806  1.00  0.00     0.071 C 
HETATM   35  N7  UNL     1      -6.983   6.037  23.976  1.00  0.00    -0.282 N 
HETATM   36  C16 UNL     1      -7.413   5.340  25.051  1.00  0.00     0.138 A 
HETATM   37  C17 UNL     1      -8.522   5.967  25.607  1.00  0.00     0.105 A 
HETATM   38  N10 UNL     1      -6.940   4.207  25.599  1.00  0.00    -0.288 N 
HETATM   39  C18 UNL     1      -9.139   5.438  26.715  1.00  0.00     0.265 A 
HETATM   40  O6  UNL     1     -10.141   6.055  27.172  1.00  0.00    -0.267 OA
HETATM   41  N9  UNL     1      -8.667   4.319  27.253  1.00  0.00    -0.274 N 
HETATM   42  C19 UNL     1      -7.602   3.735  26.702  1.00  0.00     0.330 A 
ATOM     43  H9  UNL     1      -9.112   3.913  28.077  1.00  0.00     0.173 HD
HETATM   44  O7  UNL     1      -7.126   2.655  27.201  1.00  0.00    -0.246 OA
HETATM   45  C20 UNL     1      -5.816   3.519  25.067  1.00  0.00     0.163 C 
BRANCH  35  46
HETATM   46  C9  UNL     1      -5.921   5.813  23.107  1.00  0.00     0.126 C 
HETATM   47  C10 UNL     1      -6.171   5.065  21.819  1.00  0.00     0.087 C 
HETATM   48  C11 UNL     1      -4.812   5.340  21.153  1.00  0.00     0.043 C 
HETATM   49  C12 UNL     1      -3.902   5.520  22.311  1.00  0.00     0.155 C 
HETATM   50  O5  UNL     1      -4.620   5.722  23.472  1.00  0.00    -0.331 OA
BRANCH  49  51
HETATM   51  C13 UNL     1      -2.820   6.549  22.111  1.00  0.00     0.224 C 
BRANCH  51  52
HETATM   52  O1  UNL     1      -1.580   6.030  21.841  1.00  0.00    -0.257 OA
BRANCH  52  53
HETATM   53  S1  UNL     1      -1.162   6.537  20.284  1.00  0.00     0.357 S 
HETATM   54  O2  UNL     1      -1.705   5.516  19.304  1.00  0.00    -0.176 OA
HETATM   55  O3  UNL     1       0.338   6.593  20.117  1.00  0.00    -0.176 OA
BRANCH  53  56
HETATM   56  N8  UNL     1      -1.786   8.082  19.904  1.00  0.00    -0.295 N 
ATOM     57  H8  UNL     1      -1.986   8.813  20.588  1.00  0.00     0.174 HD
BRANCH  56  58
HETATM   58  C14 UNL     1      -1.993   8.209  18.474  1.00  0.00     0.160 C 
BRANCH  58  59
HETATM   59  C15 UNL     1      -0.993   9.165  17.855  1.00  0.00     0.184 C 
BRANCH  59  60
HETATM   60  O4  UNL     1       0.238   8.528  17.729  1.00  0.00    -0.399 OA
ATOM     61  H4  UNL     1       0.804   8.792  18.444  1.00  0.00     0.209 HD
ENDBRANCH  59  60
ENDBRANCH  58  59
ENDBRANCH  56  58
ENDBRANCH  53  56
ENDBRANCH  52  53
ENDBRANCH  51  52
ENDBRANCH  49  51
ENDBRANCH  35  46
ENDBRANCH   1  32
TORSDOF 14
ENDMDL
MODEL 5
REMARK VINA RESULT: -9.674896389      1.540      2.113
REMARK  14 active torsions:
REMARK  status: ('A' for Active; 'I' for Inactive)
REMARK    1  A    between atoms: N1_2  and  C2_4 
REMARK    2  A    between atoms: C3_7  and  N3_8 
REMARK    3  A    between atoms: C4_12  and  C5_13 
REMARK    4  A    between atoms: C5_13  and  N6_14 
REMARK    5  A    between atoms: N6_14  and  C6_16 
REMARK    6  A    between atoms: N7_19  and  C9_20 
REMARK    7  A    between atoms: C12_23  and  C13_24 
REMARK    8  A    between atoms: C13_24  and  O1_25 
REMARK    9  A    between atoms: O1_25  and  S1_26 
REMARK   10  A    between atoms: S1_26  and  N8_29 
REMARK   11  A    between atoms: N8_29  and  C14_31 
REMARK   12  A    between atoms: C14_31  and  C15_32 
REMARK   13  A    between atoms: C15_32  and  O4_33 
REMARK   14  A    between atoms: C22_53  and  N14_54 
ROOT
HETATM    1  N6  UNL     1      -9.689   7.625  26.771  1.00  0.00    -0.380 N 
ATOM      2  H6  UNL     1      -9.886   7.873  27.740  1.00  0.00     0.160 HD
ENDROOT
BRANCH   1   3
HETATM    3  C5  UNL     1     -10.377   8.342  25.743  1.00  0.00     0.199 C 
BRANCH   3   4
HETATM    4  C4  UNL     1     -11.850   8.200  25.940  1.00  0.00     0.129 A 
HETATM    5  N5  UNL     1     -12.669   7.378  25.226  1.00  0.00    -0.268 N 
HETATM    6  N4  UNL     1     -13.894   7.535  25.692  1.00  0.00     0.018 NA
ATOM      7  H5  UNL     1     -12.387   6.755  24.469  1.00  0.00     0.185 HD
HETATM    8  N3  UNL     1     -13.912   8.422  26.679  1.00  0.00    -0.003 N 
HETATM    9  N11 UNL     1     -12.658   8.819  26.818  1.00  0.00    -0.252 N 
ATOM     10  H11 UNL     1     -12.345   9.506  27.504  1.00  0.00     0.190 HD
BRANCH   8  11
HETATM   11  C3  UNL     1     -15.067   8.842  27.419  1.00  0.00     0.720 A 
HETATM   12  N2  UNL     1     -16.202   8.142  27.311  1.00  0.00    -0.172 N 
HETATM   13  C2  UNL     1     -17.318   8.508  27.997  1.00  0.00     0.148 A 
ATOM     14  H2  UNL     1     -16.231   7.321  26.706  1.00  0.00     0.186 HD
HETATM   15  C23 UNL     1     -17.287   9.616  28.816  1.00  0.00     0.138 A 
HETATM   16  C21 UNL     1     -16.123  10.341  28.933  1.00  0.00     0.168 A 
HETATM   17  N16 UNL     1     -18.362  10.025  29.518  1.00  0.00    -0.280 N 
HETATM   18  N12 UNL     1     -15.060   9.917  28.225  1.00  0.00    -0.171 N 
HETATM   19  N13 UNL     1     -16.079  11.426  29.731  1.00  0.00    -0.173 N 
ATOM     20  H12 UNL     1     -14.193  10.448  28.304  1.00  0.00     0.186 HD
HETATM   21  C22 UNL     1     -17.159  11.820  30.424  1.00  0.00     0.692 A 
ATOM     22  H13 UNL     1     -15.212  11.957  29.810  1.00  0.00     0.186 HD
HETATM   23  N15 UNL     1     -18.284  11.101  30.297  1.00  0.00    -0.132 N 
ATOM     24  H15 UNL     1     -19.112  11.391  30.818  1.00  0.00     0.205 HD
ATOM     25  H16 UNL     1     -19.238   9.507  29.453  1.00  0.00     0.188 HD
BRANCH  13  26
HETATM   26  N1  UNL     1     -18.420   7.852  27.909  1.00  0.00    -0.378 N 
HETATM   27  C1  UNL     1     -18.429   6.563  27.248  1.00  0.00     0.147 C 
ATOM     28  H1  UNL     1     -19.279   8.236  28.301  1.00  0.00     0.160 HD
ENDBRANCH  13  26
BRANCH  21  29
HETATM   29  N14 UNL     1     -17.130  12.870  31.201  1.00  0.00    -0.233 N 
ATOM     30 2H14 UNL     1     -17.385  13.788  30.837  1.00  0.00     0.174 HD
ATOM     31 1H14 UNL     1     -16.855  12.803  32.180  1.00  0.00     0.174 HD
ENDBRANCH  21  29
ENDBRANCH   8  11
ENDBRANCH   3   4
ENDBRANCH   1   3
BRANCH   1  32
HETATM   32  C6  UNL     1      -8.748   6.588  26.525  1.00  0.00     0.071 A 
HETATM   33  C7  UNL     1      -7.394   6.691  26.426  1.00  0.00     0.044 A 
HETATM   34  C8  UNL     1      -6.610   7.963  26.558  1.00  0.00     0.071 C 
HETATM   35  N7  UNL     1      -6.807   5.462  26.176  1.00  0.00    -0.282 N 
HETATM   36  C16 UNL     1      -7.838   4.591  26.121  1.00  0.00     0.138 A 
HETATM   37  C17 UNL     1      -9.036   5.263  26.333  1.00  0.00     0.105 A 
HETATM   38  N10 UNL     1      -7.845   3.264  25.903  1.00  0.00    -0.288 N 
HETATM   39  C18 UNL     1     -10.230   4.582  26.322  1.00  0.00     0.265 A 
HETATM   40  O6  UNL     1     -11.282   5.249  26.521  1.00  0.00    -0.267 OA
HETATM   41  N9  UNL     1     -10.231   3.271  26.106  1.00  0.00    -0.274 N 
HETATM   42  C19 UNL     1      -9.069   2.647  25.905  1.00  0.00     0.330 A 
ATOM     43  H9  UNL     1     -11.107   2.749  26.095  1.00  0.00     0.173 HD
HETATM   44  O7  UNL     1      -9.041   1.383  25.695  1.00  0.00    -0.246 OA
HETATM   45  C20 UNL     1      -6.652   2.528  25.670  1.00  0.00     0.163 C 
BRANCH  35  46
HETATM   46  C9  UNL     1      -5.438   5.268  26.032  1.00  0.00     0.126 C 
HETATM   47  C10 UNL     1      -4.669   4.611  27.154  1.00  0.00     0.087 C 
HETATM   48  C11 UNL     1      -3.346   4.395  26.398  1.00  0.00     0.043 C 
HETATM   49  C12 UNL     1      -3.356   5.483  25.388  1.00  0.00     0.155 C 
HETATM   50  O5  UNL     1      -4.618   6.025  25.265  1.00  0.00    -0.331 OA
BRANCH  49  51
HETATM   51  C13 UNL     1      -2.749   5.115  24.059  1.00  0.00     0.224 C 
BRANCH  51  52
HETATM   52  O1  UNL     1      -2.053   6.128  23.450  1.00  0.00    -0.257 OA
BRANCH  52  53
HETATM   53  S1  UNL     1      -2.475   6.102  21.814  1.00  0.00     0.357 S 
HETATM   54  O2  UNL     1      -3.336   7.319  21.539  1.00  0.00    -0.176 OA
HETATM   55  O3  UNL     1      -3.286   4.871  21.483  1.00  0.00    -0.176 OA
BRANCH  53  56
HETATM   56  N8  UNL     1      -1.113   6.121  20.782  1.00  0.00    -0.295 N 
ATOM     57  H8  UNL     1      -0.792   5.327  20.228  1.00  0.00     0.174 HD
BRANCH  56  58
HETATM   58  C14 UNL     1      -0.477   7.425  20.804  1.00  0.00     0.160 C 
BRANCH  58  59
HETATM   59  C15 UNL     1      -0.546   8.096  19.447  1.00  0.00     0.184 C 
BRANCH  59  60
HETATM   60  O4  UNL     1       0.729   8.145  18.891  1.00  0.00    -0.399 OA
ATOM     61  H4  UNL     1       0.859   7.387  18.335  1.00  0.00     0.209 HD
ENDBRANCH  59  60
ENDBRANCH  58  59
ENDBRANCH  56  58
ENDBRANCH  53  56
ENDBRANCH  52  53
ENDBRANCH  51  52
ENDBRANCH  49  51
ENDBRANCH  35  46
ENDBRANCH   1  32
TORSDOF 14
ENDMDL
