MODEL 1
REMARK VINA RESULT: -6.723175814      0.000      0.000
REMARK  1 active torsions:
REMARK  status: ('A' for Active; 'I' for Inactive)
REMARK    1  A    between atoms: C5_11  and  C6_12 
ROOT
HETATM    1  N1  UNL     1       7.581  18.650  38.345  1.00  0.00    -0.190 NA
HETATM    2  C1  UNL     1       7.247  19.595  37.756  1.00  0.00     0.121 C 
HETATM    3  C2  UNL     1       6.808  20.763  37.028  1.00  0.00     0.157 A 
HETATM    4  N2  UNL     1       7.085  22.050  37.311  1.00  0.00    -0.326 N 
ATOM      5  H2  UNL     1       7.653  22.371  38.095  1.00  0.00     0.168 HD
HETATM    6  C3  UNL     1       6.495  22.847  36.400  1.00  0.00     0.183 A 
HETATM    7  C4  UNL     1       6.483  24.221  36.262  1.00  0.00     0.290 A 
HETATM    8  O1  UNL     1       7.120  24.925  37.109  1.00  0.00    -0.264 OA
HETATM    9  N3  UNL     1       5.809  24.837  35.247  1.00  0.00    -0.315 N 
ATOM     10  H3  UNL     1       5.813  25.854  35.162  1.00  0.00     0.169 HD
HETATM   11  C5  UNL     1       5.141  24.076  34.359  1.00  0.00     0.117 A 
HETATM   12  C7  UNL     1       5.158  22.706  34.504  1.00  0.00     0.135 A 
HETATM   13  N5  UNL     1       5.825  22.091  35.509  1.00  0.00    -0.287 N 
HETATM   14  C8  UNL     1       6.015  20.813  35.891  1.00  0.00     0.162 A 
HETATM   15  N6  UNL     1       5.473  19.690  35.216  1.00  0.00    -0.079 NA
ENDROOT
BRANCH  11  16
HETATM   16  C6  UNL     1       4.418  24.732  33.272  1.00  0.00     0.282 C 
HETATM   17  N4  UNL     1       4.880  24.648  31.934  1.00  0.00    -0.056 NA
HETATM   18  O2  UNL     1       3.369  25.388  33.487  1.00  0.00    -0.269 OA
ENDBRANCH  11  16
TORSDOF 1
ENDMDL
MODEL 2
REMARK VINA RESULT: -6.282499802      3.134      5.023
REMARK  1 active torsions:
REMARK  status: ('A' for Active; 'I' for Inactive)
REMARK    1  A    between atoms: C5_11  and  C6_12 
ROOT
HETATM    1  N1  UNL     1       6.802  25.792  37.017  1.00  0.00    -0.190 NA
HETATM    2  C1  UNL     1       6.764  24.673  36.706  1.00  0.00     0.121 C 
HETATM    3  C2  UNL     1       6.713  23.289  36.296  1.00  0.00     0.157 A 
HETATM    4  N2  UNL     1       7.646  22.341  36.512  1.00  0.00    -0.326 N 
ATOM      5  H2  UNL     1       8.527  22.484  37.006  1.00  0.00     0.168 HD
HETATM    6  C3  UNL     1       7.234  21.176  35.976  1.00  0.00     0.183 A 
HETATM    7  C4  UNL     1       7.829  19.931  35.937  1.00  0.00     0.290 A 
HETATM    8  O1  UNL     1       8.968  19.780  36.483  1.00  0.00    -0.264 OA
HETATM    9  N3  UNL     1       7.229  18.864  35.331  1.00  0.00    -0.315 N 
ATOM     10  H3  UNL     1       7.685  17.952  35.313  1.00  0.00     0.169 HD
HETATM   11  C5  UNL     1       6.023  19.041  34.758  1.00  0.00     0.117 A 
HETATM   12  C7  UNL     1       5.437  20.288  34.802  1.00  0.00     0.135 A 
HETATM   13  N5  UNL     1       6.028  21.347  35.402  1.00  0.00    -0.287 N 
HETATM   14  C8  UNL     1       5.706  22.641  35.596  1.00  0.00     0.162 A 
HETATM   15  N6  UNL     1       4.504  23.240  35.142  1.00  0.00    -0.079 NA
ENDROOT
BRANCH  11  16
HETATM   16  C6  UNL     1       5.378  17.903  34.108  1.00  0.00     0.282 C 
HETATM   17  N4  UNL     1       4.506  18.090  33.005  1.00  0.00    -0.056 NA
HETATM   18  O2  UNL     1       5.574  16.727  34.503  1.00  0.00    -0.269 OA
ENDBRANCH  11  16
TORSDOF 1
ENDMDL
MODEL 3
REMARK VINA RESULT: -6.089191562      1.405      1.609
REMARK  1 active torsions:
REMARK  status: ('A' for Active; 'I' for Inactive)
REMARK    1  A    between atoms: C5_11  and  C6_12 
ROOT
HETATM    1  N1  UNL     1       7.120  17.231  39.113  1.00  0.00    -0.190 NA
HETATM    2  C1  UNL     1       6.933  18.196  38.493  1.00  0.00     0.121 C 
HETATM    3  C2  UNL     1       6.680  19.398  37.734  1.00  0.00     0.157 A 
HETATM    4  N2  UNL     1       7.445  20.506  37.686  1.00  0.00    -0.326 N 
ATOM      5  H2  UNL     1       8.321  20.640  38.191  1.00  0.00     0.168 HD
HETATM    6  C3  UNL     1       6.873  21.411  36.867  1.00  0.00     0.183 A 
HETATM    7  C4  UNL     1       7.266  22.681  36.496  1.00  0.00     0.290 A 
HETATM    8  O1  UNL     1       8.350  23.148  36.971  1.00  0.00    -0.264 OA
HETATM    9  N3  UNL     1       6.527  23.443  35.638  1.00  0.00    -0.315 N 
ATOM     10  H3  UNL     1       6.835  24.379  35.375  1.00  0.00     0.169 HD
HETATM   11  C5  UNL     1       5.382  22.933  35.144  1.00  0.00     0.117 A 
HETATM   12  C7  UNL     1       4.997  21.664  35.520  1.00  0.00     0.135 A 
HETATM   13  N5  UNL     1       5.728  20.905  36.370  1.00  0.00    -0.287 N 
HETATM   14  C8  UNL     1       5.607  19.673  36.900  1.00  0.00     0.162 A 
HETATM   15  N6  UNL     1       4.528  18.792  36.632  1.00  0.00    -0.079 NA
ENDROOT
BRANCH  11  16
HETATM   16  C6  UNL     1       4.587  23.744  34.226  1.00  0.00     0.282 C 
HETATM   17  N4  UNL     1       4.966  23.893  32.868  1.00  0.00    -0.056 NA
HETATM   18  O2  UNL     1       3.545  24.334  34.609  1.00  0.00    -0.269 OA
ENDBRANCH  11  16
TORSDOF 1
ENDMDL
MODEL 4
REMARK VINA RESULT: -5.862754382      2.314      5.573
REMARK  1 active torsions:
REMARK  status: ('A' for Active; 'I' for Inactive)
REMARK    1  A    between atoms: C5_11  and  C6_12 
ROOT
HETATM    1  N1  UNL     1       4.331  25.075  33.444  1.00  0.00    -0.190 NA
HETATM    2  C1  UNL     1       4.716  24.329  34.247  1.00  0.00     0.121 C 
HETATM    3  C2  UNL     1       5.216  23.399  35.233  1.00  0.00     0.157 A 
HETATM    4  N2  UNL     1       5.448  23.641  36.537  1.00  0.00    -0.326 N 
ATOM      5  H2  UNL     1       5.295  24.534  37.006  1.00  0.00     0.168 HD
HETATM    6  C3  UNL     1       5.911  22.522  37.126  1.00  0.00     0.183 A 
HETATM    7  C4  UNL     1       6.287  22.267  38.430  1.00  0.00     0.290 A 
HETATM    8  O1  UNL     1       6.209  23.208  39.283  1.00  0.00    -0.264 OA
HETATM    9  N3  UNL     1       6.737  21.039  38.824  1.00  0.00    -0.315 N 
ATOM     10  H3  UNL     1       7.009  20.871  39.793  1.00  0.00     0.169 HD
HETATM   11  C5  UNL     1       6.813  20.055  37.908  1.00  0.00     0.117 A 
HETATM   12  C7  UNL     1       6.436  20.318  36.609  1.00  0.00     0.135 A 
HETATM   13  N5  UNL     1       5.989  21.534  36.215  1.00  0.00    -0.287 N 
HETATM   14  C8  UNL     1       5.564  22.068  35.053  1.00  0.00     0.162 A 
HETATM   15  N6  UNL     1       5.489  21.357  33.829  1.00  0.00    -0.079 NA
ENDROOT
BRANCH  11  16
HETATM   16  C6  UNL     1       7.295  18.741  38.324  1.00  0.00     0.282 C 
HETATM   17  N4  UNL     1       8.008  18.575  39.539  1.00  0.00    -0.056 NA
HETATM   18  O2  UNL     1       7.093  17.718  37.622  1.00  0.00    -0.269 OA
ENDBRANCH  11  16
TORSDOF 1
ENDMDL
MODEL 5
REMARK VINA RESULT: -5.813332245      2.044      2.825
REMARK  1 active torsions:
REMARK  status: ('A' for Active; 'I' for Inactive)
REMARK    1  A    between atoms: C5_11  and  C6_12 
ROOT
HETATM    1  N1  UNL     1       8.342  17.046  40.442  1.00  0.00    -0.190 NA
HETATM    2  C1  UNL     1       7.904  17.941  39.843  1.00  0.00     0.121 C 
HETATM    3  C2  UNL     1       7.340  19.039  39.094  1.00  0.00     0.157 A 
HETATM    4  N2  UNL     1       7.022  20.263  39.557  1.00  0.00    -0.326 N 
ATOM      5  H2  UNL     1       7.142  20.577  40.520  1.00  0.00     0.168 HD
HETATM    6  C3  UNL     1       6.520  21.007  38.553  1.00  0.00     0.183 A 
HETATM    7  C4  UNL     1       6.059  22.308  38.525  1.00  0.00     0.290 A 
HETATM    8  O1  UNL     1       6.080  22.987  39.601  1.00  0.00    -0.264 OA
HETATM    9  N3  UNL     1       5.584  22.880  37.380  1.00  0.00    -0.315 N 
ATOM     10  H3  UNL     1       5.248  23.844  37.380  1.00  0.00     0.169 HD
HETATM   11  C5  UNL     1       5.569  22.148  36.250  1.00  0.00     0.117 A 
HETATM   12  C7  UNL     1       6.032  20.850  36.287  1.00  0.00     0.135 A 
HETATM   13  N5  UNL     1       6.504  20.280  37.420  1.00  0.00    -0.287 N 
HETATM   14  C8  UNL     1       7.005  19.073  37.748  1.00  0.00     0.162 A 
HETATM   15  N6  UNL     1       7.161  17.999  36.835  1.00  0.00    -0.079 NA
ENDROOT
BRANCH  11  16
HETATM   16  C6  UNL     1       5.061  22.755  35.023  1.00  0.00     0.282 C 
HETATM   17  N4  UNL     1       5.697  22.524  33.777  1.00  0.00    -0.056 NA
HETATM   18  O2  UNL     1       4.048  23.499  35.032  1.00  0.00    -0.269 OA
ENDBRANCH  11  16
TORSDOF 1
ENDMDL
