MODEL 1
REMARK VINA RESULT: -9.222538675      0.000      0.000
REMARK  5 active torsions:
REMARK  status: ('A' for Active; 'I' for Inactive)
REMARK    1  A    between atoms: C2_2  and  C3_3 
REMARK    2  A    between atoms: C2_2  and  C6_8 
REMARK    3  A    between atoms: C3_3  and  C4_4 
REMARK    4  A    between atoms: C4_4  and  C5_5 
REMARK    5  A    between atoms: C5_5  and  O1_6 
ROOT
HETATM    1  C6  UNL     1      24.375  32.396   5.462  1.00  0.00    -0.002 C 
HETATM    2  C7  UNL     1      25.515  32.576   4.557  1.00  0.00     0.006 C 
HETATM    3  C8  UNL     1      26.139  31.171   4.563  1.00  0.00     0.006 C 
HETATM    4  C9  UNL     1      25.384  30.370   5.609  1.00  0.00    -0.002 C 
HETATM    5  C10 UNL     1      26.173  29.316   6.241  1.00  0.00    -0.005 C 
HETATM    6  C11 UNL     1      25.496  27.976   6.416  1.00  0.00     0.006 C 
HETATM    7  C12 UNL     1      26.612  26.960   6.545  1.00  0.00     0.006 C 
HETATM    8  C13 UNL     1      27.793  27.372   7.308  1.00  0.00    -0.006 C 
HETATM    9  C14 UNL     1      29.031  27.146   6.422  1.00  0.00     0.005 C 
HETATM   10  C15 UNL     1      30.027  28.061   7.107  1.00  0.00     0.001 C 
HETATM   11  C16 UNL     1      29.166  29.326   7.240  1.00  0.00     0.010 C 
HETATM   12  C17 UNL     1      27.886  28.733   7.837  1.00  0.00    -0.036 C 
HETATM   13  C18 UNL     1      28.132  28.703   9.350  1.00  0.00     0.016 C 
HETATM   14  C19 UNL     1      26.725  29.641   7.607  1.00  0.00    -0.002 C 
HETATM   15  C20 UNL     1      27.081  31.080   7.745  1.00  0.00     0.006 C 
HETATM   16  C21 UNL     1      25.934  32.015   7.435  1.00  0.00     0.010 C 
HETATM   17  C22 UNL     1      24.888  31.487   6.543  1.00  0.00    -0.036 C 
HETATM   18  C23 UNL     1      23.665  31.012   7.313  1.00  0.00     0.016 C 
ENDROOT
BRANCH   1  19
HETATM   19  C2  UNL     1      23.496  33.513   5.811  1.00  0.00    -0.014 C 
HETATM   20  C1  UNL     1      22.432  33.625   4.728  1.00  0.00     0.010 C 
BRANCH  19  21
HETATM   21  C3  UNL     1      24.048  34.785   6.291  1.00  0.00     0.007 C 
BRANCH  21  22
HETATM   22  C4  UNL     1      23.940  35.174   7.717  1.00  0.00     0.026 C 
BRANCH  22  23
HETATM   23  C5  UNL     1      22.836  34.541   8.519  1.00  0.00     0.164 C 
BRANCH  23  24
HETATM   24  O1  UNL     1      23.360  33.554   9.389  1.00  0.00    -0.401 OA
ATOM     25  H1  UNL     1      22.816  32.775   9.374  1.00  0.00     0.209 HD
ENDBRANCH  23  24
ENDBRANCH  22  23
ENDBRANCH  21  22
ENDBRANCH  19  21
ENDBRANCH   1  19
TORSDOF 5
ENDMDL
MODEL 2
REMARK VINA RESULT: -9.202946959      2.592      6.931
REMARK  5 active torsions:
REMARK  status: ('A' for Active; 'I' for Inactive)
REMARK    1  A    between atoms: C2_2  and  C3_3 
REMARK    2  A    between atoms: C2_2  and  C6_8 
REMARK    3  A    between atoms: C3_3  and  C4_4 
REMARK    4  A    between atoms: C4_4  and  C5_5 
REMARK    5  A    between atoms: C5_5  and  O1_6 
ROOT
HETATM    1  C6  UNL     1      27.216  28.880   7.605  1.00  0.00    -0.002 C 
HETATM    2  C7  UNL     1      27.839  30.081   8.170  1.00  0.00     0.006 C 
HETATM    3  C8  UNL     1      26.623  31.004   8.352  1.00  0.00     0.006 C 
HETATM    4  C9  UNL     1      25.444  30.292   7.710  1.00  0.00    -0.002 C 
HETATM    5  C10 UNL     1      24.419  31.188   7.181  1.00  0.00    -0.005 C 
HETATM    6  C11 UNL     1      22.982  30.820   7.474  1.00  0.00     0.006 C 
HETATM    7  C12 UNL     1      22.190  32.103   7.341  1.00  0.00     0.006 C 
HETATM    8  C13 UNL     1      22.585  33.013   6.262  1.00  0.00    -0.006 C 
HETATM    9  C14 UNL     1      22.837  34.400   6.881  1.00  0.00     0.005 C 
HETATM   10  C15 UNL     1      23.696  35.029   5.802  1.00  0.00     0.001 C 
HETATM   11  C16 UNL     1      24.700  33.888   5.574  1.00  0.00     0.010 C 
HETATM   12  C17 UNL     1      23.745  32.699   5.426  1.00  0.00    -0.036 C 
HETATM   13  C18 UNL     1      23.349  32.691   3.945  1.00  0.00     0.016 C 
HETATM   14  C19 UNL     1      24.455  31.415   5.690  1.00  0.00    -0.002 C 
HETATM   15  C20 UNL     1      25.842  31.400   5.149  1.00  0.00     0.006 C 
HETATM   16  C21 UNL     1      26.601  30.135   5.479  1.00  0.00     0.010 C 
HETATM   17  C22 UNL     1      26.156  29.403   6.677  1.00  0.00    -0.036 C 
HETATM   18  C23 UNL     1      25.275  28.213   6.325  1.00  0.00     0.016 C 
ENDROOT
BRANCH   1  19
HETATM   19  C2  UNL     1      28.017  27.721   7.209  1.00  0.00    -0.014 C 
HETATM   20  C1  UNL     1      27.930  26.691   8.326  1.00  0.00     0.010 C 
BRANCH  19  21
HETATM   21  C3  UNL     1      29.345  27.892   6.608  1.00  0.00     0.007 C 
BRANCH  21  22
HETATM   22  C4  UNL     1      30.569  27.473   7.329  1.00  0.00     0.026 C 
BRANCH  22  23
HETATM   23  C5  UNL     1      31.760  28.389   7.251  1.00  0.00     0.164 C 
BRANCH  23  24
HETATM   24  O1  UNL     1      32.870  27.712   6.691  1.00  0.00    -0.401 OA
ATOM     25  H1  UNL     1      33.598  27.702   7.302  1.00  0.00     0.209 HD
ENDBRANCH  23  24
ENDBRANCH  22  23
ENDBRANCH  21  22
ENDBRANCH  19  21
ENDBRANCH   1  19
TORSDOF 5
ENDMDL
MODEL 3
REMARK VINA RESULT: -9.068523996      1.386      2.855
REMARK  5 active torsions:
REMARK  status: ('A' for Active; 'I' for Inactive)
REMARK    1  A    between atoms: C2_2  and  C3_3 
REMARK    2  A    between atoms: C2_2  and  C6_8 
REMARK    3  A    between atoms: C3_3  and  C4_4 
REMARK    4  A    between atoms: C4_4  and  C5_5 
REMARK    5  A    between atoms: C5_5  and  O1_6 
ROOT
HETATM    1  C6  UNL     1      25.852  31.829   6.527  1.00  0.00    -0.002 C 
HETATM    2  C7  UNL     1      26.152  32.367   7.858  1.00  0.00     0.006 C 
HETATM    3  C8  UNL     1      27.436  31.602   8.218  1.00  0.00     0.006 C 
HETATM    4  C9  UNL     1      27.647  30.575   7.118  1.00  0.00    -0.002 C 
HETATM    5  C10 UNL     1      28.346  29.368   7.551  1.00  0.00    -0.005 C 
HETATM    6  C11 UNL     1      29.432  28.850   6.635  1.00  0.00     0.006 C 
HETATM    7  C12 UNL     1      30.337  28.003   7.503  1.00  0.00     0.006 C 
HETATM    8  C13 UNL     1      29.689  27.182   8.529  1.00  0.00    -0.006 C 
HETATM    9  C14 UNL     1      30.349  27.506   9.881  1.00  0.00     0.005 C 
HETATM   10  C15 UNL     1      29.276  27.015  10.833  1.00  0.00     0.001 C 
HETATM   11  C16 UNL     1      28.043  27.668  10.191  1.00  0.00     0.010 C 
HETATM   12  C17 UNL     1      28.241  27.265   8.727  1.00  0.00    -0.036 C 
HETATM   13  C18 UNL     1      27.606  25.875   8.610  1.00  0.00     0.016 C 
HETATM   14  C19 UNL     1      27.474  28.168   7.821  1.00  0.00    -0.002 C 
HETATM   15  C20 UNL     1      26.145  28.547   8.374  1.00  0.00     0.006 C 
HETATM   16  C21 UNL     1      25.390  29.526   7.504  1.00  0.00     0.010 C 
HETATM   17  C22 UNL     1      26.207  30.371   6.617  1.00  0.00    -0.036 C 
HETATM   18  C23 UNL     1      26.226  29.851   5.187  1.00  0.00     0.016 C 
ENDROOT
BRANCH   1  19
HETATM   19  C2  UNL     1      24.653  32.239   5.794  1.00  0.00    -0.014 C 
HETATM   20  C1  UNL     1      25.037  33.396   4.883  1.00  0.00     0.010 C 
BRANCH  19  21
HETATM   21  C3  UNL     1      23.360  32.372   6.476  1.00  0.00     0.007 C 
BRANCH  21  22
HETATM   22  C4  UNL     1      22.701  33.692   6.612  1.00  0.00     0.026 C 
BRANCH  22  23
HETATM   23  C5  UNL     1      22.940  34.449   7.890  1.00  0.00     0.164 C 
BRANCH  23  24
HETATM   24  O1  UNL     1      24.049  35.319   7.751  1.00  0.00    -0.401 OA
ATOM     25  H1  UNL     1      23.769  36.226   7.798  1.00  0.00     0.209 HD
ENDBRANCH  23  24
ENDBRANCH  22  23
ENDBRANCH  21  22
ENDBRANCH  19  21
ENDBRANCH   1  19
TORSDOF 5
ENDMDL
MODEL 4
REMARK VINA RESULT: -9.017419549      1.981      3.361
REMARK  5 active torsions:
REMARK  status: ('A' for Active; 'I' for Inactive)
REMARK    1  A    between atoms: C2_2  and  C3_3 
REMARK    2  A    between atoms: C2_2  and  C6_8 
REMARK    3  A    between atoms: C3_3  and  C4_4 
REMARK    4  A    between atoms: C4_4  and  C5_5 
REMARK    5  A    between atoms: C5_5  and  O1_6 
ROOT
HETATM    1  C6  UNL     1      25.869  31.680   6.469  1.00  0.00    -0.002 C 
HETATM    2  C7  UNL     1      26.115  32.234   7.805  1.00  0.00     0.006 C 
HETATM    3  C8  UNL     1      27.401  31.498   8.212  1.00  0.00     0.006 C 
HETATM    4  C9  UNL     1      27.669  30.468   7.129  1.00  0.00    -0.002 C 
HETATM    5  C10 UNL     1      28.378  29.279   7.594  1.00  0.00    -0.005 C 
HETATM    6  C11 UNL     1      29.503  28.776   6.719  1.00  0.00     0.006 C 
HETATM    7  C12 UNL     1      30.397  27.953   7.623  1.00  0.00     0.006 C 
HETATM    8  C13 UNL     1      29.731  27.127   8.634  1.00  0.00    -0.006 C 
HETATM    9  C14 UNL     1      30.339  27.475  10.004  1.00  0.00     0.005 C 
HETATM   10  C15 UNL     1      29.246  26.969  10.924  1.00  0.00     0.001 C 
HETATM   11  C16 UNL     1      28.021  27.593  10.237  1.00  0.00     0.010 C 
HETATM   12  C17 UNL     1      28.276  27.182   8.783  1.00  0.00    -0.036 C 
HETATM   13  C18 UNL     1      27.673  25.779   8.656  1.00  0.00     0.016 C 
HETATM   14  C19 UNL     1      27.521  28.063   7.845  1.00  0.00    -0.002 C 
HETATM   15  C20 UNL     1      26.167  28.419   8.351  1.00  0.00     0.006 C 
HETATM   16  C21 UNL     1      25.422  29.375   7.449  1.00  0.00     0.010 C 
HETATM   17  C22 UNL     1      26.251  30.231   6.583  1.00  0.00    -0.036 C 
HETATM   18  C23 UNL     1      26.327  29.701   5.158  1.00  0.00     0.016 C 
ENDROOT
BRANCH   1  19
HETATM   19  C2  UNL     1      24.688  32.060   5.694  1.00  0.00    -0.014 C 
HETATM   20  C1  UNL     1      25.055  33.271   4.848  1.00  0.00     0.010 C 
BRANCH  19  21
HETATM   21  C3  UNL     1      23.359  32.101   6.314  1.00  0.00     0.007 C 
BRANCH  21  22
HETATM   22  C4  UNL     1      22.326  31.095   5.972  1.00  0.00     0.026 C 
BRANCH  22  23
HETATM   23  C5  UNL     1      21.164  31.560   5.138  1.00  0.00     0.164 C 
BRANCH  23  24
HETATM   24  O1  UNL     1      19.950  31.033   5.641  1.00  0.00    -0.401 OA
ATOM     25  H1  UNL     1      19.424  30.676   4.935  1.00  0.00     0.209 HD
ENDBRANCH  23  24
ENDBRANCH  22  23
ENDBRANCH  21  22
ENDBRANCH  19  21
ENDBRANCH   1  19
TORSDOF 5
ENDMDL
MODEL 5
REMARK VINA RESULT: -8.927929774      2.262      6.811
REMARK  5 active torsions:
REMARK  status: ('A' for Active; 'I' for Inactive)
REMARK    1  A    between atoms: C2_2  and  C3_3 
REMARK    2  A    between atoms: C2_2  and  C6_8 
REMARK    3  A    between atoms: C3_3  and  C4_4 
REMARK    4  A    between atoms: C4_4  and  C5_5 
REMARK    5  A    between atoms: C5_5  and  O1_6 
ROOT
HETATM    1  C6  UNL     1      26.761  29.246   7.462  1.00  0.00    -0.002 C 
HETATM    2  C7  UNL     1      25.410  28.676   7.433  1.00  0.00     0.006 C 
HETATM    3  C8  UNL     1      24.667  29.688   6.546  1.00  0.00     0.006 C 
HETATM    4  C9  UNL     1      25.636  30.830   6.294  1.00  0.00    -0.002 C 
HETATM    5  C10 UNL     1      24.993  32.124   6.079  1.00  0.00    -0.005 C 
HETATM    6  C11 UNL     1      25.529  32.966   4.943  1.00  0.00     0.006 C 
HETATM    7  C12 UNL     1      24.415  33.922   4.573  1.00  0.00     0.006 C 
HETATM    8  C13 UNL     1      23.621  34.469   5.677  1.00  0.00    -0.006 C 
HETATM    9  C14 UNL     1      22.138  34.189   5.377  1.00  0.00     0.005 C 
HETATM   10  C15 UNL     1      21.548  34.324   6.766  1.00  0.00     0.001 C 
HETATM   11  C16 UNL     1      22.543  33.457   7.554  1.00  0.00     0.010 C 
HETATM   12  C17 UNL     1      23.873  34.028   7.049  1.00  0.00    -0.036 C 
HETATM   13  C18 UNL     1      24.156  35.232   7.954  1.00  0.00     0.016 C 
HETATM   14  C19 UNL     1      24.981  33.054   7.266  1.00  0.00    -0.002 C 
HETATM   15  C20 UNL     1      24.863  32.322   8.558  1.00  0.00     0.006 C 
HETATM   16  C21 UNL     1      25.935  31.275   8.754  1.00  0.00     0.010 C 
HETATM   17  C22 UNL     1      26.546  30.732   7.529  1.00  0.00    -0.036 C 
HETATM   18  C23 UNL     1      27.895  31.369   7.230  1.00  0.00     0.016 C 
ENDROOT
BRANCH   1  19
HETATM   19  C2  UNL     1      27.829  28.632   8.252  1.00  0.00    -0.014 C 
HETATM   20  C1  UNL     1      28.736  27.869   7.297  1.00  0.00     0.010 C 
BRANCH  19  21
HETATM   21  C3  UNL     1      27.535  27.956   9.522  1.00  0.00     0.007 C 
BRANCH  21  22
HETATM   22  C4  UNL     1      28.015  26.579   9.782  1.00  0.00     0.026 C 
BRANCH  22  23
HETATM   23  C5  UNL     1      27.101  25.449   9.393  1.00  0.00     0.164 C 
BRANCH  23  24
HETATM   24  O1  UNL     1      26.278  25.080  10.485  1.00  0.00    -0.401 OA
ATOM     25  H1  UNL     1      25.817  25.837  10.825  1.00  0.00     0.209 HD
ENDBRANCH  23  24
ENDBRANCH  22  23
ENDBRANCH  21  22
ENDBRANCH  19  21
ENDBRANCH   1  19
TORSDOF 5
ENDMDL
