MODEL 1
REMARK VINA RESULT: -9.103724746      0.000      0.000
REMARK  5 active torsions:
REMARK  status: ('A' for Active; 'I' for Inactive)
REMARK    1  A    between atoms: C5_5  and  N1_6 
REMARK    2  A    between atoms: N1_6  and  C6_8 
REMARK    3  A    between atoms: C6_8  and  N2_10 
REMARK       I    between atoms: N2_10  and  C7_12 
REMARK    4  A    between atoms: C7_12  and  C8_14 
REMARK    5  A    between atoms: C19_27  and  O2_28 
ROOT
HETATM    1  C1  UNL     1      12.163  -8.723  24.648  1.00  0.00     0.018 C 
HETATM    2  C2  UNL     1      12.397  -9.666  23.915  1.00  0.00    -0.076 C 
HETATM    3  C3  UNL     1      12.656 -10.768  23.038  1.00  0.00     0.039 A 
HETATM    4  C4  UNL     1      13.583 -10.690  22.029  1.00  0.00     0.070 A 
HETATM    5  C5  UNL     1      13.839 -11.750  21.180  1.00  0.00     0.108 A 
HETATM    6  N4  UNL     1      13.153 -12.885  21.356  1.00  0.00    -0.351 N 
ATOM      7  H4  UNL     1      13.325 -13.680  20.741  1.00  0.00     0.166 HD
HETATM    8  C22 UNL     1      12.228 -12.988  22.350  1.00  0.00     0.110 A 
HETATM    9  C23 UNL     1      11.957 -11.941  23.210  1.00  0.00     0.045 A 
HETATM   10 BR1  UNL     1      10.674 -12.046  24.607  1.00  0.00    -0.048 Br
ENDROOT
BRANCH   5  11
HETATM   11  N1  UNL     1      14.727 -11.576  20.265  1.00  0.00    -0.319 N 
ATOM     12  H1  UNL     1      14.946 -10.621  19.979  1.00  0.00     0.169 HD
BRANCH  11  13
HETATM   13  C6  UNL     1      15.417 -12.643  19.633  1.00  0.00     0.180 C 
HETATM   14  S1  UNL     1      14.892 -13.074  18.153  1.00  0.00    -0.040 SA
BRANCH  13  15
HETATM   15  N2  UNL     1      16.525 -13.303  20.285  1.00  0.00    -0.299 N 
HETATM   16  C7  UNL     1      16.369 -14.567  20.881  1.00  0.00     0.261 C 
HETATM   17  O1  UNL     1      15.199 -15.081  20.806  1.00  0.00    -0.267 OA
ATOM     18  H2  UNL     1      17.436 -12.844  20.313  1.00  0.00     0.171 HD
BRANCH  16  19
HETATM   19  C8  UNL     1      17.429 -15.272  21.542  1.00  0.00     0.084 A 
HETATM   20  C9  UNL     1      17.606 -16.550  21.190  1.00  0.00     0.032 A 
HETATM   21  C10 UNL     1      18.630 -17.380  21.771  1.00  0.00    -0.033 A 
HETATM   22  C11 UNL     1      18.753 -18.629  21.352  1.00  0.00     0.024 C 
HETATM   23  C12 UNL     1      19.589 -16.887  22.820  1.00  0.00    -0.010 A 
HETATM   24  C13 UNL     1      20.520 -17.769  23.327  1.00  0.00     0.013 C 
HETATM   25  C20 UNL     1      19.416 -15.572  23.184  1.00  0.00     0.061 A 
HETATM   26  C14 UNL     1      20.855 -18.176  24.572  1.00  0.00     0.001 C 
HETATM   27  C15 UNL     1      21.339 -17.506  25.661  1.00  0.00     0.002 C 
HETATM   28  C16 UNL     1      22.436 -16.682  25.749  1.00  0.00     0.032 C 
HETATM   29  C17 UNL     1      22.595 -15.751  24.764  1.00  0.00     0.062 A 
HETATM   30  N3  UNL     1      22.995 -14.831  23.769  1.00  0.00    -0.350 N 
HETATM   31  C18 UNL     1      21.616 -14.982  24.062  1.00  0.00     0.094 A 
ATOM     32  H3  UNL     1      23.736 -14.382  23.232  1.00  0.00     0.166 HD
HETATM   33  C19 UNL     1      20.260 -14.891  24.099  1.00  0.00     0.109 C 
HETATM   34  C21 UNL     1      18.335 -14.764  22.547  1.00  0.00     0.201 A 
HETATM   35  O3  UNL     1      18.202 -13.563  22.903  1.00  0.00    -0.286 OA
BRANCH  33  36
HETATM   36  O2  UNL     1      19.600 -14.110  25.038  1.00  0.00    -0.357 OA
ATOM     37  H2  UNL     1      18.653 -14.035  25.054  1.00  0.00     0.217 HD
ENDBRANCH  33  36
ENDBRANCH  16  19
ENDBRANCH  13  15
ENDBRANCH  11  13
ENDBRANCH   5  11
TORSDOF 5
ENDMDL
MODEL 2
REMARK VINA RESULT: -9.029243646      0.983      1.031
REMARK  5 active torsions:
REMARK  status: ('A' for Active; 'I' for Inactive)
REMARK    1  A    between atoms: C5_5  and  N1_6 
REMARK    2  A    between atoms: N1_6  and  C6_8 
REMARK    3  A    between atoms: C6_8  and  N2_10 
REMARK       I    between atoms: N2_10  and  C7_12 
REMARK    4  A    between atoms: C7_12  and  C8_14 
REMARK    5  A    between atoms: C19_27  and  O2_28 
ROOT
HETATM    1  C1  UNL     1      12.358  -8.842  24.461  1.00  0.00     0.018 C 
HETATM    2  C2  UNL     1      12.532  -9.778  23.704  1.00  0.00    -0.076 C 
HETATM    3  C3  UNL     1      12.720 -10.872  22.799  1.00  0.00     0.039 A 
HETATM    4  C4  UNL     1      13.652 -10.828  21.793  1.00  0.00     0.070 A 
HETATM    5  C5  UNL     1      13.841 -11.880  20.916  1.00  0.00     0.108 A 
HETATM    6  N4  UNL     1      13.082 -12.972  21.063  1.00  0.00    -0.351 N 
ATOM      7  H4  UNL     1      13.203 -13.761  20.427  1.00  0.00     0.166 HD
HETATM    8  C22 UNL     1      12.150 -13.041  22.053  1.00  0.00     0.110 A 
HETATM    9  C23 UNL     1      11.946 -12.001  22.940  1.00  0.00     0.045 A 
HETATM   10 BR1  UNL     1      10.656 -12.059  24.333  1.00  0.00    -0.048 Br
ENDROOT
BRANCH   5  11
HETATM   11  N1  UNL     1      14.740 -11.741  20.007  1.00  0.00    -0.319 N 
ATOM     12  H1  UNL     1      14.829 -10.833  19.549  1.00  0.00     0.169 HD
BRANCH  11  13
HETATM   13  C6  UNL     1      15.614 -12.784  19.606  1.00  0.00     0.180 C 
HETATM   14  S1  UNL     1      15.559 -13.219  18.038  1.00  0.00    -0.040 SA
BRANCH  13  15
HETATM   15  N2  UNL     1      16.501 -13.418  20.555  1.00  0.00    -0.299 N 
HETATM   16  C7  UNL     1      16.198 -14.678  21.103  1.00  0.00     0.261 C 
HETATM   17  O1  UNL     1      15.103 -15.212  20.709  1.00  0.00    -0.267 OA
ATOM     18  H2  UNL     1      17.361 -12.944  20.832  1.00  0.00     0.171 HD
BRANCH  16  19
HETATM   19  C8  UNL     1      17.036 -15.357  22.048  1.00  0.00     0.084 A 
HETATM   20  C9  UNL     1      16.689 -16.611  22.359  1.00  0.00     0.032 A 
HETATM   21  C10 UNL     1      17.437 -17.414  23.293  1.00  0.00    -0.033 A 
HETATM   22  C11 UNL     1      17.039 -18.653  23.531  1.00  0.00     0.024 C 
HETATM   23  C12 UNL     1      18.669 -16.917  23.999  1.00  0.00    -0.010 A 
HETATM   24  C13 UNL     1      19.301 -17.760  24.891  1.00  0.00     0.013 C 
HETATM   25  C20 UNL     1      19.035 -15.631  23.680  1.00  0.00     0.061 A 
HETATM   26  C14 UNL     1      19.674 -17.654  26.186  1.00  0.00     0.001 C 
HETATM   27  C15 UNL     1      20.539 -16.812  26.830  1.00  0.00     0.002 C 
HETATM   28  C16 UNL     1      21.854 -16.539  26.538  1.00  0.00     0.032 C 
HETATM   29  C17 UNL     1      22.163 -16.300  25.230  1.00  0.00     0.062 A 
HETATM   30  N3  UNL     1      22.689 -16.166  23.925  1.00  0.00    -0.350 N 
HETATM   31  C18 UNL     1      21.416 -15.618  24.221  1.00  0.00     0.094 A 
ATOM     32  H3  UNL     1      23.440 -16.338  23.257  1.00  0.00     0.166 HD
HETATM   33  C19 UNL     1      20.205 -14.999  24.175  1.00  0.00     0.109 C 
HETATM   34  C21 UNL     1      18.218 -14.849  22.706  1.00  0.00     0.201 A 
HETATM   35  O3  UNL     1      18.578 -13.672  22.437  1.00  0.00    -0.286 OA
BRANCH  33  36
HETATM   36  O2  UNL     1      20.031 -13.691  24.605  1.00  0.00    -0.357 OA
ATOM     37  H2  UNL     1      19.892 -12.976  23.996  1.00  0.00     0.217 HD
ENDBRANCH  33  36
ENDBRANCH  16  19
ENDBRANCH  13  15
ENDBRANCH  11  13
ENDBRANCH   5  11
TORSDOF 5
ENDMDL
MODEL 3
REMARK VINA RESULT: -8.612920184      1.009      1.463
REMARK  5 active torsions:
REMARK  status: ('A' for Active; 'I' for Inactive)
REMARK    1  A    between atoms: C5_5  and  N1_6 
REMARK    2  A    between atoms: N1_6  and  C6_8 
REMARK    3  A    between atoms: C6_8  and  N2_10 
REMARK       I    between atoms: N2_10  and  C7_12 
REMARK    4  A    between atoms: C7_12  and  C8_14 
REMARK    5  A    between atoms: C19_27  and  O2_28 
ROOT
HETATM    1  C1  UNL     1      10.656 -12.371  24.775  1.00  0.00     0.018 C 
HETATM    2  C2  UNL     1      11.394 -12.052  23.861  1.00  0.00    -0.076 C 
HETATM    3  C3  UNL     1      12.280 -11.684  22.798  1.00  0.00     0.039 A 
HETATM    4  C4  UNL     1      12.623 -12.562  21.802  1.00  0.00     0.070 A 
HETATM    5  C5  UNL     1      13.477 -12.213  20.772  1.00  0.00     0.108 A 
HETATM    6  N4  UNL     1      13.981 -10.974  20.758  1.00  0.00    -0.351 N 
ATOM      7  H4  UNL     1      14.614 -10.694  20.009  1.00  0.00     0.166 HD
HETATM    8  C22 UNL     1      13.656 -10.082  21.735  1.00  0.00     0.110 A 
HETATM    9  C23 UNL     1      12.804 -10.411  22.772  1.00  0.00     0.045 A 
HETATM   10 BR1  UNL     1      12.329  -9.197  24.153  1.00  0.00    -0.048 Br
ENDROOT
BRANCH   5  11
HETATM   11  N1  UNL     1      13.736 -13.110  19.887  1.00  0.00    -0.319 N 
ATOM     12  H1  UNL     1      12.984 -13.735  19.597  1.00  0.00     0.169 HD
BRANCH  11  13
HETATM   13  C6  UNL     1      15.014 -13.274  19.292  1.00  0.00     0.180 C 
HETATM   14  S1  UNL     1      15.154 -12.829  17.733  1.00  0.00    -0.040 SA
BRANCH  13  15
HETATM   15  N2  UNL     1      16.123 -13.811  20.047  1.00  0.00    -0.299 N 
HETATM   16  C7  UNL     1      16.092 -15.125  20.549  1.00  0.00     0.261 C 
HETATM   17  O1  UNL     1      15.033 -15.797  20.293  1.00  0.00    -0.267 OA
ATOM     18  H2  UNL     1      16.942 -13.228  20.219  1.00  0.00     0.171 HD
BRANCH  16  19
HETATM   19  C8  UNL     1      17.160 -15.714  21.305  1.00  0.00     0.084 A 
HETATM   20  C9  UNL     1      17.481 -16.976  20.999  1.00  0.00     0.032 A 
HETATM   21  C10 UNL     1      18.531 -17.695  21.675  1.00  0.00    -0.033 A 
HETATM   22  C11 UNL     1      18.800 -18.934  21.299  1.00  0.00     0.024 C 
HETATM   23  C12 UNL     1      19.357 -17.094  22.780  1.00  0.00    -0.010 A 
HETATM   24  C13 UNL     1      20.325 -17.875  23.376  1.00  0.00     0.013 C 
HETATM   25  C20 UNL     1      19.036 -15.795  23.095  1.00  0.00     0.061 A 
HETATM   26  C14 UNL     1      20.601 -18.225  24.652  1.00  0.00     0.001 C 
HETATM   27  C15 UNL     1      20.936 -17.492  25.757  1.00  0.00     0.002 C 
HETATM   28  C16 UNL     1      21.942 -16.567  25.905  1.00  0.00     0.032 C 
HETATM   29  C17 UNL     1      22.089 -15.644  24.910  1.00  0.00     0.062 A 
HETATM   30  N3  UNL     1      22.476 -14.708  23.924  1.00  0.00    -0.350 N 
HETATM   31  C18 UNL     1      21.099 -14.983  24.119  1.00  0.00     0.094 A 
ATOM     32  H3  UNL     1      23.211 -14.202  23.432  1.00  0.00     0.166 HD
HETATM   33  C19 UNL     1      19.741 -15.020  24.052  1.00  0.00     0.109 C 
HETATM   34  C21 UNL     1      17.936 -15.104  22.360  1.00  0.00     0.201 A 
HETATM   35  O3  UNL     1      17.665 -13.915  22.674  1.00  0.00    -0.286 OA
BRANCH  33  36
HETATM   36  O2  UNL     1      18.943 -14.287  24.920  1.00  0.00    -0.357 OA
ATOM     37  H2  UNL     1      17.995 -14.357  24.912  1.00  0.00     0.217 HD
ENDBRANCH  33  36
ENDBRANCH  16  19
ENDBRANCH  13  15
ENDBRANCH  11  13
ENDBRANCH   5  11
TORSDOF 5
ENDMDL
MODEL 4
REMARK VINA RESULT: -8.611870609      2.144      3.194
REMARK  5 active torsions:
REMARK  status: ('A' for Active; 'I' for Inactive)
REMARK    1  A    between atoms: C5_5  and  N1_6 
REMARK    2  A    between atoms: N1_6  and  C6_8 
REMARK    3  A    between atoms: C6_8  and  N2_10 
REMARK       I    between atoms: N2_10  and  C7_12 
REMARK    4  A    between atoms: C7_12  and  C8_14 
REMARK    5  A    between atoms: C19_27  and  O2_28 
ROOT
HETATM    1  C1  UNL     1      12.372  -8.766  24.553  1.00  0.00     0.018 C 
HETATM    2  C2  UNL     1      12.446  -9.716  23.796  1.00  0.00    -0.076 C 
HETATM    3  C3  UNL     1      12.514 -10.826  22.894  1.00  0.00     0.039 A 
HETATM    4  C4  UNL     1      13.274 -10.787  21.752  1.00  0.00     0.070 A 
HETATM    5  C5  UNL     1      13.345 -11.855  20.877  1.00  0.00     0.108 A 
HETATM    6  N4  UNL     1      12.645 -12.958  21.163  1.00  0.00    -0.351 N 
ATOM      7  H4  UNL     1      12.681 -13.758  20.532  1.00  0.00     0.166 HD
HETATM    8  C22 UNL     1      11.883 -13.023  22.290  1.00  0.00     0.110 A 
HETATM    9  C23 UNL     1      11.798 -11.967  23.178  1.00  0.00     0.045 A 
HETATM   10 BR1  UNL     1      10.747 -12.018  24.758  1.00  0.00    -0.048 Br
ENDROOT
BRANCH   5  11
HETATM   11  N1  UNL     1      14.086 -11.719  19.834  1.00  0.00    -0.319 N 
ATOM     12  H1  UNL     1      14.124 -10.804  19.384  1.00  0.00     0.169 HD
BRANCH  11  13
HETATM   13  C6  UNL     1      14.852 -12.775  19.276  1.00  0.00     0.180 C 
HETATM   14  S1  UNL     1      15.000 -12.790  17.655  1.00  0.00    -0.040 SA
BRANCH  13  15
HETATM   15  N2  UNL     1      15.461 -13.779  20.119  1.00  0.00    -0.299 N 
HETATM   16  C7  UNL     1      16.601 -13.486  20.889  1.00  0.00     0.261 C 
HETATM   17  O1  UNL     1      17.051 -12.292  20.792  1.00  0.00    -0.267 OA
ATOM     18  H2  UNL     1      15.057 -14.715  20.157  1.00  0.00     0.171 HD
BRANCH  16  19
HETATM   19  C8  UNL     1      17.250 -14.438  21.744  1.00  0.00     0.084 A 
HETATM   20  C9  UNL     1      18.232 -13.969  22.522  1.00  0.00     0.032 A 
HETATM   21  C10 UNL     1      18.972 -14.809  23.429  1.00  0.00    -0.033 A 
HETATM   22  C11 UNL     1      19.914 -14.263  24.179  1.00  0.00     0.024 C 
HETATM   23  C12 UNL     1      18.709 -16.282  23.582  1.00  0.00    -0.010 A 
HETATM   24  C13 UNL     1      19.488 -17.002  24.464  1.00  0.00     0.013 C 
HETATM   25  C20 UNL     1      17.697 -16.771  22.789  1.00  0.00     0.061 A 
HETATM   26  C14 UNL     1      20.246 -18.116  24.361  1.00  0.00     0.001 C 
HETATM   27  C15 UNL     1      19.943 -19.411  24.040  1.00  0.00     0.002 C 
HETATM   28  C16 UNL     1      18.992 -20.235  24.593  1.00  0.00     0.032 C 
HETATM   29  C17 UNL     1      17.750 -19.705  24.795  1.00  0.00     0.062 A 
HETATM   30  N3  UNL     1      16.461 -19.292  25.200  1.00  0.00    -0.350 N 
HETATM   31  C18 UNL     1      17.010 -18.777  24.000  1.00  0.00     0.094 A 
ATOM     32  H3  UNL     1      15.694 -19.335  25.870  1.00  0.00     0.166 HD
HETATM   33  C19 UNL     1      17.239 -18.113  22.834  1.00  0.00     0.109 C 
HETATM   34  C21 UNL     1      16.968 -15.850  21.868  1.00  0.00     0.201 A 
HETATM   35  O3  UNL     1      16.048 -16.329  21.153  1.00  0.00    -0.286 OA
BRANCH  33  36
HETATM   36  O2  UNL     1      17.030 -18.706  21.597  1.00  0.00    -0.357 OA
ATOM     37  H2  UNL     1      16.243 -18.547  21.089  1.00  0.00     0.217 HD
ENDBRANCH  33  36
ENDBRANCH  16  19
ENDBRANCH  13  15
ENDBRANCH  11  13
ENDBRANCH   5  11
TORSDOF 5
ENDMDL
MODEL 5
REMARK VINA RESULT: -8.573270496      3.135      4.171
REMARK  5 active torsions:
REMARK  status: ('A' for Active; 'I' for Inactive)
REMARK    1  A    between atoms: C5_5  and  N1_6 
REMARK    2  A    between atoms: N1_6  and  C6_8 
REMARK    3  A    between atoms: C6_8  and  N2_10 
REMARK       I    between atoms: N2_10  and  C7_12 
REMARK    4  A    between atoms: C7_12  and  C8_14 
REMARK    5  A    between atoms: C19_27  and  O2_28 
ROOT
HETATM    1  C1  UNL     1      15.034 -12.808  18.463  1.00  0.00     0.018 C 
HETATM    2  C2  UNL     1      14.399 -13.459  19.271  1.00  0.00    -0.076 C 
HETATM    3  C3  UNL     1      13.633 -14.224  20.208  1.00  0.00     0.039 A 
HETATM    4  C4  UNL     1      13.588 -15.594  20.162  1.00  0.00     0.070 A 
HETATM    5  C5  UNL     1      12.852 -16.340  21.064  1.00  0.00     0.108 A 
HETATM    6  N4  UNL     1      12.163 -15.691  22.010  1.00  0.00    -0.351 N 
ATOM      7  H4  UNL     1      11.612 -16.220  22.686  1.00  0.00     0.166 HD
HETATM    8  C22 UNL     1      12.190 -14.331  22.078  1.00  0.00     0.110 A 
HETATM    9  C23 UNL     1      12.920 -13.568  21.186  1.00  0.00     0.045 A 
HETATM   10 BR1  UNL     1      12.982 -11.671  21.248  1.00  0.00    -0.048 Br
ENDROOT
BRANCH   5  11
HETATM   11  N1  UNL     1      12.876 -17.620  20.935  1.00  0.00    -0.319 N 
ATOM     12  H1  UNL     1      12.482 -18.028  20.087  1.00  0.00     0.169 HD
BRANCH  11  13
HETATM   13  C6  UNL     1      13.421 -18.493  21.912  1.00  0.00     0.180 C 
HETATM   14  S1  UNL     1      12.857 -20.020  21.919  1.00  0.00    -0.040 SA
BRANCH  13  15
HETATM   15  N2  UNL     1      14.423 -18.033  22.846  1.00  0.00    -0.299 N 
HETATM   16  C7  UNL     1      15.788 -18.043  22.509  1.00  0.00     0.261 C 
HETATM   17  O1  UNL     1      16.074 -18.481  21.341  1.00  0.00    -0.267 OA
ATOM     18  H2  UNL     1      14.135 -17.694  23.764  1.00  0.00     0.171 HD
BRANCH  16  19
HETATM   19  C8  UNL     1      16.830 -17.601  23.392  1.00  0.00     0.084 A 
HETATM   20  C9  UNL     1      17.006 -18.313  24.511  1.00  0.00     0.032 A 
HETATM   21  C10 UNL     1      18.012 -17.985  25.488  1.00  0.00    -0.033 A 
HETATM   22  C11 UNL     1      18.136 -18.752  26.558  1.00  0.00     0.024 C 
HETATM   23  C12 UNL     1      18.952 -16.819  25.339  1.00  0.00    -0.010 A 
HETATM   24  C13 UNL     1      19.867 -16.580  26.343  1.00  0.00     0.013 C 
HETATM   25  C20 UNL     1      18.780 -16.086  24.189  1.00  0.00     0.061 A 
HETATM   26  C14 UNL     1      20.173 -15.505  27.104  1.00  0.00     0.001 C 
HETATM   27  C15 UNL     1      20.638 -14.257  26.792  1.00  0.00     0.002 C 
HETATM   28  C16 UNL     1      21.738 -13.909  26.045  1.00  0.00     0.032 C 
HETATM   29  C17 UNL     1      21.924 -14.573  24.866  1.00  0.00     0.062 A 
HETATM   30  N3  UNL     1      22.350 -15.243  23.698  1.00  0.00    -0.350 N 
HETATM   31  C18 UNL     1      20.965 -15.033  23.912  1.00  0.00     0.094 A 
ATOM     32  H3  UNL     1      23.106 -15.610  23.120  1.00  0.00     0.166 HD
HETATM   33  C19 UNL     1      19.608 -14.995  23.818  1.00  0.00     0.109 C 
HETATM   34  C21 UNL     1      17.718 -16.475  23.215  1.00  0.00     0.201 A 
HETATM   35  O3  UNL     1      17.585 -15.782  22.171  1.00  0.00    -0.286 OA
BRANCH  33  36
HETATM   36  O2  UNL     1      18.935 -13.879  23.342  1.00  0.00    -0.357 OA
ATOM     37  H2  UNL     1      19.056 -13.559  22.456  1.00  0.00     0.217 HD
ENDBRANCH  33  36
ENDBRANCH  16  19
ENDBRANCH  13  15
ENDBRANCH  11  13
ENDBRANCH   5  11
TORSDOF 5
ENDMDL
