MODEL 1
REMARK VINA RESULT: -6.909313414      0.000      0.000
REMARK  9 active torsions:
REMARK  status: ('A' for Active; 'I' for Inactive)
REMARK       I    between atoms: C2_2  and  N1_4 
REMARK    1  A    between atoms: N1_4  and  C3_6 
REMARK    2  A    between atoms: C3_6  and  C4_7 
REMARK    3  A    between atoms: C4_7  and  O2_8 
REMARK    4  A    between atoms: C4_7  and  C5_10 
REMARK    5  A    between atoms: N2_12  and  S1_13 
REMARK    6  A    between atoms: C7_19  and  N4_20 
REMARK    7  A    between atoms: C10_30  and  N8_31 
REMARK    8  A    between atoms: N10_35  and  O6_36 
REMARK    9  A    between atoms: N11_38  and  N12_39 
ROOT
HETATM    1  N4  UNL     1      36.413   0.036  12.446  1.00  0.00    -0.045 N 
HETATM    2  C8  UNL     1      36.553  -1.129  13.235  1.00  0.00     0.758 A 
HETATM    3  N5  UNL     1      37.254  -1.407  14.369  1.00  0.00    -0.018 N 
ATOM      4  H5  UNL     1      37.818  -0.664  14.783  1.00  0.00     0.203 HD
HETATM    5  C9  UNL     1      37.242  -2.605  14.970  1.00  0.00     0.705 A 
HETATM    6  N6  UNL     1      37.870  -2.915  16.040  1.00  0.00    -0.234 N 
ATOM      7  H61 UNL     1      37.861  -3.828  16.497  1.00  0.00     0.174 HD
ATOM      8  H62 UNL     1      38.441  -2.191  16.475  1.00  0.00     0.174 HD
HETATM    9  N7  UNL     1      36.476  -3.576  14.386  1.00  0.00    -0.020 N 
ATOM     10  H7  UNL     1      36.433  -4.506  14.804  1.00  0.00     0.203 HD
HETATM   11  C10 UNL     1      35.778  -3.315  13.267  1.00  0.00     0.730 A 
HETATM   12  N9  UNL     1      35.810  -2.092  12.682  1.00  0.00     0.133 N 
HETATM   13  N10 UNL     1      35.205  -1.555  11.554  1.00  0.00    -0.040 N 
HETATM   14  N11 UNL     1      35.740  -0.306  11.283  1.00  0.00     0.021 NA
ENDROOT
BRANCH   1  15
HETATM   15  C7  UNL     1      36.932   1.315  12.836  1.00  0.00     0.170 A 
HETATM   16  C5  UNL     1      38.249   1.652  12.940  1.00  0.00     0.038 A 
HETATM   17  C6  UNL     1      38.285   3.001  13.319  1.00  0.00     0.145 A 
HETATM   18  N2  UNL     1      37.007   3.419  13.430  1.00  0.00    -0.171 N 
HETATM   19  N3  UNL     1      36.226   2.406  13.140  1.00  0.00    -0.265 N 
ATOM     20  H3  UNL     1      35.207   2.447  13.145  1.00  0.00     0.190 HD
BRANCH  16  21
HETATM   21  C4  UNL     1      39.478   0.807  12.752  1.00  0.00     0.174 C 
BRANCH  21  22
HETATM   22  C3  UNL     1      40.633   1.624  12.263  1.00  0.00     0.159 C 
BRANCH  22  23
HETATM   23  N1  UNL     1      41.518   0.858  11.440  1.00  0.00    -0.359 N 
HETATM   24  C2  UNL     1      42.502  -0.023  11.914  1.00  0.00     0.213 C 
HETATM   25  C1  UNL     1      43.412  -0.789  10.996  1.00  0.00     0.117 C 
HETATM   26  O1  UNL     1      42.687  -0.227  13.136  1.00  0.00    -0.274 OA
ATOM     27  H1  UNL     1      41.426   0.959  10.430  1.00  0.00     0.162 HD
ENDBRANCH  22  23
ENDBRANCH  21  22
BRANCH  21  28
HETATM   28  O2  UNL     1      39.803   0.324  14.028  1.00  0.00    -0.389 OA
ATOM     29  H2  UNL     1      39.019   0.365  14.564  1.00  0.00     0.210 HD
ENDBRANCH  21  28
ENDBRANCH  16  21
BRANCH  18  30
HETATM   30  S1  UNL     1      36.570   5.027  13.877  1.00  0.00     0.230 S 
HETATM   31  O3  UNL     1      36.651   5.225  15.348  1.00  0.00    -0.576 OA
HETATM   32  O4  UNL     1      37.496   5.946  13.131  1.00  0.00    -0.576 OA
HETATM   33  O5  UNL     1      34.971   5.242  13.356  1.00  0.00    -0.576 OA
ENDBRANCH  18  30
ENDBRANCH   1  15
BRANCH  14  34
HETATM   34  N12 UNL     1      36.755  -0.449  10.293  1.00  0.00    -0.323 NA
ATOM     35 2H12 UNL     1      37.380  -1.205  10.574  1.00  0.00     0.174 HD
ATOM     36 1H12 UNL     1      37.327   0.392  10.372  1.00  0.00     0.174 HD
ENDBRANCH  14  34
BRANCH  13  37
HETATM   37  O6  UNL     1      34.236  -2.216  10.858  1.00  0.00    -0.253 OA
ATOM     38  H6  UNL     1      33.557  -1.763  10.373  1.00  0.00     0.248 HD
ENDBRANCH  13  37
BRANCH  11  39
HETATM   39  N8  UNL     1      35.032  -4.220  12.693  1.00  0.00    -0.232 N 
ATOM     40  H82 UNL     1      34.383  -4.727  13.295  1.00  0.00     0.174 HD
ATOM     41  H81 UNL     1      35.097  -4.417  11.694  1.00  0.00     0.174 HD
ENDBRANCH  11  39
TORSDOF 9
ENDMDL
MODEL 2
REMARK VINA RESULT: -6.857502093      5.537      8.959
REMARK  9 active torsions:
REMARK  status: ('A' for Active; 'I' for Inactive)
REMARK       I    between atoms: C2_2  and  N1_4 
REMARK    1  A    between atoms: N1_4  and  C3_6 
REMARK    2  A    between atoms: C3_6  and  C4_7 
REMARK    3  A    between atoms: C4_7  and  O2_8 
REMARK    4  A    between atoms: C4_7  and  C5_10 
REMARK    5  A    between atoms: N2_12  and  S1_13 
REMARK    6  A    between atoms: C7_19  and  N4_20 
REMARK    7  A    between atoms: C10_30  and  N8_31 
REMARK    8  A    between atoms: N10_35  and  O6_36 
REMARK    9  A    between atoms: N11_38  and  N12_39 
ROOT
HETATM    1  N4  UNL     1      36.892   7.545  15.742  1.00  0.00    -0.045 N 
HETATM    2  C8  UNL     1      36.530   7.707  17.099  1.00  0.00     0.758 A 
HETATM    3  N5  UNL     1      36.294   6.827  18.111  1.00  0.00    -0.018 N 
ATOM      4  H5  UNL     1      36.375   5.829  17.913  1.00  0.00     0.203 HD
HETATM    5  C9  UNL     1      35.961   7.203  19.353  1.00  0.00     0.705 A 
HETATM    6  N6  UNL     1      35.741   6.421  20.342  1.00  0.00    -0.234 N 
ATOM      7  H61 UNL     1      35.487   6.708  21.288  1.00  0.00     0.174 HD
ATOM      8  H62 UNL     1      35.815   5.418  20.172  1.00  0.00     0.174 HD
HETATM    9  N7  UNL     1      35.861   8.548  19.582  1.00  0.00    -0.020 N 
ATOM     10  H7  UNL     1      35.610   8.886  20.511  1.00  0.00     0.203 HD
HETATM   11  C10 UNL     1      36.092   9.428  18.591  1.00  0.00     0.730 A 
HETATM   12  N9  UNL     1      36.428   9.016  17.343  1.00  0.00     0.133 N 
HETATM   13  N10 UNL     1      36.716   9.685  16.162  1.00  0.00    -0.040 N 
HETATM   14  N11 UNL     1      36.795   8.779  15.116  1.00  0.00     0.021 NA
ENDROOT
BRANCH   1  15
HETATM   15  C7  UNL     1      37.258   6.280  15.172  1.00  0.00     0.170 A 
HETATM   16  C5  UNL     1      38.467   5.662  15.294  1.00  0.00     0.038 A 
HETATM   17  C6  UNL     1      38.362   4.446  14.606  1.00  0.00     0.145 A 
HETATM   18  N2  UNL     1      37.112   4.378  14.102  1.00  0.00    -0.171 N 
HETATM   19  N3  UNL     1      36.479   5.473  14.450  1.00  0.00    -0.265 N 
ATOM     20  H3  UNL     1      35.513   5.681  14.199  1.00  0.00     0.190 HD
BRANCH  16  21
HETATM   21  C4  UNL     1      39.726   6.132  15.968  1.00  0.00     0.174 C 
BRANCH  21  22
HETATM   22  C3  UNL     1      39.630   6.004  17.456  1.00  0.00     0.159 C 
BRANCH  22  23
HETATM   23  N1  UNL     1      39.816   4.653  17.888  1.00  0.00    -0.359 N 
HETATM   24  C2  UNL     1      38.822   3.843  18.458  1.00  0.00     0.213 C 
HETATM   25  C1  UNL     1      39.086   2.432  18.906  1.00  0.00     0.117 C 
HETATM   26  O1  UNL     1      37.648   4.243  18.631  1.00  0.00    -0.274 OA
ATOM     27  H1  UNL     1      40.744   4.246  17.773  1.00  0.00     0.162 HD
ENDBRANCH  22  23
ENDBRANCH  21  22
BRANCH  21  28
HETATM   28  O2  UNL     1      40.736   5.265  15.526  1.00  0.00    -0.389 OA
ATOM     29  H2  UNL     1      40.528   5.004  14.636  1.00  0.00     0.210 HD
ENDBRANCH  21  28
ENDBRANCH  16  21
BRANCH  18  30
HETATM   30  S1  UNL     1      36.533   3.043  13.175  1.00  0.00     0.230 S 
HETATM   31  O3  UNL     1      35.270   2.496  13.737  1.00  0.00    -0.576 OA
HETATM   32  O4  UNL     1      36.356   3.543  11.768  1.00  0.00    -0.576 OA
HETATM   33  O5  UNL     1      37.749   1.863  13.239  1.00  0.00    -0.576 OA
ENDBRANCH  18  30
ENDBRANCH   1  15
BRANCH  14  34
HETATM   34  N12 UNL     1      35.542   8.756  14.437  1.00  0.00    -0.323 NA
ATOM     35 2H12 UNL     1      35.717   8.736  13.432  1.00  0.00     0.174 HD
ATOM     36 1H12 UNL     1      35.132   9.676  14.602  1.00  0.00     0.174 HD
ENDBRANCH  14  34
BRANCH  13  37
HETATM   37  O6  UNL     1      36.881  11.037  16.107  1.00  0.00    -0.253 OA
ATOM     38  H6  UNL     1      37.529  11.495  16.630  1.00  0.00     0.248 HD
ENDBRANCH  13  37
BRANCH  11  39
HETATM   39  N8  UNL     1      36.012  10.717  18.783  1.00  0.00    -0.232 N 
ATOM     40  H82 UNL     1      36.844  11.265  18.563  1.00  0.00     0.174 HD
ATOM     41  H81 UNL     1      35.163  11.157  19.140  1.00  0.00     0.174 HD
ENDBRANCH  11  39
TORSDOF 9
ENDMDL
MODEL 3
REMARK VINA RESULT: -6.751845134      1.191      1.556
REMARK  9 active torsions:
REMARK  status: ('A' for Active; 'I' for Inactive)
REMARK       I    between atoms: C2_2  and  N1_4 
REMARK    1  A    between atoms: N1_4  and  C3_6 
REMARK    2  A    between atoms: C3_6  and  C4_7 
REMARK    3  A    between atoms: C4_7  and  O2_8 
REMARK    4  A    between atoms: C4_7  and  C5_10 
REMARK    5  A    between atoms: N2_12  and  S1_13 
REMARK    6  A    between atoms: C7_19  and  N4_20 
REMARK    7  A    between atoms: C10_30  and  N8_31 
REMARK    8  A    between atoms: N10_35  and  O6_36 
REMARK    9  A    between atoms: N11_38  and  N12_39 
ROOT
HETATM    1  N4  UNL     1      36.504   0.083  12.451  1.00  0.00    -0.045 N 
HETATM    2  C8  UNL     1      36.627  -1.068  13.263  1.00  0.00     0.758 A 
HETATM    3  N5  UNL     1      37.289  -1.320  14.426  1.00  0.00    -0.018 N 
ATOM      4  H5  UNL     1      37.831  -0.565  14.848  1.00  0.00     0.203 HD
HETATM    5  C9  UNL     1      37.267  -2.509  15.046  1.00  0.00     0.705 A 
HETATM    6  N6  UNL     1      37.860  -2.795  16.143  1.00  0.00    -0.234 N 
ATOM      7  H61 UNL     1      37.842  -3.700  16.615  1.00  0.00     0.174 HD
ATOM      8  H62 UNL     1      38.408  -2.058  16.586  1.00  0.00     0.174 HD
HETATM    9  N7  UNL     1      36.531  -3.497  14.452  1.00  0.00    -0.020 N 
ATOM     10  H7  UNL     1      36.483  -4.420  14.883  1.00  0.00     0.203 HD
HETATM   11  C10 UNL     1      35.872  -3.261  13.304  1.00  0.00     0.730 A 
HETATM   12  N9  UNL     1      35.913  -2.047  12.700  1.00  0.00     0.133 N 
HETATM   13  N10 UNL     1      35.344  -1.536  11.543  1.00  0.00    -0.040 N 
HETATM   14  N11 UNL     1      35.875  -0.285  11.271  1.00  0.00     0.021 NA
ENDROOT
BRANCH   1  15
HETATM   15  C7  UNL     1      36.996   1.373  12.838  1.00  0.00     0.170 A 
HETATM   16  C5  UNL     1      38.305   1.746  12.913  1.00  0.00     0.038 A 
HETATM   17  C6  UNL     1      38.312   3.093  13.301  1.00  0.00     0.145 A 
HETATM   18  N2  UNL     1      37.027   3.474  13.445  1.00  0.00    -0.171 N 
HETATM   19  N3  UNL     1      36.268   2.442  13.166  1.00  0.00    -0.265 N 
ATOM     20  H3  UNL     1      35.248   2.454  13.196  1.00  0.00     0.190 HD
BRANCH  16  21
HETATM   21  C4  UNL     1      39.552   0.937  12.689  1.00  0.00     0.174 C 
BRANCH  21  22
HETATM   22  C3  UNL     1      40.771   1.806  12.672  1.00  0.00     0.159 C 
BRANCH  22  23
HETATM   23  N1  UNL     1      41.126   2.201  11.343  1.00  0.00    -0.359 N 
HETATM   24  C2  UNL     1      41.378   3.518  10.933  1.00  0.00     0.213 C 
HETATM   25  C1  UNL     1      41.732   3.870   9.514  1.00  0.00     0.117 C 
HETATM   26  O1  UNL     1      41.323   4.490  11.722  1.00  0.00    -0.274 OA
ATOM     27  H1  UNL     1      41.202   1.467  10.640  1.00  0.00     0.162 HD
ENDBRANCH  22  23
ENDBRANCH  21  22
BRANCH  21  28
HETATM   28  O2  UNL     1      39.650   0.081  13.795  1.00  0.00    -0.389 OA
ATOM     29  H2  UNL     1      38.954   0.306  14.401  1.00  0.00     0.210 HD
ENDBRANCH  21  28
ENDBRANCH  16  21
BRANCH  18  30
HETATM   30  S1  UNL     1      36.555   5.066  13.914  1.00  0.00     0.230 S 
HETATM   31  O3  UNL     1      36.604   5.236  15.390  1.00  0.00    -0.576 OA
HETATM   32  O4  UNL     1      37.482   6.014  13.205  1.00  0.00    -0.576 OA
HETATM   33  O5  UNL     1      34.964   5.267  13.365  1.00  0.00    -0.576 OA
ENDBRANCH  18  30
ENDBRANCH   1  15
BRANCH  14  34
HETATM   34  N12 UNL     1      36.927  -0.434  10.319  1.00  0.00    -0.323 NA
ATOM     35 2H12 UNL     1      37.746   0.071  10.657  1.00  0.00     0.174 HD
ATOM     36 1H12 UNL     1      36.625   0.096   9.501  1.00  0.00     0.174 HD
ENDBRANCH  14  34
BRANCH  13  37
HETATM   37  O6  UNL     1      34.407  -2.217  10.824  1.00  0.00    -0.253 OA
ATOM     38  H6  UNL     1      34.589  -2.586   9.968  1.00  0.00     0.248 HD
ENDBRANCH  13  37
BRANCH  11  39
HETATM   39  N8  UNL     1      35.156  -4.183  12.719  1.00  0.00    -0.232 N 
ATOM     40  H82 UNL     1      35.494  -4.525  11.820  1.00  0.00     0.174 HD
ATOM     41  H81 UNL     1      34.296  -4.542  13.136  1.00  0.00     0.174 HD
ENDBRANCH  11  39
TORSDOF 9
ENDMDL
MODEL 4
REMARK VINA RESULT: -6.730645357      2.687      6.447
REMARK  9 active torsions:
REMARK  status: ('A' for Active; 'I' for Inactive)
REMARK       I    between atoms: C2_2  and  N1_4 
REMARK    1  A    between atoms: N1_4  and  C3_6 
REMARK    2  A    between atoms: C3_6  and  C4_7 
REMARK    3  A    between atoms: C4_7  and  O2_8 
REMARK    4  A    between atoms: C4_7  and  C5_10 
REMARK    5  A    between atoms: N2_12  and  S1_13 
REMARK    6  A    between atoms: C7_19  and  N4_20 
REMARK    7  A    between atoms: C10_30  and  N8_31 
REMARK    8  A    between atoms: N10_35  and  O6_36 
REMARK    9  A    between atoms: N11_38  and  N12_39 
ROOT
HETATM    1  N4  UNL     1      37.880   2.205  13.178  1.00  0.00    -0.045 N 
HETATM    2  C8  UNL     1      38.127   3.193  14.159  1.00  0.00     0.758 A 
HETATM    3  N5  UNL     1      39.133   3.381  15.057  1.00  0.00    -0.018 N 
ATOM      4  H5  UNL     1      39.894   2.701  15.081  1.00  0.00     0.203 HD
HETATM    5  C9  UNL     1      39.176   4.412  15.912  1.00  0.00     0.705 A 
HETATM    6  N6  UNL     1      40.100   4.642  16.766  1.00  0.00    -0.234 N 
ATOM      7  H61 UNL     1      40.133   5.428  17.417  1.00  0.00     0.174 HD
ATOM      8  H62 UNL     1      40.873   3.979  16.811  1.00  0.00     0.174 HD
HETATM    9  N7  UNL     1      38.139   5.302  15.853  1.00  0.00    -0.020 N 
ATOM     10  H7  UNL     1      38.124   6.104  16.483  1.00  0.00     0.203 HD
HETATM   11  C10 UNL     1      37.140   5.129  14.970  1.00  0.00     0.730 A 
HETATM   12  N9  UNL     1      37.125   4.075  14.116  1.00  0.00     0.133 N 
HETATM   13  N10 UNL     1      36.245   3.659  13.127  1.00  0.00    -0.040 N 
HETATM   14  N11 UNL     1      36.596   2.392  12.688  1.00  0.00     0.021 NA
ENDROOT
BRANCH   1  15
HETATM   15  C7  UNL     1      38.834   1.195  12.822  1.00  0.00     0.170 A 
HETATM   16  C5  UNL     1      38.972  -0.026  13.414  1.00  0.00     0.038 A 
HETATM   17  C6  UNL     1      40.001  -0.685  12.727  1.00  0.00     0.145 A 
HETATM   18  N2  UNL     1      40.438   0.152  11.764  1.00  0.00    -0.171 N 
HETATM   19  N3  UNL     1      39.734   1.255  11.840  1.00  0.00    -0.265 N 
ATOM     20  H3  UNL     1      39.859   2.059  11.225  1.00  0.00     0.190 HD
BRANCH  16  21
HETATM   21  C4  UNL     1      38.248  -0.613  14.593  1.00  0.00     0.174 C 
BRANCH  21  22
HETATM   22  C3  UNL     1      37.452  -1.818  14.200  1.00  0.00     0.159 C 
BRANCH  22  23
HETATM   23  N1  UNL     1      36.466  -1.507  13.212  1.00  0.00    -0.359 N 
HETATM   24  C2  UNL     1      36.033  -2.378  12.202  1.00  0.00     0.213 C 
HETATM   25  C1  UNL     1      35.001  -1.985  11.181  1.00  0.00     0.117 C 
HETATM   26  O1  UNL     1      36.478  -3.543  12.082  1.00  0.00    -0.274 OA
ATOM     27  H1  UNL     1      36.045  -0.579  13.245  1.00  0.00     0.162 HD
ENDBRANCH  22  23
ENDBRANCH  21  22
BRANCH  21  28
HETATM   28  O2  UNL     1      39.250  -1.030  15.481  1.00  0.00    -0.389 OA
ATOM     29  H2  UNL     1      38.999  -0.753  16.355  1.00  0.00     0.210 HD
ENDBRANCH  21  28
ENDBRANCH  16  21
BRANCH  18  30
HETATM   30  S1  UNL     1      41.708  -0.247  10.665  1.00  0.00     0.230 S 
HETATM   31  O3  UNL     1      42.850  -0.895  11.362  1.00  0.00    -0.576 OA
HETATM   32  O4  UNL     1      41.103  -1.142   9.619  1.00  0.00    -0.576 OA
HETATM   33  O5  UNL     1      42.211   1.218   9.977  1.00  0.00    -0.576 OA
ENDBRANCH  18  30
ENDBRANCH   1  15
BRANCH  14  34
HETATM   34  N12 UNL     1      35.792   1.434  13.374  1.00  0.00    -0.323 NA
ATOM     35 2H12 UNL     1      36.297   1.119  14.203  1.00  0.00     0.174 HD
ATOM     36 1H12 UNL     1      35.773   0.616  12.765  1.00  0.00     0.174 HD
ENDBRANCH  14  34
BRANCH  13  37
HETATM   37  O6  UNL     1      35.207   4.432  12.698  1.00  0.00    -0.253 OA
ATOM     38  H6  UNL     1      35.212   4.874  11.857  1.00  0.00     0.248 HD
ENDBRANCH  13  37
BRANCH  11  39
HETATM   39  N8  UNL     1      36.143   5.967  14.885  1.00  0.00    -0.232 N 
ATOM     40  H82 UNL     1      36.264   6.871  15.342  1.00  0.00     0.174 HD
ATOM     41  H81 UNL     1      35.281   5.730  14.392  1.00  0.00     0.174 HD
ENDBRANCH  11  39
TORSDOF 9
ENDMDL
MODEL 5
REMARK VINA RESULT: -6.523202213      5.639      8.327
REMARK  9 active torsions:
REMARK  status: ('A' for Active; 'I' for Inactive)
REMARK       I    between atoms: C2_2  and  N1_4 
REMARK    1  A    between atoms: N1_4  and  C3_6 
REMARK    2  A    between atoms: C3_6  and  C4_7 
REMARK    3  A    between atoms: C4_7  and  O2_8 
REMARK    4  A    between atoms: C4_7  and  C5_10 
REMARK    5  A    between atoms: N2_12  and  S1_13 
REMARK    6  A    between atoms: C7_19  and  N4_20 
REMARK    7  A    between atoms: C10_30  and  N8_31 
REMARK    8  A    between atoms: N10_35  and  O6_36 
REMARK    9  A    between atoms: N11_38  and  N12_39 
ROOT
HETATM    1  N4  UNL     1      37.214   6.442  17.931  1.00  0.00    -0.045 N 
HETATM    2  C8  UNL     1      37.158   5.714  19.141  1.00  0.00     0.758 A 
HETATM    3  N5  UNL     1      37.099   4.383  19.425  1.00  0.00    -0.018 N 
ATOM      4  H5  UNL     1      37.086   3.722  18.648  1.00  0.00     0.203 HD
HETATM    5  C9  UNL     1      37.058   3.896  20.674  1.00  0.00     0.705 A 
HETATM    6  N6  UNL     1      37.015   2.659  20.996  1.00  0.00    -0.234 N 
ATOM      7  H61 UNL     1      36.984   2.288  21.946  1.00  0.00     0.174 HD
ATOM      8  H62 UNL     1      37.001   1.977  20.238  1.00  0.00     0.174 HD
HETATM    9  N7  UNL     1      37.078   4.811  21.690  1.00  0.00    -0.020 N 
ATOM     10  H7  UNL     1      37.048   4.491  22.659  1.00  0.00     0.203 HD
HETATM   11  C10 UNL     1      37.136   6.127  21.424  1.00  0.00     0.730 A 
HETATM   12  N9  UNL     1      37.177   6.590  20.149  1.00  0.00     0.133 N 
HETATM   13  N10 UNL     1      37.241   7.861  19.596  1.00  0.00    -0.040 N 
HETATM   14  N11 UNL     1      37.049   7.787  18.225  1.00  0.00     0.021 NA
ENDROOT
BRANCH   1  15
HETATM   15  C7  UNL     1      37.386   5.822  16.648  1.00  0.00     0.170 A 
HETATM   16  C5  UNL     1      38.572   5.462  16.081  1.00  0.00     0.038 A 
HETATM   17  C6  UNL     1      38.259   4.869  14.850  1.00  0.00     0.145 A 
HETATM   18  N2  UNL     1      36.916   4.896  14.724  1.00  0.00    -0.171 N 
HETATM   19  N3  UNL     1      36.423   5.463  15.798  1.00  0.00    -0.265 N 
ATOM     20  H3  UNL     1      35.427   5.611  15.964  1.00  0.00     0.190 HD
BRANCH  16  21
HETATM   21  C4  UNL     1      39.978   5.660  16.576  1.00  0.00     0.174 C 
BRANCH  21  22
HETATM   22  C3  UNL     1      40.318   4.685  17.659  1.00  0.00     0.159 C 
BRANCH  22  23
HETATM   23  N1  UNL     1      40.499   3.361  17.147  1.00  0.00    -0.359 N 
HETATM   24  C2  UNL     1      39.910   2.203  17.677  1.00  0.00     0.213 C 
HETATM   25  C1  UNL     1      40.152   0.836  17.101  1.00  0.00     0.117 C 
HETATM   26  O1  UNL     1      39.144   2.233  18.668  1.00  0.00    -0.274 OA
ATOM     27  H1  UNL     1      41.102   3.251  16.333  1.00  0.00     0.162 HD
ENDBRANCH  22  23
ENDBRANCH  21  22
BRANCH  21  28
HETATM   28  O2  UNL     1      40.806   5.390  15.477  1.00  0.00    -0.389 OA
ATOM     29  H2  UNL     1      40.769   6.139  14.893  1.00  0.00     0.210 HD
ENDBRANCH  21  28
ENDBRANCH  16  21
BRANCH  18  30
HETATM   30  S1  UNL     1      36.079   4.267  13.353  1.00  0.00     0.230 S 
HETATM   31  O3  UNL     1      34.935   5.134  12.967  1.00  0.00    -0.576 OA
HETATM   32  O4  UNL     1      37.093   4.146  12.249  1.00  0.00    -0.576 OA
HETATM   33  O5  UNL     1      35.511   2.736  13.809  1.00  0.00    -0.576 OA
ENDBRANCH  18  30
ENDBRANCH   1  15
BRANCH  14  34
HETATM   34  N12 UNL     1      35.681   8.066  17.941  1.00  0.00    -0.323 NA
ATOM     35 2H12 UNL     1      35.334   8.733  18.631  1.00  0.00     0.174 HD
ATOM     36 1H12 UNL     1      35.181   7.202  18.153  1.00  0.00     0.174 HD
ENDBRANCH  14  34
BRANCH  13  37
HETATM   37  O6  UNL     1      37.458   8.978  20.348  1.00  0.00    -0.253 OA
ATOM     38  H6  UNL     1      38.318   9.214  20.676  1.00  0.00     0.248 HD
ENDBRANCH  13  37
BRANCH  11  39
HETATM   39  N8  UNL     1      37.165   7.022  22.374  1.00  0.00    -0.232 N 
ATOM     40  H82 UNL     1      36.264   7.335  22.736  1.00  0.00     0.174 HD
ATOM     41  H81 UNL     1      38.043   7.396  22.736  1.00  0.00     0.174 HD
ENDBRANCH  11  39
TORSDOF 9
ENDMDL
