MODEL 1
REMARK VINA RESULT: -6.581482460      0.000      0.000
REMARK  12 active torsions:
REMARK  status: ('A' for Active; 'I' for Inactive)
REMARK    1  A    between atoms: N1_2  and  O1_3 
REMARK    2  A    between atoms: N1_2  and  N2_5 
REMARK    3  A    between atoms: N3_7  and  N4_9 
REMARK    4  A    between atoms: N4_9  and  O2_10 
REMARK       I    between atoms: N4_9  and  C2_12 
REMARK    5  A    between atoms: N6_14  and  N7_16 
REMARK       I    between atoms: N7_16  and  C3_18 
REMARK    6  A    between atoms: C3_18  and  C4_20 
REMARK    7  A    between atoms: N8_22  and  C6_23 
REMARK    8  A    between atoms: C7_26  and  C8_27 
REMARK    9  A    between atoms: C8_27  and  N10_28 
REMARK   10  A    between atoms: C8_27  and  N11_32 
REMARK   11  A    between atoms: C9_36  and  O4_37 
REMARK   12  A    between atoms: C10_39  and  N12_40 
ROOT
HETATM    1  C4  UNL     1      37.663   5.314  13.863  1.00  0.00     0.133 A 
HETATM    2  C5  UNL     1      38.769   5.650  13.108  1.00  0.00     0.152 A 
HETATM    3  N8  UNL     1      38.617   5.140  11.878  1.00  0.00    -0.230 N 
HETATM    4  N13 UNL     1      37.462   4.499  11.832  1.00  0.00    -0.013 NA
HETATM    5  N14 UNL     1      36.882   4.601  13.033  1.00  0.00    -0.277 N 
ATOM      6  H14 UNL     1      35.978   4.198  13.282  1.00  0.00     0.184 HD
ENDROOT
BRANCH   3   7
HETATM    7  C6  UNL     1      39.485   5.214  10.736  1.00  0.00     0.162 A 
HETATM    8  N9  UNL     1      39.344   5.950   9.633  1.00  0.00    -0.337 N 
HETATM    9  C7  UNL     1      40.349   5.777   8.762  1.00  0.00     0.104 A 
ATOM     10  H9  UNL     1      38.557   6.578   9.469  1.00  0.00     0.167 HD
HETATM   11  C9  UNL     1      41.196   4.862   9.351  1.00  0.00     0.129 A 
HETATM   12  C10 UNL     1      40.669   4.507  10.575  1.00  0.00     0.183 A 
BRANCH   9  13
HETATM   13  C8  UNL     1      40.536   6.429   7.422  1.00  0.00     0.430 C 
BRANCH  13  14
HETATM   14  N10 UNL     1      40.548   5.386   6.397  1.00  0.00    -0.045 N 
ATOM     15 3H10 UNL     1      41.367   5.441   5.792  1.00  0.00     0.277 HD
ATOM     16 2H10 UNL     1      40.723   4.459   6.783  1.00  0.00     0.277 HD
ATOM     17 1H10 UNL     1      39.672   5.434   5.876  1.00  0.00     0.277 HD
ENDBRANCH  13  14
BRANCH  13  18
HETATM   18  N11 UNL     1      41.819   7.083   7.401  1.00  0.00    -0.045 N 
ATOM     19 3H11 UNL     1      41.755   8.059   7.109  1.00  0.00     0.277 HD
ATOM     20 2H11 UNL     1      42.193   7.240   8.337  1.00  0.00     0.277 HD
ATOM     21 1H11 UNL     1      42.454   6.542   6.813  1.00  0.00     0.277 HD
ENDBRANCH  13  18
ENDBRANCH   9  13
BRANCH  11  22
HETATM   22  O4  UNL     1      42.371   4.404   8.771  1.00  0.00    -0.356 OA
ATOM     23  H4  UNL     1      42.569   3.487   8.623  1.00  0.00     0.218 HD
ENDBRANCH  11  22
BRANCH  12  24
HETATM   24  N12 UNL     1      41.187   3.607  11.519  1.00  0.00    -0.109 N 
HETATM   25  O5  UNL     1      42.329   3.805  11.972  1.00  0.00    -0.532 OA
HETATM   26  O6  UNL     1      40.490   2.530  11.957  1.00  0.00    -0.532 OA
ENDBRANCH  12  24
ENDBRANCH   3   7
BRANCH   1  27
HETATM   27  C3  UNL     1      37.415   5.662  15.252  1.00  0.00     0.289 C 
HETATM   28  N7  UNL     1      36.593   6.765  15.601  1.00  0.00    -0.262 N 
ATOM     29  H7  UNL     1      36.165   7.328  14.866  1.00  0.00     0.190 HD
HETATM   30  O3  UNL     1      37.950   4.959  16.173  1.00  0.00    -0.264 OA
BRANCH  28  31
HETATM   31  N6  UNL     1      36.366   7.083  16.919  1.00  0.00    -0.267 N 
HETATM   32  C2  UNL     1      36.630   8.218  17.425  1.00  0.00     0.253 C 
HETATM   33  N4  UNL     1      36.346   8.417  18.803  1.00  0.00    -0.114 N 
HETATM   34  N5  UNL     1      37.188   9.258  16.641  1.00  0.00    -0.058 NA
ATOM     35  H6  UNL     1      35.964   6.367  17.524  1.00  0.00     0.190 HD
BRANCH  33  36
HETATM   36  N3  UNL     1      35.930   7.362  19.628  1.00  0.00    -0.197 N 
HETATM   37  N2  UNL     1      36.328   7.316  20.832  1.00  0.00    -0.205 N 
ATOM     38  H2  UNL     1      36.946   8.053  21.173  1.00  0.00     0.212 HD
ATOM     39  H3  UNL     1      35.311   6.638  19.264  1.00  0.00     0.212 HD
BRANCH  37  40
HETATM   40  N1  UNL     1      35.952   6.296  21.708  1.00  0.00    -0.191 N 
HETATM   41  C1  UNL     1      35.918   4.945  21.220  1.00  0.00     0.209 C 
BRANCH  40  42
HETATM   42  O1  UNL     1      35.638   6.625  22.967  1.00  0.00    -0.271 OA
ATOM     43  H1  UNL     1      36.245   6.534  23.691  1.00  0.00     0.246 HD
ENDBRANCH  40  42
ENDBRANCH  37  40
ENDBRANCH  33  36
BRANCH  33  44
HETATM   44  O2  UNL     1      36.489   9.668  19.306  1.00  0.00    -0.264 OA
ATOM     45  H2  UNL     1      35.778  10.294  19.247  1.00  0.00     0.247 HD
ENDBRANCH  33  44
ENDBRANCH  28  31
ENDBRANCH   1  27
TORSDOF 12
ENDMDL
MODEL 2
REMARK VINA RESULT: -6.256670108      4.735      7.594
REMARK  12 active torsions:
REMARK  status: ('A' for Active; 'I' for Inactive)
REMARK    1  A    between atoms: N1_2  and  O1_3 
REMARK    2  A    between atoms: N1_2  and  N2_5 
REMARK    3  A    between atoms: N3_7  and  N4_9 
REMARK    4  A    between atoms: N4_9  and  O2_10 
REMARK       I    between atoms: N4_9  and  C2_12 
REMARK    5  A    between atoms: N6_14  and  N7_16 
REMARK       I    between atoms: N7_16  and  C3_18 
REMARK    6  A    between atoms: C3_18  and  C4_20 
REMARK    7  A    between atoms: N8_22  and  C6_23 
REMARK    8  A    between atoms: C7_26  and  C8_27 
REMARK    9  A    between atoms: C8_27  and  N10_28 
REMARK   10  A    between atoms: C8_27  and  N11_32 
REMARK   11  A    between atoms: C9_36  and  O4_37 
REMARK   12  A    between atoms: C10_39  and  N12_40 
ROOT
HETATM    1  C4  UNL     1      36.865   4.212  13.029  1.00  0.00     0.133 A 
HETATM    2  C5  UNL     1      37.980   4.719  12.393  1.00  0.00     0.152 A 
HETATM    3  N8  UNL     1      37.913   6.057  12.417  1.00  0.00    -0.230 N 
HETATM    4  N13 UNL     1      36.803   6.409  13.043  1.00  0.00    -0.013 NA
HETATM    5  N14 UNL     1      36.164   5.293  13.414  1.00  0.00    -0.277 N 
ATOM      6  H14 UNL     1      35.276   5.267  13.916  1.00  0.00     0.184 HD
ENDROOT
BRANCH   3   7
HETATM    7  C6  UNL     1      38.826   7.035  11.894  1.00  0.00     0.162 A 
HETATM    8  N9  UNL     1      39.043   7.370  10.621  1.00  0.00    -0.337 N 
HETATM    9  C7  UNL     1      39.969   8.331  10.489  1.00  0.00     0.104 A 
ATOM     10  H9  UNL     1      38.557   6.942   9.834  1.00  0.00     0.167 HD
HETATM   11  C9  UNL     1      40.375   8.634  11.772  1.00  0.00     0.129 A 
HETATM   12  C10 UNL     1      39.672   7.835  12.650  1.00  0.00     0.183 A 
BRANCH   9  13
HETATM   13  C8  UNL     1      40.474   8.962   9.223  1.00  0.00     0.430 C 
BRANCH  13  14
HETATM   14  N10 UNL     1      39.846   8.288   8.086  1.00  0.00    -0.045 N 
ATOM     15 3H10 UNL     1      39.480   7.368   8.331  1.00  0.00     0.277 HD
ATOM     16 2H10 UNL     1      38.964   8.720   7.813  1.00  0.00     0.277 HD
ATOM     17 1H10 UNL     1      40.519   8.251   7.320  1.00  0.00     0.277 HD
ENDBRANCH  13  14
BRANCH  13  18
HETATM   18  N11 UNL     1      41.895   8.745   9.133  1.00  0.00    -0.045 N 
ATOM     19 3H11 UNL     1      42.136   7.755   9.088  1.00  0.00     0.277 HD
ATOM     20 2H11 UNL     1      42.276   9.026   8.229  1.00  0.00     0.277 HD
ATOM     21 1H11 UNL     1      42.350   9.222   9.912  1.00  0.00     0.277 HD
ENDBRANCH  13  18
ENDBRANCH   9  13
BRANCH  11  22
HETATM   22  O4  UNL     1      41.333   9.589  12.079  1.00  0.00    -0.356 OA
ATOM     23  H4  UNL     1      42.059   9.817  11.510  1.00  0.00     0.218 HD
ENDBRANCH  11  22
BRANCH  12  24
HETATM   24  N12 UNL     1      39.755   7.797  14.050  1.00  0.00    -0.109 N 
HETATM   25  O5  UNL     1      38.994   8.520  14.717  1.00  0.00    -0.532 OA
HETATM   26  O6  UNL     1      40.636   6.999  14.705  1.00  0.00    -0.532 OA
ENDBRANCH  12  24
ENDBRANCH   3   7
BRANCH   1  27
HETATM   27  C3  UNL     1      36.535   2.811  13.228  1.00  0.00     0.289 C 
HETATM   28  N7  UNL     1      37.535   1.804  13.192  1.00  0.00    -0.262 N 
ATOM     29  H7  UNL     1      38.506   2.064  13.022  1.00  0.00     0.190 HD
HETATM   30  O3  UNL     1      35.320   2.484  13.440  1.00  0.00    -0.264 OA
BRANCH  28  31
HETATM   31  N6  UNL     1      37.209   0.483  13.383  1.00  0.00    -0.267 N 
HETATM   32  C2  UNL     1      37.974  -0.357  13.952  1.00  0.00     0.253 C 
HETATM   33  N4  UNL     1      37.515  -1.695  14.086  1.00  0.00    -0.114 N 
HETATM   34  N5  UNL     1      39.246   0.027  14.442  1.00  0.00    -0.058 NA
ATOM     35  H6  UNL     1      36.302   0.158  13.048  1.00  0.00     0.190 HD
BRANCH  33  36
HETATM   36  N3  UNL     1      36.325  -2.129  13.484  1.00  0.00    -0.197 N 
HETATM   37  N2  UNL     1      36.380  -2.862  12.449  1.00  0.00    -0.205 N 
ATOM     38  H2  UNL     1      37.294  -3.120  12.078  1.00  0.00     0.212 HD
ATOM     39  H3  UNL     1      35.423  -1.857  13.874  1.00  0.00     0.212 HD
BRANCH  37  40
HETATM   40  N1  UNL     1      35.235  -3.329  11.801  1.00  0.00    -0.191 N 
HETATM   41  C1  UNL     1      34.612  -4.531  12.281  1.00  0.00     0.209 C 
BRANCH  40  42
HETATM   42  O1  UNL     1      34.769  -2.633  10.757  1.00  0.00    -0.271 OA
ATOM     43  H1  UNL     1      33.843  -2.546  10.566  1.00  0.00     0.246 HD
ENDBRANCH  40  42
ENDBRANCH  37  40
ENDBRANCH  33  36
BRANCH  33  44
HETATM   44  O2  UNL     1      38.265  -2.552  14.821  1.00  0.00    -0.264 OA
ATOM     45  H2  UNL     1      37.933  -2.903  15.639  1.00  0.00     0.247 HD
ENDBRANCH  33  44
ENDBRANCH  28  31
ENDBRANCH   1  27
TORSDOF 12
ENDMDL
MODEL 3
REMARK VINA RESULT: -6.082907640      3.573      5.298
REMARK  12 active torsions:
REMARK  status: ('A' for Active; 'I' for Inactive)
REMARK    1  A    between atoms: N1_2  and  O1_3 
REMARK    2  A    between atoms: N1_2  and  N2_5 
REMARK    3  A    between atoms: N3_7  and  N4_9 
REMARK    4  A    between atoms: N4_9  and  O2_10 
REMARK       I    between atoms: N4_9  and  C2_12 
REMARK    5  A    between atoms: N6_14  and  N7_16 
REMARK       I    between atoms: N7_16  and  C3_18 
REMARK    6  A    between atoms: C3_18  and  C4_20 
REMARK    7  A    between atoms: N8_22  and  C6_23 
REMARK    8  A    between atoms: C7_26  and  C8_27 
REMARK    9  A    between atoms: C8_27  and  N10_28 
REMARK   10  A    between atoms: C8_27  and  N11_32 
REMARK   11  A    between atoms: C9_36  and  O4_37 
REMARK   12  A    between atoms: C10_39  and  N12_40 
ROOT
HETATM    1  C4  UNL     1      36.561   5.767  14.409  1.00  0.00     0.133 A 
HETATM    2  C5  UNL     1      37.167   4.527  14.363  1.00  0.00     0.152 A 
HETATM    3  N8  UNL     1      36.566   3.794  13.415  1.00  0.00    -0.230 N 
HETATM    4  N13 UNL     1      35.610   4.523  12.865  1.00  0.00    -0.013 NA
HETATM    5  N14 UNL     1      35.604   5.719  13.465  1.00  0.00    -0.277 N 
ATOM      6  H14 UNL     1      34.967   6.483  13.240  1.00  0.00     0.184 HD
ENDROOT
BRANCH   3   7
HETATM    7  C6  UNL     1      36.829   2.448  12.986  1.00  0.00     0.162 A 
HETATM    8  N9  UNL     1      35.973   1.433  12.865  1.00  0.00    -0.337 N 
HETATM    9  C7  UNL     1      36.561   0.308  12.432  1.00  0.00     0.104 A 
ATOM     10  H9  UNL     1      34.979   1.505  13.078  1.00  0.00     0.167 HD
HETATM   11  C9  UNL     1      37.892   0.627  12.264  1.00  0.00     0.129 A 
HETATM   12  C10 UNL     1      38.069   1.952  12.605  1.00  0.00     0.183 A 
BRANCH   9  13
HETATM   13  C8  UNL     1      35.926  -1.029  12.176  1.00  0.00     0.430 C 
BRANCH  13  14
HETATM   14  N10 UNL     1      36.359  -1.955  13.223  1.00  0.00    -0.045 N 
ATOM     15 3H10 UNL     1      35.617  -2.166  13.890  1.00  0.00     0.277 HD
ATOM     16 2H10 UNL     1      36.505  -2.902  12.873  1.00  0.00     0.277 HD
ATOM     17 1H10 UNL     1      37.191  -1.570  13.671  1.00  0.00     0.277 HD
ENDBRANCH  13  14
BRANCH  13  18
HETATM   18  N11 UNL     1      36.405  -1.535  10.915  1.00  0.00    -0.045 N 
ATOM     19 3H11 UNL     1      36.664  -0.789  10.270  1.00  0.00     0.277 HD
ATOM     20 2H11 UNL     1      37.320  -1.978  10.995  1.00  0.00     0.277 HD
ATOM     21 1H11 UNL     1      35.700  -2.162  10.525  1.00  0.00     0.277 HD
ENDBRANCH  13  18
ENDBRANCH   9  13
BRANCH  11  22
HETATM   22  O4  UNL     1      38.857  -0.269  11.824  1.00  0.00    -0.356 OA
ATOM     23  H4  UNL     1      39.314  -0.194  10.995  1.00  0.00     0.218 HD
ENDBRANCH  11  22
BRANCH  12  24
HETATM   24  N12 UNL     1      39.253   2.705  12.590  1.00  0.00    -0.109 N 
HETATM   25  O5  UNL     1      40.199   2.349  13.314  1.00  0.00    -0.532 OA
HETATM   26  O6  UNL     1      39.404   3.807  11.814  1.00  0.00    -0.532 OA
ENDBRANCH  12  24
ENDBRANCH   3   7
BRANCH   1  27
HETATM   27  C3  UNL     1      36.898   6.871  15.291  1.00  0.00     0.289 C 
HETATM   28  N7  UNL     1      36.277   7.018  16.560  1.00  0.00    -0.262 N 
ATOM     29  H7  UNL     1      35.580   6.338  16.862  1.00  0.00     0.190 HD
HETATM   30  O3  UNL     1      37.770   7.723  14.914  1.00  0.00    -0.264 OA
BRANCH  28  31
HETATM   31  N6  UNL     1      36.605   8.067  17.385  1.00  0.00    -0.267 N 
HETATM   32  C2  UNL     1      36.765   7.953  18.640  1.00  0.00     0.253 C 
HETATM   33  N4  UNL     1      37.104   9.118  19.379  1.00  0.00    -0.114 N 
HETATM   34  N5  UNL     1      36.614   6.701  19.286  1.00  0.00    -0.058 NA
ATOM     35  H6  UNL     1      36.726   8.989  16.966  1.00  0.00     0.190 HD
BRANCH  33  36
HETATM   36  N3  UNL     1      37.118  10.388  18.784  1.00  0.00    -0.197 N 
HETATM   37  N2  UNL     1      36.225  11.234  19.096  1.00  0.00    -0.205 N 
ATOM     38  H2  UNL     1      35.514  10.969  19.777  1.00  0.00     0.212 HD
ATOM     39  H3  UNL     1      37.841  10.630  18.106  1.00  0.00     0.212 HD
BRANCH  37  40
HETATM   40  N1  UNL     1      36.181  12.515  18.544  1.00  0.00    -0.191 N 
HETATM   41  C1  UNL     1      37.002  12.803  17.401  1.00  0.00     0.209 C 
BRANCH  40  42
HETATM   42  O1  UNL     1      35.372  13.421  19.106  1.00  0.00    -0.271 OA
ATOM     43  H1  UNL     1      35.577  13.861  19.922  1.00  0.00     0.246 HD
ENDBRANCH  40  42
ENDBRANCH  37  40
ENDBRANCH  33  36
BRANCH  33  44
HETATM   44  O2  UNL     1      37.418   8.969  20.689  1.00  0.00    -0.264 OA
ATOM     45  H2  UNL     1      38.258   8.606  20.944  1.00  0.00     0.247 HD
ENDBRANCH  33  44
ENDBRANCH  28  31
ENDBRANCH   1  27
TORSDOF 12
ENDMDL
MODEL 4
REMARK VINA RESULT: -6.027534386      1.866      2.269
REMARK  12 active torsions:
REMARK  status: ('A' for Active; 'I' for Inactive)
REMARK    1  A    between atoms: N1_2  and  O1_3 
REMARK    2  A    between atoms: N1_2  and  N2_5 
REMARK    3  A    between atoms: N3_7  and  N4_9 
REMARK    4  A    between atoms: N4_9  and  O2_10 
REMARK       I    between atoms: N4_9  and  C2_12 
REMARK    5  A    between atoms: N6_14  and  N7_16 
REMARK       I    between atoms: N7_16  and  C3_18 
REMARK    6  A    between atoms: C3_18  and  C4_20 
REMARK    7  A    between atoms: N8_22  and  C6_23 
REMARK    8  A    between atoms: C7_26  and  C8_27 
REMARK    9  A    between atoms: C8_27  and  N10_28 
REMARK   10  A    between atoms: C8_27  and  N11_32 
REMARK   11  A    between atoms: C9_36  and  O4_37 
REMARK   12  A    between atoms: C10_39  and  N12_40 
ROOT
HETATM    1  C4  UNL     1      37.518   6.070  15.048  1.00  0.00     0.133 A 
HETATM    2  C5  UNL     1      38.609   6.190  14.211  1.00  0.00     0.152 A 
HETATM    3  N8  UNL     1      38.170   6.444  12.971  1.00  0.00    -0.230 N 
HETATM    4  N13 UNL     1      36.849   6.489  12.996  1.00  0.00    -0.013 NA
HETATM    5  N14 UNL     1      36.450   6.261  14.253  1.00  0.00    -0.277 N 
ATOM      6  H14 UNL     1      35.478   6.237  14.563  1.00  0.00     0.184 HD
ENDROOT
BRANCH   3   7
HETATM    7  C6  UNL     1      38.909   6.652  11.756  1.00  0.00     0.162 A 
HETATM    8  N9  UNL     1      39.011   7.763  11.027  1.00  0.00    -0.337 N 
HETATM    9  C7  UNL     1      39.790   7.604   9.946  1.00  0.00     0.104 A 
ATOM     10  H9  UNL     1      38.548   8.640  11.265  1.00  0.00     0.167 HD
HETATM   11  C9  UNL     1      40.217   6.293   9.987  1.00  0.00     0.129 A 
HETATM   12  C10 UNL     1      39.675   5.694  11.106  1.00  0.00     0.183 A 
BRANCH   9  13
HETATM   13  C8  UNL     1      40.139   8.622   8.899  1.00  0.00     0.430 C 
BRANCH  13  14
HETATM   14  N10 UNL     1      39.714   8.109   7.595  1.00  0.00    -0.045 N 
ATOM     15 3H10 UNL     1      39.609   7.095   7.589  1.00  0.00     0.277 HD
ATOM     16 2H10 UNL     1      38.748   8.351   7.375  1.00  0.00     0.277 HD
ATOM     17 1H10 UNL     1      40.372   8.439   6.888  1.00  0.00     0.277 HD
ENDBRANCH  13  14
BRANCH  13  18
HETATM   18  N11 UNL     1      41.570   8.780   8.865  1.00  0.00    -0.045 N 
ATOM     19 3H11 UNL     1      41.855   9.758   8.911  1.00  0.00     0.277 HD
ATOM     20 2H11 UNL     1      42.018   8.461   9.724  1.00  0.00     0.277 HD
ATOM     21 1H11 UNL     1      41.933   8.307   8.037  1.00  0.00     0.277 HD
ENDBRANCH  13  18
ENDBRANCH   9  13
BRANCH  11  22
HETATM   22  O4  UNL     1      41.050   5.717   9.039  1.00  0.00    -0.356 OA
ATOM     23  H4  UNL     1      41.991   5.633   9.138  1.00  0.00     0.218 HD
ENDBRANCH  11  22
BRANCH  12  24
HETATM   24  N12 UNL     1      39.835   4.373  11.550  1.00  0.00    -0.109 N 
HETATM   25  O5  UNL     1      40.980   3.887  11.587  1.00  0.00    -0.532 OA
HETATM   26  O6  UNL     1      38.789   3.605  11.941  1.00  0.00    -0.532 OA
ENDBRANCH  12  24
ENDBRANCH   3   7
BRANCH   1  27
HETATM   27  C3  UNL     1      37.537   5.795  16.474  1.00  0.00     0.289 C 
HETATM   28  N7  UNL     1      36.948   6.689  17.407  1.00  0.00    -0.262 N 
ATOM     29  H7  UNL     1      36.502   7.544  17.074  1.00  0.00     0.190 HD
HETATM   30  O3  UNL     1      38.094   4.726  16.893  1.00  0.00    -0.264 OA
BRANCH  28  31
HETATM   31  N6  UNL     1      36.973   6.416  18.754  1.00  0.00    -0.267 N 
HETATM   32  C2  UNL     1      36.939   7.311  19.655  1.00  0.00     0.253 C 
HETATM   33  N4  UNL     1      36.971   6.894  21.012  1.00  0.00    -0.114 N 
HETATM   34  N5  UNL     1      36.870   8.686  19.319  1.00  0.00    -0.058 NA
ATOM     35  H6  UNL     1      37.022   5.440  19.046  1.00  0.00     0.190 HD
BRANCH  33  36
HETATM   36  N3  UNL     1      37.183   5.554  21.365  1.00  0.00    -0.197 N 
HETATM   37  N2  UNL     1      36.186   4.787  21.536  1.00  0.00    -0.205 N 
ATOM     38  H2  UNL     1      35.248   5.166  21.411  1.00  0.00     0.212 HD
ATOM     39  H3  UNL     1      38.131   5.197  21.484  1.00  0.00     0.212 HD
BRANCH  37  40
HETATM   40  N1  UNL     1      36.326   3.443  21.887  1.00  0.00    -0.191 N 
HETATM   41  C1  UNL     1      36.898   2.535  20.932  1.00  0.00     0.209 C 
BRANCH  40  42
HETATM   42  O1  UNL     1      35.918   3.060  23.103  1.00  0.00    -0.271 OA
ATOM     43  H1  UNL     1      35.755   3.672  23.810  1.00  0.00     0.246 HD
ENDBRANCH  40  42
ENDBRANCH  37  40
ENDBRANCH  33  36
BRANCH  33  44
HETATM   44  O2  UNL     1      36.786   7.836  21.970  1.00  0.00    -0.264 OA
ATOM     45  H2  UNL     1      36.114   8.499  21.869  1.00  0.00     0.247 HD
ENDBRANCH  33  44
ENDBRANCH  28  31
ENDBRANCH   1  27
TORSDOF 12
ENDMDL
MODEL 5
REMARK VINA RESULT: -6.027258431      4.924      9.394
REMARK  12 active torsions:
REMARK  status: ('A' for Active; 'I' for Inactive)
REMARK    1  A    between atoms: N1_2  and  O1_3 
REMARK    2  A    between atoms: N1_2  and  N2_5 
REMARK    3  A    between atoms: N3_7  and  N4_9 
REMARK    4  A    between atoms: N4_9  and  O2_10 
REMARK       I    between atoms: N4_9  and  C2_12 
REMARK    5  A    between atoms: N6_14  and  N7_16 
REMARK       I    between atoms: N7_16  and  C3_18 
REMARK    6  A    between atoms: C3_18  and  C4_20 
REMARK    7  A    between atoms: N8_22  and  C6_23 
REMARK    8  A    between atoms: C7_26  and  C8_27 
REMARK    9  A    between atoms: C8_27  and  N10_28 
REMARK   10  A    between atoms: C8_27  and  N11_32 
REMARK   11  A    between atoms: C9_36  and  O4_37 
REMARK   12  A    between atoms: C10_39  and  N12_40 
ROOT
HETATM    1  C4  UNL     1      39.125   6.714  11.966  1.00  0.00     0.133 A 
HETATM    2  C5  UNL     1      39.122   5.367  11.661  1.00  0.00     0.152 A 
HETATM    3  N8  UNL     1      38.817   4.679  12.769  1.00  0.00    -0.230 N 
HETATM    4  N13 UNL     1      38.627   5.538  13.756  1.00  0.00    -0.013 NA
HETATM    5  N14 UNL     1      38.814   6.772  13.273  1.00  0.00    -0.277 N 
ATOM      6  H14 UNL     1      38.732   7.632  13.817  1.00  0.00     0.184 HD
ENDROOT
BRANCH   3   7
HETATM    7  C6  UNL     1      38.688   3.262  12.968  1.00  0.00     0.162 A 
HETATM    8  N9  UNL     1      39.651   2.361  13.165  1.00  0.00    -0.337 N 
HETATM    9  C7  UNL     1      39.173   1.117  13.318  1.00  0.00     0.104 A 
ATOM     10  H9  UNL     1      40.643   2.592  13.197  1.00  0.00     0.167 HD
HETATM   11  C9  UNL     1      37.803   1.231  13.210  1.00  0.00     0.129 A 
HETATM   12  C10 UNL     1      37.492   2.557  12.993  1.00  0.00     0.183 A 
BRANCH   9  13
HETATM   13  C8  UNL     1      39.945  -0.149  13.557  1.00  0.00     0.430 C 
BRANCH  13  14
HETATM   14  N10 UNL     1      39.645  -1.086  12.474  1.00  0.00    -0.045 N 
ATOM     15 3H10 UNL     1      40.249  -0.954  11.664  1.00  0.00     0.277 HD
ATOM     16 2H10 UNL     1      39.919  -2.043  12.697  1.00  0.00     0.277 HD
ATOM     17 1H10 UNL     1      38.654  -1.006  12.243  1.00  0.00     0.277 HD
ENDBRANCH  13  14
BRANCH  13  18
HETATM   18  N11 UNL     1      39.494  -0.741  14.790  1.00  0.00    -0.045 N 
ATOM     19 3H11 UNL     1      40.025  -0.413  15.597  1.00  0.00     0.277 HD
ATOM     20 2H11 UNL     1      38.577  -0.397  15.075  1.00  0.00     0.277 HD
ATOM     21 1H11 UNL     1      39.518  -1.757  14.694  1.00  0.00     0.277 HD
ENDBRANCH  13  18
ENDBRANCH   9  13
BRANCH  11  22
HETATM   22  O4  UNL     1      36.924   0.161  13.310  1.00  0.00    -0.356 OA
ATOM     23  H4  UNL     1      37.077  -0.605  13.849  1.00  0.00     0.218 HD
ENDBRANCH  11  22
BRANCH  12  24
HETATM   24  N12 UNL     1      36.227   3.139  12.822  1.00  0.00    -0.109 N 
HETATM   25  O5  UNL     1      35.315   2.834  13.612  1.00  0.00    -0.532 OA
HETATM   26  O6  UNL     1      35.960   4.022  11.829  1.00  0.00    -0.532 OA
ENDBRANCH  12  24
ENDBRANCH   3   7
BRANCH   1  27
HETATM   27  C3  UNL     1      39.405   7.814  11.060  1.00  0.00     0.289 C 
HETATM   28  N7  UNL     1      39.534   7.605   9.662  1.00  0.00    -0.262 N 
ATOM     29  H7  UNL     1      39.429   6.665   9.281  1.00  0.00     0.190 HD
HETATM   30  O3  UNL     1      39.537   8.991  11.536  1.00  0.00    -0.264 OA
BRANCH  28  31
HETATM   31  N6  UNL     1      39.799   8.655   8.816  1.00  0.00    -0.267 N 
HETATM   32  C2  UNL     1      40.539   8.562   7.787  1.00  0.00     0.253 C 
HETATM   33  N4  UNL     1      40.732   9.726   6.996  1.00  0.00    -0.114 N 
HETATM   34  N5  UNL     1      41.153   7.334   7.436  1.00  0.00    -0.058 NA
ATOM     35  H6  UNL     1      39.379   9.561   9.027  1.00  0.00     0.190 HD
BRANCH  33  36
HETATM   36  N3  UNL     1      40.253  10.980   7.402  1.00  0.00    -0.197 N 
HETATM   37  N2  UNL     1      39.411  11.592   6.676  1.00  0.00    -0.205 N 
ATOM     38  H2  UNL     1      39.100  11.154   5.809  1.00  0.00     0.212 HD
ATOM     39  H3  UNL     1      40.579  11.397   8.274  1.00  0.00     0.212 HD
BRANCH  37  40
HETATM   40  N1  UNL     1      38.893  12.841   7.021  1.00  0.00    -0.191 N 
HETATM   41  C1  UNL     1      39.389  14.006   6.341  1.00  0.00     0.209 C 
BRANCH  40  42
HETATM   42  O1  UNL     1      37.954  12.899   7.973  1.00  0.00    -0.271 OA
ATOM     43  H1  UNL     1      37.260  13.547   7.976  1.00  0.00     0.246 HD
ENDBRANCH  40  42
ENDBRANCH  37  40
ENDBRANCH  33  36
BRANCH  33  44
HETATM   44  O2  UNL     1      41.398   9.592   5.822  1.00  0.00    -0.264 OA
ATOM     45  H2  UNL     1      42.175  10.109   5.648  1.00  0.00     0.247 HD
ENDBRANCH  33  44
ENDBRANCH  28  31
ENDBRANCH   1  27
TORSDOF 12
ENDMDL
