MODEL 1
REMARK VINA RESULT: -8.134556348      0.000      0.000
REMARK  14 active torsions:
REMARK  status: ('A' for Active; 'I' for Inactive)
REMARK    1  A    between atoms: O1_2  and  C2_3 
REMARK    2  A    between atoms: C3_7  and  C4_8 
REMARK       I    between atoms: C4_8  and  N2_10 
REMARK    3  A    between atoms: N2_10  and  C5_12 
REMARK    4  A    between atoms: C8_18  and  S1_19 
REMARK    5  A    between atoms: C9_23  and  C10_24 
REMARK    6  A    between atoms: C15_29  and  N4_30 
REMARK    7  A    between atoms: N4_30  and  C16_32 
REMARK    8  A    between atoms: C16_32  and  C17_33 
REMARK    9  A    between atoms: C16_32  and  C21_41 
REMARK   10  A    between atoms: C17_33  and  C18_34 
REMARK   11  A    between atoms: C18_34  and  C19_35 
REMARK   12  A    between atoms: C19_35  and  C20_36 
REMARK   13  A    between atoms: C20_36  and  N5_37 
REMARK   14  A    between atoms: C21_41  and  C22_42 
ROOT
HETATM    1  C2  UNL     1     188.892 124.691  32.154  1.00  0.00     0.192 A 
HETATM    2  N1  UNL     1     189.201 125.989  31.819  1.00  0.00    -0.236 N 
ATOM      3  H1  UNL     1     189.878 126.576  32.307  1.00  0.00     0.197 HD
HETATM    4  O2  UNL     1     188.511 126.349  30.801  1.00  0.00    -0.228 OA
HETATM    5  C3  UNL     1     187.713 125.362  30.384  1.00  0.00     0.197 A 
HETATM    6  C15 UNL     1     187.946 124.318  31.232  1.00  0.00     0.123 A 
ENDROOT
BRANCH   5   7
HETATM    7  C4  UNL     1     186.838 125.546  29.225  1.00  0.00     0.284 C 
HETATM    8  O3  UNL     1     185.980 124.660  29.015  1.00  0.00    -0.265 OA
HETATM    9  N2  UNL     1     186.980 126.724  28.391  1.00  0.00    -0.319 N 
ATOM     10  H2  UNL     1     187.703 127.405  28.625  1.00  0.00     0.169 HD
BRANCH   9  11
HETATM   11  C5  UNL     1     186.160 126.966  27.275  1.00  0.00     0.059 A 
HETATM   12  C6  UNL     1     186.391 126.425  26.051  1.00  0.00     0.121 A 
HETATM   13  N3  UNL     1     185.638 126.639  24.977  1.00  0.00    -0.330 N 
HETATM   14  C7  UNL     1     184.587 127.445  25.130  1.00  0.00     0.270 A 
ATOM     15  H3  UNL     1     185.854 126.207  24.078  1.00  0.00     0.168 HD
HETATM   16  O4  UNL     1     183.867 127.652  24.109  1.00  0.00    -0.266 OA
HETATM   17  C8  UNL     1     184.226 128.078  26.346  1.00  0.00     0.157 A 
HETATM   18  C9  UNL     1     185.011 127.847  27.437  1.00  0.00     0.004 A 
BRANCH  17  19
HETATM   19  S1  UNL     1     182.885 129.130  26.308  1.00  0.00     0.143 S 
HETATM   20  O5  UNL     1     181.726 128.850  27.204  1.00  0.00    -0.591 OA
HETATM   21  O6  UNL     1     182.180 128.861  24.917  1.00  0.00    -0.591 OA
HETATM   22  O7  UNL     1     183.242 130.767  26.101  1.00  0.00    -0.591 OA
ENDBRANCH  17  19
BRANCH  18  23
HETATM   23  C10 UNL     1     184.920 128.419  28.720  1.00  0.00     0.023 C 
HETATM   24  C11 UNL     1     183.573 128.370  29.494  1.00  0.00     0.009 C 
HETATM   25  C12 UNL     1     184.147 128.934  30.835  1.00  0.00     0.001 C 
HETATM   26  C13 UNL     1     184.885 130.137  30.396  1.00  0.00     0.001 C 
HETATM   27  C14 UNL     1     185.062 129.950  28.858  1.00  0.00     0.009 C 
ENDBRANCH  18  23
ENDBRANCH   9  11
ENDBRANCH   5   7
BRANCH   6  28
HETATM   28  N4  UNL     1     187.202 123.116  31.180  1.00  0.00    -0.379 N 
ATOM     29  H4  UNL     1     187.567 122.416  30.535  1.00  0.00     0.160 HD
BRANCH  28  30
HETATM   30  C16 UNL     1     186.035 122.726  31.878  1.00  0.00     0.082 C 
BRANCH  30  31
HETATM   31  C17 UNL     1     186.117 121.261  32.196  1.00  0.00     0.025 C 
BRANCH  31  32
HETATM   32  C18 UNL     1     184.851 120.490  31.993  1.00  0.00     0.004 C 
BRANCH  32  33
HETATM   33  C19 UNL     1     184.246 120.946  30.670  1.00  0.00     0.027 C 
BRANCH  33  34
HETATM   34  C20 UNL     1     182.733 120.843  30.676  1.00  0.00     0.229 C 
BRANCH  34  35
HETATM   35  N5  UNL     1     182.240 120.209  31.895  1.00  0.00    -0.079 N 
ATOM     36  H53 UNL     1     181.238 120.356  32.012  1.00  0.00     0.274 HD
ATOM     37  H52 UNL     1     182.243 119.192  31.813  1.00  0.00     0.274 HD
ATOM     38  H51 UNL     1     182.759 120.517  32.718  1.00  0.00     0.274 HD
ENDBRANCH  34  35
ENDBRANCH  33  34
ENDBRANCH  32  33
ENDBRANCH  31  32
ENDBRANCH  30  31
BRANCH  30  39
HETATM   39  C21 UNL     1     185.544 123.602  32.958  1.00  0.00     0.029 C 
BRANCH  39  40
HETATM   40  C22 UNL     1     184.200 124.204  32.848  1.00  0.00    -0.021 C 
HETATM   41  C23 UNL     1     183.506 124.522  34.140  1.00  0.00     0.009 C 
HETATM   42  C24 UNL     1     184.112 125.465  32.004  1.00  0.00     0.009 C 
ENDBRANCH  39  40
ENDBRANCH  30  39
ENDBRANCH  28  30
ENDBRANCH   6  28
BRANCH   1  43
HETATM   43  O1  UNL     1     189.475 124.021  33.212  1.00  0.00    -0.338 OA
HETATM   44  C1  UNL     1     190.415 122.991  32.983  1.00  0.00     0.211 C 
ENDBRANCH   1  43
TORSDOF 14
ENDMDL
MODEL 2
REMARK VINA RESULT: -8.083040280      1.389      2.276
REMARK  14 active torsions:
REMARK  status: ('A' for Active; 'I' for Inactive)
REMARK    1  A    between atoms: O1_2  and  C2_3 
REMARK    2  A    between atoms: C3_7  and  C4_8 
REMARK       I    between atoms: C4_8  and  N2_10 
REMARK    3  A    between atoms: N2_10  and  C5_12 
REMARK    4  A    between atoms: C8_18  and  S1_19 
REMARK    5  A    between atoms: C9_23  and  C10_24 
REMARK    6  A    between atoms: C15_29  and  N4_30 
REMARK    7  A    between atoms: N4_30  and  C16_32 
REMARK    8  A    between atoms: C16_32  and  C17_33 
REMARK    9  A    between atoms: C16_32  and  C21_41 
REMARK   10  A    between atoms: C17_33  and  C18_34 
REMARK   11  A    between atoms: C18_34  and  C19_35 
REMARK   12  A    between atoms: C19_35  and  C20_36 
REMARK   13  A    between atoms: C20_36  and  N5_37 
REMARK   14  A    between atoms: C21_41  and  C22_42 
ROOT
HETATM    1  C2  UNL     1     188.534 124.677  32.411  1.00  0.00     0.192 A 
HETATM    2  N1  UNL     1     189.352 125.501  31.673  1.00  0.00    -0.236 N 
ATOM      3  H1  UNL     1     190.277 125.819  31.959  1.00  0.00     0.197 HD
HETATM    4  O2  UNL     1     188.774 125.809  30.571  1.00  0.00    -0.228 OA
HETATM    5  C3  UNL     1     187.569 125.239  30.481  1.00  0.00     0.197 A 
HETATM    6  C15 UNL     1     187.412 124.528  31.636  1.00  0.00     0.123 A 
ENDROOT
BRANCH   5   7
HETATM    7  C4  UNL     1     186.730 125.444  29.299  1.00  0.00     0.284 C 
HETATM    8  O3  UNL     1     185.838 124.594  29.081  1.00  0.00    -0.265 OA
HETATM    9  N2  UNL     1     186.944 126.601  28.452  1.00  0.00    -0.319 N 
ATOM     10  H2  UNL     1     187.692 127.252  28.692  1.00  0.00     0.169 HD
BRANCH   9  11
HETATM   11  C5  UNL     1     186.162 126.862  27.313  1.00  0.00     0.059 A 
HETATM   12  C6  UNL     1     186.432 126.339  26.089  1.00  0.00     0.121 A 
HETATM   13  N3  UNL     1     185.715 126.572  24.994  1.00  0.00    -0.330 N 
HETATM   14  C7  UNL     1     184.661 127.378  25.125  1.00  0.00     0.270 A 
ATOM     15  H3  UNL     1     185.960 126.153  24.097  1.00  0.00     0.168 HD
HETATM   16  O4  UNL     1     183.976 127.602  24.084  1.00  0.00    -0.266 OA
HETATM   17  C8  UNL     1     184.262 127.993  26.338  1.00  0.00     0.157 A 
HETATM   18  C9  UNL     1     185.009 127.743  27.451  1.00  0.00     0.004 A 
BRANCH  17  19
HETATM   19  S1  UNL     1     182.925 129.048  26.272  1.00  0.00     0.143 S 
HETATM   20  O5  UNL     1     181.795 128.838  27.223  1.00  0.00    -0.591 OA
HETATM   21  O6  UNL     1     182.172 128.689  24.927  1.00  0.00    -0.591 OA
HETATM   22  O7  UNL     1     183.282 130.665  25.941  1.00  0.00    -0.591 OA
ENDBRANCH  17  19
BRANCH  18  23
HETATM   23  C10 UNL     1     184.878 128.295  28.738  1.00  0.00     0.023 C 
HETATM   24  C11 UNL     1     183.558 128.093  29.535  1.00  0.00     0.009 C 
HETATM   25  C12 UNL     1     184.088 128.712  30.869  1.00  0.00     0.001 C 
HETATM   26  C13 UNL     1     184.680 129.991  30.426  1.00  0.00     0.001 C 
HETATM   27  C14 UNL     1     184.851 129.832  28.884  1.00  0.00     0.009 C 
ENDBRANCH  18  23
ENDBRANCH   9  11
ENDBRANCH   5   7
BRANCH   6  28
HETATM   28  N4  UNL     1     186.204 123.868  31.964  1.00  0.00    -0.379 N 
ATOM     29  H4  UNL     1     185.459 124.481  32.295  1.00  0.00     0.160 HD
BRANCH  28  30
HETATM   30  C16 UNL     1     185.861 122.497  31.909  1.00  0.00     0.082 C 
BRANCH  30  31
HETATM   31  C17 UNL     1     186.620 121.755  32.971  1.00  0.00     0.025 C 
BRANCH  31  32
HETATM   32  C18 UNL     1     186.952 120.333  32.647  1.00  0.00     0.004 C 
BRANCH  32  33
HETATM   33  C19 UNL     1     187.786 120.339  31.370  1.00  0.00     0.027 C 
BRANCH  33  34
HETATM   34  C20 UNL     1     189.106 121.060  31.560  1.00  0.00     0.229 C 
BRANCH  34  35
HETATM   35  N5  UNL     1     189.493 121.803  30.363  1.00  0.00    -0.079 N 
ATOM     36  H53 UNL     1     190.366 121.449  29.973  1.00  0.00     0.274 HD
ATOM     37  H52 UNL     1     188.873 121.596  29.580  1.00  0.00     0.274 HD
ATOM     38  H51 UNL     1     189.544 122.806  30.542  1.00  0.00     0.274 HD
ENDBRANCH  34  35
ENDBRANCH  33  34
ENDBRANCH  32  33
ENDBRANCH  31  32
ENDBRANCH  30  31
BRANCH  30  39
HETATM   39  C21 UNL     1     184.439 122.140  31.753  1.00  0.00     0.029 C 
BRANCH  39  40
HETATM   40  C22 UNL     1     184.037 121.215  30.675  1.00  0.00    -0.021 C 
HETATM   41  C23 UNL     1     182.994 120.195  31.028  1.00  0.00     0.009 C 
HETATM   42  C24 UNL     1     183.563 121.871  29.389  1.00  0.00     0.009 C 
ENDBRANCH  39  40
ENDBRANCH  30  39
ENDBRANCH  28  30
ENDBRANCH   6  28
BRANCH   1  43
HETATM   43  O1  UNL     1     188.883 124.176  33.651  1.00  0.00    -0.338 OA
HETATM   44  C1  UNL     1     190.188 123.690  33.891  1.00  0.00     0.211 C 
ENDBRANCH   1  43
TORSDOF 14
ENDMDL
MODEL 3
REMARK VINA RESULT: -7.930501390      5.223      9.427
REMARK  14 active torsions:
REMARK  status: ('A' for Active; 'I' for Inactive)
REMARK    1  A    between atoms: O1_2  and  C2_3 
REMARK    2  A    between atoms: C3_7  and  C4_8 
REMARK       I    between atoms: C4_8  and  N2_10 
REMARK    3  A    between atoms: N2_10  and  C5_12 
REMARK    4  A    between atoms: C8_18  and  S1_19 
REMARK    5  A    between atoms: C9_23  and  C10_24 
REMARK    6  A    between atoms: C15_29  and  N4_30 
REMARK    7  A    between atoms: N4_30  and  C16_32 
REMARK    8  A    between atoms: C16_32  and  C17_33 
REMARK    9  A    between atoms: C16_32  and  C21_41 
REMARK   10  A    between atoms: C17_33  and  C18_34 
REMARK   11  A    between atoms: C18_34  and  C19_35 
REMARK   12  A    between atoms: C19_35  and  C20_36 
REMARK   13  A    between atoms: C20_36  and  N5_37 
REMARK   14  A    between atoms: C21_41  and  C22_42 
ROOT
HETATM    1  C2  UNL     1     186.811 125.631  32.567  1.00  0.00     0.192 A 
HETATM    2  N1  UNL     1     187.476 126.812  32.327  1.00  0.00    -0.236 N 
ATOM      3  H1  UNL     1     187.090 127.612  31.827  1.00  0.00     0.197 HD
HETATM    4  O2  UNL     1     188.656 126.752  32.826  1.00  0.00    -0.228 OA
HETATM    5  C3  UNL     1     188.871 125.575  33.420  1.00  0.00     0.197 A 
HETATM    6  C15 UNL     1     187.716 124.865  33.258  1.00  0.00     0.123 A 
ENDROOT
BRANCH   5   7
HETATM    7  C4  UNL     1     190.151 125.287  34.069  1.00  0.00     0.284 C 
HETATM    8  O3  UNL     1     190.162 124.374  34.923  1.00  0.00    -0.265 OA
HETATM    9  N2  UNL     1     191.335 126.039  33.699  1.00  0.00    -0.319 N 
ATOM     10  H2  UNL     1     191.250 126.771  32.994  1.00  0.00     0.169 HD
BRANCH   9  11
HETATM   11  C5  UNL     1     192.595 125.799  34.274  1.00  0.00     0.059 A 
HETATM   12  C6  UNL     1     192.878 126.051  35.578  1.00  0.00     0.121 A 
HETATM   13  N3  UNL     1     194.061 125.840  36.149  1.00  0.00    -0.330 N 
HETATM   14  C7  UNL     1     195.024 125.348  35.370  1.00  0.00     0.270 A 
ATOM     15  H3  UNL     1     194.222 126.046  37.135  1.00  0.00     0.168 HD
HETATM   16  O4  UNL     1     196.152 125.146  35.909  1.00  0.00    -0.266 OA
HETATM   17  C8  UNL     1     194.872 125.039  33.995  1.00  0.00     0.157 A 
HETATM   18  C9  UNL     1     193.652 125.262  33.427  1.00  0.00     0.004 A 
BRANCH  17  19
HETATM   19  S1  UNL     1     196.254 124.486  33.164  1.00  0.00     0.143 S 
HETATM   20  O5  UNL     1     196.133 123.286  32.286  1.00  0.00    -0.591 OA
HETATM   21  O6  UNL     1     197.196 123.872  34.277  1.00  0.00    -0.591 OA
HETATM   22  O7  UNL     1     197.291 125.687  32.586  1.00  0.00    -0.591 OA
ENDBRANCH  17  19
BRANCH  18  23
HETATM   23  C10 UNL     1     193.274 125.124  32.079  1.00  0.00     0.023 C 
HETATM   24  C11 UNL     1     193.292 123.721  31.411  1.00  0.00     0.009 C 
HETATM   25  C12 UNL     1     192.609 124.175  30.080  1.00  0.00     0.001 C 
HETATM   26  C13 UNL     1     193.400 125.362  29.694  1.00  0.00     0.001 C 
HETATM   27  C14 UNL     1     194.162 125.766  30.993  1.00  0.00     0.009 C 
ENDBRANCH  18  23
ENDBRANCH   9  11
ENDBRANCH   5   7
BRANCH   6  28
HETATM   28  N4  UNL     1     187.591 123.514  33.660  1.00  0.00    -0.379 N 
ATOM     29  H4  UNL     1     187.347 123.382  34.641  1.00  0.00     0.160 HD
BRANCH  28  30
HETATM   30  C16 UNL     1     187.749 122.318  32.923  1.00  0.00     0.082 C 
BRANCH  30  31
HETATM   31  C17 UNL     1     186.458 121.551  32.945  1.00  0.00     0.025 C 
BRANCH  31  32
HETATM   32  C18 UNL     1     186.253 120.610  31.800  1.00  0.00     0.004 C 
BRANCH  32  33
HETATM   33  C19 UNL     1     184.822 120.795  31.308  1.00  0.00     0.027 C 
BRANCH  33  34
HETATM   34  C20 UNL     1     184.344 122.222  31.486  1.00  0.00     0.229 C 
BRANCH  34  35
HETATM   35  N5  UNL     1     184.663 123.048  30.324  1.00  0.00    -0.079 N 
ATOM     36  H53 UNL     1     185.607 122.864  29.985  1.00  0.00     0.274 HD
ATOM     37  H52 UNL     1     184.138 122.750  29.501  1.00  0.00     0.274 HD
ATOM     38  H51 UNL     1     184.523 124.040  30.516  1.00  0.00     0.274 HD
ENDBRANCH  34  35
ENDBRANCH  33  34
ENDBRANCH  32  33
ENDBRANCH  31  32
ENDBRANCH  30  31
BRANCH  30  39
HETATM   39  C21 UNL     1     188.446 122.385  31.626  1.00  0.00     0.029 C 
BRANCH  39  40
HETATM   40  C22 UNL     1     189.803 121.817  31.501  1.00  0.00    -0.021 C 
HETATM   41  C23 UNL     1     190.623 121.770  32.757  1.00  0.00     0.009 C 
HETATM   42  C24 UNL     1     189.879 120.424  30.899  1.00  0.00     0.009 C 
ENDBRANCH  39  40
ENDBRANCH  30  39
ENDBRANCH  28  30
ENDBRANCH   6  28
BRANCH   1  43
HETATM   43  O1  UNL     1     185.516 125.392  32.150  1.00  0.00    -0.338 OA
HETATM   44  C1  UNL     1     184.420 125.728  32.976  1.00  0.00     0.211 C 
ENDBRANCH   1  43
TORSDOF 14
ENDMDL
MODEL 4
REMARK VINA RESULT: -7.897210659      2.135      4.003
REMARK  14 active torsions:
REMARK  status: ('A' for Active; 'I' for Inactive)
REMARK    1  A    between atoms: O1_2  and  C2_3 
REMARK    2  A    between atoms: C3_7  and  C4_8 
REMARK       I    between atoms: C4_8  and  N2_10 
REMARK    3  A    between atoms: N2_10  and  C5_12 
REMARK    4  A    between atoms: C8_18  and  S1_19 
REMARK    5  A    between atoms: C9_23  and  C10_24 
REMARK    6  A    between atoms: C15_29  and  N4_30 
REMARK    7  A    between atoms: N4_30  and  C16_32 
REMARK    8  A    between atoms: C16_32  and  C17_33 
REMARK    9  A    between atoms: C16_32  and  C21_41 
REMARK   10  A    between atoms: C17_33  and  C18_34 
REMARK   11  A    between atoms: C18_34  and  C19_35 
REMARK   12  A    between atoms: C19_35  and  C20_36 
REMARK   13  A    between atoms: C20_36  and  N5_37 
REMARK   14  A    between atoms: C21_41  and  C22_42 
ROOT
HETATM    1  C2  UNL     1     188.682 124.656  32.874  1.00  0.00     0.192 A 
HETATM    2  N1  UNL     1     187.450 125.208  33.138  1.00  0.00    -0.236 N 
ATOM      3  H1  UNL     1     187.081 125.404  34.068  1.00  0.00     0.197 HD
HETATM    4  O2  UNL     1     186.836 125.438  32.037  1.00  0.00    -0.228 OA
HETATM    5  C3  UNL     1     187.575 125.076  30.985  1.00  0.00     0.197 A 
HETATM    6  C15 UNL     1     188.736 124.581  31.505  1.00  0.00     0.123 A 
ENDROOT
BRANCH   5   7
HETATM    7  C4  UNL     1     187.076 125.257  29.621  1.00  0.00     0.284 C 
HETATM    8  O3  UNL     1     187.260 124.315  28.819  1.00  0.00    -0.265 OA
HETATM    9  N2  UNL     1     186.390 126.482  29.259  1.00  0.00    -0.319 N 
ATOM     10  H2  UNL     1     186.277 127.208  29.967  1.00  0.00     0.169 HD
BRANCH   9  11
HETATM   11  C5  UNL     1     185.874 126.709  27.971  1.00  0.00     0.059 A 
HETATM   12  C6  UNL     1     186.521 126.343  26.835  1.00  0.00     0.121 A 
HETATM   13  N3  UNL     1     186.061 126.549  25.604  1.00  0.00    -0.330 N 
HETATM   14  C7  UNL     1     184.881 127.160  25.497  1.00  0.00     0.270 A 
ATOM     15  H3  UNL     1     186.586 126.252  24.781  1.00  0.00     0.168 HD
HETATM   16  O4  UNL     1     184.440 127.359  24.328  1.00  0.00    -0.266 OA
HETATM   17  C8  UNL     1     184.097 127.598  26.595  1.00  0.00     0.157 A 
HETATM   18  C9  UNL     1     184.585 127.379  27.849  1.00  0.00     0.004 A 
BRANCH  17  19
HETATM   19  S1  UNL     1     182.651 128.426  26.236  1.00  0.00     0.143 S 
HETATM   20  O5  UNL     1     181.550 128.419  27.243  1.00  0.00    -0.591 OA
HETATM   21  O6  UNL     1     181.946 127.571  25.107  1.00  0.00    -0.591 OA
HETATM   22  O7  UNL     1     182.827 129.875  25.387  1.00  0.00    -0.591 OA
ENDBRANCH  17  19
BRANCH  18  23
HETATM   23  C10 UNL     1     184.050 127.791  29.083  1.00  0.00     0.023 C 
HETATM   24  C11 UNL     1     184.727 128.947  29.871  1.00  0.00     0.009 C 
HETATM   25  C12 UNL     1     183.613 129.063  30.962  1.00  0.00     0.001 C 
HETATM   26  C13 UNL     1     183.435 127.662  31.400  1.00  0.00     0.001 C 
HETATM   27  C14 UNL     1     184.099 126.811  30.275  1.00  0.00     0.009 C 
ENDBRANCH  18  23
ENDBRANCH   9  11
ENDBRANCH   5   7
BRANCH   6  28
HETATM   28  N4  UNL     1     189.738 123.989  30.701  1.00  0.00    -0.379 N 
ATOM     29  H4  UNL     1     189.581 124.067  29.697  1.00  0.00     0.160 HD
BRANCH  28  30
HETATM   30  C16 UNL     1     190.923 123.306  31.063  1.00  0.00     0.082 C 
BRANCH  30  31
HETATM   31  C17 UNL     1     190.642 121.833  31.131  1.00  0.00     0.025 C 
BRANCH  31  32
HETATM   32  C18 UNL     1     189.481 121.364  30.313  1.00  0.00     0.004 C 
BRANCH  32  33
HETATM   33  C19 UNL     1     188.733 120.322  31.138  1.00  0.00     0.027 C 
BRANCH  33  34
HETATM   34  C20 UNL     1     187.672 120.953  32.018  1.00  0.00     0.229 C 
BRANCH  34  35
HETATM   35  N5  UNL     1     186.877 119.944  32.714  1.00  0.00    -0.079 N 
ATOM     36  H53 UNL     1     186.326 119.389  32.060  1.00  0.00     0.274 HD
ATOM     37  H52 UNL     1     187.467 119.204  33.095  1.00  0.00     0.274 HD
ATOM     38  H51 UNL     1     186.289 120.360  33.437  1.00  0.00     0.274 HD
ENDBRANCH  34  35
ENDBRANCH  33  34
ENDBRANCH  32  33
ENDBRANCH  31  32
ENDBRANCH  30  31
BRANCH  30  39
HETATM   39  C21 UNL     1     192.182 123.700  30.405  1.00  0.00     0.029 C 
BRANCH  39  40
HETATM   40  C22 UNL     1     192.905 122.717  29.573  1.00  0.00    -0.021 C 
HETATM   41  C23 UNL     1     193.449 123.221  28.269  1.00  0.00     0.009 C 
HETATM   42  C24 UNL     1     194.055 121.997  30.257  1.00  0.00     0.009 C 
ENDBRANCH  39  40
ENDBRANCH  30  39
ENDBRANCH  28  30
ENDBRANCH   6  28
BRANCH   1  43
HETATM   43  O1  UNL     1     189.579 124.297  33.863  1.00  0.00    -0.338 OA
HETATM   44  C1  UNL     1     190.490 125.241  34.386  1.00  0.00     0.211 C 
ENDBRANCH   1  43
TORSDOF 14
ENDMDL
MODEL 5
REMARK VINA RESULT: -7.855904756      4.332      9.011
REMARK  14 active torsions:
REMARK  status: ('A' for Active; 'I' for Inactive)
REMARK    1  A    between atoms: O1_2  and  C2_3 
REMARK    2  A    between atoms: C3_7  and  C4_8 
REMARK       I    between atoms: C4_8  and  N2_10 
REMARK    3  A    between atoms: N2_10  and  C5_12 
REMARK    4  A    between atoms: C8_18  and  S1_19 
REMARK    5  A    between atoms: C9_23  and  C10_24 
REMARK    6  A    between atoms: C15_29  and  N4_30 
REMARK    7  A    between atoms: N4_30  and  C16_32 
REMARK    8  A    between atoms: C16_32  and  C17_33 
REMARK    9  A    between atoms: C16_32  and  C21_41 
REMARK   10  A    between atoms: C17_33  and  C18_34 
REMARK   11  A    between atoms: C18_34  and  C19_35 
REMARK   12  A    between atoms: C19_35  and  C20_36 
REMARK   13  A    between atoms: C20_36  and  N5_37 
REMARK   14  A    between atoms: C21_41  and  C22_42 
ROOT
HETATM    1  C2  UNL     1     186.589 124.417  29.940  1.00  0.00     0.192 A 
HETATM    2  N1  UNL     1     187.619 124.864  29.144  1.00  0.00    -0.236 N 
ATOM      3  H1  UNL     1     187.539 125.095  28.155  1.00  0.00     0.197 HD
HETATM    4  O2  UNL     1     188.694 124.946  29.837  1.00  0.00    -0.228 OA
HETATM    5  C3  UNL     1     188.484 124.576  31.104  1.00  0.00     0.197 A 
HETATM    6  C15 UNL     1     187.163 124.240  31.173  1.00  0.00     0.123 A 
ENDROOT
BRANCH   5   7
HETATM    7  C4  UNL     1     189.573 124.600  32.081  1.00  0.00     0.284 C 
HETATM    8  O3  UNL     1     189.273 124.360  33.271  1.00  0.00    -0.265 OA
HETATM    9  N2  UNL     1     190.929 124.878  31.647  1.00  0.00    -0.319 N 
ATOM     10  H2  UNL     1     191.097 125.066  30.658  1.00  0.00     0.169 HD
BRANCH   9  11
HETATM   11  C5  UNL     1     192.019 124.900  32.534  1.00  0.00     0.059 A 
HETATM   12  C6  UNL     1     191.933 125.360  33.808  1.00  0.00     0.121 A 
HETATM   13  N3  UNL     1     192.947 125.398  34.668  1.00  0.00    -0.330 N 
HETATM   14  C7  UNL     1     194.123 124.950  34.230  1.00  0.00     0.270 A 
ATOM     15  H3  UNL     1     192.829 125.753  35.617  1.00  0.00     0.168 HD
HETATM   16  O4  UNL     1     195.092 124.984  35.045  1.00  0.00    -0.266 OA
HETATM   17  C8  UNL     1     194.359 124.443  32.927  1.00  0.00     0.157 A 
HETATM   18  C9  UNL     1     193.308 124.412  32.059  1.00  0.00     0.004 A 
BRANCH  17  19
HETATM   19  S1  UNL     1     195.958 123.988  32.547  1.00  0.00     0.143 S 
HETATM   20  O5  UNL     1     196.179 122.801  31.671  1.00  0.00    -0.591 OA
HETATM   21  O6  UNL     1     196.561 123.409  33.890  1.00  0.00    -0.591 OA
HETATM   22  O7  UNL     1     197.044 125.259  32.306  1.00  0.00    -0.591 OA
ENDBRANCH  17  19
BRANCH  18  23
HETATM   23  C10 UNL     1     193.301 124.044  30.701  1.00  0.00     0.023 C 
HETATM   24  C11 UNL     1     193.610 122.575  30.297  1.00  0.00     0.009 C 
HETATM   25  C12 UNL     1     193.255 122.755  28.785  1.00  0.00     0.001 C 
HETATM   26  C13 UNL     1     194.016 123.966  28.411  1.00  0.00     0.001 C 
HETATM   27  C14 UNL     1     194.381 124.636  29.770  1.00  0.00     0.009 C 
ENDBRANCH  18  23
ENDBRANCH   9  11
ENDBRANCH   5   7
BRANCH   6  28
HETATM   28  N4  UNL     1     186.579 123.689  32.338  1.00  0.00    -0.379 N 
ATOM     29  H4  UNL     1     186.579 124.307  33.149  1.00  0.00     0.160 HD
BRANCH  28  30
HETATM   30  C16 UNL     1     185.995 122.420  32.562  1.00  0.00     0.082 C 
BRANCH  30  31
HETATM   31  C17 UNL     1     184.500 122.552  32.528  1.00  0.00     0.025 C 
BRANCH  31  32
HETATM   32  C18 UNL     1     183.816 121.807  31.426  1.00  0.00     0.004 C 
BRANCH  32  33
HETATM   33  C19 UNL     1     182.821 120.849  32.071  1.00  0.00     0.027 C 
BRANCH  33  34
HETATM   34  C20 UNL     1     182.137 119.969  31.044  1.00  0.00     0.229 C 
BRANCH  34  35
HETATM   35  N5  UNL     1     183.039 119.616  29.950  1.00  0.00    -0.079 N 
ATOM     36  H53 UNL     1     182.990 120.298  29.194  1.00  0.00     0.274 HD
ATOM     37  H52 UNL     1     184.015 119.743  30.216  1.00  0.00     0.274 HD
ATOM     38  H51 UNL     1     182.866 118.670  29.609  1.00  0.00     0.274 HD
ENDBRANCH  34  35
ENDBRANCH  33  34
ENDBRANCH  32  33
ENDBRANCH  31  32
ENDBRANCH  30  31
BRANCH  30  39
HETATM   39  C21 UNL     1     186.564 121.257  31.855  1.00  0.00     0.029 C 
BRANCH  39  40
HETATM   40  C22 UNL     1     187.873 120.721  32.277  1.00  0.00    -0.021 C 
HETATM   41  C23 UNL     1     189.014 120.924  31.323  1.00  0.00     0.009 C 
HETATM   42  C24 UNL     1     188.371 121.194  33.632  1.00  0.00     0.009 C 
ENDBRANCH  39  40
ENDBRANCH  30  39
ENDBRANCH  28  30
ENDBRANCH   6  28
BRANCH   1  43
HETATM   43  O1  UNL     1     185.301 124.226  29.476  1.00  0.00    -0.338 OA
HETATM   44  C1  UNL     1     184.291 125.177  29.742  1.00  0.00     0.211 C 
ENDBRANCH   1  43
TORSDOF 14
ENDMDL
