MODEL 1
REMARK VINA RESULT: -6.614282142      0.000      0.000
REMARK  5 active torsions:
REMARK  status: ('A' for Active; 'I' for Inactive)
REMARK    1  A    between atoms: C2_2  and  C5_5 
REMARK    2  A    between atoms: C5_5  and  C6_6 
REMARK    3  A    between atoms: C6_6  and  N1_7 
REMARK       I    between atoms: N1_7  and  C7_9 
REMARK       I    between atoms: C7_9  and  N2_11 
REMARK    4  A    between atoms: N2_11  and  C8_13 
REMARK    5  A    between atoms: N3_15  and  C9_17 
ROOT
HETATM    1  C8  UNL     1      42.315  -1.142  31.014  1.00  0.00     0.176 C 
HETATM    2  S1  UNL     1      41.012  -1.398  32.128  1.00  0.00    -0.041 SA
HETATM    3  N3  UNL     1      42.097  -1.790  29.835  1.00  0.00    -0.360 N 
ATOM      4  H3  UNL     1      41.175  -2.224  29.828  1.00  0.00     0.162 HD
ENDROOT
BRANCH   1   5
HETATM    5  N2  UNL     1      43.300  -0.389  31.576  1.00  0.00    -0.286 N 
HETATM    6  C7  UNL     1      43.970  -0.498  32.794  1.00  0.00     0.322 C 
HETATM    7  N1  UNL     1      44.973   0.507  33.108  1.00  0.00    -0.343 N 
HETATM    8  O1  UNL     1      43.791  -1.366  33.632  1.00  0.00    -0.247 OA
ATOM      9  H1  UNL     1      45.148   1.259  32.442  1.00  0.00     0.164 HD
ATOM     10  H2  UNL     1      43.603   0.397  31.002  1.00  0.00     0.173 HD
BRANCH   7  11
HETATM   11  C6  UNL     1      45.714   0.468  34.314  1.00  0.00     0.125 C 
BRANCH  11  12
HETATM   12  C5  UNL     1      45.337   1.497  35.300  1.00  0.00     0.028 C 
BRANCH  12  13
HETATM   13  C2  UNL     1      45.422   1.170  36.743  1.00  0.00    -0.050 C 
HETATM   14  C1  UNL     1      46.815   0.520  36.941  1.00  0.00     0.014 C 
HETATM   15  C3  UNL     1      44.432   0.103  37.166  1.00  0.00     0.014 C 
HETATM   16  C4  UNL     1      45.283   2.311  37.705  1.00  0.00     0.014 C 
ENDBRANCH  12  13
ENDBRANCH  11  12
ENDBRANCH   7  11
ENDBRANCH   1   5
BRANCH   3  17
HETATM   17  C9  UNL     1      42.775  -2.039  28.615  1.00  0.00     0.110 C 
HETATM   18  C10 UNL     1      44.151  -1.403  28.501  1.00  0.00     0.148 C 
HETATM   19  N4  UNL     1      44.512  -1.458  27.098  1.00  0.00    -0.359 N 
HETATM   20  C11 UNL     1      44.203  -2.645  26.386  1.00  0.00     0.218 C 
ATOM     21  H4  UNL     1      44.973  -0.672  26.640  1.00  0.00     0.162 HD
HETATM   22  O2  UNL     1      44.671  -2.808  25.234  1.00  0.00    -0.274 OA
HETATM   23  C12 UNL     1      43.347  -3.724  26.930  1.00  0.00     0.113 C 
HETATM   24  C13 UNL     1      42.996  -3.543  28.374  1.00  0.00    -0.018 C 
HETATM   25  C14 UNL     1      44.095  -4.092  29.216  1.00  0.00     0.017 C 
HETATM   26  C15 UNL     1      41.692  -4.220  28.733  1.00  0.00     0.017 C 
ENDBRANCH   3  17
TORSDOF 5
ENDMDL
MODEL 2
REMARK VINA RESULT: -6.485960522      1.076      1.357
REMARK  5 active torsions:
REMARK  status: ('A' for Active; 'I' for Inactive)
REMARK    1  A    between atoms: C2_2  and  C5_5 
REMARK    2  A    between atoms: C5_5  and  C6_6 
REMARK    3  A    between atoms: C6_6  and  N1_7 
REMARK       I    between atoms: N1_7  and  C7_9 
REMARK       I    between atoms: C7_9  and  N2_11 
REMARK    4  A    between atoms: N2_11  and  C8_13 
REMARK    5  A    between atoms: N3_15  and  C9_17 
ROOT
HETATM    1  C8  UNL     1      42.537  -1.077  31.720  1.00  0.00     0.176 C 
HETATM    2  S1  UNL     1      41.058  -0.959  32.617  1.00  0.00    -0.041 SA
HETATM    3  N3  UNL     1      42.302  -1.162  30.381  1.00  0.00    -0.360 N 
ATOM      4  H3  UNL     1      41.308  -1.057  30.183  1.00  0.00     0.162 HD
ENDROOT
BRANCH   1   5
HETATM    5  N2  UNL     1      43.613  -1.111  32.553  1.00  0.00    -0.286 N 
HETATM    6  C7  UNL     1      44.308  -0.098  33.214  1.00  0.00     0.322 C 
HETATM    7  N1  UNL     1      45.452  -0.479  34.026  1.00  0.00    -0.343 N 
HETATM    8  O1  UNL     1      44.043   1.091  33.174  1.00  0.00    -0.247 OA
ATOM      9  H1  UNL     1      45.718  -1.462  34.079  1.00  0.00     0.164 HD
ATOM     10  H2  UNL     1      43.978  -2.048  32.725  1.00  0.00     0.173 HD
BRANCH   7  11
HETATM   11  C6  UNL     1      46.208   0.479  34.745  1.00  0.00     0.125 C 
BRANCH  11  12
HETATM   12  C5  UNL     1      46.168   0.319  36.209  1.00  0.00     0.028 C 
BRANCH  12  13
HETATM   13  C2  UNL     1      45.352   1.262  37.010  1.00  0.00    -0.050 C 
HETATM   14  C1  UNL     1      43.947   0.617  37.107  1.00  0.00     0.014 C 
HETATM   15  C3  UNL     1      45.125   2.587  36.310  1.00  0.00     0.014 C 
HETATM   16  C4  UNL     1      45.836   1.569  38.394  1.00  0.00     0.014 C 
ENDBRANCH  12  13
ENDBRANCH  11  12
ENDBRANCH   7  11
ENDBRANCH   1   5
BRANCH   3  17
HETATM   17  C9  UNL     1      43.033  -1.353  29.182  1.00  0.00     0.110 C 
HETATM   18  C10 UNL     1      44.516  -1.034  29.272  1.00  0.00     0.148 C 
HETATM   19  N4  UNL     1      44.998  -0.938  27.909  1.00  0.00    -0.359 N 
HETATM   20  C11 UNL     1      44.520  -1.891  26.974  1.00  0.00     0.218 C 
ATOM     21  H4  UNL     1      45.659  -0.211  27.632  1.00  0.00     0.162 HD
HETATM   22  O2  UNL     1      45.057  -1.963  25.843  1.00  0.00    -0.274 OA
HETATM   23  C12 UNL     1      43.405  -2.824  27.256  1.00  0.00     0.113 C 
HETATM   24  C13 UNL     1      42.955  -2.808  28.684  1.00  0.00    -0.018 C 
HETATM   25  C14 UNL     1      43.822  -3.721  29.479  1.00  0.00     0.017 C 
HETATM   26  C15 UNL     1      41.508  -3.223  28.831  1.00  0.00     0.017 C 
ENDBRANCH   3  17
TORSDOF 5
ENDMDL
MODEL 3
REMARK VINA RESULT: -6.484488943      3.079      9.238
REMARK  5 active torsions:
REMARK  status: ('A' for Active; 'I' for Inactive)
REMARK    1  A    between atoms: C2_2  and  C5_5 
REMARK    2  A    between atoms: C5_5  and  C6_6 
REMARK    3  A    between atoms: C6_6  and  N1_7 
REMARK       I    between atoms: N1_7  and  C7_9 
REMARK       I    between atoms: C7_9  and  N2_11 
REMARK    4  A    between atoms: N2_11  and  C8_13 
REMARK    5  A    between atoms: N3_15  and  C9_17 
ROOT
HETATM    1  C8  UNL     1      46.048   0.346  35.497  1.00  0.00     0.176 C 
HETATM    2  S1  UNL     1      47.529  -0.556  35.469  1.00  0.00    -0.041 SA
HETATM    3  N3  UNL     1      46.151   1.447  36.294  1.00  0.00    -0.360 N 
ATOM      4  H3  UNL     1      47.103   1.551  36.643  1.00  0.00     0.162 HD
ENDROOT
BRANCH   1   5
HETATM    5  N2  UNL     1      45.087  -0.268  34.756  1.00  0.00    -0.286 N 
HETATM    6  C7  UNL     1      44.848  -0.294  33.382  1.00  0.00     0.322 C 
HETATM    7  N1  UNL     1      43.695  -1.043  32.908  1.00  0.00    -0.343 N 
HETATM    8  O1  UNL     1      45.523   0.260  32.531  1.00  0.00    -0.247 OA
ATOM      9  H1  UNL     1      43.095  -1.513  33.586  1.00  0.00     0.164 HD
ATOM     10  H2  UNL     1      44.419  -0.809  35.306  1.00  0.00     0.173 HD
BRANCH   7  11
HETATM   11  C6  UNL     1      43.384  -1.137  31.530  1.00  0.00     0.125 C 
BRANCH  11  12
HETATM   12  C5  UNL     1      43.318  -2.515  31.009  1.00  0.00     0.028 C 
BRANCH  12  13
HETATM   13  C2  UNL     1      43.331  -2.726  29.542  1.00  0.00    -0.050 C 
HETATM   14  C1  UNL     1      41.846  -2.691  29.102  1.00  0.00     0.014 C 
HETATM   15  C3  UNL     1      43.821  -4.106  29.149  1.00  0.00     0.014 C 
HETATM   16  C4  UNL     1      44.098  -1.733  28.722  1.00  0.00     0.014 C 
ENDBRANCH  12  13
ENDBRANCH  11  12
ENDBRANCH   7  11
ENDBRANCH   1   5
BRANCH   3  17
HETATM   17  C9  UNL     1      45.324   2.489  36.781  1.00  0.00     0.110 C 
HETATM   18  C10 UNL     1      44.105   2.798  35.928  1.00  0.00     0.148 C 
HETATM   19  N4  UNL     1      43.608   4.085  36.372  1.00  0.00    -0.359 N 
HETATM   20  C11 UNL     1      43.596   4.338  37.767  1.00  0.00     0.218 C 
ATOM     21  H4  UNL     1      43.279   4.783  35.706  1.00  0.00     0.162 HD
HETATM   22  O2  UNL     1      42.998   5.351  38.201  1.00  0.00    -0.274 OA
HETATM   23  C12 UNL     1      44.258   3.463  38.762  1.00  0.00     0.113 C 
HETATM   24  C13 UNL     1      44.775   2.181  38.187  1.00  0.00    -0.018 C 
HETATM   25  C14 UNL     1      43.671   1.182  38.152  1.00  0.00     0.017 C 
HETATM   26  C15 UNL     1      45.939   1.628  38.978  1.00  0.00     0.017 C 
ENDBRANCH   3  17
TORSDOF 5
ENDMDL
MODEL 4
REMARK VINA RESULT: -6.462064392      1.609      2.021
REMARK  5 active torsions:
REMARK  status: ('A' for Active; 'I' for Inactive)
REMARK    1  A    between atoms: C2_2  and  C5_5 
REMARK    2  A    between atoms: C5_5  and  C6_6 
REMARK    3  A    between atoms: C6_6  and  N1_7 
REMARK       I    between atoms: N1_7  and  C7_9 
REMARK       I    between atoms: C7_9  and  N2_11 
REMARK    4  A    between atoms: N2_11  and  C8_13 
REMARK    5  A    between atoms: N3_15  and  C9_17 
ROOT
HETATM    1  C8  UNL     1      40.938  -2.970  30.812  1.00  0.00     0.176 C 
HETATM    2  S1  UNL     1      39.373  -3.602  31.208  1.00  0.00    -0.041 SA
HETATM    3  N3  UNL     1      41.155  -2.985  29.466  1.00  0.00    -0.360 N 
ATOM      4  H3  UNL     1      40.318  -3.291  28.970  1.00  0.00     0.162 HD
ENDROOT
BRANCH   1   5
HETATM    5  N2  UNL     1      41.632  -2.641  31.935  1.00  0.00    -0.286 N 
HETATM    6  C7  UNL     1      42.015  -1.408  32.463  1.00  0.00     0.322 C 
HETATM    7  N1  UNL     1      42.787  -1.408  33.694  1.00  0.00    -0.343 N 
HETATM    8  O1  UNL     1      41.759  -0.317  31.982  1.00  0.00    -0.247 OA
ATOM      9  H1  UNL     1      43.034  -2.298  34.126  1.00  0.00     0.164 HD
ATOM     10  H2  UNL     1      41.926  -3.443  32.493  1.00  0.00     0.173 HD
BRANCH   7  11
HETATM   11  C6  UNL     1      43.206  -0.204  34.311  1.00  0.00     0.125 C 
BRANCH  11  12
HETATM   12  C5  UNL     1      44.296  -0.362  35.291  1.00  0.00     0.028 C 
BRANCH  12  13
HETATM   13  C2  UNL     1      45.477   0.528  35.197  1.00  0.00    -0.050 C 
HETATM   14  C1  UNL     1      45.723   0.736  33.681  1.00  0.00     0.014 C 
HETATM   15  C3  UNL     1      46.747  -0.121  35.711  1.00  0.00     0.014 C 
HETATM   16  C4  UNL     1      45.367   1.870  35.854  1.00  0.00     0.014 C 
ENDBRANCH  12  13
ENDBRANCH  11  12
ENDBRANCH   7  11
ENDBRANCH   1   5
BRANCH   3  17
HETATM   17  C9  UNL     1      42.200  -2.700  28.553  1.00  0.00     0.110 C 
HETATM   18  C10 UNL     1      43.089  -1.528  28.935  1.00  0.00     0.148 C 
HETATM   19  N4  UNL     1      43.836  -1.175  27.744  1.00  0.00    -0.359 N 
HETATM   20  C11 UNL     1      44.340  -2.234  26.947  1.00  0.00     0.218 C 
ATOM     21  H4  UNL     1      43.994  -0.200  27.489  1.00  0.00     0.162 HD
HETATM   22  O2  UNL     1      45.151  -1.975  26.026  1.00  0.00    -0.274 OA
HETATM   23  C12 UNL     1      43.963  -3.653  27.141  1.00  0.00     0.113 C 
HETATM   24  C13 UNL     1      43.153  -3.897  28.376  1.00  0.00    -0.018 C 
HETATM   25  C14 UNL     1      44.072  -4.061  29.537  1.00  0.00     0.017 C 
HETATM   26  C15 UNL     1      42.271  -5.119  28.248  1.00  0.00     0.017 C 
ENDBRANCH   3  17
TORSDOF 5
ENDMDL
MODEL 5
REMARK VINA RESULT: -6.233723154      1.745      2.317
REMARK  5 active torsions:
REMARK  status: ('A' for Active; 'I' for Inactive)
REMARK    1  A    between atoms: C2_2  and  C5_5 
REMARK    2  A    between atoms: C5_5  and  C6_6 
REMARK    3  A    between atoms: C6_6  and  N1_7 
REMARK       I    between atoms: N1_7  and  C7_9 
REMARK       I    between atoms: C7_9  and  N2_11 
REMARK    4  A    between atoms: N2_11  and  C8_13 
REMARK    5  A    between atoms: N3_15  and  C9_17 
ROOT
HETATM    1  C8  UNL     1      41.830  -0.795  32.657  1.00  0.00     0.176 C 
HETATM    2  S1  UNL     1      40.342  -0.457  33.480  1.00  0.00    -0.041 SA
HETATM    3  N3  UNL     1      41.631  -0.976  31.321  1.00  0.00    -0.360 N 
ATOM      4  H3  UNL     1      40.659  -0.794  31.074  1.00  0.00     0.162 HD
ENDROOT
BRANCH   1   5
HETATM    5  N2  UNL     1      42.870  -0.858  33.532  1.00  0.00    -0.286 N 
HETATM    6  C7  UNL     1      43.983  -0.036  33.713  1.00  0.00     0.322 C 
HETATM    7  N1  UNL     1      44.939  -0.406  34.744  1.00  0.00    -0.343 N 
HETATM    8  O1  UNL     1      44.232   0.975  33.080  1.00  0.00    -0.247 OA
ATOM      9  H1  UNL     1      44.777  -1.251  35.292  1.00  0.00     0.164 HD
ATOM     10  H2  UNL     1      42.828  -1.650  34.174  1.00  0.00     0.173 HD
BRANCH   7  11
HETATM   11  C6  UNL     1      46.089   0.377  35.009  1.00  0.00     0.125 C 
BRANCH  11  12
HETATM   12  C5  UNL     1      46.575   0.303  36.399  1.00  0.00     0.028 C 
BRANCH  12  13
HETATM   13  C2  UNL     1      47.749  -0.548  36.702  1.00  0.00    -0.050 C 
HETATM   14  C1  UNL     1      47.170  -1.875  37.253  1.00  0.00     0.014 C 
HETATM   15  C3  UNL     1      48.601   0.002  37.830  1.00  0.00     0.014 C 
HETATM   16  C4  UNL     1      48.670  -0.862  35.564  1.00  0.00     0.014 C 
ENDBRANCH  12  13
ENDBRANCH  11  12
ENDBRANCH   7  11
ENDBRANCH   1   5
BRANCH   3  17
HETATM   17  C9  UNL     1      42.378  -1.342  30.173  1.00  0.00     0.110 C 
HETATM   18  C10 UNL     1      43.887  -1.289  30.341  1.00  0.00     0.148 C 
HETATM   19  N4  UNL     1      44.450  -1.335  29.006  1.00  0.00    -0.359 N 
HETATM   20  C11 UNL     1      43.858  -2.224  28.074  1.00  0.00     0.218 C 
ATOM     21  H4  UNL     1      45.244  -0.749  28.747  1.00  0.00     0.162 HD
HETATM   22  O2  UNL     1      44.432  -2.437  26.980  1.00  0.00    -0.274 OA
HETATM   23  C12 UNL     1      42.580  -2.932  28.319  1.00  0.00     0.113 C 
HETATM   24  C13 UNL     1      42.065  -2.779  29.716  1.00  0.00    -0.018 C 
HETATM   25  C14 UNL     1      42.711  -3.799  30.588  1.00  0.00     0.017 C 
HETATM   26  C15 UNL     1      40.562  -2.924  29.790  1.00  0.00     0.017 C 
ENDBRANCH   3  17
TORSDOF 5
ENDMDL
