MODEL 1
REMARK VINA RESULT: -6.334089110      0.000      0.000
REMARK  13 active torsions:
REMARK  status: ('A' for Active; 'I' for Inactive)
REMARK    1  A    between atoms: C2_2  and  C4_4 
REMARK    2  A    between atoms: C2_2  and  N4_20 
REMARK    3  A    between atoms: C4_4  and  O1_5 
REMARK    4  A    between atoms: O1_5  and  C5_6 
REMARK       I    between atoms: C5_6  and  N1_8 
REMARK    5  A    between atoms: N1_8  and  N2_10 
REMARK    6  A    between atoms: N2_10  and  C6_12 
REMARK    7  A    between atoms: C6_12  and  N3_14 
REMARK    8  A    between atoms: N3_14  and  C7_16 
REMARK    9  A    between atoms: C7_16  and  C8_17 
REMARK   10  A    between atoms: C8_17  and  C9_18 
REMARK   11  A    between atoms: N4_20  and  C10_22 
REMARK   12  A    between atoms: C10_22  and  N5_24 
REMARK   13  A    between atoms: N5_24  and  C11_26 
ROOT
HETATM    1  C1  UNL     1      41.022  -0.678  30.354  1.00  0.00     0.040 C 
HETATM    2  C2  UNL     1      41.761  -1.989  30.463  1.00  0.00     0.047 C 
HETATM    3  C3  UNL     1      40.878  -2.849  31.388  1.00  0.00     0.040 C 
ENDROOT
BRANCH   2   4
HETATM    4  C4  UNL     1      43.121  -1.789  31.038  1.00  0.00     0.210 C 
BRANCH   4   5
HETATM    5  O1  UNL     1      43.418  -0.612  31.613  1.00  0.00    -0.300 OA
BRANCH   5   6
HETATM    6  C5  UNL     1      43.604  -0.086  32.792  1.00  0.00     0.379 C 
HETATM    7  O2  UNL     1      42.744  -0.230  33.705  1.00  0.00    -0.237 OA
HETATM    8  N1  UNL     1      44.802   0.678  33.075  1.00  0.00    -0.243 N 
ATOM      9  H1  UNL     1      45.529   0.804  32.371  1.00  0.00     0.192 HD
BRANCH   8  10
HETATM   10  N2  UNL     1      44.917   1.225  34.331  1.00  0.00    -0.272 N 
ATOM     11  H2  UNL     1      44.403   2.067  34.586  1.00  0.00     0.189 HD
BRANCH  10  12
HETATM   12  C6  UNL     1      45.786   0.573  35.277  1.00  0.00     0.186 C 
HETATM   13  S1  UNL     1      45.086  -0.035  36.592  1.00  0.00    -0.040 SA
BRANCH  12  14
HETATM   14  N3  UNL     1      47.144   0.426  35.008  1.00  0.00    -0.366 N 
ATOM     15  H3  UNL     1      47.545   1.032  34.291  1.00  0.00     0.161 HD
BRANCH  14  16
HETATM   16  C7  UNL     1      48.016  -0.491  35.642  1.00  0.00     0.123 C 
BRANCH  16  17
HETATM   17  C8  UNL     1      49.127   0.075  36.431  1.00  0.00     0.030 C 
BRANCH  17  18
HETATM   18  C9  UNL     1      49.358  -0.274  37.835  1.00  0.00     0.086 C 
HETATM   19 BR1  UNL     1      50.637  -1.773  37.835  1.00  0.00    -0.096 Br
ENDBRANCH  17  18
ENDBRANCH  16  17
ENDBRANCH  14  16
ENDBRANCH  12  14
ENDBRANCH  10  12
ENDBRANCH   8  10
ENDBRANCH   5   6
ENDBRANCH   4   5
ENDBRANCH   2   4
BRANCH   2  20
HETATM   20  N4  UNL     1      41.850  -2.699  29.193  1.00  0.00    -0.356 N 
ATOM     21  H4  UNL     1      41.141  -2.471  28.495  1.00  0.00     0.162 HD
BRANCH  20  22
HETATM   22  C10 UNL     1      42.801  -3.659  28.824  1.00  0.00     0.173 C 
HETATM   23  S2  UNL     1      42.627  -5.207  29.299  1.00  0.00    -0.041 SA
BRANCH  22  24
HETATM   24  N5  UNL     1      43.934  -3.350  28.051  1.00  0.00    -0.318 N 
ATOM     25  H5  UNL     1      44.770  -3.093  28.577  1.00  0.00     0.170 HD
BRANCH  24  26
HETATM   26  C11 UNL     1      44.060  -3.348  26.793  1.00  0.00     0.123 A 
HETATM   27  C12 UNL     1      44.159  -2.278  25.941  1.00  0.00     0.068 A 
HETATM   28  C13 UNL     1      44.295  -2.745  24.632  1.00  0.00     0.111 A 
HETATM   29  N6  UNL     1      44.272  -4.088  24.749  1.00  0.00    -0.310 N 
HETATM   30  N7  UNL     1      44.133  -4.451  26.022  1.00  0.00    -0.286 N 
ATOM     31  H6  UNL     1      44.351  -4.738  23.967  1.00  0.00     0.186 HD
ATOM     32  H7  UNL     1      44.088  -5.412  26.360  1.00  0.00     0.188 HD
ENDBRANCH  24  26
ENDBRANCH  22  24
ENDBRANCH  20  22
ENDBRANCH   2  20
TORSDOF 13
ENDMDL
MODEL 2
REMARK VINA RESULT: -6.328474296      1.992      2.382
REMARK  13 active torsions:
REMARK  status: ('A' for Active; 'I' for Inactive)
REMARK    1  A    between atoms: C2_2  and  C4_4 
REMARK    2  A    between atoms: C2_2  and  N4_20 
REMARK    3  A    between atoms: C4_4  and  O1_5 
REMARK    4  A    between atoms: O1_5  and  C5_6 
REMARK       I    between atoms: C5_6  and  N1_8 
REMARK    5  A    between atoms: N1_8  and  N2_10 
REMARK    6  A    between atoms: N2_10  and  C6_12 
REMARK    7  A    between atoms: C6_12  and  N3_14 
REMARK    8  A    between atoms: N3_14  and  C7_16 
REMARK    9  A    between atoms: C7_16  and  C8_17 
REMARK   10  A    between atoms: C8_17  and  C9_18 
REMARK   11  A    between atoms: N4_20  and  C10_22 
REMARK   12  A    between atoms: C10_22  and  N5_24 
REMARK   13  A    between atoms: N5_24  and  C11_26 
ROOT
HETATM    1  C1  UNL     1      41.367  -0.365  33.371  1.00  0.00     0.040 C 
HETATM    2  C2  UNL     1      42.103  -1.146  32.310  1.00  0.00     0.047 C 
HETATM    3  C3  UNL     1      42.062  -2.602  32.811  1.00  0.00     0.040 C 
ENDROOT
BRANCH   2   4
HETATM    4  C4  UNL     1      43.504  -0.659  32.163  1.00  0.00     0.210 C 
BRANCH   4   5
HETATM    5  O1  UNL     1      43.836   0.534  32.685  1.00  0.00    -0.300 OA
BRANCH   5   6
HETATM    6  C5  UNL     1      44.743   1.082  33.446  1.00  0.00     0.379 C 
HETATM    7  O2  UNL     1      45.929   1.223  33.038  1.00  0.00    -0.237 OA
HETATM    8  N1  UNL     1      44.404   1.537  34.779  1.00  0.00    -0.243 N 
ATOM      9  H1  UNL     1      43.454   1.457  35.142  1.00  0.00     0.192 HD
BRANCH   8  10
HETATM   10  N2  UNL     1      45.417   2.081  35.534  1.00  0.00    -0.272 N 
ATOM     11  H2  UNL     1      45.741   3.033  35.369  1.00  0.00     0.189 HD
BRANCH  10  12
HETATM   12  C6  UNL     1      46.006   1.267  36.565  1.00  0.00     0.186 C 
HETATM   13  S1  UNL     1      45.068   0.915  37.824  1.00  0.00    -0.040 SA
BRANCH  12  14
HETATM   14  N3  UNL     1      47.296   0.763  36.421  1.00  0.00    -0.366 N 
ATOM     15  H3  UNL     1      48.027   1.181  36.997  1.00  0.00     0.161 HD
BRANCH  14  16
HETATM   16  C7  UNL     1      47.681  -0.279  35.544  1.00  0.00     0.123 C 
BRANCH  16  17
HETATM   17  C8  UNL     1      48.658  -1.259  36.054  1.00  0.00     0.030 C 
BRANCH  17  18
HETATM   18  C9  UNL     1      50.095  -0.981  36.123  1.00  0.00     0.086 C 
HETATM   19 BR1  UNL     1      50.666  -1.438  37.952  1.00  0.00    -0.096 Br
ENDBRANCH  17  18
ENDBRANCH  16  17
ENDBRANCH  14  16
ENDBRANCH  12  14
ENDBRANCH  10  12
ENDBRANCH   8  10
ENDBRANCH   5   6
ENDBRANCH   4   5
ENDBRANCH   2   4
BRANCH   2  20
HETATM   20  N4  UNL     1      41.425  -1.129  31.019  1.00  0.00    -0.356 N 
ATOM     21  H4  UNL     1      40.890  -0.289  30.799  1.00  0.00     0.162 HD
BRANCH  20  22
HETATM   22  C10 UNL     1      41.428  -2.139  30.049  1.00  0.00     0.173 C 
HETATM   23  S2  UNL     1      40.045  -2.908  29.664  1.00  0.00    -0.041 SA
BRANCH  22  24
HETATM   24  N5  UNL     1      42.593  -2.543  29.373  1.00  0.00    -0.318 N 
ATOM     25  H5  UNL     1      42.959  -3.458  29.635  1.00  0.00     0.170 HD
BRANCH  24  26
HETATM   26  C11 UNL     1      43.249  -1.927  28.485  1.00  0.00     0.123 A 
HETATM   27  C12 UNL     1      43.744  -2.402  27.297  1.00  0.00     0.068 A 
HETATM   28  C13 UNL     1      44.394  -1.365  26.624  1.00  0.00     0.111 A 
HETATM   29  N6  UNL     1      44.264  -0.300  27.440  1.00  0.00    -0.310 N 
HETATM   30  N7  UNL     1      43.590  -0.624  28.540  1.00  0.00    -0.286 N 
ATOM     31  H6  UNL     1      44.633   0.630  27.240  1.00  0.00     0.186 HD
ATOM     32  H7  UNL     1      43.366   0.013  29.305  1.00  0.00     0.188 HD
ENDBRANCH  24  26
ENDBRANCH  22  24
ENDBRANCH  20  22
ENDBRANCH   2  20
TORSDOF 13
ENDMDL
MODEL 3
REMARK VINA RESULT: -6.325833354      1.541      1.912
REMARK  13 active torsions:
REMARK  status: ('A' for Active; 'I' for Inactive)
REMARK    1  A    between atoms: C2_2  and  C4_4 
REMARK    2  A    between atoms: C2_2  and  N4_20 
REMARK    3  A    between atoms: C4_4  and  O1_5 
REMARK    4  A    between atoms: O1_5  and  C5_6 
REMARK       I    between atoms: C5_6  and  N1_8 
REMARK    5  A    between atoms: N1_8  and  N2_10 
REMARK    6  A    between atoms: N2_10  and  C6_12 
REMARK    7  A    between atoms: C6_12  and  N3_14 
REMARK    8  A    between atoms: N3_14  and  C7_16 
REMARK    9  A    between atoms: C7_16  and  C8_17 
REMARK   10  A    between atoms: C8_17  and  C9_18 
REMARK   11  A    between atoms: N4_20  and  C10_22 
REMARK   12  A    between atoms: C10_22  and  N5_24 
REMARK   13  A    between atoms: N5_24  and  C11_26 
ROOT
HETATM    1  C1  UNL     1      38.809  -2.552  29.807  1.00  0.00     0.040 C 
HETATM    2  C2  UNL     1      40.303  -2.670  29.985  1.00  0.00     0.047 C 
HETATM    3  C3  UNL     1      40.470  -3.444  31.307  1.00  0.00     0.040 C 
ENDROOT
BRANCH   2   4
HETATM    4  C4  UNL     1      40.941  -1.325  30.056  1.00  0.00     0.210 C 
BRANCH   4   5
HETATM    5  O1  UNL     1      41.776  -1.053  31.072  1.00  0.00    -0.300 OA
BRANCH   5   6
HETATM    6  C5  UNL     1      43.028  -0.765  31.296  1.00  0.00     0.379 C 
HETATM    7  O2  UNL     1      43.928  -1.119  30.485  1.00  0.00    -0.237 OA
HETATM    8  N1  UNL     1      43.411  -0.033  32.486  1.00  0.00    -0.243 N 
ATOM      9  H1  UNL     1      42.715   0.287  33.160  1.00  0.00     0.192 HD
BRANCH   8  10
HETATM   10  N2  UNL     1      44.751   0.213  32.670  1.00  0.00    -0.272 N 
ATOM     11  H2  UNL     1      45.441  -0.111  31.993  1.00  0.00     0.189 HD
BRANCH  10  12
HETATM   12  C6  UNL     1      45.152   0.941  33.845  1.00  0.00     0.186 C 
HETATM   13  S1  UNL     1      44.027   1.857  34.540  1.00  0.00    -0.040 SA
BRANCH  12  14
HETATM   14  N3  UNL     1      46.431   0.785  34.374  1.00  0.00    -0.366 N 
ATOM     15  H3  UNL     1      47.209   1.156  33.829  1.00  0.00     0.161 HD
BRANCH  14  16
HETATM   16  C7  UNL     1      46.744   0.156  35.603  1.00  0.00     0.123 C 
BRANCH  16  17
HETATM   17  C8  UNL     1      48.032  -0.558  35.683  1.00  0.00     0.030 C 
BRANCH  17  18
HETATM   18  C9  UNL     1      49.254   0.069  36.193  1.00  0.00     0.086 C 
HETATM   19 BR1  UNL     1      49.254  -0.211  38.144  1.00  0.00    -0.096 Br
ENDBRANCH  17  18
ENDBRANCH  16  17
ENDBRANCH  14  16
ENDBRANCH  12  14
ENDBRANCH  10  12
ENDBRANCH   8  10
ENDBRANCH   5   6
ENDBRANCH   4   5
ENDBRANCH   2   4
BRANCH   2  20
HETATM   20  N4  UNL     1      40.937  -3.475  28.948  1.00  0.00    -0.356 N 
ATOM     21  H4  UNL     1      40.394  -3.631  28.099  1.00  0.00     0.162 HD
BRANCH  20  22
HETATM   22  C10 UNL     1      42.210  -4.058  28.988  1.00  0.00     0.173 C 
HETATM   23  S2  UNL     1      42.384  -5.610  29.449  1.00  0.00    -0.041 SA
BRANCH  22  24
HETATM   24  N5  UNL     1      43.380  -3.356  28.650  1.00  0.00    -0.318 N 
ATOM     25  H5  UNL     1      44.029  -3.185  29.419  1.00  0.00     0.170 HD
BRANCH  24  26
HETATM   26  C11 UNL     1      43.739  -2.908  27.524  1.00  0.00     0.123 A 
HETATM   27  C12 UNL     1      43.905  -3.585  26.343  1.00  0.00     0.068 A 
HETATM   28  C13 UNL     1      44.300  -2.685  25.351  1.00  0.00     0.111 A 
HETATM   29  N6  UNL     1      44.358  -1.493  25.978  1.00  0.00    -0.310 N 
HETATM   30  N7  UNL     1      44.028  -1.618  27.262  1.00  0.00    -0.286 N 
ATOM     31  H6  UNL     1      44.618  -0.615  25.530  1.00  0.00     0.186 HD
ATOM     32  H7  UNL     1      43.998  -0.857  27.940  1.00  0.00     0.188 HD
ENDBRANCH  24  26
ENDBRANCH  22  24
ENDBRANCH  20  22
ENDBRANCH   2  20
TORSDOF 13
ENDMDL
MODEL 4
REMARK VINA RESULT: -6.261517548      3.044      3.370
REMARK  13 active torsions:
REMARK  status: ('A' for Active; 'I' for Inactive)
REMARK    1  A    between atoms: C2_2  and  C4_4 
REMARK    2  A    between atoms: C2_2  and  N4_20 
REMARK    3  A    between atoms: C4_4  and  O1_5 
REMARK    4  A    between atoms: O1_5  and  C5_6 
REMARK       I    between atoms: C5_6  and  N1_8 
REMARK    5  A    between atoms: N1_8  and  N2_10 
REMARK    6  A    between atoms: N2_10  and  C6_12 
REMARK    7  A    between atoms: C6_12  and  N3_14 
REMARK    8  A    between atoms: N3_14  and  C7_16 
REMARK    9  A    between atoms: C7_16  and  C8_17 
REMARK   10  A    between atoms: C8_17  and  C9_18 
REMARK   11  A    between atoms: N4_20  and  C10_22 
REMARK   12  A    between atoms: C10_22  and  N5_24 
REMARK   13  A    between atoms: N5_24  and  C11_26 
ROOT
HETATM    1  C1  UNL     1      41.402  -2.427  30.158  1.00  0.00     0.040 C 
HETATM    2  C2  UNL     1      42.780  -2.713  30.705  1.00  0.00     0.047 C 
HETATM    3  C3  UNL     1      42.518  -3.294  32.109  1.00  0.00     0.040 C 
ENDROOT
BRANCH   2   4
HETATM    4  C4  UNL     1      43.596  -1.468  30.774  1.00  0.00     0.210 C 
BRANCH   4   5
HETATM    5  O1  UNL     1      43.321  -0.561  31.726  1.00  0.00    -0.300 OA
BRANCH   5   6
HETATM    6  C5  UNL     1      43.894   0.058  32.721  1.00  0.00     0.379 C 
HETATM    7  O2  UNL     1      45.122   0.344  32.683  1.00  0.00    -0.237 OA
HETATM    8  N1  UNL     1      43.127   0.426  33.894  1.00  0.00    -0.243 N 
ATOM      9  H1  UNL     1      42.129   0.228  33.960  1.00  0.00     0.192 HD
BRANCH   8  10
HETATM   10  N2  UNL     1      43.802   1.053  34.915  1.00  0.00    -0.272 N 
ATOM     11  H2  UNL     1      44.799   0.894  35.061  1.00  0.00     0.189 HD
BRANCH  10  12
HETATM   12  C6  UNL     1      43.061   1.940  35.773  1.00  0.00     0.186 C 
HETATM   13  S1  UNL     1      42.161   1.249  36.914  1.00  0.00    -0.040 SA
BRANCH  12  14
HETATM   14  N3  UNL     1      43.192   3.321  35.649  1.00  0.00    -0.366 N 
ATOM     15  H3  UNL     1      42.598   3.785  34.962  1.00  0.00     0.161 HD
BRANCH  14  16
HETATM   16  C7  UNL     1      44.079   4.136  36.393  1.00  0.00     0.123 C 
BRANCH  16  17
HETATM   17  C8  UNL     1      43.528   4.819  37.578  1.00  0.00     0.030 C 
BRANCH  17  18
HETATM   18  C9  UNL     1      43.531   4.214  38.913  1.00  0.00     0.086 C 
HETATM   19 BR1  UNL     1      45.153   3.101  39.018  1.00  0.00    -0.096 Br
ENDBRANCH  17  18
ENDBRANCH  16  17
ENDBRANCH  14  16
ENDBRANCH  12  14
ENDBRANCH  10  12
ENDBRANCH   8  10
ENDBRANCH   5   6
ENDBRANCH   4   5
ENDBRANCH   2   4
BRANCH   2  20
HETATM   20  N4  UNL     1      43.488  -3.741  29.953  1.00  0.00    -0.356 N 
ATOM     21  H4  UNL     1      44.502  -3.762  30.057  1.00  0.00     0.162 HD
BRANCH  20  22
HETATM   22  C10 UNL     1      42.929  -4.703  29.102  1.00  0.00     0.173 C 
HETATM   23  S2  UNL     1      42.381  -6.112  29.709  1.00  0.00    -0.041 SA
BRANCH  22  24
HETATM   24  N5  UNL     1      42.817  -4.519  27.713  1.00  0.00    -0.318 N 
ATOM     25  H5  UNL     1      42.101  -5.079  27.251  1.00  0.00     0.170 HD
BRANCH  24  26
HETATM   26  C11 UNL     1      43.482  -3.753  26.958  1.00  0.00     0.123 A 
HETATM   27  C12 UNL     1      43.741  -2.414  27.104  1.00  0.00     0.068 A 
HETATM   28  C13 UNL     1      44.528  -1.980  26.036  1.00  0.00     0.111 A 
HETATM   29  N6  UNL     1      44.714  -3.082  25.283  1.00  0.00    -0.310 N 
HETATM   30  N7  UNL     1      44.099  -4.133  25.822  1.00  0.00    -0.286 N 
ATOM     31  H6  UNL     1      45.253  -3.108  24.418  1.00  0.00     0.186 HD
ATOM     32  H7  UNL     1      44.095  -5.077  25.435  1.00  0.00     0.188 HD
ENDBRANCH  24  26
ENDBRANCH  22  24
ENDBRANCH  20  22
ENDBRANCH   2  20
TORSDOF 13
ENDMDL
MODEL 5
REMARK VINA RESULT: -6.164436681      2.144      2.401
REMARK  13 active torsions:
REMARK  status: ('A' for Active; 'I' for Inactive)
REMARK    1  A    between atoms: C2_2  and  C4_4 
REMARK    2  A    between atoms: C2_2  and  N4_20 
REMARK    3  A    between atoms: C4_4  and  O1_5 
REMARK    4  A    between atoms: O1_5  and  C5_6 
REMARK       I    between atoms: C5_6  and  N1_8 
REMARK    5  A    between atoms: N1_8  and  N2_10 
REMARK    6  A    between atoms: N2_10  and  C6_12 
REMARK    7  A    between atoms: C6_12  and  N3_14 
REMARK    8  A    between atoms: N3_14  and  C7_16 
REMARK    9  A    between atoms: C7_16  and  C8_17 
REMARK   10  A    between atoms: C8_17  and  C9_18 
REMARK   11  A    between atoms: N4_20  and  C10_22 
REMARK   12  A    between atoms: C10_22  and  N5_24 
REMARK   13  A    between atoms: N5_24  and  C11_26 
ROOT
HETATM    1  C1  UNL     1      39.504  -2.151  30.006  1.00  0.00     0.040 C 
HETATM    2  C2  UNL     1      40.429  -3.292  30.355  1.00  0.00     0.047 C 
HETATM    3  C3  UNL     1      39.491  -4.399  30.871  1.00  0.00     0.040 C 
ENDROOT
BRANCH   2   4
HETATM    4  C4  UNL     1      41.414  -2.882  31.395  1.00  0.00     0.210 C 
BRANCH   4   5
HETATM    5  O1  UNL     1      41.950  -1.652  31.336  1.00  0.00    -0.300 OA
BRANCH   5   6
HETATM    6  C5  UNL     1      43.105  -1.051  31.431  1.00  0.00     0.379 C 
HETATM    7  O2  UNL     1      43.949  -1.122  30.495  1.00  0.00    -0.237 OA
HETATM    8  N1  UNL     1      43.441  -0.292  32.618  1.00  0.00    -0.243 N 
ATOM      9  H1  UNL     1      42.782  -0.195  33.391  1.00  0.00     0.192 HD
BRANCH   8  10
HETATM   10  N2  UNL     1      44.685   0.292  32.660  1.00  0.00    -0.272 N 
ATOM     11  H2  UNL     1      45.334   0.199  31.879  1.00  0.00     0.189 HD
BRANCH  10  12
HETATM   12  C6  UNL     1      45.044   1.039  33.837  1.00  0.00     0.186 C 
HETATM   13  S1  UNL     1      43.906   1.994  34.455  1.00  0.00    -0.040 SA
BRANCH  12  14
HETATM   14  N3  UNL     1      46.292   0.869  34.431  1.00  0.00    -0.366 N 
ATOM     15  H3  UNL     1      47.093   1.290  33.961  1.00  0.00     0.161 HD
BRANCH  14  16
HETATM   16  C7  UNL     1      46.545   0.161  35.631  1.00  0.00     0.123 C 
BRANCH  16  17
HETATM   17  C8  UNL     1      46.634   0.954  36.872  1.00  0.00     0.030 C 
BRANCH  17  18
HETATM   18  C9  UNL     1      45.551   1.005  37.857  1.00  0.00     0.086 C 
HETATM   19 BR1  UNL     1      45.097   2.908  38.091  1.00  0.00    -0.096 Br
ENDBRANCH  17  18
ENDBRANCH  16  17
ENDBRANCH  14  16
ENDBRANCH  12  14
ENDBRANCH  10  12
ENDBRANCH   8  10
ENDBRANCH   5   6
ENDBRANCH   4   5
ENDBRANCH   2   4
BRANCH   2  20
HETATM   20  N4  UNL     1      41.121  -3.837  29.193  1.00  0.00    -0.356 N 
ATOM     21  H4  UNL     1      40.618  -3.799  28.306  1.00  0.00     0.162 HD
BRANCH  20  22
HETATM   22  C10 UNL     1      42.399  -4.408  29.161  1.00  0.00     0.173 C 
HETATM   23  S2  UNL     1      42.623  -5.942  29.661  1.00  0.00    -0.041 SA
BRANCH  22  24
HETATM   24  N5  UNL     1      43.534  -3.709  28.713  1.00  0.00    -0.318 N 
ATOM     25  H5  UNL     1      44.220  -3.477  29.432  1.00  0.00     0.170 HD
BRANCH  24  26
HETATM   26  C11 UNL     1      43.822  -3.330  27.543  1.00  0.00     0.123 A 
HETATM   27  C12 UNL     1      44.063  -2.059  27.086  1.00  0.00     0.068 A 
HETATM   28  C13 UNL     1      44.354  -2.110  25.721  1.00  0.00     0.111 A 
HETATM   29  N6  UNL     1      44.276  -3.418  25.408  1.00  0.00    -0.310 N 
HETATM   30  N7  UNL     1      43.962  -4.144  26.478  1.00  0.00    -0.286 N 
ATOM     31  H6  UNL     1      44.437  -3.801  24.476  1.00  0.00     0.186 HD
ATOM     32  H7  UNL     1      43.845  -5.157  26.491  1.00  0.00     0.188 HD
ENDBRANCH  24  26
ENDBRANCH  22  24
ENDBRANCH  20  22
ENDBRANCH   2  20
TORSDOF 13
ENDMDL
