MODEL 1
REMARK VINA RESULT: -6.257169435      0.000      0.000
REMARK  9 active torsions:
REMARK  status: ('A' for Active; 'I' for Inactive)
REMARK    1  A    between atoms: C3_3  and  C4_4 
REMARK    2  A    between atoms: C5_7  and  N2_8 
REMARK       I    between atoms: N2_8  and  C6_10 
REMARK       I    between atoms: C6_10  and  N3_12 
REMARK    3  A    between atoms: N3_12  and  C7_14 
REMARK    4  A    between atoms: C7_14  and  C8_15 
REMARK    5  A    between atoms: C8_15  and  C9_16 
REMARK    6  A    between atoms: C9_16  and  N5_20 
REMARK    7  A    between atoms: N5_20  and  C10_22 
REMARK    8  A    between atoms: C10_22  and  C11_23 
REMARK    9  A    between atoms: C11_23  and  N6_24 
ROOT
HETATM    1  C1  UNL     1      43.802  -3.997  26.423  1.00  0.00     0.112 C 
HETATM    2  C2  UNL     1      43.671  -3.364  27.736  1.00  0.00    -0.104 C 
HETATM    3  C3  UNL     1      43.549  -2.848  28.828  1.00  0.00    -0.046 C 
ENDROOT
BRANCH   3   4
HETATM    4  C4  UNL     1      43.391  -2.242  30.135  1.00  0.00     0.137 A 
HETATM    5  N1  UNL     1      43.561  -0.964  30.481  1.00  0.00    -0.181 N 
HETATM    6  C5  UNL     1      43.323  -0.779  31.813  1.00  0.00     0.688 A 
ATOM      7  H1  UNL     1      43.832  -0.223  29.835  1.00  0.00     0.185 HD
HETATM    8  N8  UNL     1      42.996  -1.985  32.300  1.00  0.00    -0.182 N 
HETATM    9  C18 UNL     1      43.031  -2.902  31.288  1.00  0.00     0.132 A 
ATOM     10  H8  UNL     1      42.758  -2.185  33.272  1.00  0.00     0.185 HD
HETATM   11 BR1  UNL     1      42.651  -4.760  31.424  1.00  0.00    -0.028 Br
BRANCH   6  12
HETATM   12  N2  UNL     1      43.407   0.346  32.429  1.00  0.00    -0.141 N 
HETATM   13  C6  UNL     1      44.308   0.570  33.500  1.00  0.00     0.335 C 
HETATM   14  O1  UNL     1      45.499   0.802  33.175  1.00  0.00    -0.246 OA
HETATM   15  N3  UNL     1      43.838   0.522  34.826  1.00  0.00    -0.331 N 
ATOM     16  H3  UNL     1      42.849   0.313  34.960  1.00  0.00     0.165 HD
ATOM     17  H2  UNL     1      42.799   1.111  32.135  1.00  0.00     0.189 HD
BRANCH  15  18
HETATM   18  C7  UNL     1      44.635   0.745  36.023  1.00  0.00     0.065 C 
HETATM   19  C14 UNL     1      45.215   2.149  35.957  1.00  0.00     0.035 C 
HETATM   20  C15 UNL     1      44.308   3.137  36.660  1.00  0.00     0.030 C 
HETATM   21  C16 UNL     1      42.873   2.677  36.558  1.00  0.00     0.232 C 
HETATM   22  N7  UNL     1      42.619   1.437  37.226  1.00  0.00    -0.073 N 
HETATM   23  C17 UNL     1      43.796   0.579  37.270  1.00  0.00     0.263 C 
ATOM     24  H72 UNL     1      42.243   1.594  38.161  1.00  0.00     0.277 HD
ATOM     25  H71 UNL     1      41.825   0.951  36.809  1.00  0.00     0.277 HD
BRANCH  18  26
HETATM   26  C8  UNL     1      45.734  -0.280  36.036  1.00  0.00     0.108 C 
BRANCH  26  27
HETATM   27  C9  UNL     1      47.081   0.222  36.320  1.00  0.00     0.072 C 
HETATM   28  N4  UNL     1      47.902   0.374  35.311  1.00  0.00    -0.389 N 
ATOM     29  H42 UNL     1      47.547   0.131  34.386  1.00  0.00     0.157 HD
ATOM     30  H41 UNL     1      48.840   0.723  35.509  1.00  0.00     0.157 HD
BRANCH  27  31
HETATM   31  N5  UNL     1      47.570   0.558  37.596  1.00  0.00    -0.378 N 
ATOM     32  H5  UNL     1      47.000   1.160  38.189  1.00  0.00     0.160 HD
BRANCH  31  33
HETATM   33  C10 UNL     1      48.838   0.095  38.111  1.00  0.00     0.151 C 
BRANCH  33  34
HETATM   34  C11 UNL     1      48.745  -1.381  38.507  1.00  0.00     0.290 C 
BRANCH  34  35
HETATM   35  N6  UNL     1      49.819  -2.081  37.896  1.00  0.00     0.081 N 
HETATM   36  C12 UNL     1      50.676  -1.313  37.051  1.00  0.00     0.309 C 
HETATM   37  C13 UNL     1      50.586  -2.940  38.734  1.00  0.00     0.309 C 
ENDBRANCH  34  35
ENDBRANCH  33  34
ENDBRANCH  31  33
ENDBRANCH  27  31
ENDBRANCH  26  27
ENDBRANCH  18  26
ENDBRANCH  15  18
ENDBRANCH   6  12
ENDBRANCH   3   4
TORSDOF 9
ENDMDL
MODEL 2
REMARK VINA RESULT: -6.233231525      2.777      8.717
REMARK  9 active torsions:
REMARK  status: ('A' for Active; 'I' for Inactive)
REMARK    1  A    between atoms: C3_3  and  C4_4 
REMARK    2  A    between atoms: C5_7  and  N2_8 
REMARK       I    between atoms: N2_8  and  C6_10 
REMARK       I    between atoms: C6_10  and  N3_12 
REMARK    3  A    between atoms: N3_12  and  C7_14 
REMARK    4  A    between atoms: C7_14  and  C8_15 
REMARK    5  A    between atoms: C8_15  and  C9_16 
REMARK    6  A    between atoms: C9_16  and  N5_20 
REMARK    7  A    between atoms: N5_20  and  C10_22 
REMARK    8  A    between atoms: C10_22  and  C11_23 
REMARK    9  A    between atoms: C11_23  and  N6_24 
ROOT
HETATM    1  C1  UNL     1      50.462  -0.725  39.022  1.00  0.00     0.112 C 
HETATM    2  C2  UNL     1      49.363  -0.331  38.139  1.00  0.00    -0.104 C 
HETATM    3  C3  UNL     1      48.460   0.008  37.401  1.00  0.00    -0.046 C 
ENDROOT
BRANCH   3   4
HETATM    4  C4  UNL     1      47.393   0.424  36.515  1.00  0.00     0.137 A 
HETATM    5  N1  UNL     1      47.276   0.210  35.202  1.00  0.00    -0.181 N 
HETATM    6  C5  UNL     1      46.127   0.764  34.714  1.00  0.00     0.688 A 
ATOM      7  H1  UNL     1      47.955  -0.301  34.639  1.00  0.00     0.185 HD
HETATM    8  N8  UNL     1      45.519   1.337  35.763  1.00  0.00    -0.182 N 
HETATM    9  C18 UNL     1      46.278   1.143  36.883  1.00  0.00     0.132 A 
ATOM     10  H8  UNL     1      44.631   1.838  35.730  1.00  0.00     0.185 HD
HETATM   11 BR1  UNL     1      45.883   1.744  38.642  1.00  0.00    -0.028 Br
BRANCH   6  12
HETATM   12  N2  UNL     1      45.747   0.717  33.487  1.00  0.00    -0.141 N 
HETATM   13  C6  UNL     1      44.396   0.517  33.108  1.00  0.00     0.335 C 
HETATM   14  O1  UNL     1      43.655   1.529  33.166  1.00  0.00    -0.246 OA
HETATM   15  N3  UNL     1      43.971  -0.760  32.699  1.00  0.00    -0.331 N 
ATOM     16  H3  UNL     1      44.667  -1.506  32.705  1.00  0.00     0.165 HD
ATOM     17  H2  UNL     1      46.448   0.828  32.754  1.00  0.00     0.189 HD
BRANCH  15  18
HETATM   18  C7  UNL     1      42.626  -1.115  32.268  1.00  0.00     0.065 C 
HETATM   19  C14 UNL     1      42.446  -2.614  32.451  1.00  0.00     0.035 C 
HETATM   20  C15 UNL     1      41.840  -2.920  33.805  1.00  0.00     0.030 C 
HETATM   21  C16 UNL     1      42.261  -1.867  34.803  1.00  0.00     0.232 C 
HETATM   22  N7  UNL     1      41.775  -0.557  34.494  1.00  0.00    -0.073 N 
HETATM   23  C17 UNL     1      41.585  -0.359  33.063  1.00  0.00     0.263 C 
ATOM     24  H72 UNL     1      40.919  -0.351  35.010  1.00  0.00     0.277 HD
ATOM     25  H71 UNL     1      42.381   0.162  34.888  1.00  0.00     0.277 HD
BRANCH  18  26
HETATM   26  C8  UNL     1      42.498  -0.741  30.818  1.00  0.00     0.108 C 
BRANCH  26  27
HETATM   27  C9  UNL     1      41.728  -1.664  29.980  1.00  0.00     0.072 C 
HETATM   28  N4  UNL     1      40.425  -1.535  29.967  1.00  0.00    -0.389 N 
ATOM     29  H42 UNL     1      40.028  -0.795  30.546  1.00  0.00     0.157 HD
ATOM     30  H41 UNL     1      39.889  -2.177  29.384  1.00  0.00     0.157 HD
BRANCH  27  31
HETATM   31  N5  UNL     1      42.275  -2.684  29.181  1.00  0.00    -0.378 N 
ATOM     32  H5  UNL     1      41.795  -3.583  29.149  1.00  0.00     0.160 HD
BRANCH  31  33
HETATM   33  C10 UNL     1      43.483  -2.527  28.403  1.00  0.00     0.151 C 
BRANCH  33  34
HETATM   34  C11 UNL     1      43.568  -3.615  27.328  1.00  0.00     0.290 C 
BRANCH  34  35
HETATM   35  N6  UNL     1      44.316  -3.108  26.233  1.00  0.00     0.081 N 
HETATM   36  C12 UNL     1      43.947  -3.583  24.938  1.00  0.00     0.309 C 
HETATM   37  C13 UNL     1      44.536  -1.700  26.201  1.00  0.00     0.309 C 
ENDBRANCH  34  35
ENDBRANCH  33  34
ENDBRANCH  31  33
ENDBRANCH  27  31
ENDBRANCH  26  27
ENDBRANCH  18  26
ENDBRANCH  15  18
ENDBRANCH   6  12
ENDBRANCH   3   4
TORSDOF 9
ENDMDL
MODEL 3
REMARK VINA RESULT: -6.201024975      3.053      8.847
REMARK  9 active torsions:
REMARK  status: ('A' for Active; 'I' for Inactive)
REMARK    1  A    between atoms: C3_3  and  C4_4 
REMARK    2  A    between atoms: C5_7  and  N2_8 
REMARK       I    between atoms: N2_8  and  C6_10 
REMARK       I    between atoms: C6_10  and  N3_12 
REMARK    3  A    between atoms: N3_12  and  C7_14 
REMARK    4  A    between atoms: C7_14  and  C8_15 
REMARK    5  A    between atoms: C8_15  and  C9_16 
REMARK    6  A    between atoms: C9_16  and  N5_20 
REMARK    7  A    between atoms: N5_20  and  C10_22 
REMARK    8  A    between atoms: C10_22  and  C11_23 
REMARK    9  A    between atoms: C11_23  and  N6_24 
ROOT
HETATM    1  C1  UNL     1      48.903   0.156  37.543  1.00  0.00     0.112 C 
HETATM    2  C2  UNL     1      47.486   0.286  37.200  1.00  0.00    -0.104 C 
HETATM    3  C3  UNL     1      46.311   0.409  36.918  1.00  0.00    -0.046 C 
ENDROOT
BRANCH   3   4
HETATM    4  C4  UNL     1      44.910   0.572  36.588  1.00  0.00     0.137 A 
HETATM    5  N1  UNL     1      44.102  -0.287  35.964  1.00  0.00    -0.181 N 
HETATM    6  C5  UNL     1      42.844   0.229  35.829  1.00  0.00     0.688 A 
ATOM      7  H1  UNL     1      44.385  -1.209  35.632  1.00  0.00     0.185 HD
HETATM    8  N8  UNL     1      42.884   1.447  36.390  1.00  0.00    -0.182 N 
HETATM    9  C18 UNL     1      44.144   1.682  36.864  1.00  0.00     0.132 A 
ATOM     10  H8  UNL     1      42.098   2.094  36.453  1.00  0.00     0.185 HD
HETATM   11 BR1  UNL     1      44.751   3.250  37.750  1.00  0.00    -0.028 Br
BRANCH   6  12
HETATM   12  N2  UNL     1      41.855  -0.372  35.271  1.00  0.00    -0.141 N 
HETATM   13  C6  UNL     1      41.999  -1.174  34.111  1.00  0.00     0.335 C 
HETATM   14  O1  UNL     1      42.434  -2.336  34.300  1.00  0.00    -0.246 OA
HETATM   15  N3  UNL     1      41.656  -0.645  32.853  1.00  0.00    -0.331 N 
ATOM     16  H3  UNL     1      41.322   0.319  32.830  1.00  0.00     0.165 HD
ATOM     17  H2  UNL     1      40.926  -0.267  35.679  1.00  0.00     0.189 HD
BRANCH  15  18
HETATM   18  C7  UNL     1      41.734  -1.348  31.581  1.00  0.00     0.065 C 
HETATM   19  C14 UNL     1      41.196  -2.756  31.779  1.00  0.00     0.035 C 
HETATM   20  C15 UNL     1      39.718  -2.816  31.455  1.00  0.00     0.030 C 
HETATM   21  C16 UNL     1      39.074  -1.483  31.754  1.00  0.00     0.232 C 
HETATM   22  N7  UNL     1      39.565  -0.413  30.940  1.00  0.00    -0.073 N 
HETATM   23  C17 UNL     1      40.942  -0.627  30.514  1.00  0.00     0.263 C 
ATOM     24  H72 UNL     1      38.954  -0.249  30.140  1.00  0.00     0.277 HD
ATOM     25  H71 UNL     1      39.461   0.485  31.412  1.00  0.00     0.277 HD
BRANCH  18  26
HETATM   26  C8  UNL     1      43.179  -1.388  31.170  1.00  0.00     0.108 C 
BRANCH  26  27
HETATM   27  C9  UNL     1      43.441  -1.695  29.761  1.00  0.00     0.072 C 
HETATM   28  N4  UNL     1      43.574  -0.690  28.932  1.00  0.00    -0.389 N 
ATOM     29  H42 UNL     1      43.485   0.247  29.323  1.00  0.00     0.157 HD
ATOM     30  H41 UNL     1      43.756  -0.904  27.951  1.00  0.00     0.157 HD
BRANCH  27  31
HETATM   31  N5  UNL     1      43.564  -2.988  29.221  1.00  0.00    -0.378 N 
ATOM     32  H5  UNL     1      44.142  -3.666  29.717  1.00  0.00     0.160 HD
BRANCH  31  33
HETATM   33  C10 UNL     1      42.915  -3.408  28.000  1.00  0.00     0.151 C 
BRANCH  33  34
HETATM   34  C11 UNL     1      43.956  -3.857  26.971  1.00  0.00     0.290 C 
BRANCH  34  35
HETATM   35  N6  UNL     1      43.904  -2.973  25.861  1.00  0.00     0.081 N 
HETATM   36  C12 UNL     1      44.729  -1.811  25.937  1.00  0.00     0.309 C 
HETATM   37  C13 UNL     1      43.990  -3.561  24.567  1.00  0.00     0.309 C 
ENDBRANCH  34  35
ENDBRANCH  33  34
ENDBRANCH  31  33
ENDBRANCH  27  31
ENDBRANCH  26  27
ENDBRANCH  18  26
ENDBRANCH  15  18
ENDBRANCH   6  12
ENDBRANCH   3   4
TORSDOF 9
ENDMDL
MODEL 4
REMARK VINA RESULT: -6.191999341      6.495      9.338
REMARK  9 active torsions:
REMARK  status: ('A' for Active; 'I' for Inactive)
REMARK    1  A    between atoms: C3_3  and  C4_4 
REMARK    2  A    between atoms: C5_7  and  N2_8 
REMARK       I    between atoms: N2_8  and  C6_10 
REMARK       I    between atoms: C6_10  and  N3_12 
REMARK    3  A    between atoms: N3_12  and  C7_14 
REMARK    4  A    between atoms: C7_14  and  C8_15 
REMARK    5  A    between atoms: C8_15  and  C9_16 
REMARK    6  A    between atoms: C9_16  and  N5_20 
REMARK    7  A    between atoms: N5_20  and  C10_22 
REMARK    8  A    between atoms: C10_22  and  C11_23 
REMARK    9  A    between atoms: C11_23  and  N6_24 
ROOT
HETATM    1  C1  UNL     1      34.190  -0.654  27.564  1.00  0.00     0.112 C 
HETATM    2  C2  UNL     1      34.972  -1.852  27.873  1.00  0.00    -0.104 C 
HETATM    3  C3  UNL     1      35.623  -2.849  28.113  1.00  0.00    -0.046 C 
ENDROOT
BRANCH   3   4
HETATM    4  C4  UNL     1      36.400  -4.040  28.384  1.00  0.00     0.137 A 
HETATM    5  N1  UNL     1      37.452  -4.176  29.195  1.00  0.00    -0.181 N 
HETATM    6  C5  UNL     1      37.921  -5.459  29.182  1.00  0.00     0.688 A 
ATOM      7  H1  UNL     1      37.852  -3.421  29.751  1.00  0.00     0.185 HD
HETATM    8  N8  UNL     1      37.129  -6.133  28.334  1.00  0.00    -0.182 N 
HETATM    9  C18 UNL     1      36.186  -5.282  27.830  1.00  0.00     0.132 A 
ATOM     10  H8  UNL     1      37.218  -7.122  28.104  1.00  0.00     0.185 HD
HETATM   11 BR1  UNL     1      34.814  -5.715  26.588  1.00  0.00    -0.028 Br
BRANCH   6  12
HETATM   12  N2  UNL     1      38.923  -5.886  29.864  1.00  0.00    -0.141 N 
HETATM   13  C6  UNL     1      39.741  -5.031  30.644  1.00  0.00     0.335 C 
HETATM   14  O1  UNL     1      39.279  -4.703  31.765  1.00  0.00    -0.246 OA
HETATM   15  N3  UNL     1      40.986  -4.611  30.141  1.00  0.00    -0.331 N 
ATOM     16  H3  UNL     1      41.245  -4.939  29.210  1.00  0.00     0.165 HD
ATOM     17  H2  UNL     1      39.138  -6.883  29.844  1.00  0.00     0.189 HD
BRANCH  15  18
HETATM   18  C7  UNL     1      41.939  -3.751  30.827  1.00  0.00     0.065 C 
HETATM   19  C14 UNL     1      41.810  -3.993  32.323  1.00  0.00     0.035 C 
HETATM   20  C15 UNL     1      42.791  -5.051  32.781  1.00  0.00     0.030 C 
HETATM   21  C16 UNL     1      43.047  -6.031  31.660  1.00  0.00     0.232 C 
HETATM   22  N7  UNL     1      43.678  -5.444  30.518  1.00  0.00    -0.073 N 
HETATM   23  C17 UNL     1      43.352  -4.032  30.368  1.00  0.00     0.263 C 
ATOM     24  H72 UNL     1      44.688  -5.588  30.541  1.00  0.00     0.277 HD
ATOM     25  H71 UNL     1      43.459  -5.965  29.669  1.00  0.00     0.277 HD
BRANCH  18  26
HETATM   26  C8  UNL     1      41.592  -2.327  30.491  1.00  0.00     0.108 C 
BRANCH  26  27
HETATM   27  C9  UNL     1      42.717  -1.456  30.138  1.00  0.00     0.072 C 
HETATM   28  N4  UNL     1      43.502  -1.050  31.104  1.00  0.00    -0.389 N 
ATOM     29  H42 UNL     1      43.278  -1.369  32.046  1.00  0.00     0.157 HD
ATOM     30  H41 UNL     1      44.284  -0.443  30.858  1.00  0.00     0.157 HD
BRANCH  27  31
HETATM   31  N5  UNL     1      43.025  -1.016  28.837  1.00  0.00    -0.378 N 
ATOM     32  H5  UNL     1      42.332  -0.459  28.339  1.00  0.00     0.160 HD
BRANCH  31  33
HETATM   33  C10 UNL     1      44.272  -1.312  28.170  1.00  0.00     0.151 C 
BRANCH  33  34
HETATM   34  C11 UNL     1      44.157  -2.622  27.386  1.00  0.00     0.290 C 
BRANCH  34  35
HETATM   35  N6  UNL     1      43.831  -2.313  26.039  1.00  0.00     0.081 N 
HETATM   36  C12 UNL     1      44.246  -1.033  25.563  1.00  0.00     0.309 C 
HETATM   37  C13 UNL     1      44.102  -3.317  25.065  1.00  0.00     0.309 C 
ENDBRANCH  34  35
ENDBRANCH  33  34
ENDBRANCH  31  33
ENDBRANCH  27  31
ENDBRANCH  26  27
ENDBRANCH  18  26
ENDBRANCH  15  18
ENDBRANCH   6  12
ENDBRANCH   3   4
TORSDOF 9
ENDMDL
MODEL 5
REMARK VINA RESULT: -6.144242719      1.323      1.518
REMARK  9 active torsions:
REMARK  status: ('A' for Active; 'I' for Inactive)
REMARK    1  A    between atoms: C3_3  and  C4_4 
REMARK    2  A    between atoms: C5_7  and  N2_8 
REMARK       I    between atoms: N2_8  and  C6_10 
REMARK       I    between atoms: C6_10  and  N3_12 
REMARK    3  A    between atoms: N3_12  and  C7_14 
REMARK    4  A    between atoms: C7_14  and  C8_15 
REMARK    5  A    between atoms: C8_15  and  C9_16 
REMARK    6  A    between atoms: C9_16  and  N5_20 
REMARK    7  A    between atoms: N5_20  and  C10_22 
REMARK    8  A    between atoms: C10_22  and  C11_23 
REMARK    9  A    between atoms: C11_23  and  N6_24 
ROOT
HETATM    1  C1  UNL     1      44.300  -2.782  25.804  1.00  0.00     0.112 C 
HETATM    2  C2  UNL     1      43.926  -2.573  27.202  1.00  0.00    -0.104 C 
HETATM    3  C3  UNL     1      43.608  -2.386  28.360  1.00  0.00    -0.046 C 
ENDROOT
BRANCH   3   4
HETATM    4  C4  UNL     1      43.221  -2.148  29.735  1.00  0.00     0.137 A 
HETATM    5  N1  UNL     1      42.855  -0.998  30.305  1.00  0.00    -0.181 N 
HETATM    6  C5  UNL     1      42.567  -1.174  31.628  1.00  0.00     0.688 A 
ATOM      7  H1  UNL     1      42.799  -0.105  29.816  1.00  0.00     0.185 HD
HETATM    8  N8  UNL     1      42.762  -2.478  31.878  1.00  0.00    -0.182 N 
HETATM    9  C18 UNL     1      43.164  -3.099  30.729  1.00  0.00     0.132 A 
ATOM     10  H8  UNL     1      42.629  -2.932  32.781  1.00  0.00     0.185 HD
HETATM   11 BR1  UNL     1      43.576  -4.943  30.519  1.00  0.00    -0.028 Br
BRANCH   6  12
HETATM   12  N2  UNL     1      42.187  -0.245  32.432  1.00  0.00    -0.141 N 
HETATM   13  C6  UNL     1      43.023   0.281  33.448  1.00  0.00     0.335 C 
HETATM   14  O1  UNL     1      43.873   1.127  33.074  1.00  0.00    -0.246 OA
HETATM   15  N3  UNL     1      42.863  -0.155  34.776  1.00  0.00    -0.331 N 
ATOM     16  H3  UNL     1      42.142  -0.855  34.951  1.00  0.00     0.165 HD
ATOM     17  H2  UNL     1      41.243   0.129  32.335  1.00  0.00     0.189 HD
BRANCH  15  18
HETATM   18  C7  UNL     1      43.632   0.303  35.924  1.00  0.00     0.065 C 
HETATM   19  C14 UNL     1      43.763   1.816  35.838  1.00  0.00     0.035 C 
HETATM   20  C15 UNL     1      42.650   2.495  36.608  1.00  0.00     0.030 C 
HETATM   21  C16 UNL     1      41.413   1.629  36.590  1.00  0.00     0.232 C 
HETATM   22  N7  UNL     1      41.582   0.375  37.258  1.00  0.00    -0.073 N 
HETATM   23  C17 UNL     1      42.961  -0.095  37.219  1.00  0.00     0.263 C 
ATOM     24  H72 UNL     1      41.235   0.419  38.217  1.00  0.00     0.277 HD
ATOM     25  H71 UNL     1      40.943  -0.328  36.886  1.00  0.00     0.277 HD
BRANCH  18  26
HETATM   26  C8  UNL     1      44.984  -0.348  35.856  1.00  0.00     0.108 C 
BRANCH  26  27
HETATM   27  C9  UNL     1      46.127   0.553  35.682  1.00  0.00     0.072 C 
HETATM   28  N4  UNL     1      46.503   0.832  34.459  1.00  0.00    -0.389 N 
ATOM     29  H42 UNL     1      45.973   0.401  33.702  1.00  0.00     0.157 HD
ATOM     30  H41 UNL     1      47.299   1.459  34.338  1.00  0.00     0.157 HD
BRANCH  27  31
HETATM   31  N5  UNL     1      46.859   1.147  36.726  1.00  0.00    -0.378 N 
ATOM     32  H5  UNL     1      46.987   2.159  36.710  1.00  0.00     0.160 HD
BRANCH  31  33
HETATM   33  C10 UNL     1      47.438   0.402  37.820  1.00  0.00     0.151 C 
BRANCH  33  34
HETATM   34  C11 UNL     1      48.910   0.093  37.532  1.00  0.00     0.290 C 
BRANCH  34  35
HETATM   35  N6  UNL     1      49.002  -1.232  37.029  1.00  0.00     0.081 N 
HETATM   36  C12 UNL     1      48.020  -2.158  37.497  1.00  0.00     0.309 C 
HETATM   37  C13 UNL     1      49.190  -1.375  35.624  1.00  0.00     0.309 C 
ENDBRANCH  34  35
ENDBRANCH  33  34
ENDBRANCH  31  33
ENDBRANCH  27  31
ENDBRANCH  26  27
ENDBRANCH  18  26
ENDBRANCH  15  18
ENDBRANCH   6  12
ENDBRANCH   3   4
TORSDOF 9
ENDMDL
