MODEL 1
REMARK VINA RESULT: -5.625971783      0.000      0.000
REMARK  4 active torsions:
REMARK  status: ('A' for Active; 'I' for Inactive)
REMARK    1  A    between atoms: C5_5  and  N1_6 
REMARK    2  A    between atoms: N1_6  and  C6_8 
REMARK    3  A    between atoms: C6_8  and  N2_10 
REMARK    4  A    between atoms: N2_10  and  N3_12 
ROOT
HETATM    1  N1  UNL     1      42.183  -2.755  28.724  1.00  0.00    -0.361 N 
ATOM      2  H1  UNL     1      41.389  -2.482  28.145  1.00  0.00     0.162 HD
ENDROOT
BRANCH   1   3
HETATM    3  C5  UNL     1      42.729  -1.769  29.638  1.00  0.00     0.086 C 
HETATM    4  C4  UNL     1      41.591  -1.060  30.329  1.00  0.00     0.035 C 
HETATM    5  C2  UNL     1      41.608  -1.548  31.757  1.00  0.00    -0.029 C 
HETATM    6  C1  UNL     1      41.092  -0.432  32.637  1.00  0.00     0.016 C 
HETATM    7  C3  UNL     1      40.763  -2.759  31.989  1.00  0.00     0.016 C 
HETATM    8  C9  UNL     1      43.038  -1.875  32.009  1.00  0.00     0.092 C 
HETATM    9  C8  UNL     1      43.588  -2.368  30.695  1.00  0.00     0.046 C 
HETATM   10 CL1  UNL     1      43.951  -0.476  32.633  1.00  0.00    -0.124 Cl
ENDBRANCH   1   3
BRANCH   1  11
HETATM   11  C6  UNL     1      42.681  -4.069  28.588  1.00  0.00     0.186 C 
HETATM   12  S1  UNL     1      41.966  -5.273  29.423  1.00  0.00    -0.040 SA
BRANCH  11  13
HETATM   13  N2  UNL     1      43.774  -4.427  27.766  1.00  0.00    -0.274 N 
ATOM     14  H2  UNL     1      44.554  -4.926  28.196  1.00  0.00     0.189 HD
BRANCH  13  15
HETATM   15  N3  UNL     1      43.852  -4.143  26.415  1.00  0.00    -0.274 N 
HETATM   16  C7  UNL     1      44.319  -3.043  25.921  1.00  0.00     0.215 C 
HETATM   17  N4  UNL     1      44.321  -2.924  24.509  1.00  0.00    -0.065 NA
HETATM   18  N5  UNL     1      44.816  -1.973  26.708  1.00  0.00    -0.065 NA
ATOM     19  H3  UNL     1      43.516  -4.851  25.761  1.00  0.00     0.189 HD
ENDBRANCH  13  15
ENDBRANCH  11  13
ENDBRANCH   1  11
TORSDOF 4
ENDMDL
MODEL 2
REMARK VINA RESULT: -5.274357287      2.035      2.468
REMARK  4 active torsions:
REMARK  status: ('A' for Active; 'I' for Inactive)
REMARK    1  A    between atoms: C5_5  and  N1_6 
REMARK    2  A    between atoms: N1_6  and  C6_8 
REMARK    3  A    between atoms: C6_8  and  N2_10 
REMARK    4  A    between atoms: N2_10  and  N3_12 
ROOT
HETATM    1  N1  UNL     1      41.142  -4.295  29.216  1.00  0.00    -0.361 N 
ATOM      2  H1  UNL     1      40.477  -5.049  29.387  1.00  0.00     0.162 HD
ENDROOT
BRANCH   1   3
HETATM    3  C5  UNL     1      40.657  -2.930  29.291  1.00  0.00     0.086 C 
HETATM    4  C4  UNL     1      39.180  -2.952  29.598  1.00  0.00     0.035 C 
HETATM    5  C2  UNL     1      39.046  -2.469  31.021  1.00  0.00    -0.029 C 
HETATM    6  C1  UNL     1      37.716  -1.761  31.149  1.00  0.00     0.016 C 
HETATM    7  C3  UNL     1      39.095  -3.565  32.036  1.00  0.00     0.016 C 
HETATM    8  C9  UNL     1      40.210  -1.560  31.203  1.00  0.00     0.092 C 
HETATM    9  C8  UNL     1      41.320  -2.133  30.359  1.00  0.00     0.046 C 
HETATM   10 CL1  UNL     1      39.830   0.123  30.752  1.00  0.00    -0.124 Cl
ENDBRANCH   1   3
BRANCH   1  11
HETATM   11  C6  UNL     1      42.478  -4.644  28.922  1.00  0.00     0.186 C 
HETATM   12  S1  UNL     1      43.360  -5.411  30.060  1.00  0.00    -0.040 SA
BRANCH  11  13
HETATM   13  N2  UNL     1      43.123  -4.375  27.693  1.00  0.00    -0.274 N 
ATOM     14  H2  UNL     1      42.959  -5.015  26.915  1.00  0.00     0.189 HD
BRANCH  13  15
HETATM   15  N3  UNL     1      43.961  -3.297  27.479  1.00  0.00    -0.274 N 
HETATM   16  C7  UNL     1      44.397  -2.923  26.320  1.00  0.00     0.215 C 
HETATM   17  N4  UNL     1      45.250  -1.792  26.290  1.00  0.00    -0.065 NA
HETATM   18  N5  UNL     1      44.070  -3.578  25.106  1.00  0.00    -0.065 NA
ATOM     19  H3  UNL     1      44.257  -2.757  28.293  1.00  0.00     0.189 HD
ENDBRANCH  13  15
ENDBRANCH  11  13
ENDBRANCH   1  11
TORSDOF 4
ENDMDL
MODEL 3
REMARK VINA RESULT: -5.241628649      2.857      3.559
REMARK  4 active torsions:
REMARK  status: ('A' for Active; 'I' for Inactive)
REMARK    1  A    between atoms: C5_5  and  N1_6 
REMARK    2  A    between atoms: N1_6  and  C6_8 
REMARK    3  A    between atoms: C6_8  and  N2_10 
REMARK    4  A    between atoms: N2_10  and  N3_12 
ROOT
HETATM    1  N1  UNL     1      40.875  -1.868  30.175  1.00  0.00    -0.361 N 
ATOM      2  H1  UNL     1      40.475  -2.802  30.085  1.00  0.00     0.162 HD
ENDROOT
BRANCH   1   3
HETATM    3  C5  UNL     1      39.975  -0.767  30.462  1.00  0.00     0.086 C 
HETATM    4  C4  UNL     1      38.554  -1.274  30.421  1.00  0.00     0.035 C 
HETATM    5  C2  UNL     1      38.077  -1.282  31.852  1.00  0.00    -0.029 C 
HETATM    6  C1  UNL     1      36.587  -1.026  31.848  1.00  0.00     0.016 C 
HETATM    7  C3  UNL     1      38.332  -2.571  32.564  1.00  0.00     0.016 C 
HETATM    8  C9  UNL     1      38.855  -0.188  32.496  1.00  0.00     0.092 C 
HETATM    9  C8  UNL     1      40.195  -0.170  31.807  1.00  0.00     0.046 C 
HETATM   10 CL1  UNL     1      38.025   1.387  32.384  1.00  0.00    -0.124 Cl
ENDBRANCH   1   3
BRANCH   1  11
HETATM   11  C6  UNL     1      42.270  -1.727  30.012  1.00  0.00     0.186 C 
HETATM   12  S1  UNL     1      43.266  -2.548  31.010  1.00  0.00    -0.040 SA
BRANCH  11  13
HETATM   13  N2  UNL     1      42.883  -0.913  29.032  1.00  0.00    -0.274 N 
ATOM     14  H2  UNL     1      42.845   0.099  29.157  1.00  0.00     0.189 HD
BRANCH  13  15
HETATM   15  N3  UNL     1      43.530  -1.405  27.913  1.00  0.00    -0.274 N 
HETATM   16  C7  UNL     1      44.757  -1.140  27.598  1.00  0.00     0.215 C 
HETATM   17  N4  UNL     1      45.256  -1.733  26.413  1.00  0.00    -0.065 NA
HETATM   18  N5  UNL     1      45.604  -0.300  28.365  1.00  0.00    -0.065 NA
ATOM     19  H3  UNL     1      43.004  -2.020  27.293  1.00  0.00     0.189 HD
ENDBRANCH  13  15
ENDBRANCH  11  13
ENDBRANCH   1  11
TORSDOF 4
ENDMDL
MODEL 4
REMARK VINA RESULT: -5.226480056      3.258      4.814
REMARK  4 active torsions:
REMARK  status: ('A' for Active; 'I' for Inactive)
REMARK    1  A    between atoms: C5_5  and  N1_6 
REMARK    2  A    between atoms: N1_6  and  C6_8 
REMARK    3  A    between atoms: C6_8  and  N2_10 
REMARK    4  A    between atoms: N2_10  and  N3_12 
ROOT
HETATM    1  N1  UNL     1      44.055  -2.893  29.355  1.00  0.00    -0.361 N 
ATOM      2  H1  UNL     1      44.823  -2.789  30.018  1.00  0.00     0.162 HD
ENDROOT
BRANCH   1   3
HETATM    3  C5  UNL     1      43.334  -4.152  29.342  1.00  0.00     0.086 C 
HETATM    4  C4  UNL     1      43.809  -4.999  30.496  1.00  0.00     0.035 C 
HETATM    5  C2  UNL     1      42.671  -5.020  31.488  1.00  0.00    -0.029 C 
HETATM    6  C1  UNL     1      42.716  -6.341  32.221  1.00  0.00     0.016 C 
HETATM    7  C3  UNL     1      42.734  -3.919  32.497  1.00  0.00     0.016 C 
HETATM    8  C9  UNL     1      41.456  -4.861  30.644  1.00  0.00     0.092 C 
HETATM    9  C8  UNL     1      41.863  -3.982  29.489  1.00  0.00     0.046 C 
HETATM   10 CL1  UNL     1      40.807  -6.429  30.094  1.00  0.00    -0.124 Cl
ENDBRANCH   1   3
BRANCH   1  11
HETATM   11  C6  UNL     1      43.760  -1.804  28.507  1.00  0.00     0.186 C 
HETATM   12  S1  UNL     1      44.136  -1.913  26.924  1.00  0.00    -0.040 SA
BRANCH  11  13
HETATM   13  N2  UNL     1      43.151  -0.601  28.934  1.00  0.00    -0.274 N 
ATOM     14  H2  UNL     1      43.591   0.280  28.667  1.00  0.00     0.189 HD
BRANCH  13  15
HETATM   15  N3  UNL     1      41.996  -0.546  29.692  1.00  0.00    -0.274 N 
HETATM   16  C7  UNL     1      41.966  -0.382  30.975  1.00  0.00     0.215 C 
HETATM   17  N4  UNL     1      40.689  -0.350  31.587  1.00  0.00    -0.065 NA
HETATM   18  N5  UNL     1      43.125  -0.238  31.779  1.00  0.00    -0.065 NA
ATOM     19  H3  UNL     1      41.105  -0.641  29.206  1.00  0.00     0.189 HD
ENDBRANCH  13  15
ENDBRANCH  11  13
ENDBRANCH   1  11
TORSDOF 4
ENDMDL
MODEL 5
REMARK VINA RESULT: -5.164875264      3.148      3.969
REMARK  4 active torsions:
REMARK  status: ('A' for Active; 'I' for Inactive)
REMARK    1  A    between atoms: C5_5  and  N1_6 
REMARK    2  A    between atoms: N1_6  and  C6_8 
REMARK    3  A    between atoms: C6_8  and  N2_10 
REMARK    4  A    between atoms: N2_10  and  N3_12 
ROOT
HETATM    1  N1  UNL     1      42.454  -2.974  30.370  1.00  0.00    -0.361 N 
ATOM      2  H1  UNL     1      41.613  -3.382  29.964  1.00  0.00     0.162 HD
ENDROOT
BRANCH   1   3
HETATM    3  C5  UNL     1      43.420  -3.869  30.977  1.00  0.00     0.086 C 
HETATM    4  C4  UNL     1      42.825  -4.450  32.236  1.00  0.00     0.035 C 
HETATM    5  C2  UNL     1      42.538  -5.899  31.926  1.00  0.00    -0.029 C 
HETATM    6  C1  UNL     1      42.681  -6.686  33.209  1.00  0.00     0.016 C 
HETATM    7  C3  UNL     1      41.168  -6.136  31.377  1.00  0.00     0.016 C 
HETATM    8  C9  UNL     1      43.559  -6.258  30.905  1.00  0.00     0.092 C 
HETATM    9  C8  UNL     1      43.794  -5.008  30.095  1.00  0.00     0.046 C 
HETATM   10 CL1  UNL     1      45.065  -6.868  31.642  1.00  0.00    -0.124 Cl
ENDBRANCH   1   3
BRANCH   1  11
HETATM   11  C6  UNL     1      42.606  -1.572  30.306  1.00  0.00     0.186 C 
HETATM   12  S1  UNL     1      42.677  -0.723  31.697  1.00  0.00    -0.040 SA
BRANCH  11  13
HETATM   13  N2  UNL     1      42.704  -0.832  29.105  1.00  0.00    -0.274 N 
ATOM     14  H2  UNL     1      41.899  -0.273  28.820  1.00  0.00     0.189 HD
BRANCH  13  15
HETATM   15  N3  UNL     1      43.823  -0.820  28.293  1.00  0.00    -0.274 N 
HETATM   16  C7  UNL     1      44.120  -1.745  27.438  1.00  0.00     0.215 C 
HETATM   17  N4  UNL     1      45.310  -1.566  26.689  1.00  0.00    -0.065 NA
HETATM   18  N5  UNL     1      43.331  -2.903  27.222  1.00  0.00    -0.065 NA
ATOM     19  H3  UNL     1      44.458  -0.027  28.373  1.00  0.00     0.189 HD
ENDBRANCH  13  15
ENDBRANCH  11  13
ENDBRANCH   1  11
TORSDOF 4
ENDMDL
