MODEL 1
REMARK VINA RESULT: -6.718602041      0.000      0.000
REMARK  7 active torsions:
REMARK  status: ('A' for Active; 'I' for Inactive)
REMARK    1  A    between atoms: N2_4  and  N3_6 
REMARK    2  A    between atoms: N3_6  and  C1_8 
REMARK    3  A    between atoms: C4_11  and  C5_12 
REMARK    4  A    between atoms: C6_15  and  C7_16 
REMARK    5  A    between atoms: C7_16  and  C8_17 
REMARK    6  A    between atoms: C7_16  and  C21_30 
REMARK    7  A    between atoms: C21_30  and  O3_31 
ROOT
HETATM    1  C7  UNL     1      40.726  -1.893  30.099  1.00  0.00     0.039 C 
ENDROOT
BRANCH   1   2
HETATM    2  C6  UNL     1      41.592  -2.936  29.519  1.00  0.00     0.034 C 
HETATM    3  C1  UNL     1      42.992  -2.679  29.197  1.00  0.00     0.106 C 
HETATM    4  C2  UNL     1      43.588  -4.076  28.971  1.00  0.00     0.028 C 
HETATM    5  C3  UNL     1      42.397  -5.046  29.135  1.00  0.00     0.018 C 
HETATM    6  C4  UNL     1      41.596  -4.264  30.240  1.00  0.00     0.093 C 
BRANCH   3   7
HETATM    7  N3  UNL     1      43.265  -1.978  27.949  1.00  0.00    -0.317 N 
ATOM      8  H3  UNL     1      43.051  -2.426  27.058  1.00  0.00     0.182 HD
BRANCH   7   9
HETATM    9  N2  UNL     1      43.817  -0.700  27.968  1.00  0.00    -0.253 N 
HETATM   10  N1  UNL     1      44.950  -0.456  28.500  1.00  0.00    -0.331 N 
ATOM     11  H12 UNL     1      45.455  -1.234  28.922  1.00  0.00     0.178 HD
ATOM     12  H11 UNL     1      45.354   0.480  28.513  1.00  0.00     0.178 HD
ATOM     13  H2  UNL     1      43.298   0.067  27.540  1.00  0.00     0.207 HD
ENDBRANCH   7   9
ENDBRANCH   3   7
BRANCH   6  14
HETATM   14  C5  UNL     1      42.476  -4.374  31.406  1.00  0.00     0.177 C 
HETATM   15  O1  UNL     1      42.725  -3.528  32.284  1.00  0.00    -0.648 OA
HETATM   16  O2  UNL     1      43.161  -5.606  31.591  1.00  0.00    -0.648 OA
ENDBRANCH   6  14
ENDBRANCH   1   2
BRANCH   1  17
HETATM   17  C8  UNL     1      39.545  -2.278  30.847  1.00  0.00    -0.016 C 
HETATM   18  C9  UNL     1      38.342  -2.556  30.383  1.00  0.00    -0.078 C 
HETATM   19  C10 UNL     1      37.923  -2.532  28.963  1.00  0.00     0.039 C 
HETATM   20  C17 UNL     1      37.257  -2.902  31.340  1.00  0.00     0.019 C 
HETATM   21  C11 UNL     1      36.472  -2.265  28.776  1.00  0.00    -0.002 C 
HETATM   22  C12 UNL     1      35.543  -3.413  28.560  1.00  0.00    -0.005 C 
HETATM   23  C19 UNL     1      35.676  -1.891  29.958  1.00  0.00    -0.004 C 
HETATM   24  C13 UNL     1      36.055  -4.699  28.069  1.00  0.00     0.005 C 
HETATM   25  C20 UNL     1      35.250  -3.365  30.035  1.00  0.00    -0.001 C 
HETATM   26  C14 UNL     1      36.196  -5.757  29.148  1.00  0.00     0.001 C 
HETATM   27  C15 UNL     1      36.913  -5.216  30.365  1.00  0.00     0.005 C 
HETATM   28  C16 UNL     1      36.317  -3.968  30.896  1.00  0.00    -0.002 C 
HETATM   29  C18 UNL     1      36.332  -1.665  31.249  1.00  0.00     0.014 C 
ENDBRANCH   1  17
BRANCH   1  30
HETATM   30  C21 UNL     1      41.623  -0.931  30.904  1.00  0.00     0.173 C 
BRANCH  30  31
HETATM   31  O3  UNL     1      42.109   0.100  30.110  1.00  0.00    -0.400 OA
ATOM     32  H3  UNL     1      42.651   0.700  30.610  1.00  0.00     0.209 HD
ENDBRANCH  30  31
ENDBRANCH   1  30
TORSDOF 7
ENDMDL
MODEL 2
REMARK VINA RESULT: -6.718586507      1.890      3.535
REMARK  7 active torsions:
REMARK  status: ('A' for Active; 'I' for Inactive)
REMARK    1  A    between atoms: N2_4  and  N3_6 
REMARK    2  A    between atoms: N3_6  and  C1_8 
REMARK    3  A    between atoms: C4_11  and  C5_12 
REMARK    4  A    between atoms: C6_15  and  C7_16 
REMARK    5  A    between atoms: C7_16  and  C8_17 
REMARK    6  A    between atoms: C7_16  and  C21_30 
REMARK    7  A    between atoms: C21_30  and  O3_31 
ROOT
HETATM    1  C7  UNL     1      39.971  -4.133  30.316  1.00  0.00     0.039 C 
ENDROOT
BRANCH   1   2
HETATM    2  C6  UNL     1      41.341  -3.607  30.177  1.00  0.00     0.034 C 
HETATM    3  C1  UNL     1      41.891  -3.232  28.878  1.00  0.00     0.106 C 
HETATM    4  C2  UNL     1      43.152  -2.427  29.222  1.00  0.00     0.028 C 
HETATM    5  C3  UNL     1      43.241  -2.469  30.763  1.00  0.00     0.018 C 
HETATM    6  C4  UNL     1      41.704  -2.464  31.097  1.00  0.00     0.093 C 
BRANCH   3   7
HETATM    7  N3  UNL     1      42.386  -4.311  28.034  1.00  0.00    -0.317 N 
ATOM      8  H3  UNL     1      41.861  -5.183  27.964  1.00  0.00     0.182 HD
BRANCH   7   9
HETATM    9  N2  UNL     1      43.573  -4.158  27.321  1.00  0.00    -0.253 N 
HETATM   10  N1  UNL     1      43.616  -4.231  26.049  1.00  0.00    -0.331 N 
ATOM     11  H12 UNL     1      42.743  -4.408  25.552  1.00  0.00     0.178 HD
ATOM     12  H11 UNL     1      44.485  -4.120  25.527  1.00  0.00     0.178 HD
ATOM     13  H2  UNL     1      44.436  -3.982  27.834  1.00  0.00     0.207 HD
ENDBRANCH   7   9
ENDBRANCH   3   7
BRANCH   6  14
HETATM   14  C5  UNL     1      41.293  -1.124  30.672  1.00  0.00     0.177 C 
HETATM   15  O1  UNL     1      40.246  -0.768  30.102  1.00  0.00    -0.648 OA
HETATM   16  O2  UNL     1      42.195  -0.055  30.927  1.00  0.00    -0.648 OA
ENDBRANCH   6  14
ENDBRANCH   1   2
BRANCH   1  17
HETATM   17  C8  UNL     1      38.973  -3.801  29.318  1.00  0.00    -0.016 C 
HETATM   18  C9  UNL     1      37.663  -3.734  29.467  1.00  0.00    -0.078 C 
HETATM   19  C10 UNL     1      36.909  -3.992  30.716  1.00  0.00     0.039 C 
HETATM   20  C17 UNL     1      36.814  -3.402  28.292  1.00  0.00     0.019 C 
HETATM   21  C11 UNL     1      35.516  -4.455  30.483  1.00  0.00    -0.002 C 
HETATM   22  C12 UNL     1      34.399  -3.467  30.548  1.00  0.00    -0.005 C 
HETATM   23  C19 UNL     1      35.108  -4.768  29.102  1.00  0.00    -0.004 C 
HETATM   24  C13 UNL     1      34.571  -2.202  31.276  1.00  0.00     0.005 C 
HETATM   25  C20 UNL     1      34.498  -3.359  29.051  1.00  0.00    -0.001 C 
HETATM   26  C14 UNL     1      34.817  -1.005  30.376  1.00  0.00     0.001 C 
HETATM   27  C15 UNL     1      35.890  -1.293  29.350  1.00  0.00     0.005 C 
HETATM   28  C16 UNL     1      35.643  -2.524  28.566  1.00  0.00    -0.002 C 
HETATM   29  C18 UNL     1      36.094  -4.744  28.017  1.00  0.00     0.014 C 
ENDBRANCH   1  17
BRANCH   1  30
HETATM   30  C21 UNL     1      40.071  -5.656  30.536  1.00  0.00     0.173 C 
BRANCH  30  31
HETATM   31  O3  UNL     1      40.364  -6.325  29.355  1.00  0.00    -0.400 OA
ATOM     32  H3  UNL     1      41.124  -6.888  29.451  1.00  0.00     0.209 HD
ENDBRANCH  30  31
ENDBRANCH   1  30
TORSDOF 7
ENDMDL
MODEL 3
REMARK VINA RESULT: -6.707215323      1.790      2.359
REMARK  7 active torsions:
REMARK  status: ('A' for Active; 'I' for Inactive)
REMARK    1  A    between atoms: N2_4  and  N3_6 
REMARK    2  A    between atoms: N3_6  and  C1_8 
REMARK    3  A    between atoms: C4_11  and  C5_12 
REMARK    4  A    between atoms: C6_15  and  C7_16 
REMARK    5  A    between atoms: C7_16  and  C8_17 
REMARK    6  A    between atoms: C7_16  and  C21_30 
REMARK    7  A    between atoms: C21_30  and  O3_31 
ROOT
HETATM    1  C7  UNL     1      38.795  -1.334  30.311  1.00  0.00     0.039 C 
ENDROOT
BRANCH   1   2
HETATM    2  C6  UNL     1      39.675  -2.514  30.221  1.00  0.00     0.034 C 
HETATM    3  C1  UNL     1      41.119  -2.409  30.403  1.00  0.00     0.106 C 
HETATM    4  C2  UNL     1      41.581  -3.862  30.585  1.00  0.00     0.028 C 
HETATM    5  C3  UNL     1      40.300  -4.709  30.424  1.00  0.00     0.018 C 
HETATM    6  C4  UNL     1      39.265  -3.706  31.054  1.00  0.00     0.093 C 
BRANCH   3   7
HETATM    7  N3  UNL     1      41.896  -1.937  29.264  1.00  0.00    -0.317 N 
ATOM      8  H3  UNL     1      41.854  -2.440  28.377  1.00  0.00     0.182 HD
BRANCH   7   9
HETATM    9  N2  UNL     1      42.695  -0.803  29.380  1.00  0.00    -0.253 N 
HETATM   10  N1  UNL     1      43.564  -0.491  28.500  1.00  0.00    -0.331 N 
ATOM     11  H12 UNL     1      43.663  -1.103  27.690  1.00  0.00     0.178 HD
ATOM     12  H11 UNL     1      44.150   0.340  28.584  1.00  0.00     0.178 HD
ATOM     13  H2  UNL     1      42.582  -0.201  30.195  1.00  0.00     0.207 HD
ENDBRANCH   7   9
ENDBRANCH   3   7
BRANCH   6  14
HETATM   14  C5  UNL     1      39.660  -3.689  32.464  1.00  0.00     0.177 C 
HETATM   15  O1  UNL     1      39.699  -2.730  33.256  1.00  0.00    -0.648 OA
HETATM   16  O2  UNL     1      40.065  -4.923  33.042  1.00  0.00    -0.648 OA
ENDBRANCH   6  14
ENDBRANCH   1   2
BRANCH   1  17
HETATM   17  C8  UNL     1      37.432  -1.493  30.777  1.00  0.00    -0.016 C 
HETATM   18  C9  UNL     1      36.345  -1.702  30.059  1.00  0.00    -0.078 C 
HETATM   19  C10 UNL     1      36.278  -1.820  28.584  1.00  0.00     0.039 C 
HETATM   20  C17 UNL     1      35.029  -1.805  30.745  1.00  0.00     0.019 C 
HETATM   21  C11 UNL     1      34.961  -1.430  28.016  1.00  0.00    -0.002 C 
HETATM   22  C12 UNL     1      33.964  -2.493  27.693  1.00  0.00    -0.005 C 
HETATM   23  C19 UNL     1      33.966  -0.824  28.918  1.00  0.00    -0.004 C 
HETATM   24  C13 UNL     1      34.401  -3.879  27.477  1.00  0.00     0.005 C 
HETATM   25  C20 UNL     1      33.342  -2.222  29.035  1.00  0.00    -0.001 C 
HETATM   26  C14 UNL     1      34.143  -4.795  28.659  1.00  0.00     0.001 C 
HETATM   27  C15 UNL     1      34.619  -4.178  29.955  1.00  0.00     0.005 C 
HETATM   28  C16 UNL     1      34.087  -2.816  30.192  1.00  0.00    -0.002 C 
HETATM   29  C18 UNL     1      34.324  -0.501  30.302  1.00  0.00     0.014 C 
ENDBRANCH   1  17
BRANCH   1  30
HETATM   30  C21 UNL     1      39.546  -0.246  31.106  1.00  0.00     0.173 C 
BRANCH  30  31
HETATM   31  O3  UNL     1      40.146   0.681  30.262  1.00  0.00    -0.400 OA
ATOM     32  H3  UNL     1      40.243   1.526  30.685  1.00  0.00     0.209 HD
ENDBRANCH  30  31
ENDBRANCH   1  30
TORSDOF 7
ENDMDL
MODEL 4
REMARK VINA RESULT: -6.608894176      1.204      1.876
REMARK  7 active torsions:
REMARK  status: ('A' for Active; 'I' for Inactive)
REMARK    1  A    between atoms: N2_4  and  N3_6 
REMARK    2  A    between atoms: N3_6  and  C1_8 
REMARK    3  A    between atoms: C4_11  and  C5_12 
REMARK    4  A    between atoms: C6_15  and  C7_16 
REMARK    5  A    between atoms: C7_16  and  C8_17 
REMARK    6  A    between atoms: C7_16  and  C21_30 
REMARK    7  A    between atoms: C21_30  and  O3_31 
ROOT
HETATM    1  C7  UNL     1      40.051  -1.975  30.101  1.00  0.00     0.039 C 
ENDROOT
BRANCH   1   2
HETATM    2  C6  UNL     1      41.257  -2.457  29.403  1.00  0.00     0.034 C 
HETATM    3  C1  UNL     1      42.591  -1.993  29.768  1.00  0.00     0.106 C 
HETATM    4  C2  UNL     1      43.537  -2.980  29.069  1.00  0.00     0.028 C 
HETATM    5  C3  UNL     1      42.607  -3.930  28.282  1.00  0.00     0.018 C 
HETATM    6  C4  UNL     1      41.388  -3.957  29.277  1.00  0.00     0.093 C 
BRANCH   3   7
HETATM    7  N3  UNL     1      43.002  -0.693  29.253  1.00  0.00    -0.317 N 
ATOM      8  H3  UNL     1      42.661   0.160  29.696  1.00  0.00     0.182 HD
BRANCH   7   9
HETATM    9  N2  UNL     1      43.860  -0.610  28.159  1.00  0.00    -0.253 N 
HETATM   10  N1  UNL     1      45.083  -0.271  28.278  1.00  0.00    -0.331 N 
ATOM     11  H12 UNL     1      45.429  -0.057  29.213  1.00  0.00     0.178 HD
ATOM     12  H11 UNL     1      45.711  -0.209  27.477  1.00  0.00     0.178 HD
ATOM     13  H2  UNL     1      43.497  -0.827  27.231  1.00  0.00     0.207 HD
ENDBRANCH   7   9
ENDBRANCH   3   7
BRANCH   6  14
HETATM   14  C5  UNL     1      41.940  -4.667  30.433  1.00  0.00     0.177 C 
HETATM   15  O1  UNL     1      41.818  -4.408  31.644  1.00  0.00    -0.648 OA
HETATM   16  O2  UNL     1      42.735  -5.816  30.173  1.00  0.00    -0.648 OA
ENDBRANCH   6  14
ENDBRANCH   1   2
BRANCH   1  17
HETATM   17  C8  UNL     1      38.917  -2.863  30.268  1.00  0.00    -0.016 C 
HETATM   18  C9  UNL     1      37.635  -2.555  30.270  1.00  0.00    -0.078 C 
HETATM   19  C10 UNL     1      37.058  -1.201  30.101  1.00  0.00     0.039 C 
HETATM   20  C17 UNL     1      36.630  -3.629  30.491  1.00  0.00     0.019 C 
HETATM   21  C11 UNL     1      35.728  -1.037  30.744  1.00  0.00    -0.002 C 
HETATM   22  C12 UNL     1      34.496  -1.172  29.913  1.00  0.00    -0.005 C 
HETATM   23  C19 UNL     1      35.228  -2.131  31.596  1.00  0.00    -0.004 C 
HETATM   24  C13 UNL     1      34.561  -0.991  28.456  1.00  0.00     0.005 C 
HETATM   25  C20 UNL     1      34.422  -2.601  30.376  1.00  0.00    -0.001 C 
HETATM   26  C14 UNL     1      34.540  -2.292  27.675  1.00  0.00     0.001 C 
HETATM   27  C15 UNL     1      35.531  -3.290  28.232  1.00  0.00     0.005 C 
HETATM   28  C16 UNL     1      35.381  -3.523  29.687  1.00  0.00    -0.002 C 
HETATM   29  C18 UNL     1      36.082  -3.283  31.896  1.00  0.00     0.014 C 
ENDBRANCH   1  17
BRANCH   1  30
HETATM   30  C21 UNL     1      40.497  -1.363  31.444  1.00  0.00     0.173 C 
BRANCH  30  31
HETATM   31  O3  UNL     1      40.570   0.023  31.376  1.00  0.00    -0.400 OA
ATOM     32  H3  UNL     1      41.403   0.312  31.020  1.00  0.00     0.209 HD
ENDBRANCH  30  31
ENDBRANCH   1  30
TORSDOF 7
ENDMDL
MODEL 5
REMARK VINA RESULT: -6.497762677      1.937      3.440
REMARK  7 active torsions:
REMARK  status: ('A' for Active; 'I' for Inactive)
REMARK    1  A    between atoms: N2_4  and  N3_6 
REMARK    2  A    between atoms: N3_6  and  C1_8 
REMARK    3  A    between atoms: C4_11  and  C5_12 
REMARK    4  A    between atoms: C6_15  and  C7_16 
REMARK    5  A    between atoms: C7_16  and  C8_17 
REMARK    6  A    between atoms: C7_16  and  C21_30 
REMARK    7  A    between atoms: C21_30  and  O3_31 
ROOT
HETATM    1  C7  UNL     1      40.284  -3.103  30.511  1.00  0.00     0.039 C 
ENDROOT
BRANCH   1   2
HETATM    2  C6  UNL     1      41.280  -2.310  31.254  1.00  0.00     0.034 C 
HETATM    3  C1  UNL     1      41.335  -0.856  31.150  1.00  0.00     0.106 C 
HETATM    4  C2  UNL     1      42.236  -0.429  32.317  1.00  0.00     0.028 C 
HETATM    5  C3  UNL     1      42.682  -1.751  32.977  1.00  0.00     0.018 C 
HETATM    6  C4  UNL     1      41.378  -2.597  32.734  1.00  0.00     0.093 C 
BRANCH   3   7
HETATM    7  N3  UNL     1      41.998  -0.302  29.977  1.00  0.00    -0.317 N 
ATOM      8  H3  UNL     1      41.635   0.547  29.542  1.00  0.00     0.182 HD
BRANCH   7   9
HETATM    9  N2  UNL     1      43.125  -0.925  29.447  1.00  0.00    -0.253 N 
HETATM   10  N1  UNL     1      43.527  -0.705  28.257  1.00  0.00    -0.331 N 
ATOM     11  H12 UNL     1      42.994  -0.048  27.688  1.00  0.00     0.178 HD
ATOM     12  H11 UNL     1      44.352  -1.161  27.868  1.00  0.00     0.178 HD
ATOM     13  H2  UNL     1      43.647  -1.578  30.030  1.00  0.00     0.207 HD
ENDBRANCH   7   9
ENDBRANCH   3   7
BRANCH   6  14
HETATM   14  C5  UNL     1      40.403  -1.929  33.599  1.00  0.00     0.177 C 
HETATM   15  O1  UNL     1      39.229  -1.599  33.348  1.00  0.00    -0.648 OA
HETATM   16  O2  UNL     1      40.821  -1.592  34.915  1.00  0.00    -0.648 OA
ENDBRANCH   6  14
ENDBRANCH   1   2
BRANCH   1  17
HETATM   17  C8  UNL     1      39.143  -2.439  29.911  1.00  0.00    -0.016 C 
HETATM   18  C9  UNL     1      37.865  -2.596  30.201  1.00  0.00    -0.078 C 
HETATM   19  C10 UNL     1      37.304  -3.508  31.224  1.00  0.00     0.039 C 
HETATM   20  C17 UNL     1      36.848  -1.829  29.434  1.00  0.00     0.019 C 
HETATM   21  C11 UNL     1      35.915  -3.948  30.929  1.00  0.00    -0.002 C 
HETATM   22  C12 UNL     1      34.773  -3.243  31.583  1.00  0.00    -0.005 C 
HETATM   23  C19 UNL     1      35.335  -3.592  29.622  1.00  0.00    -0.004 C 
HETATM   24  C13 UNL     1      34.985  -2.481  32.822  1.00  0.00     0.005 C 
HETATM   25  C20 UNL     1      34.658  -2.412  30.335  1.00  0.00    -0.001 C 
HETATM   26  C14 UNL     1      35.048  -0.980  32.615  1.00  0.00     0.001 C 
HETATM   27  C15 UNL     1      35.982  -0.614  31.483  1.00  0.00     0.005 C 
HETATM   28  C16 UNL     1      35.686  -1.328  30.219  1.00  0.00    -0.002 C 
HETATM   29  C18 UNL     1      36.159  -2.937  28.602  1.00  0.00     0.014 C 
ENDBRANCH   1  17
BRANCH   1  30
HETATM   30  C21 UNL     1      41.043  -3.969  29.485  1.00  0.00     0.173 C 
BRANCH  30  31
HETATM   31  O3  UNL     1      41.519  -3.207  28.425  1.00  0.00    -0.400 OA
ATOM     32  H3  UNL     1      41.947  -3.747  27.771  1.00  0.00     0.209 HD
ENDBRANCH  30  31
ENDBRANCH   1  30
TORSDOF 7
ENDMDL
