MODEL 1
REMARK VINA RESULT: -7.267958847      0.000      0.000
REMARK  5 active torsions:
REMARK  status: ('A' for Active; 'I' for Inactive)
REMARK       I    between atoms: N1_2  and  C2_4 
REMARK       I    between atoms: C2_4  and  N7_24 
REMARK       I    between atoms: N2_5  and  C3_7 
REMARK    1  A    between atoms: C3_7  and  C4_9 
REMARK    2  A    between atoms: C4_9  and  C5_10 
REMARK    3  A    between atoms: C4_9  and  N4_17 
REMARK    4  A    between atoms: C5_10  and  N3_11 
REMARK       I    between atoms: N4_17  and  C11_19 
REMARK    5  A    between atoms: N7_24  and  C12_26 
ROOT
HETATM    1  C1  UNL     1      36.107  -0.121  31.882  1.00  0.00     0.165 C 
HETATM    2  N1  UNL     1      36.585  -1.503  31.937  1.00  0.00    -0.231 N 
ATOM      3  H1  UNL     1      36.213  -2.152  32.630  1.00  0.00     0.177 HD
HETATM    4  C2  UNL     1      37.573  -1.927  31.008  1.00  0.00     0.676 C 
HETATM    5  N2  UNL     1      38.714  -2.397  31.461  1.00  0.00    -0.158 N 
ATOM      6  H2  UNL     1      38.913  -2.470  32.459  1.00  0.00     0.187 HD
HETATM    7  C3  UNL     1      39.650  -2.797  30.475  1.00  0.00     0.260 C 
HETATM    8  O1  UNL     1      39.223  -3.419  29.475  1.00  0.00    -0.270 OA
HETATM    9  N7  UNL     1      37.265  -1.817  29.640  1.00  0.00    -0.222 N 
ATOM     10  H7  UNL     1      37.955  -1.435  28.992  1.00  0.00     0.178 HD
ENDROOT
BRANCH   7  11
HETATM   11  C4  UNL     1      41.076  -2.491  30.609  1.00  0.00     0.203 C 
BRANCH  11  12
HETATM   12  C5  UNL     1      41.732  -2.086  29.322  1.00  0.00     0.271 C 
BRANCH  12  13
HETATM   13  N3  UNL     1      42.961  -2.640  28.951  1.00  0.00    -0.069 N 
HETATM   14  C6  UNL     1      43.505  -3.632  29.897  1.00  0.00     0.272 C 
HETATM   15  C7  UNL     1      43.981  -1.754  28.523  1.00  0.00     0.237 C 
HETATM   16  C8  UNL     1      44.352  -2.110  27.078  1.00  0.00     0.029 C 
HETATM   17  C9  UNL     1      43.989  -3.580  27.070  1.00  0.00     0.029 C 
HETATM   18  C10 UNL     1      42.651  -3.501  27.778  1.00  0.00     0.237 C 
ENDBRANCH  12  13
ENDBRANCH  11  12
BRANCH  11  19
HETATM   19  N4  UNL     1      41.118  -1.229  31.400  1.00  0.00    -0.350 N 
HETATM   20  C11 UNL     1      42.213  -1.084  32.287  1.00  0.00     0.182 C 
HETATM   21  N5  UNL     1      42.546  -2.064  33.046  1.00  0.00    -0.374 N 
HETATM   22  N6  UNL     1      42.917   0.153  32.329  1.00  0.00    -0.064 NA
ATOM     23  H52 UNL     1      42.042  -2.951  33.016  1.00  0.00     0.158 HD
ATOM     24  H51 UNL     1      43.334  -1.960  33.685  1.00  0.00     0.158 HD
ATOM     25  H4  UNL     1      40.399  -0.511  31.308  1.00  0.00     0.163 HD
ENDBRANCH  11  19
ENDBRANCH   7  11
BRANCH   9  26
HETATM   26  C12 UNL     1      35.983  -2.241  29.151  1.00  0.00     0.099 C 
HETATM   27  C13 UNL     1      35.260  -1.112  28.455  1.00  0.00     0.026 C 
HETATM   28  C14 UNL     1      34.361  -1.561  27.350  1.00  0.00     0.002 C 
HETATM   29  C15 UNL     1      33.435  -2.676  27.762  1.00  0.00     0.000 C 
HETATM   30  C16 UNL     1      33.686  -3.949  26.992  1.00  0.00     0.000 C 
HETATM   31  C17 UNL     1      34.250  -5.053  27.837  1.00  0.00     0.000 C 
HETATM   32  C18 UNL     1      35.239  -4.613  28.863  1.00  0.00     0.002 C 
HETATM   33  C19 UNL     1      36.122  -3.491  28.353  1.00  0.00     0.026 C 
ENDBRANCH   9  26
TORSDOF 5
ENDMDL
MODEL 2
REMARK VINA RESULT: -6.809660596      4.590      7.960
REMARK  5 active torsions:
REMARK  status: ('A' for Active; 'I' for Inactive)
REMARK       I    between atoms: N1_2  and  C2_4 
REMARK       I    between atoms: C2_4  and  N7_24 
REMARK       I    between atoms: N2_5  and  C3_7 
REMARK    1  A    between atoms: C3_7  and  C4_9 
REMARK    2  A    between atoms: C4_9  and  C5_10 
REMARK    3  A    between atoms: C4_9  and  N4_17 
REMARK    4  A    between atoms: C5_10  and  N3_11 
REMARK       I    between atoms: N4_17  and  C11_19 
REMARK    5  A    between atoms: N7_24  and  C12_26 
ROOT
HETATM    1  C1  UNL     1      39.515  -0.940  33.920  1.00  0.00     0.165 C 
HETATM    2  N1  UNL     1      40.318  -0.086  33.043  1.00  0.00    -0.231 N 
ATOM      3  H1  UNL     1      39.997   0.849  32.795  1.00  0.00     0.177 HD
HETATM    4  C2  UNL     1      41.553  -0.581  32.544  1.00  0.00     0.676 C 
HETATM    5  N2  UNL     1      41.733  -0.655  31.245  1.00  0.00    -0.158 N 
ATOM      6  H2  UNL     1      41.014  -0.367  30.580  1.00  0.00     0.187 HD
HETATM    7  C3  UNL     1      42.988  -1.161  30.824  1.00  0.00     0.260 C 
HETATM    8  O1  UNL     1      44.011  -0.786  31.441  1.00  0.00    -0.270 OA
HETATM    9  N7  UNL     1      42.525  -0.966  33.487  1.00  0.00    -0.222 N 
ATOM     10  H7  UNL     1      43.032  -1.843  33.365  1.00  0.00     0.178 HD
ENDROOT
BRANCH   7  11
HETATM   11  C4  UNL     1      43.095  -2.099  29.704  1.00  0.00     0.203 C 
BRANCH  11  12
HETATM   12  C5  UNL     1      41.946  -3.058  29.605  1.00  0.00     0.271 C 
BRANCH  12  13
HETATM   13  N3  UNL     1      41.956  -4.251  30.333  1.00  0.00    -0.069 N 
HETATM   14  C6  UNL     1      41.431  -5.424  29.610  1.00  0.00     0.272 C 
HETATM   15  C7  UNL     1      41.450  -4.219  31.657  1.00  0.00     0.237 C 
HETATM   16  C8  UNL     1      42.580  -4.623  32.613  1.00  0.00     0.029 C 
HETATM   17  C9  UNL     1      43.407  -5.491  31.688  1.00  0.00     0.029 C 
HETATM   18  C10 UNL     1      43.395  -4.610  30.456  1.00  0.00     0.237 C 
ENDBRANCH  12  13
ENDBRANCH  11  12
BRANCH  11  19
HETATM   19  N4  UNL     1      42.915  -1.257  28.488  1.00  0.00    -0.350 N 
HETATM   20  C11 UNL     1      44.090  -0.954  27.758  1.00  0.00     0.182 C 
HETATM   21  N5  UNL     1      45.141  -0.564  28.383  1.00  0.00    -0.374 N 
HETATM   22  N6  UNL     1      44.080  -1.076  26.339  1.00  0.00    -0.064 NA
ATOM     23  H52 UNL     1      45.148  -0.477  29.400  1.00  0.00     0.158 HD
ATOM     24  H51 UNL     1      45.987  -0.346  27.857  1.00  0.00     0.158 HD
ATOM     25  H4  UNL     1      41.997  -0.917  28.199  1.00  0.00     0.163 HD
ENDBRANCH  11  19
ENDBRANCH   7  11
BRANCH   9  26
HETATM   26  C12 UNL     1      42.804  -0.129  34.619  1.00  0.00     0.099 C 
HETATM   27  C13 UNL     1      42.636  -0.885  35.916  1.00  0.00     0.026 C 
HETATM   28  C14 UNL     1      43.539  -0.418  37.010  1.00  0.00     0.002 C 
HETATM   29  C15 UNL     1      43.506   1.076  37.202  1.00  0.00     0.000 C 
HETATM   30  C16 UNL     1      44.838   1.725  36.918  1.00  0.00     0.000 C 
HETATM   31  C17 UNL     1      44.830   2.589  35.692  1.00  0.00     0.000 C 
HETATM   32  C18 UNL     1      44.020   2.058  34.557  1.00  0.00     0.002 C 
HETATM   33  C19 UNL     1      44.120   0.548  34.449  1.00  0.00     0.026 C 
ENDBRANCH   9  26
TORSDOF 5
ENDMDL
MODEL 3
REMARK VINA RESULT: -6.782462456      1.426      2.265
REMARK  5 active torsions:
REMARK  status: ('A' for Active; 'I' for Inactive)
REMARK       I    between atoms: N1_2  and  C2_4 
REMARK       I    between atoms: C2_4  and  N7_24 
REMARK       I    between atoms: N2_5  and  C3_7 
REMARK    1  A    between atoms: C3_7  and  C4_9 
REMARK    2  A    between atoms: C4_9  and  C5_10 
REMARK    3  A    between atoms: C4_9  and  N4_17 
REMARK    4  A    between atoms: C5_10  and  N3_11 
REMARK       I    between atoms: N4_17  and  C11_19 
REMARK    5  A    between atoms: N7_24  and  C12_26 
ROOT
HETATM    1  C1  UNL     1      37.313  -5.631  30.200  1.00  0.00     0.165 C 
HETATM    2  N1  UNL     1      37.800  -4.657  29.222  1.00  0.00    -0.231 N 
ATOM      3  H1  UNL     1      37.691  -4.827  28.222  1.00  0.00     0.177 HD
HETATM    4  C2  UNL     1      38.427  -3.469  29.687  1.00  0.00     0.676 C 
HETATM    5  N2  UNL     1      39.660  -3.210  29.312  1.00  0.00    -0.158 N 
ATOM      6  H2  UNL     1      40.182  -3.832  28.696  1.00  0.00     0.187 HD
HETATM    7  C3  UNL     1      40.218  -2.009  29.819  1.00  0.00     0.260 C 
HETATM    8  O1  UNL     1      39.490  -0.991  29.856  1.00  0.00    -0.270 OA
HETATM    9  N7  UNL     1      37.678  -2.630  30.532  1.00  0.00    -0.222 N 
ATOM     10  H7  UNL     1      38.107  -2.241  31.373  1.00  0.00     0.178 HD
ENDROOT
BRANCH   7  11
HETATM   11  C4  UNL     1      41.602  -1.953  30.293  1.00  0.00     0.203 C 
BRANCH  11  12
HETATM   12  C5  UNL     1      42.579  -1.485  29.254  1.00  0.00     0.271 C 
BRANCH  12  13
HETATM   13  N3  UNL     1      43.468  -2.388  28.664  1.00  0.00    -0.069 N 
HETATM   14  C6  UNL     1      43.913  -3.485  29.543  1.00  0.00     0.272 C 
HETATM   15  C7  UNL     1      44.567  -1.855  27.944  1.00  0.00     0.237 C 
HETATM   16  C8  UNL     1      44.461  -2.325  26.487  1.00  0.00     0.029 C 
HETATM   17  C9  UNL     1      43.697  -3.618  26.686  1.00  0.00     0.029 C 
HETATM   18  C10 UNL     1      42.651  -3.131  27.668  1.00  0.00     0.237 C 
ENDBRANCH  12  13
ENDBRANCH  11  12
BRANCH  11  19
HETATM   19  N4  UNL     1      41.619  -0.832  31.274  1.00  0.00    -0.350 N 
HETATM   20  C11 UNL     1      42.607  -0.903  32.288  1.00  0.00     0.182 C 
HETATM   21  N5  UNL     1      42.793  -2.009  32.912  1.00  0.00    -0.374 N 
HETATM   22  N6  UNL     1      43.367   0.258  32.602  1.00  0.00    -0.064 NA
ATOM     23  H52 UNL     1      42.248  -2.841  32.687  1.00  0.00     0.158 HD
ATOM     24  H51 UNL     1      43.504  -2.060  33.641  1.00  0.00     0.158 HD
ATOM     25  H4  UNL     1      40.956  -0.058  31.220  1.00  0.00     0.163 HD
ENDBRANCH  11  19
ENDBRANCH   7  11
BRANCH   9  26
HETATM   26  C12 UNL     1      36.312  -2.319  30.216  1.00  0.00     0.099 C 
HETATM   27  C13 UNL     1      35.696  -1.424  31.265  1.00  0.00     0.026 C 
HETATM   28  C14 UNL     1      34.651  -0.499  30.733  1.00  0.00     0.002 C 
HETATM   29  C15 UNL     1      33.618  -1.202  29.890  1.00  0.00     0.000 C 
HETATM   30  C16 UNL     1      33.623  -0.728  28.457  1.00  0.00     0.000 C 
HETATM   31  C17 UNL     1      34.099  -1.769  27.488  1.00  0.00     0.000 C 
HETATM   32  C18 UNL     1      35.225  -2.616  27.982  1.00  0.00     0.002 C 
HETATM   33  C19 UNL     1      36.207  -1.818  28.817  1.00  0.00     0.026 C 
ENDBRANCH   9  26
TORSDOF 5
ENDMDL
MODEL 4
REMARK VINA RESULT: -6.774325736      4.468      8.306
REMARK  5 active torsions:
REMARK  status: ('A' for Active; 'I' for Inactive)
REMARK       I    between atoms: N1_2  and  C2_4 
REMARK       I    between atoms: C2_4  and  N7_24 
REMARK       I    between atoms: N2_5  and  C3_7 
REMARK    1  A    between atoms: C3_7  and  C4_9 
REMARK    2  A    between atoms: C4_9  and  C5_10 
REMARK    3  A    between atoms: C4_9  and  N4_17 
REMARK    4  A    between atoms: C5_10  and  N3_11 
REMARK       I    between atoms: N4_17  and  C11_19 
REMARK    5  A    between atoms: N7_24  and  C12_26 
ROOT
HETATM    1  C1  UNL     1      40.201  -0.929  35.222  1.00  0.00     0.165 C 
HETATM    2  N1  UNL     1      40.714  -0.008  34.207  1.00  0.00    -0.231 N 
ATOM      3  H1  UNL     1      40.254   0.886  34.039  1.00  0.00     0.177 HD
HETATM    4  C2  UNL     1      41.864  -0.379  33.459  1.00  0.00     0.676 C 
HETATM    5  N2  UNL     1      41.779  -0.450  32.150  1.00  0.00    -0.158 N 
ATOM      6  H2  UNL     1      40.913  -0.246  31.651  1.00  0.00     0.187 HD
HETATM    7  C3  UNL     1      42.966  -0.829  31.475  1.00  0.00     0.260 C 
HETATM    8  O1  UNL     1      44.050  -0.342  31.871  1.00  0.00    -0.270 OA
HETATM    9  N7  UNL     1      43.044  -0.649  34.178  1.00  0.00    -0.222 N 
ATOM     10  H7  UNL     1      43.603  -1.471  33.946  1.00  0.00     0.178 HD
ENDROOT
BRANCH   7  11
HETATM   11  C4  UNL     1      42.937  -1.765  30.349  1.00  0.00     0.203 C 
BRANCH  11  12
HETATM   12  C5  UNL     1      41.696  -2.605  30.291  1.00  0.00     0.271 C 
BRANCH  12  13
HETATM   13  N3  UNL     1      41.751  -3.968  30.595  1.00  0.00    -0.069 N 
HETATM   14  C6  UNL     1      40.440  -4.615  30.784  1.00  0.00     0.272 C 
HETATM   15  C7  UNL     1      42.657  -4.382  31.605  1.00  0.00     0.237 C 
HETATM   16  C8  UNL     1      43.664  -5.354  30.977  1.00  0.00     0.029 C 
HETATM   17  C9  UNL     1      42.822  -5.912  29.850  1.00  0.00     0.029 C 
HETATM   18  C10 UNL     1      42.215  -4.620  29.341  1.00  0.00     0.237 C 
ENDBRANCH  12  13
ENDBRANCH  11  12
BRANCH  11  19
HETATM   19  N4  UNL     1      42.794  -0.900  29.144  1.00  0.00    -0.350 N 
HETATM   20  C11 UNL     1      43.921  -0.828  28.289  1.00  0.00     0.182 C 
HETATM   21  N5  UNL     1      45.087  -0.650  28.794  1.00  0.00    -0.374 N 
HETATM   22  N6  UNL     1      43.737  -0.942  26.882  1.00  0.00    -0.064 NA
ATOM     23  H52 UNL     1      45.219  -0.569  29.802  1.00  0.00     0.158 HD
ATOM     24  H51 UNL     1      45.899  -0.598  28.178  1.00  0.00     0.158 HD
ATOM     25  H4  UNL     1      41.933  -0.389  28.947  1.00  0.00     0.163 HD
ENDBRANCH  11  19
ENDBRANCH   7  11
BRANCH   9  26
HETATM   26  C12 UNL     1      43.462   0.226  35.236  1.00  0.00     0.099 C 
HETATM   27  C13 UNL     1      44.576  -0.389  36.050  1.00  0.00     0.026 C 
HETATM   28  C14 UNL     1      45.526   0.609  36.628  1.00  0.00     0.002 C 
HETATM   29  C15 UNL     1      44.829   1.731  37.353  1.00  0.00     0.000 C 
HETATM   30  C16 UNL     1      45.070   3.073  36.708  1.00  0.00     0.000 C 
HETATM   31  C17 UNL     1      43.841   3.660  36.079  1.00  0.00     0.000 C 
HETATM   32  C18 UNL     1      42.954   2.671  35.399  1.00  0.00     0.002 C 
HETATM   33  C19 UNL     1      43.749   1.586  34.699  1.00  0.00     0.026 C 
ENDBRANCH   9  26
TORSDOF 5
ENDMDL
MODEL 5
REMARK VINA RESULT: -6.728977715      2.316      3.627
REMARK  5 active torsions:
REMARK  status: ('A' for Active; 'I' for Inactive)
REMARK       I    between atoms: N1_2  and  C2_4 
REMARK       I    between atoms: C2_4  and  N7_24 
REMARK       I    between atoms: N2_5  and  C3_7 
REMARK    1  A    between atoms: C3_7  and  C4_9 
REMARK    2  A    between atoms: C4_9  and  C5_10 
REMARK    3  A    between atoms: C4_9  and  N4_17 
REMARK    4  A    between atoms: C5_10  and  N3_11 
REMARK       I    between atoms: N4_17  and  C11_19 
REMARK    5  A    between atoms: N7_24  and  C12_26 
ROOT
HETATM    1  C1  UNL     1      36.808  -5.891  31.187  1.00  0.00     0.165 C 
HETATM    2  N1  UNL     1      37.383  -5.315  29.970  1.00  0.00    -0.231 N 
ATOM      3  H1  UNL     1      37.149  -5.700  29.055  1.00  0.00     0.177 HD
HETATM    4  C2  UNL     1      38.270  -4.211  30.083  1.00  0.00     0.676 C 
HETATM    5  N2  UNL     1      39.489  -4.320  29.605  1.00  0.00    -0.158 N 
ATOM      6  H2  UNL     1      39.819  -5.172  29.151  1.00  0.00     0.187 HD
HETATM    7  C3  UNL     1      40.315  -3.179  29.757  1.00  0.00     0.260 C 
HETATM    8  O1  UNL     1      39.806  -2.052  29.557  1.00  0.00    -0.270 OA
HETATM    9  N7  UNL     1      37.781  -3.049  30.710  1.00  0.00    -0.222 N 
ATOM     10  H7  UNL     1      38.354  -2.565  31.402  1.00  0.00     0.178 HD
ENDROOT
BRANCH   7  11
HETATM   11  C4  UNL     1      41.722  -3.303  30.144  1.00  0.00     0.203 C 
BRANCH  11  12
HETATM   12  C5  UNL     1      42.240  -4.710  30.104  1.00  0.00     0.271 C 
BRANCH  12  13
HETATM   13  N3  UNL     1      42.789  -5.293  31.249  1.00  0.00    -0.069 N 
HETATM   14  C6  UNL     1      42.681  -4.478  32.473  1.00  0.00     0.272 C 
HETATM   15  C7  UNL     1      44.086  -5.857  31.144  1.00  0.00     0.237 C 
HETATM   16  C8  UNL     1      43.987  -7.353  31.469  1.00  0.00     0.029 C 
HETATM   17  C9  UNL     1      42.776  -7.343  32.379  1.00  0.00     0.029 C 
HETATM   18  C10 UNL     1      41.879  -6.423  31.576  1.00  0.00     0.237 C 
ENDBRANCH  12  13
ENDBRANCH  11  12
BRANCH  11  19
HETATM   19  N4  UNL     1      42.476  -2.654  29.034  1.00  0.00    -0.350 N 
HETATM   20  C11 UNL     1      43.107  -1.424  29.342  1.00  0.00     0.182 C 
HETATM   21  N5  UNL     1      42.458  -0.525  29.988  1.00  0.00    -0.374 N 
HETATM   22  N6  UNL     1      44.448  -1.203  28.919  1.00  0.00    -0.064 NA
ATOM     23  H52 UNL     1      41.496  -0.683  30.291  1.00  0.00     0.158 HD
ATOM     24  H51 UNL     1      42.912   0.361  30.210  1.00  0.00     0.158 HD
ATOM     25  H4  UNL     1      42.533  -3.072  28.105  1.00  0.00     0.163 HD
ENDBRANCH  11  19
ENDBRANCH   7  11
BRANCH   9  26
HETATM   26  C12 UNL     1      36.479  -2.543  30.379  1.00  0.00     0.099 C 
HETATM   27  C13 UNL     1      35.972  -1.595  31.441  1.00  0.00     0.026 C 
HETATM   28  C14 UNL     1      35.078  -0.521  30.915  1.00  0.00     0.002 C 
HETATM   29  C15 UNL     1      33.974  -1.053  30.037  1.00  0.00     0.000 C 
HETATM   30  C16 UNL     1      34.074  -0.552  28.617  1.00  0.00     0.000 C 
HETATM   31  C17 UNL     1      34.419  -1.627  27.630  1.00  0.00     0.000 C 
HETATM   32  C18 UNL     1      35.405  -2.633  28.121  1.00  0.00     0.002 C 
HETATM   33  C19 UNL     1      36.473  -2.000  28.992  1.00  0.00     0.026 C 
ENDBRANCH   9  26
TORSDOF 5
ENDMDL
