MODEL 1
REMARK VINA RESULT: -6.349534870      0.000      0.000
REMARK  7 active torsions:
REMARK  status: ('A' for Active; 'I' for Inactive)
REMARK    1  A    between atoms: C7_8  and  C8_9 
REMARK    2  A    between atoms: C8_9  and  C9_10 
REMARK    3  A    between atoms: C8_9  and  N5_20 
REMARK    4  A    between atoms: C9_10  and  N1_11 
REMARK    5  A    between atoms: N1_11  and  C10_13 
REMARK    6  A    between atoms: C10_13  and  N2_15 
REMARK       I    between atoms: N5_20  and  C12_22 
REMARK       I    between atoms: C12_22  and  N6_24 
REMARK    7  A    between atoms: N6_24  and  C13_26 
ROOT
HETATM    1  C8  UNL     1      41.962  -0.724  31.484  1.00  0.00     0.108 C 
ENDROOT
BRANCH   1   2
HETATM    2  C7  UNL     1      40.647  -1.422  31.191  1.00  0.00     0.015 C 
HETATM    3  C2  UNL     1      40.012  -1.987  32.404  1.00  0.00     0.006 C 
HETATM    4  C1  UNL     1      39.671  -3.441  32.164  1.00  0.00     0.012 C 
HETATM    5  C3  UNL     1      38.794  -1.232  32.900  1.00  0.00     0.086 C 
HETATM    6 CL1  UNL     1      39.249   0.333  33.597  1.00  0.00    -0.125 Cl
HETATM    7  C4  UNL     1      37.742  -1.104  31.828  1.00  0.00     0.020 C 
HETATM    8  C5  UNL     1      38.349  -1.101  30.445  1.00  0.00     0.002 C 
HETATM    9  C6  UNL     1      39.732  -0.456  30.509  1.00  0.00     0.007 C 
ENDBRANCH   1   2
BRANCH   1  10
HETATM   10  C9  UNL     1      43.005  -1.321  30.586  1.00  0.00     0.147 C 
BRANCH  10  11
HETATM   11  N1  UNL     1      42.550  -1.521  29.242  1.00  0.00    -0.365 N 
ATOM     12  H1  UNL     1      41.892  -0.866  28.819  1.00  0.00     0.161 HD
BRANCH  11  13
HETATM   13  C10 UNL     1      43.017  -2.629  28.512  1.00  0.00     0.173 C 
HETATM   14  S1  UNL     1      43.153  -4.098  29.206  1.00  0.00    -0.041 SA
BRANCH  13  15
HETATM   15  N2  UNL     1      43.378  -2.477  27.153  1.00  0.00    -0.310 N 
HETATM   16  C11 UNL     1      44.193  -1.567  26.737  1.00  0.00     0.203 C 
HETATM   17  N3  UNL     1      44.511  -1.473  25.355  1.00  0.00    -0.066 NA
HETATM   18  N4  UNL     1      44.790  -0.641  27.623  1.00  0.00    -0.066 NA
ATOM     19  H2  UNL     1      42.976  -3.119  26.469  1.00  0.00     0.170 HD
ENDBRANCH  13  15
ENDBRANCH  11  13
ENDBRANCH  10  11
ENDBRANCH   1  10
BRANCH   1  20
HETATM   20  N5  UNL     1      42.313  -0.775  32.872  1.00  0.00    -0.337 N 
HETATM   21  C12 UNL     1      43.278   0.078  33.473  1.00  0.00     0.317 C 
HETATM   22  O1  UNL     1      43.898   0.958  32.781  1.00  0.00    -0.247 OA
HETATM   23  N6  UNL     1      43.607   0.005  34.850  1.00  0.00    -0.335 N 
ATOM     24  H6  UNL     1      43.134  -0.684  35.433  1.00  0.00     0.165 HD
ATOM     25  H5  UNL     1      41.843  -1.462  33.463  1.00  0.00     0.164 HD
BRANCH  23  26
HETATM   26  C13 UNL     1      44.588   0.872  35.455  1.00  0.00     0.023 C 
HETATM   27  C14 UNL     1      45.951   0.694  34.844  1.00  0.00     0.037 C 
HETATM   28  C15 UNL     1      44.182   2.341  35.345  1.00  0.00     0.037 C 
HETATM   29  C16 UNL     1      44.730   0.576  36.952  1.00  0.00     0.037 C 
ENDBRANCH  23  26
ENDBRANCH   1  20
TORSDOF 7
ENDMDL
MODEL 2
REMARK VINA RESULT: -6.316735081      0.989      1.057
REMARK  7 active torsions:
REMARK  status: ('A' for Active; 'I' for Inactive)
REMARK    1  A    between atoms: C7_8  and  C8_9 
REMARK    2  A    between atoms: C8_9  and  C9_10 
REMARK    3  A    between atoms: C8_9  and  N5_20 
REMARK    4  A    between atoms: C9_10  and  N1_11 
REMARK    5  A    between atoms: N1_11  and  C10_13 
REMARK    6  A    between atoms: C10_13  and  N2_15 
REMARK       I    between atoms: N5_20  and  C12_22 
REMARK       I    between atoms: C12_22  and  N6_24 
REMARK    7  A    between atoms: N6_24  and  C13_26 
ROOT
HETATM    1  C8  UNL     1      42.106  -1.059  31.005  1.00  0.00     0.108 C 
ENDROOT
BRANCH   1   2
HETATM    2  C7  UNL     1      40.761  -1.705  30.735  1.00  0.00     0.015 C 
HETATM    3  C2  UNL     1      40.245  -2.469  31.894  1.00  0.00     0.006 C 
HETATM    4  C1  UNL     1      39.863  -3.863  31.449  1.00  0.00     0.012 C 
HETATM    5  C3  UNL     1      39.093  -1.815  32.633  1.00  0.00     0.086 C 
HETATM    6 CL1  UNL     1      39.635  -0.388  33.533  1.00  0.00    -0.125 Cl
HETATM    7  C4  UNL     1      37.939  -1.514  31.710  1.00  0.00     0.020 C 
HETATM    8  C5  UNL     1      38.402  -1.274  30.292  1.00  0.00     0.002 C 
HETATM    9  C6  UNL     1      39.792  -0.642  30.322  1.00  0.00     0.007 C 
ENDBRANCH   1   2
BRANCH   1  10
HETATM   10  C9  UNL     1      43.093  -1.642  30.038  1.00  0.00     0.147 C 
BRANCH  10  11
HETATM   11  N1  UNL     1      42.477  -2.353  28.957  1.00  0.00    -0.365 N 
ATOM     12  H1  UNL     1      41.767  -1.899  28.382  1.00  0.00     0.161 HD
BRANCH  11  13
HETATM   13  C10 UNL     1      42.860  -3.681  28.697  1.00  0.00     0.173 C 
HETATM   14  S1  UNL     1      43.208  -4.711  29.912  1.00  0.00    -0.041 SA
BRANCH  13  15
HETATM   15  N2  UNL     1      42.948  -4.142  27.363  1.00  0.00    -0.310 N 
HETATM   16  C11 UNL     1      43.667  -3.562  26.462  1.00  0.00     0.203 C 
HETATM   17  N3  UNL     1      43.709  -4.081  25.139  1.00  0.00    -0.066 NA
HETATM   18  N4  UNL     1      44.430  -2.406  26.748  1.00  0.00    -0.066 NA
ATOM     19  H2  UNL     1      42.417  -4.973  27.100  1.00  0.00     0.170 HD
ENDBRANCH  13  15
ENDBRANCH  11  13
ENDBRANCH  10  11
ENDBRANCH   1  10
BRANCH   1  20
HETATM   20  N5  UNL     1      42.511  -1.186  32.374  1.00  0.00    -0.337 N 
HETATM   21  C12 UNL     1      43.301  -0.221  33.056  1.00  0.00     0.317 C 
HETATM   22  O1  UNL     1      43.699   0.840  32.461  1.00  0.00    -0.247 OA
HETATM   23  N6  UNL     1      43.689  -0.373  34.410  1.00  0.00    -0.335 N 
ATOM     24  H6  UNL     1      43.390  -1.206  34.917  1.00  0.00     0.165 HD
ATOM     25  H5  UNL     1      42.216  -2.016  32.888  1.00  0.00     0.164 HD
BRANCH  23  26
HETATM   26  C13 UNL     1      44.491   0.609  35.098  1.00  0.00     0.023 C 
HETATM   27  C14 UNL     1      45.805   0.846  34.406  1.00  0.00     0.037 C 
HETATM   28  C15 UNL     1      43.753   1.940  35.234  1.00  0.00     0.037 C 
HETATM   29  C16 UNL     1      44.816   0.149  36.523  1.00  0.00     0.037 C 
ENDBRANCH  23  26
ENDBRANCH   1  20
TORSDOF 7
ENDMDL
MODEL 3
REMARK VINA RESULT: -6.292134091      2.962      6.122
REMARK  7 active torsions:
REMARK  status: ('A' for Active; 'I' for Inactive)
REMARK    1  A    between atoms: C7_8  and  C8_9 
REMARK    2  A    between atoms: C8_9  and  C9_10 
REMARK    3  A    between atoms: C8_9  and  N5_20 
REMARK    4  A    between atoms: C9_10  and  N1_11 
REMARK    5  A    between atoms: N1_11  and  C10_13 
REMARK    6  A    between atoms: C10_13  and  N2_15 
REMARK       I    between atoms: N5_20  and  C12_22 
REMARK       I    between atoms: C12_22  and  N6_24 
REMARK    7  A    between atoms: N6_24  and  C13_26 
ROOT
HETATM    1  C8  UNL     1      40.695  -1.732  30.770  1.00  0.00     0.108 C 
ENDROOT
BRANCH   1   2
HETATM    2  C7  UNL     1      41.257  -0.808  31.835  1.00  0.00     0.015 C 
HETATM    3  C2  UNL     1      40.768  -1.130  33.195  1.00  0.00     0.006 C 
HETATM    4  C1  UNL     1      40.216   0.120  33.842  1.00  0.00     0.012 C 
HETATM    5  C3  UNL     1      41.786  -1.792  34.103  1.00  0.00     0.086 C 
HETATM    6 CL1  UNL     1      42.121  -3.455  33.589  1.00  0.00    -0.125 Cl
HETATM    7  C4  UNL     1      43.039  -0.963  34.233  1.00  0.00     0.020 C 
HETATM    8  C5  UNL     1      43.285  -0.122  33.002  1.00  0.00     0.002 C 
HETATM    9  C6  UNL     1      42.751  -0.863  31.777  1.00  0.00     0.007 C 
ENDBRANCH   1   2
BRANCH   1  10
HETATM   10  C9  UNL     1      41.699  -1.809  29.658  1.00  0.00     0.147 C 
BRANCH  10  11
HETATM   11  N1  UNL     1      41.502  -2.932  28.792  1.00  0.00    -0.365 N 
ATOM     12  H1  UNL     1      40.621  -3.045  28.289  1.00  0.00     0.161 HD
BRANCH  11  13
HETATM   13  C10 UNL     1      42.532  -3.878  28.640  1.00  0.00     0.173 C 
HETATM   14  S1  UNL     1      43.314  -4.486  29.936  1.00  0.00    -0.041 SA
BRANCH  13  15
HETATM   15  N2  UNL     1      42.904  -4.317  27.348  1.00  0.00    -0.310 N 
HETATM   16  C11 UNL     1      43.573  -3.586  26.521  1.00  0.00     0.203 C 
HETATM   17  N3  UNL     1      43.913  -4.093  25.237  1.00  0.00    -0.066 NA
HETATM   18  N4  UNL     1      43.988  -2.276  26.852  1.00  0.00    -0.066 NA
ATOM     19  H2  UNL     1      42.630  -5.255  27.057  1.00  0.00     0.170 HD
ENDBRANCH  13  15
ENDBRANCH  11  13
ENDBRANCH  10  11
ENDBRANCH   1  10
BRANCH   1  20
HETATM   20  N5  UNL     1      39.392  -1.332  30.330  1.00  0.00    -0.337 N 
HETATM   21  C12 UNL     1      38.374  -2.248  29.948  1.00  0.00     0.317 C 
HETATM   22  O1  UNL     1      38.580  -3.510  29.981  1.00  0.00    -0.247 OA
HETATM   23  N6  UNL     1      37.092  -1.825  29.515  1.00  0.00    -0.335 N 
ATOM     24  H6  UNL     1      36.891  -0.826  29.475  1.00  0.00     0.165 HD
ATOM     25  H5  UNL     1      39.182  -0.335  30.288  1.00  0.00     0.164 HD
BRANCH  23  26
HETATM   26  C13 UNL     1      36.062  -2.758  29.128  1.00  0.00     0.023 C 
HETATM   27  C14 UNL     1      36.626  -3.953  28.410  1.00  0.00     0.037 C 
HETATM   28  C15 UNL     1      35.258  -3.238  30.335  1.00  0.00     0.037 C 
HETATM   29  C16 UNL     1      35.058  -2.100  28.176  1.00  0.00     0.037 C 
ENDBRANCH  23  26
ENDBRANCH   1  20
TORSDOF 7
ENDMDL
MODEL 4
REMARK VINA RESULT: -6.275698815      1.114      1.345
REMARK  7 active torsions:
REMARK  status: ('A' for Active; 'I' for Inactive)
REMARK    1  A    between atoms: C7_8  and  C8_9 
REMARK    2  A    between atoms: C8_9  and  C9_10 
REMARK    3  A    between atoms: C8_9  and  N5_20 
REMARK    4  A    between atoms: C9_10  and  N1_11 
REMARK    5  A    between atoms: N1_11  and  C10_13 
REMARK    6  A    between atoms: C10_13  and  N2_15 
REMARK       I    between atoms: N5_20  and  C12_22 
REMARK       I    between atoms: C12_22  and  N6_24 
REMARK    7  A    between atoms: N6_24  and  C13_26 
ROOT
HETATM    1  C8  UNL     1      40.650  -1.433  31.422  1.00  0.00     0.108 C 
ENDROOT
BRANCH   1   2
HETATM    2  C7  UNL     1      39.205  -1.886  31.510  1.00  0.00     0.015 C 
HETATM    3  C2  UNL     1      38.531  -1.428  32.747  1.00  0.00     0.006 C 
HETATM    4  C1  UNL     1      37.882  -2.608  33.434  1.00  0.00     0.012 C 
HETATM    5  C3  UNL     1      37.527  -0.308  32.552  1.00  0.00     0.086 C 
HETATM    6 CL1  UNL     1      38.334   1.219  32.162  1.00  0.00    -0.125 Cl
HETATM    7  C4  UNL     1      36.468  -0.679  31.544  1.00  0.00     0.020 C 
HETATM    8  C5  UNL     1      36.988  -1.662  30.521  1.00  0.00     0.002 C 
HETATM    9  C6  UNL     1      38.477  -1.406  30.295  1.00  0.00     0.007 C 
ENDBRANCH   1   2
BRANCH   1  10
HETATM   10  C9  UNL     1      41.415  -2.491  30.684  1.00  0.00     0.147 C 
BRANCH  10  11
HETATM   11  N1  UNL     1      42.087  -1.998  29.519  1.00  0.00    -0.365 N 
ATOM     12  H1  UNL     1      41.971  -1.026  29.231  1.00  0.00     0.161 HD
BRANCH  11  13
HETATM   13  C10 UNL     1      42.907  -2.865  28.774  1.00  0.00     0.173 C 
HETATM   14  S1  UNL     1      43.469  -4.254  29.420  1.00  0.00    -0.041 SA
BRANCH  13  15
HETATM   15  N2  UNL     1      43.258  -2.538  27.444  1.00  0.00    -0.310 N 
HETATM   16  C11 UNL     1      44.012  -1.536  27.140  1.00  0.00     0.203 C 
HETATM   17  N3  UNL     1      44.324  -1.265  25.779  1.00  0.00    -0.066 NA
HETATM   18  N4  UNL     1      44.550  -0.680  28.129  1.00  0.00    -0.066 NA
ATOM     19  H2  UNL     1      42.897  -3.122  26.689  1.00  0.00     0.170 HD
ENDBRANCH  13  15
ENDBRANCH  11  13
ENDBRANCH  10  11
ENDBRANCH   1  10
BRANCH   1  20
HETATM   20  N5  UNL     1      41.207  -1.123  32.705  1.00  0.00    -0.337 N 
HETATM   21  C12 UNL     1      42.366  -0.321  32.889  1.00  0.00     0.317 C 
HETATM   22  O1  UNL     1      42.986   0.177  31.885  1.00  0.00    -0.247 OA
HETATM   23  N6  UNL     1      42.897  -0.030  34.170  1.00  0.00    -0.335 N 
ATOM     24  H6  UNL     1      42.430  -0.410  34.993  1.00  0.00     0.165 HD
ATOM     25  H5  UNL     1      40.745  -1.498  33.534  1.00  0.00     0.164 HD
BRANCH  23  26
HETATM   26  C13 UNL     1      44.074   0.783  34.351  1.00  0.00     0.023 C 
HETATM   27  C14 UNL     1      44.975   0.745  33.148  1.00  0.00     0.037 C 
HETATM   28  C15 UNL     1      43.710   2.236  34.655  1.00  0.00     0.037 C 
HETATM   29  C16 UNL     1      44.903   0.289  35.542  1.00  0.00     0.037 C 
ENDBRANCH  23  26
ENDBRANCH   1  20
TORSDOF 7
ENDMDL
MODEL 5
REMARK VINA RESULT: -6.236250342      1.108      1.518
REMARK  7 active torsions:
REMARK  status: ('A' for Active; 'I' for Inactive)
REMARK    1  A    between atoms: C7_8  and  C8_9 
REMARK    2  A    between atoms: C8_9  and  C9_10 
REMARK    3  A    between atoms: C8_9  and  N5_20 
REMARK    4  A    between atoms: C9_10  and  N1_11 
REMARK    5  A    between atoms: N1_11  and  C10_13 
REMARK    6  A    between atoms: C10_13  and  N2_15 
REMARK       I    between atoms: N5_20  and  C12_22 
REMARK       I    between atoms: C12_22  and  N6_24 
REMARK    7  A    between atoms: N6_24  and  C13_26 
ROOT
HETATM    1  C8  UNL     1      41.141  -0.793  31.272  1.00  0.00     0.108 C 
ENDROOT
BRANCH   1   2
HETATM    2  C7  UNL     1      39.642  -0.626  31.114  1.00  0.00     0.015 C 
HETATM    3  C2  UNL     1      38.913  -1.916  31.135  1.00  0.00     0.006 C 
HETATM    4  C1  UNL     1      38.007  -2.003  29.927  1.00  0.00     0.012 C 
HETATM    5  C3  UNL     1      38.130  -2.189  32.405  1.00  0.00     0.086 C 
HETATM    6 CL1  UNL     1      39.213  -2.524  33.767  1.00  0.00    -0.125 Cl
HETATM    7  C4  UNL     1      37.149  -1.083  32.704  1.00  0.00     0.020 C 
HETATM    8  C5  UNL     1      37.618   0.245  32.157  1.00  0.00     0.002 C 
HETATM    9  C6  UNL     1      39.144   0.287  32.189  1.00  0.00     0.007 C 
ENDBRANCH   1   2
BRANCH   1  10
HETATM   10  C9  UNL     1      41.525  -2.090  30.625  1.00  0.00     0.147 C 
BRANCH  10  11
HETATM   11  N1  UNL     1      41.989  -1.939  29.278  1.00  0.00    -0.365 N 
ATOM     12  H1  UNL     1      41.720  -1.121  28.731  1.00  0.00     0.161 HD
BRANCH  11  13
HETATM   13  C10 UNL     1      42.818  -2.927  28.717  1.00  0.00     0.173 C 
HETATM   14  S1  UNL     1      43.144  -4.308  29.521  1.00  0.00    -0.041 SA
BRANCH  13  15
HETATM   15  N2  UNL     1      43.384  -2.730  27.436  1.00  0.00    -0.310 N 
HETATM   16  C11 UNL     1      44.147  -1.730  27.148  1.00  0.00     0.203 C 
HETATM   17  N3  UNL     1      44.681  -1.596  25.837  1.00  0.00    -0.066 NA
HETATM   18  N4  UNL     1      44.477  -0.745  28.106  1.00  0.00    -0.066 NA
ATOM     19  H2  UNL     1      43.178  -3.412  26.705  1.00  0.00     0.170 HD
ENDBRANCH  13  15
ENDBRANCH  11  13
ENDBRANCH  10  11
ENDBRANCH   1  10
BRANCH   1  20
HETATM   20  N5  UNL     1      41.563  -0.693  32.637  1.00  0.00    -0.337 N 
HETATM   21  C12 UNL     1      42.743  -0.015  33.050  1.00  0.00     0.317 C 
HETATM   22  O1  UNL     1      43.505   0.556  32.196  1.00  0.00    -0.247 OA
HETATM   23  N6  UNL     1      43.138   0.068  34.409  1.00  0.00    -0.335 N 
ATOM     24  H6  UNL     1      42.555  -0.375  35.118  1.00  0.00     0.165 HD
ATOM     25  H5  UNL     1      40.986  -1.133  33.354  1.00  0.00     0.164 HD
BRANCH  23  26
HETATM   26  C13 UNL     1      44.335   0.757  34.823  1.00  0.00     0.023 C 
HETATM   27  C14 UNL     1      44.959   0.122  36.035  1.00  0.00     0.037 C 
HETATM   28  C15 UNL     1      45.370   0.808  33.700  1.00  0.00     0.037 C 
HETATM   29  C16 UNL     1      44.029   2.213  35.192  1.00  0.00     0.037 C 
ENDBRANCH  23  26
ENDBRANCH   1  20
TORSDOF 7
ENDMDL
