MODEL 1
REMARK VINA RESULT: -7.328945668      0.000      0.000
REMARK  4 active torsions:
REMARK  status: ('A' for Active; 'I' for Inactive)
REMARK    1  A    between atoms: N1_2  and  N2_5 
REMARK       I    between atoms: N2_5  and  C3_7 
REMARK       I    between atoms: C3_7  and  N5_17 
REMARK       I    between atoms: N3_8  and  C4_10 
REMARK       I    between atoms: C4_10  and  N4_12 
REMARK    2  A    between atoms: N4_12  and  C5_14 
REMARK    3  A    between atoms: C5_14  and  C6_15 
REMARK       I    between atoms: N5_17  and  C7_19 
REMARK       I    between atoms: C7_19  and  N7_23 
REMARK    4  A    between atoms: N7_23  and  C8_25 
ROOT
HETATM    1  N2  UNL     1      41.375  -4.431  30.573  1.00  0.00     0.004 N 
ATOM      2  H2  UNL     1      40.388  -4.684  30.534  1.00  0.00     0.222 HD
HETATM    3  C3  UNL     1      41.878  -3.387  29.761  1.00  0.00     0.727 C 
HETATM    4  N3  UNL     1      43.132  -3.257  29.519  1.00  0.00    -0.139 N 
ATOM      5  H3  UNL     1      43.781  -3.930  29.926  1.00  0.00     0.189 HD
HETATM    6  C4  UNL     1      43.647  -2.220  28.710  1.00  0.00     0.334 C 
HETATM    7  O2  UNL     1      43.610  -1.047  29.146  1.00  0.00    -0.247 OA
HETATM    8  N4  UNL     1      44.188  -2.507  27.444  1.00  0.00    -0.341 N 
ATOM      9  H4  UNL     1      44.188  -3.484  27.153  1.00  0.00     0.164 HD
HETATM   10  N5  UNL     1      40.986  -2.446  29.190  1.00  0.00    -0.021 N 
ATOM     11  H5  UNL     1      40.943  -2.292  28.182  1.00  0.00     0.203 HD
HETATM   12  C7  UNL     1      40.153  -1.729  30.091  1.00  0.00     0.686 C 
HETATM   13  N6  UNL     1      40.251  -0.453  30.133  1.00  0.00    -0.234 N 
ATOM     14  H61 UNL     1      39.653   0.061  30.780  1.00  0.00     0.174 HD
ATOM     15  H62 UNL     1      40.915   0.027  29.526  1.00  0.00     0.174 HD
HETATM   16  N7  UNL     1      39.234  -2.392  30.931  1.00  0.00    -0.217 N 
ATOM     17  H7  UNL     1      39.534  -2.764  31.832  1.00  0.00     0.178 HD
ENDROOT
BRANCH   1  18
HETATM   18  N1  UNL     1      42.238  -5.105  31.424  1.00  0.00     0.115 N 
HETATM   19  C1  UNL     1      42.654  -4.250  32.496  1.00  0.00     0.389 C 
HETATM   20  C2  UNL     1      41.522  -6.236  31.971  1.00  0.00     0.389 C 
HETATM   21  O1  UNL     1      43.330  -5.511  30.725  1.00  0.00    -0.043 OA
ENDBRANCH   1  18
BRANCH  16  22
HETATM   22  C8  UNL     1      37.864  -2.536  30.502  1.00  0.00     0.048 C 
HETATM   23  C9  UNL     1      37.150  -1.239  30.792  1.00  0.00     0.036 C 
HETATM   24  C10 UNL     1      35.690  -1.414  30.425  1.00  0.00    -0.012 C 
HETATM   25  C11 UNL     1      35.058  -2.539  31.205  1.00  0.00     0.009 C 
HETATM   26  C15 UNL     1      35.603  -1.699  28.948  1.00  0.00     0.009 C 
HETATM   27  C12 UNL     1      35.787  -3.823  30.878  1.00  0.00    -0.012 C 
HETATM   28  C13 UNL     1      35.672  -4.094  29.409  1.00  0.00     0.009 C 
HETATM   29  C17 UNL     1      37.226  -3.629  31.333  1.00  0.00     0.036 C 
HETATM   30  C14 UNL     1      36.349  -2.969  28.631  1.00  0.00    -0.012 C 
HETATM   31  C16 UNL     1      37.782  -2.925  29.037  1.00  0.00     0.036 C 
ENDBRANCH  16  22
BRANCH   8  32
HETATM   32  C5  UNL     1      44.739  -1.558  26.525  1.00  0.00     0.139 C 
BRANCH  32  33
HETATM   33  C6  UNL     1      44.116  -1.777  25.164  1.00  0.00     0.134 C 
HETATM   34 CL1  UNL     1      43.956  -3.523  24.892  1.00  0.00    -0.129 Cl
ENDBRANCH  32  33
ENDBRANCH   8  32
TORSDOF 4
ENDMDL
MODEL 2
REMARK VINA RESULT: -7.248054034      0.147      1.412
REMARK  4 active torsions:
REMARK  status: ('A' for Active; 'I' for Inactive)
REMARK    1  A    between atoms: N1_2  and  N2_5 
REMARK       I    between atoms: N2_5  and  C3_7 
REMARK       I    between atoms: C3_7  and  N5_17 
REMARK       I    between atoms: N3_8  and  C4_10 
REMARK       I    between atoms: C4_10  and  N4_12 
REMARK    2  A    between atoms: N4_12  and  C5_14 
REMARK    3  A    between atoms: C5_14  and  C6_15 
REMARK       I    between atoms: N5_17  and  C7_19 
REMARK       I    between atoms: C7_19  and  N7_23 
REMARK    4  A    between atoms: N7_23  and  C8_25 
ROOT
HETATM    1  N2  UNL     1      41.448  -4.482  30.513  1.00  0.00     0.004 N 
ATOM      2  H2  UNL     1      40.459  -4.730  30.481  1.00  0.00     0.222 HD
HETATM    3  C3  UNL     1      41.945  -3.423  29.717  1.00  0.00     0.727 C 
HETATM    4  N3  UNL     1      43.196  -3.294  29.461  1.00  0.00    -0.139 N 
ATOM      5  H3  UNL     1      43.847  -3.978  29.844  1.00  0.00     0.189 HD
HETATM    6  C4  UNL     1      43.705  -2.241  28.668  1.00  0.00     0.334 C 
HETATM    7  O2  UNL     1      43.680  -1.078  29.130  1.00  0.00    -0.247 OA
HETATM    8  N4  UNL     1      44.228  -2.502  27.389  1.00  0.00    -0.341 N 
ATOM      9  H4  UNL     1      44.220  -3.473  27.076  1.00  0.00     0.164 HD
HETATM   10  N5  UNL     1      41.049  -2.466  29.179  1.00  0.00    -0.021 N 
ATOM     11  H5  UNL     1      40.994  -2.290  28.176  1.00  0.00     0.203 HD
HETATM   12  C7  UNL     1      40.232  -1.765  30.106  1.00  0.00     0.686 C 
HETATM   13  N6  UNL     1      40.336  -0.491  30.175  1.00  0.00    -0.234 N 
ATOM     14  H61 UNL     1      39.749   0.012  30.841  1.00  0.00     0.174 HD
ATOM     15  H62 UNL     1      40.995  -0.001  29.569  1.00  0.00     0.174 HD
HETATM   16  N7  UNL     1      39.321  -2.442  30.944  1.00  0.00    -0.217 N 
ATOM     17  H7  UNL     1      39.631  -2.835  31.832  1.00  0.00     0.178 HD
ENDROOT
BRANCH   1  18
HETATM   18  N1  UNL     1      42.319  -5.179  31.337  1.00  0.00     0.115 N 
HETATM   19  C1  UNL     1      42.632  -4.405  32.502  1.00  0.00     0.389 C 
HETATM   20  C2  UNL     1      41.659  -6.401  31.742  1.00  0.00     0.389 C 
HETATM   21  O1  UNL     1      43.464  -5.445  30.655  1.00  0.00    -0.043 OA
ENDBRANCH   1  18
BRANCH  16  22
HETATM   22  C8  UNL     1      37.945  -2.571  30.530  1.00  0.00     0.048 C 
HETATM   23  C9  UNL     1      37.316  -3.669  31.354  1.00  0.00     0.036 C 
HETATM   24  C10 UNL     1      35.897  -3.870  30.862  1.00  0.00    -0.012 C 
HETATM   25  C11 UNL     1      35.868  -4.239  29.401  1.00  0.00     0.009 C 
HETATM   26  C15 UNL     1      35.132  -2.592  31.088  1.00  0.00     0.009 C 
HETATM   27  C12 UNL     1      36.490  -3.112  28.606  1.00  0.00    -0.012 C 
HETATM   28  C13 UNL     1      35.702  -1.857  28.832  1.00  0.00     0.009 C 
HETATM   29  C17 UNL     1      37.932  -2.997  29.077  1.00  0.00     0.036 C 
HETATM   30  C14 UNL     1      35.771  -1.473  30.307  1.00  0.00    -0.012 C 
HETATM   31  C16 UNL     1      37.203  -1.255  30.660  1.00  0.00     0.036 C 
ENDBRANCH  16  22
BRANCH   8  32
HETATM   32  C5  UNL     1      44.771  -1.536  26.484  1.00  0.00     0.139 C 
BRANCH  32  33
HETATM   33  C6  UNL     1      44.078  -1.676  25.146  1.00  0.00     0.134 C 
HETATM   34 CL1  UNL     1      44.005  -3.397  24.726  1.00  0.00    -0.129 Cl
ENDBRANCH  32  33
ENDBRANCH   8  32
TORSDOF 4
ENDMDL
MODEL 3
REMARK VINA RESULT: -7.188138981      0.198      1.469
REMARK  4 active torsions:
REMARK  status: ('A' for Active; 'I' for Inactive)
REMARK    1  A    between atoms: N1_2  and  N2_5 
REMARK       I    between atoms: N2_5  and  C3_7 
REMARK       I    between atoms: C3_7  and  N5_17 
REMARK       I    between atoms: N3_8  and  C4_10 
REMARK       I    between atoms: C4_10  and  N4_12 
REMARK    2  A    between atoms: N4_12  and  C5_14 
REMARK    3  A    between atoms: C5_14  and  C6_15 
REMARK       I    between atoms: N5_17  and  C7_19 
REMARK       I    between atoms: C7_19  and  N7_23 
REMARK    4  A    between atoms: N7_23  and  C8_25 
ROOT
HETATM    1  N2  UNL     1      41.476  -4.509  30.472  1.00  0.00     0.004 N 
ATOM      2  H2  UNL     1      40.492  -4.774  30.441  1.00  0.00     0.222 HD
HETATM    3  C3  UNL     1      41.953  -3.436  29.681  1.00  0.00     0.727 C 
HETATM    4  N3  UNL     1      43.200  -3.284  29.422  1.00  0.00    -0.139 N 
ATOM      5  H3  UNL     1      43.865  -3.959  29.800  1.00  0.00     0.189 HD
HETATM    6  C4  UNL     1      43.690  -2.218  28.635  1.00  0.00     0.334 C 
HETATM    7  O2  UNL     1      43.645  -1.058  29.104  1.00  0.00    -0.247 OA
HETATM    8  N4  UNL     1      44.214  -2.463  27.352  1.00  0.00    -0.341 N 
ATOM      9  H4  UNL     1      44.221  -3.432  27.034  1.00  0.00     0.164 HD
HETATM   10  N5  UNL     1      41.039  -2.492  29.150  1.00  0.00    -0.021 N 
ATOM     11  H5  UNL     1      40.978  -2.311  28.149  1.00  0.00     0.203 HD
HETATM   12  C7  UNL     1      40.212  -1.811  30.084  1.00  0.00     0.686 C 
HETATM   13  N6  UNL     1      40.295  -0.535  30.161  1.00  0.00    -0.234 N 
ATOM     14  H61 UNL     1      39.701  -0.047  30.831  1.00  0.00     0.174 HD
ATOM     15  H62 UNL     1      40.943  -0.031  29.556  1.00  0.00     0.174 HD
HETATM   16  N7  UNL     1      39.315  -2.509  30.920  1.00  0.00    -0.217 N 
ATOM     17  H7  UNL     1      39.635  -2.902  31.806  1.00  0.00     0.178 HD
ENDROOT
BRANCH   1  18
HETATM   18  N1  UNL     1      42.362  -5.196  31.289  1.00  0.00     0.115 N 
HETATM   19  C1  UNL     1      42.589  -4.467  32.502  1.00  0.00     0.389 C 
HETATM   20  C2  UNL     1      41.765  -6.474  31.608  1.00  0.00     0.389 C 
HETATM   21  O1  UNL     1      43.542  -5.357  30.635  1.00  0.00    -0.043 OA
ENDBRANCH   1  18
BRANCH  16  22
HETATM   22  C8  UNL     1      37.941  -2.659  30.509  1.00  0.00     0.048 C 
HETATM   23  C9  UNL     1      37.937  -3.082  29.060  1.00  0.00     0.036 C 
HETATM   24  C10 UNL     1      36.496  -3.155  28.597  1.00  0.00    -0.012 C 
HETATM   25  C11 UNL     1      35.800  -1.827  28.750  1.00  0.00     0.009 C 
HETATM   26  C15 UNL     1      35.788  -4.205  29.413  1.00  0.00     0.009 C 
HETATM   27  C12 UNL     1      35.809  -1.443  30.213  1.00  0.00    -0.012 C 
HETATM   28  C13 UNL     1      35.085  -2.492  31.002  1.00  0.00     0.009 C 
HETATM   29  C17 UNL     1      37.271  -1.306  30.614  1.00  0.00     0.036 C 
HETATM   30  C14 UNL     1      35.820  -3.823  30.870  1.00  0.00    -0.012 C 
HETATM   31  C16 UNL     1      37.202  -3.641  31.399  1.00  0.00     0.036 C 
ENDBRANCH  16  22
BRANCH   8  32
HETATM   32  C5  UNL     1      44.737  -1.482  26.452  1.00  0.00     0.139 C 
BRANCH  32  33
HETATM   33  C6  UNL     1      44.062  -1.643  25.107  1.00  0.00     0.134 C 
HETATM   34 CL1  UNL     1      44.045  -3.366  24.688  1.00  0.00    -0.129 Cl
ENDBRANCH  32  33
ENDBRANCH   8  32
TORSDOF 4
ENDMDL
MODEL 4
REMARK VINA RESULT: -6.726790161      3.517      6.682
REMARK  4 active torsions:
REMARK  status: ('A' for Active; 'I' for Inactive)
REMARK    1  A    between atoms: N1_2  and  N2_5 
REMARK       I    between atoms: N2_5  and  C3_7 
REMARK       I    between atoms: C3_7  and  N5_17 
REMARK       I    between atoms: N3_8  and  C4_10 
REMARK       I    between atoms: C4_10  and  N4_12 
REMARK    2  A    between atoms: N4_12  and  C5_14 
REMARK    3  A    between atoms: C5_14  and  C6_15 
REMARK       I    between atoms: N5_17  and  C7_19 
REMARK       I    between atoms: C7_19  and  N7_23 
REMARK    4  A    between atoms: N7_23  and  C8_25 
ROOT
HETATM    1  N2  UNL     1      42.708  -3.261  32.319  1.00  0.00     0.004 N 
ATOM      2  H2  UNL     1      43.181  -4.010  32.824  1.00  0.00     0.222 HD
HETATM    3  C3  UNL     1      42.855  -3.139  30.917  1.00  0.00     0.727 C 
HETATM    4  N3  UNL     1      42.576  -2.052  30.296  1.00  0.00    -0.139 N 
ATOM      5  H3  UNL     1      42.238  -1.254  30.833  1.00  0.00     0.189 HD
HETATM    6  C4  UNL     1      42.717  -1.917  28.897  1.00  0.00     0.334 C 
HETATM    7  O2  UNL     1      41.930  -2.544  28.152  1.00  0.00    -0.247 OA
HETATM    8  N4  UNL     1      43.723  -1.093  28.359  1.00  0.00    -0.341 N 
ATOM      9  H4  UNL     1      44.327  -0.610  29.024  1.00  0.00     0.164 HD
HETATM   10  N5  UNL     1      43.323  -4.241  30.160  1.00  0.00    -0.021 N 
ATOM     11  H5  UNL     1      44.152  -4.172  29.569  1.00  0.00     0.203 HD
HETATM   12  C7  UNL     1      42.580  -5.448  30.264  1.00  0.00     0.686 C 
HETATM   13  N6  UNL     1      42.047  -5.934  29.205  1.00  0.00    -0.234 N 
ATOM     14  H61 UNL     1      41.514  -6.801  29.280  1.00  0.00     0.174 HD
ATOM     15  H62 UNL     1      42.165  -5.456  28.312  1.00  0.00     0.174 HD
HETATM   16  N7  UNL     1      42.417  -6.110  31.499  1.00  0.00    -0.217 N 
ATOM     17  H7  UNL     1      41.669  -5.838  32.135  1.00  0.00     0.178 HD
ENDROOT
BRANCH   1  18
HETATM   18  N1  UNL     1      41.913  -2.351  33.000  1.00  0.00     0.115 N 
HETATM   19  C1  UNL     1      40.595  -2.319  32.437  1.00  0.00     0.389 C 
HETATM   20  C2  UNL     1      41.830  -2.784  34.378  1.00  0.00     0.389 C 
HETATM   21  O1  UNL     1      42.469  -1.115  32.910  1.00  0.00    -0.043 OA
ENDBRANCH   1  18
BRANCH  16  22
HETATM   22  C8  UNL     1      43.323  -7.175  31.852  1.00  0.00     0.048 C 
HETATM   23  C9  UNL     1      42.893  -8.414  31.103  1.00  0.00     0.036 C 
HETATM   24  C10 UNL     1      43.786  -9.559  31.536  1.00  0.00    -0.012 C 
HETATM   25  C11 UNL     1      43.694  -9.795  33.023  1.00  0.00     0.009 C 
HETATM   26  C15 UNL     1      45.204  -9.225  31.153  1.00  0.00     0.009 C 
HETATM   27  C12 UNL     1      44.147  -8.542  33.739  1.00  0.00    -0.012 C 
HETATM   28  C13 UNL     1      45.565  -8.242  33.357  1.00  0.00     0.009 C 
HETATM   29  C17 UNL     1      43.179  -7.441  33.335  1.00  0.00     0.036 C 
HETATM   30  C14 UNL     1      45.638  -7.966  31.858  1.00  0.00    -0.012 C 
HETATM   31  C16 UNL     1      44.763  -6.796  31.560  1.00  0.00     0.036 C 
ENDBRANCH  16  22
BRANCH   8  32
HETATM   32  C5  UNL     1      43.979  -0.869  26.970  1.00  0.00     0.139 C 
BRANCH  32  33
HETATM   33  C6  UNL     1      44.775  -2.036  26.425  1.00  0.00     0.134 C 
HETATM   34 CL1  UNL     1      44.009  -2.587  24.923  1.00  0.00    -0.129 Cl
ENDBRANCH  32  33
ENDBRANCH   8  32
TORSDOF 4
ENDMDL
MODEL 5
REMARK VINA RESULT: -6.686274364      3.545      6.692
REMARK  4 active torsions:
REMARK  status: ('A' for Active; 'I' for Inactive)
REMARK    1  A    between atoms: N1_2  and  N2_5 
REMARK       I    between atoms: N2_5  and  C3_7 
REMARK       I    between atoms: C3_7  and  N5_17 
REMARK       I    between atoms: N3_8  and  C4_10 
REMARK       I    between atoms: C4_10  and  N4_12 
REMARK    2  A    between atoms: N4_12  and  C5_14 
REMARK    3  A    between atoms: C5_14  and  C6_15 
REMARK       I    between atoms: N5_17  and  C7_19 
REMARK       I    between atoms: C7_19  and  N7_23 
REMARK    4  A    between atoms: N7_23  and  C8_25 
ROOT
HETATM    1  N2  UNL     1      42.734  -3.348  32.321  1.00  0.00     0.004 N 
ATOM      2  H2  UNL     1      43.198  -4.115  32.807  1.00  0.00     0.222 HD
HETATM    3  C3  UNL     1      42.876  -3.198  30.921  1.00  0.00     0.727 C 
HETATM    4  N3  UNL     1      42.610  -2.094  30.324  1.00  0.00    -0.139 N 
ATOM      5  H3  UNL     1      42.286  -1.303  30.880  1.00  0.00     0.189 HD
HETATM    6  C4  UNL     1      42.747  -1.930  28.928  1.00  0.00     0.334 C 
HETATM    7  O2  UNL     1      41.948  -2.530  28.174  1.00  0.00    -0.247 OA
HETATM    8  N4  UNL     1      43.762  -1.110  28.403  1.00  0.00    -0.341 N 
ATOM      9  H4  UNL     1      44.376  -0.650  29.075  1.00  0.00     0.164 HD
HETATM   10  N5  UNL     1      43.325  -4.290  30.137  1.00  0.00    -0.021 N 
ATOM     11  H5  UNL     1      44.152  -4.220  29.545  1.00  0.00     0.203 HD
HETATM   12  C7  UNL     1      42.565  -5.488  30.219  1.00  0.00     0.686 C 
HETATM   13  N6  UNL     1      42.021  -5.944  29.153  1.00  0.00    -0.234 N 
ATOM     14  H61 UNL     1      41.476  -6.804  29.212  1.00  0.00     0.174 HD
ATOM     15  H62 UNL     1      42.142  -5.448  28.269  1.00  0.00     0.174 HD
HETATM   16  N7  UNL     1      42.399  -6.174  31.441  1.00  0.00    -0.217 N 
ATOM     17  H7  UNL     1      41.657  -5.905  32.086  1.00  0.00     0.178 HD
ENDROOT
BRANCH   1  18
HETATM   18  N1  UNL     1      41.955  -2.442  33.025  1.00  0.00     0.115 N 
HETATM   19  C1  UNL     1      40.644  -2.357  32.451  1.00  0.00     0.389 C 
HETATM   20  C2  UNL     1      41.846  -2.919  34.386  1.00  0.00     0.389 C 
HETATM   21  O1  UNL     1      42.543  -1.218  32.982  1.00  0.00    -0.043 OA
ENDBRANCH   1  18
BRANCH  16  22
HETATM   22  C8  UNL     1      43.291  -7.260  31.766  1.00  0.00     0.048 C 
HETATM   23  C9  UNL     1      43.009  -7.678  33.189  1.00  0.00     0.036 C 
HETATM   24  C10 UNL     1      44.003  -8.759  33.566  1.00  0.00    -0.012 C 
HETATM   25  C11 UNL     1      45.423  -8.267  33.442  1.00  0.00     0.009 C 
HETATM   26  C15 UNL     1      43.785  -9.941  32.658  1.00  0.00     0.009 C 
HETATM   27  C12 UNL     1      45.673  -7.873  32.004  1.00  0.00    -0.012 C 
HETATM   28  C13 UNL     1      45.469  -9.068  31.123  1.00  0.00     0.009 C 
HETATM   29  C17 UNL     1      44.710  -6.737  31.694  1.00  0.00     0.036 C 
HETATM   30  C14 UNL     1      44.019  -9.532  31.227  1.00  0.00    -0.012 C 
HETATM   31  C16 UNL     1      43.142  -8.409  30.787  1.00  0.00     0.036 C 
ENDBRANCH  16  22
BRANCH   8  32
HETATM   32  C5  UNL     1      44.016  -0.859  27.018  1.00  0.00     0.139 C 
BRANCH  32  33
HETATM   33  C6  UNL     1      44.758  -2.042  26.435  1.00  0.00     0.134 C 
HETATM   34 CL1  UNL     1      43.976  -2.504  24.912  1.00  0.00    -0.129 Cl
ENDBRANCH  32  33
ENDBRANCH   8  32
TORSDOF 4
ENDMDL
