MODEL 1
REMARK VINA RESULT: -5.824849642      0.000      0.000
REMARK  4 active torsions:
REMARK  status: ('A' for Active; 'I' for Inactive)
REMARK    1  A    between atoms: C2_2  and  N1_5 
REMARK       I    between atoms: N1_5  and  C5_7 
REMARK       I    between atoms: C5_7  and  N5_15 
REMARK       I    between atoms: N2_8  and  C6_10 
REMARK    2  A    between atoms: N5_15  and  C7_17 
REMARK    3  A    between atoms: C7_17  and  C8_18 
REMARK    4  A    between atoms: C8_18  and  C9_19 
ROOT
HETATM    1  N1  UNL     1      16.335  11.602  22.151  1.00  0.00    -0.218 N 
ATOM      2  H1  UNL     1      16.695  11.702  21.203  1.00  0.00     0.178 HD
HETATM    3  C5  UNL     1      15.216  10.752  22.381  1.00  0.00     0.676 C 
HETATM    4  N2  UNL     1      15.078  10.198  23.533  1.00  0.00    -0.164 N 
ATOM      5  H2  UNL     1      15.771  10.376  24.259  1.00  0.00     0.187 HD
HETATM    6  C6  UNL     1      13.985   9.345  23.812  1.00  0.00     0.200 C 
HETATM    7  N3  UNL     1      14.071   8.047  23.806  1.00  0.00    -0.373 N 
ATOM      8  H31 UNL     1      13.283   7.433  24.008  1.00  0.00     0.158 HD
ATOM      9  H32 UNL     1      14.980   7.640  23.588  1.00  0.00     0.158 HD
HETATM   10  N4  UNL     1      12.720   9.913  24.116  1.00  0.00    -0.063 NA
HETATM   11  N5  UNL     1      14.240  10.491  21.383  1.00  0.00    -0.226 N 
ATOM     12  H5  UNL     1      13.390   9.980  21.617  1.00  0.00     0.177 HD
ENDROOT
BRANCH   1  13
HETATM   13  C2  UNL     1      16.970  12.324  23.220  1.00  0.00     0.036 C 
HETATM   14  C1  UNL     1      18.080  13.184  22.626  1.00  0.00     0.038 C 
HETATM   15  C3  UNL     1      17.595  11.437  24.259  1.00  0.00     0.038 C 
HETATM   16  C4  UNL     1      16.016  13.263  23.926  1.00  0.00     0.038 C 
ENDBRANCH   1  13
BRANCH  11  17
HETATM   17  C7  UNL     1      14.465  10.965  20.008  1.00  0.00     0.139 C 
BRANCH  17  18
HETATM   18  C8  UNL     1      13.475  12.030  19.650  1.00  0.00     0.029 C 
BRANCH  18  19
HETATM   19  C9  UNL     1      14.021  13.401  19.561  1.00  0.00    -0.038 C 
HETATM   20  C10 UNL     1      13.920  14.099  20.898  1.00  0.00     0.014 C 
HETATM   21  C11 UNL     1      14.556  15.457  20.874  1.00  0.00    -0.013 C 
HETATM   22  C12 UNL     1      16.025  15.316  20.577  1.00  0.00     0.009 C 
HETATM   23  C16 UNL     1      13.873  16.283  19.805  1.00  0.00     0.009 C 
HETATM   24  C13 UNL     1      16.190  14.629  19.259  1.00  0.00    -0.013 C 
HETATM   25  C14 UNL     1      15.564  15.480  18.174  1.00  0.00     0.009 C 
HETATM   26  C18 UNL     1      15.502  13.291  19.227  1.00  0.00     0.014 C 
HETATM   27  C15 UNL     1      14.101  15.606  18.488  1.00  0.00    -0.013 C 
HETATM   28  C17 UNL     1      13.393  14.273  18.518  1.00  0.00     0.014 C 
ENDBRANCH  18  19
ENDBRANCH  17  18
ENDBRANCH  11  17
TORSDOF 4
ENDMDL
MODEL 2
REMARK VINA RESULT: -5.814163273      2.822      6.200
REMARK  4 active torsions:
REMARK  status: ('A' for Active; 'I' for Inactive)
REMARK    1  A    between atoms: C2_2  and  N1_5 
REMARK       I    between atoms: N1_5  and  C5_7 
REMARK       I    between atoms: C5_7  and  N5_15 
REMARK       I    between atoms: N2_8  and  C6_10 
REMARK    2  A    between atoms: N5_15  and  C7_17 
REMARK    3  A    between atoms: C7_17  and  C8_18 
REMARK    4  A    between atoms: C8_18  and  C9_19 
ROOT
HETATM    1  N1  UNL     1      15.444  13.007  19.812  1.00  0.00    -0.218 N 
ATOM      2  H1  UNL     1      15.846  12.236  20.345  1.00  0.00     0.178 HD
HETATM    3  C5  UNL     1      14.069  12.952  19.445  1.00  0.00     0.676 C 
HETATM    4  N2  UNL     1      13.424  14.051  19.274  1.00  0.00    -0.164 N 
ATOM      5  H2  UNL     1      13.907  14.939  19.404  1.00  0.00     0.187 HD
HETATM    6  C6  UNL     1      12.058  14.051  18.908  1.00  0.00     0.200 C 
HETATM    7  N3  UNL     1      11.092  14.253  19.755  1.00  0.00    -0.373 N 
ATOM      8  H31 UNL     1      10.107  14.253  19.491  1.00  0.00     0.158 HD
ATOM      9  H32 UNL     1      11.349  14.418  20.728  1.00  0.00     0.158 HD
HETATM   10  N4  UNL     1      11.700  13.821  17.554  1.00  0.00    -0.063 NA
HETATM   11  N5  UNL     1      13.380  11.725  19.258  1.00  0.00    -0.226 N 
ATOM     12  H5  UNL     1      12.435  11.720  18.876  1.00  0.00     0.177 HD
ENDROOT
BRANCH   1  13
HETATM   13  C2  UNL     1      16.280  14.120  19.453  1.00  0.00     0.036 C 
HETATM   14  C1  UNL     1      17.675  13.876  20.020  1.00  0.00     0.038 C 
HETATM   15  C3  UNL     1      15.799  15.436  19.994  1.00  0.00     0.038 C 
HETATM   16  C4  UNL     1      16.434  14.262  17.954  1.00  0.00     0.038 C 
ENDBRANCH   1  13
BRANCH  11  17
HETATM   17  C7  UNL     1      14.040  10.460  19.618  1.00  0.00     0.139 C 
BRANCH  17  18
HETATM   18  C8  UNL     1      13.023   9.409  19.939  1.00  0.00     0.029 C 
BRANCH  18  19
HETATM   19  C9  UNL     1      12.722   9.235  21.376  1.00  0.00    -0.038 C 
HETATM   20  C10 UNL     1      12.704   7.768  21.739  1.00  0.00     0.014 C 
HETATM   21  C11 UNL     1      12.501   7.553  23.210  1.00  0.00    -0.013 C 
HETATM   22  C12 UNL     1      13.650   8.165  23.967  1.00  0.00     0.009 C 
HETATM   23  C16 UNL     1      11.193   8.203  23.609  1.00  0.00     0.009 C 
HETATM   24  C13 UNL     1      13.719   9.624  23.648  1.00  0.00    -0.013 C 
HETATM   25  C14 UNL     1      12.439  10.293  24.101  1.00  0.00     0.009 C 
HETATM   26  C18 UNL     1      13.852   9.876  22.170  1.00  0.00     0.014 C 
HETATM   27  C15 UNL     1      11.308   9.671  23.334  1.00  0.00    -0.013 C 
HETATM   28  C17 UNL     1      11.442   9.859  21.842  1.00  0.00     0.014 C 
ENDBRANCH  18  19
ENDBRANCH  17  18
ENDBRANCH  11  17
TORSDOF 4
ENDMDL
MODEL 3
REMARK VINA RESULT: -5.795961669      5.217      9.232
REMARK  4 active torsions:
REMARK  status: ('A' for Active; 'I' for Inactive)
REMARK    1  A    between atoms: C2_2  and  N1_5 
REMARK       I    between atoms: N1_5  and  C5_7 
REMARK       I    between atoms: C5_7  and  N5_15 
REMARK       I    between atoms: N2_8  and  C6_10 
REMARK    2  A    between atoms: N5_15  and  C7_17 
REMARK    3  A    between atoms: C7_17  and  C8_18 
REMARK    4  A    between atoms: C8_18  and  C9_19 
ROOT
HETATM    1  N1  UNL     1      11.348  10.287  21.323  1.00  0.00    -0.218 N 
ATOM      2  H1  UNL     1      10.337  10.239  21.200  1.00  0.00     0.178 HD
HETATM    3  C5  UNL     1      12.017   9.215  21.981  1.00  0.00     0.676 C 
HETATM    4  N2  UNL     1      13.247   8.977  21.694  1.00  0.00    -0.164 N 
ATOM      5  H2  UNL     1      13.721   9.559  21.003  1.00  0.00     0.187 HD
HETATM    6  C6  UNL     1      13.957   7.926  22.319  1.00  0.00     0.200 C 
HETATM    7  N3  UNL     1      14.172   6.774  21.754  1.00  0.00    -0.373 N 
ATOM      8  H31 UNL     1      14.684   6.016  22.204  1.00  0.00     0.158 HD
ATOM      9  H32 UNL     1      13.804   6.639  20.812  1.00  0.00     0.158 HD
HETATM   10  N4  UNL     1      14.468   8.114  23.630  1.00  0.00    -0.063 NA
HETATM   11  N5  UNL     1      11.375   8.396  22.946  1.00  0.00    -0.226 N 
ATOM     12  H5  UNL     1      11.914   7.719  23.486  1.00  0.00     0.177 HD
ENDROOT
BRANCH   1  13
HETATM   13  C2  UNL     1      12.060  11.434  20.828  1.00  0.00     0.036 C 
HETATM   14  C1  UNL     1      11.040  12.461  20.346  1.00  0.00     0.038 C 
HETATM   15  C3  UNL     1      12.970  11.128  19.674  1.00  0.00     0.038 C 
HETATM   16  C4  UNL     1      12.885  12.106  21.905  1.00  0.00     0.038 C 
ENDBRANCH   1  13
BRANCH  11  17
HETATM   17  C7  UNL     1       9.925   8.529  23.162  1.00  0.00     0.139 C 
BRANCH  17  18
HETATM   18  C8  UNL     1       9.221   7.259  22.801  1.00  0.00     0.029 C 
BRANCH  18  19
HETATM   19  C9  UNL     1       8.658   6.500  23.938  1.00  0.00    -0.038 C 
HETATM   20  C10 UNL     1       7.365   5.826  23.535  1.00  0.00     0.014 C 
HETATM   21  C11 UNL     1       6.814   4.963  24.632  1.00  0.00    -0.013 C 
HETATM   22  C12 UNL     1       7.792   3.860  24.939  1.00  0.00     0.009 C 
HETATM   23  C16 UNL     1       6.590   5.830  25.853  1.00  0.00     0.009 C 
HETATM   24  C13 UNL     1       9.097   4.467  25.345  1.00  0.00    -0.013 C 
HETATM   25  C14 UNL     1       8.893   5.286  26.602  1.00  0.00     0.009 C 
HETATM   26  C18 UNL     1       9.643   5.395  24.294  1.00  0.00     0.014 C 
HETATM   27  C15 UNL     1       7.918   6.380  26.274  1.00  0.00    -0.013 C 
HETATM   28  C17 UNL     1       8.414   7.297  25.182  1.00  0.00     0.014 C 
ENDBRANCH  18  19
ENDBRANCH  17  18
ENDBRANCH  11  17
TORSDOF 4
ENDMDL
MODEL 4
REMARK VINA RESULT: -5.791165426      0.228      1.553
REMARK  4 active torsions:
REMARK  status: ('A' for Active; 'I' for Inactive)
REMARK    1  A    between atoms: C2_2  and  N1_5 
REMARK       I    between atoms: N1_5  and  C5_7 
REMARK       I    between atoms: C5_7  and  N5_15 
REMARK       I    between atoms: N2_8  and  C6_10 
REMARK    2  A    between atoms: N5_15  and  C7_17 
REMARK    3  A    between atoms: C7_17  and  C8_18 
REMARK    4  A    between atoms: C8_18  and  C9_19 
ROOT
HETATM    1  N1  UNL     1      16.367  11.556  22.170  1.00  0.00    -0.218 N 
ATOM      2  H1  UNL     1      16.716  11.608  21.214  1.00  0.00     0.178 HD
HETATM    3  C5  UNL     1      15.242  10.730  22.454  1.00  0.00     0.676 C 
HETATM    4  N2  UNL     1      15.114  10.232  23.632  1.00  0.00    -0.164 N 
ATOM      5  H2  UNL     1      15.817  10.438  24.341  1.00  0.00     0.187 HD
HETATM    6  C6  UNL     1      14.015   9.406  23.965  1.00  0.00     0.200 C 
HETATM    7  N3  UNL     1      14.089   8.108  24.020  1.00  0.00    -0.373 N 
ATOM      8  H31 UNL     1      13.297   7.513  24.260  1.00  0.00     0.158 HD
ATOM      9  H32 UNL     1      14.991   7.681  23.810  1.00  0.00     0.158 HD
HETATM   10  N4  UNL     1      12.760  10.001  24.257  1.00  0.00    -0.063 NA
HETATM   11  N5  UNL     1      14.252  10.433  21.481  1.00  0.00    -0.226 N 
ATOM     12  H5  UNL     1      13.399   9.941  21.749  1.00  0.00     0.177 HD
ENDROOT
BRANCH   1  13
HETATM   13  C2  UNL     1      17.023  12.321  23.196  1.00  0.00     0.036 C 
HETATM   14  C1  UNL     1      18.095  13.185  22.540  1.00  0.00     0.038 C 
HETATM   15  C3  UNL     1      17.700  11.478  24.237  1.00  0.00     0.038 C 
HETATM   16  C4  UNL     1      16.073  13.262  23.906  1.00  0.00     0.038 C 
ENDBRANCH   1  13
BRANCH  11  17
HETATM   17  C7  UNL     1      14.464  10.838  20.082  1.00  0.00     0.139 C 
BRANCH  17  18
HETATM   18  C8  UNL     1      13.553  11.969  19.719  1.00  0.00     0.029 C 
BRANCH  18  19
HETATM   19  C9  UNL     1      14.196  13.296  19.616  1.00  0.00    -0.038 C 
HETATM   20  C10 UNL     1      15.637  13.153  19.181  1.00  0.00     0.014 C 
HETATM   21  C11 UNL     1      16.296  14.483  18.968  1.00  0.00    -0.013 C 
HETATM   22  C12 UNL     1      15.589  15.220  17.861  1.00  0.00     0.009 C 
HETATM   23  C16 UNL     1      16.220  15.265  20.262  1.00  0.00     0.009 C 
HETATM   24  C13 UNL     1      14.151  15.393  18.236  1.00  0.00    -0.013 C 
HETATM   25  C14 UNL     1      14.064  16.227  19.496  1.00  0.00     0.009 C 
HETATM   26  C18 UNL     1      13.479  14.079  18.525  1.00  0.00     0.014 C 
HETATM   27  C15 UNL     1      14.773  15.475  20.585  1.00  0.00    -0.013 C 
HETATM   28  C17 UNL     1      14.153  14.126  20.862  1.00  0.00     0.014 C 
ENDBRANCH  18  19
ENDBRANCH  17  18
ENDBRANCH  11  17
TORSDOF 4
ENDMDL
MODEL 5
REMARK VINA RESULT: -5.786855998      5.198      9.232
REMARK  4 active torsions:
REMARK  status: ('A' for Active; 'I' for Inactive)
REMARK    1  A    between atoms: C2_2  and  N1_5 
REMARK       I    between atoms: N1_5  and  C5_7 
REMARK       I    between atoms: C5_7  and  N5_15 
REMARK       I    between atoms: N2_8  and  C6_10 
REMARK    2  A    between atoms: N5_15  and  C7_17 
REMARK    3  A    between atoms: C7_17  and  C8_18 
REMARK    4  A    between atoms: C8_18  and  C9_19 
ROOT
HETATM    1  N1  UNL     1      11.346  10.302  21.339  1.00  0.00    -0.218 N 
ATOM      2  H1  UNL     1      10.334  10.264  21.224  1.00  0.00     0.178 HD
HETATM    3  C5  UNL     1      12.010   9.229  22.000  1.00  0.00     0.676 C 
HETATM    4  N2  UNL     1      13.235   8.977  21.706  1.00  0.00    -0.164 N 
ATOM      5  H2  UNL     1      13.710   9.549  21.008  1.00  0.00     0.187 HD
HETATM    6  C6  UNL     1      13.939   7.923  22.334  1.00  0.00     0.200 C 
HETATM    7  N3  UNL     1      14.139   6.765  21.775  1.00  0.00    -0.373 N 
ATOM      8  H31 UNL     1      14.647   6.005  22.227  1.00  0.00     0.158 HD
ATOM      9  H32 UNL     1      13.763   6.627  20.837  1.00  0.00     0.158 HD
HETATM   10  N4  UNL     1      14.462   8.115  23.639  1.00  0.00    -0.063 NA
HETATM   11  N5  UNL     1      11.366   8.422  22.975  1.00  0.00    -0.226 N 
ATOM     12  H5  UNL     1      11.903   7.744  23.516  1.00  0.00     0.177 HD
ENDROOT
BRANCH   1  13
HETATM   13  C2  UNL     1      12.065  11.439  20.831  1.00  0.00     0.036 C 
HETATM   14  C1  UNL     1      11.052  12.474  20.354  1.00  0.00     0.038 C 
HETATM   15  C3  UNL     1      12.961  11.117  19.669  1.00  0.00     0.038 C 
HETATM   16  C4  UNL     1      12.909  12.107  21.896  1.00  0.00     0.038 C 
ENDBRANCH   1  13
BRANCH  11  17
HETATM   17  C7  UNL     1       9.920   8.571  23.200  1.00  0.00     0.139 C 
BRANCH  17  18
HETATM   18  C8  UNL     1       9.192   7.330  22.786  1.00  0.00     0.029 C 
BRANCH  18  19
HETATM   19  C9  UNL     1       8.747   6.456  23.892  1.00  0.00    -0.038 C 
HETATM   20  C10 UNL     1       8.425   7.279  25.119  1.00  0.00     0.014 C 
HETATM   21  C11 UNL     1       7.872   6.438  26.232  1.00  0.00    -0.013 C 
HETATM   22  C12 UNL     1       6.577   5.811  25.789  1.00  0.00     0.009 C 
HETATM   23  C16 UNL     1       8.892   5.372  26.574  1.00  0.00     0.009 C 
HETATM   24  C13 UNL     1       6.832   4.980  24.572  1.00  0.00    -0.013 C 
HETATM   25  C14 UNL     1       7.803   3.872  24.921  1.00  0.00     0.009 C 
HETATM   26  C18 UNL     1       7.453   5.780  23.459  1.00  0.00     0.014 C 
HETATM   27  C15 UNL     1       9.086   4.518  25.358  1.00  0.00    -0.013 C 
HETATM   28  C17 UNL     1       9.706   5.374  24.280  1.00  0.00     0.014 C 
ENDBRANCH  18  19
ENDBRANCH  17  18
ENDBRANCH  11  17
TORSDOF 4
ENDMDL
