MODEL 1
REMARK VINA RESULT: -7.371734689      0.000      0.000
REMARK  9 active torsions:
REMARK  status: ('A' for Active; 'I' for Inactive)
REMARK    1  A    between atoms: N1_2  and  C2_4 
REMARK    2  A    between atoms: C2_4  and  N2_6 
REMARK    3  A    between atoms: N2_6  and  N3_8 
REMARK    4  A    between atoms: C3_10  and  O1_11 
REMARK    5  A    between atoms: C3_10  and  C4_13 
REMARK    6  A    between atoms: C4_13  and  C5_14 
REMARK    7  A    between atoms: C5_14  and  N4_15 
REMARK    8  A    between atoms: C5_14  and  C8_20 
REMARK       I    between atoms: N4_15  and  C6_17 
REMARK    9  A    between atoms: C14_27  and  C15_28 
ROOT
HETATM    1  C5  UNL     1      17.109 -13.937  20.137  1.00  0.00     0.126 C 
ENDROOT
BRANCH   1   2
HETATM    2  C4  UNL     1      16.653 -12.772  21.084  1.00  0.00     0.115 C 
BRANCH   2   3
HETATM    3  C3  UNL     1      15.292 -12.973  21.571  1.00  0.00     0.132 C 
HETATM    4  N3  UNL     1      14.079 -12.496  21.165  1.00  0.00    -0.281 N 
ATOM      5  H3  UNL     1      14.040 -11.879  20.354  1.00  0.00     0.189 HD
BRANCH   4   6
HETATM    6  N2  UNL     1      12.863 -12.832  21.835  1.00  0.00    -0.275 N 
ATOM      7  H2  UNL     1      12.605 -13.811  21.958  1.00  0.00     0.189 HD
BRANCH   6   8
HETATM    8  C2  UNL     1      12.016 -11.813  22.329  1.00  0.00     0.186 C 
HETATM    9  S1  UNL     1      12.145 -10.306  21.711  1.00  0.00    -0.040 SA
BRANCH   8  10
HETATM   10  N1  UNL     1      11.048 -12.058  23.324  1.00  0.00    -0.370 N 
HETATM   11  C1  UNL     1      10.989 -11.347  24.589  1.00  0.00     0.148 C 
ATOM     12  H1  UNL     1      10.348 -12.777  23.145  1.00  0.00     0.161 HD
ENDBRANCH   8  10
ENDBRANCH   6   8
ENDBRANCH   4   6
BRANCH   3  13
HETATM   13  O1  UNL     1      15.232 -13.782  22.624  1.00  0.00    -0.348 OA
ATOM     14  H1  UNL     1      15.545 -14.663  22.455  1.00  0.00     0.219 HD
ENDBRANCH   3  13
ENDBRANCH   2   3
ENDBRANCH   1   2
BRANCH   1  15
HETATM   15  N4  UNL     1      15.777 -14.563  19.906  1.00  0.00    -0.352 N 
HETATM   16  C6  UNL     1      15.328 -15.803  19.640  1.00  0.00     0.214 C 
HETATM   17  C7  UNL     1      13.821 -16.001  19.480  1.00  0.00     0.117 C 
HETATM   18  O2  UNL     1      15.931 -16.883  19.484  1.00  0.00    -0.274 OA
ATOM     19  H4  UNL     1      15.017 -13.884  19.963  1.00  0.00     0.163 HD
ENDBRANCH   1  15
BRANCH   1  20
HETATM   20  C8  UNL     1      17.546 -13.483  18.838  1.00  0.00    -0.022 A 
HETATM   21  C9  UNL     1      16.563 -12.936  17.962  1.00  0.00     0.034 A 
HETATM   22  C10 UNL     1      16.827 -12.534  16.687  1.00  0.00     0.035 A 
HETATM   23 CL1  UNL     1      15.495 -11.865  15.727  1.00  0.00    -0.084 Cl
HETATM   24  C11 UNL     1      18.081 -12.654  16.210  1.00  0.00     0.031 A 
HETATM   25  C12 UNL     1      19.068 -13.177  17.015  1.00  0.00    -0.049 A 
HETATM   26  C13 UNL     1      20.405 -13.385  16.385  1.00  0.00     0.049 C 
HETATM   27  C14 UNL     1      18.822 -13.601  18.352  1.00  0.00    -0.020 A 
BRANCH  27  28
HETATM   28  C15 UNL     1      19.937 -14.122  19.076  1.00  0.00    -0.076 C 
HETATM   29  C16 UNL     1      20.733 -13.153  19.961  1.00  0.00     0.044 C 
HETATM   30  C17 UNL     1      20.165 -15.488  19.556  1.00  0.00     0.044 C 
ENDBRANCH  27  28
ENDBRANCH   1  20
TORSDOF 9
ENDMDL
MODEL 2
REMARK VINA RESULT: -7.333228665      5.628      7.607
REMARK  9 active torsions:
REMARK  status: ('A' for Active; 'I' for Inactive)
REMARK    1  A    between atoms: N1_2  and  C2_4 
REMARK    2  A    between atoms: C2_4  and  N2_6 
REMARK    3  A    between atoms: N2_6  and  N3_8 
REMARK    4  A    between atoms: C3_10  and  O1_11 
REMARK    5  A    between atoms: C3_10  and  C4_13 
REMARK    6  A    between atoms: C4_13  and  C5_14 
REMARK    7  A    between atoms: C5_14  and  N4_15 
REMARK    8  A    between atoms: C5_14  and  C8_20 
REMARK       I    between atoms: N4_15  and  C6_17 
REMARK    9  A    between atoms: C14_27  and  C15_28 
ROOT
HETATM    1  C5  UNL     1      16.549 -12.206  15.019  1.00  0.00     0.126 C 
ENDROOT
BRANCH   1   2
HETATM    2  C4  UNL     1      15.816 -13.094  13.953  1.00  0.00     0.115 C 
BRANCH   2   3
HETATM    3  C3  UNL     1      14.782 -12.346  13.245  1.00  0.00     0.132 C 
HETATM    4  N3  UNL     1      14.315 -12.391  11.963  1.00  0.00    -0.281 N 
ATOM      5  H3  UNL     1      14.716 -13.070  11.317  1.00  0.00     0.189 HD
BRANCH   4   6
HETATM    6  N2  UNL     1      13.285 -11.519  11.495  1.00  0.00    -0.275 N 
ATOM      7  H2  UNL     1      13.459 -10.516  11.433  1.00  0.00     0.189 HD
BRANCH   6   8
HETATM    8  C2  UNL     1      12.026 -12.040  11.117  1.00  0.00     0.186 C 
HETATM    9  S1  UNL     1      11.161 -12.892  12.211  1.00  0.00    -0.040 SA
BRANCH   8  10
HETATM   10  N1  UNL     1      11.482 -11.833   9.834  1.00  0.00    -0.370 N 
HETATM   11  C1  UNL     1      10.057 -11.781   9.557  1.00  0.00     0.148 C 
ATOM     12  H1  UNL     1      12.126 -11.712   9.053  1.00  0.00     0.161 HD
ENDBRANCH   8  10
ENDBRANCH   6   8
ENDBRANCH   4   6
BRANCH   3  13
HETATM   13  O1  UNL     1      14.183 -11.439  14.010  1.00  0.00    -0.348 OA
ATOM     14  H1  UNL     1      14.761 -11.013  14.631  1.00  0.00     0.219 HD
ENDBRANCH   3  13
ENDBRANCH   2   3
ENDBRANCH   1   2
BRANCH   1  15
HETATM   15  N4  UNL     1      15.929 -12.783  16.245  1.00  0.00    -0.352 N 
HETATM   16  C6  UNL     1      14.886 -12.469  17.036  1.00  0.00     0.214 C 
HETATM   17  C7  UNL     1      14.593 -13.378  18.230  1.00  0.00     0.117 C 
HETATM   18  O2  UNL     1      14.069 -11.530  16.990  1.00  0.00    -0.274 OA
ATOM     19  H4  UNL     1      16.413 -13.623  16.564  1.00  0.00     0.163 HD
ENDBRANCH   1  15
BRANCH   1  20
HETATM   20  C8  UNL     1      17.958 -12.494  15.135  1.00  0.00    -0.022 A 
HETATM   21  C9  UNL     1      18.402 -13.176  16.306  1.00  0.00     0.034 A 
HETATM   22  C10 UNL     1      19.710 -13.448  16.574  1.00  0.00     0.035 A 
HETATM   23 CL1  UNL     1      20.097 -14.313  18.072  1.00  0.00    -0.084 Cl
HETATM   24  C11 UNL     1      20.652 -13.058  15.692  1.00  0.00     0.031 A 
HETATM   25  C12 UNL     1      20.277 -12.395  14.546  1.00  0.00    -0.049 A 
HETATM   26  C13 UNL     1      21.379 -11.894  13.672  1.00  0.00     0.049 C 
HETATM   27  C14 UNL     1      18.918 -12.101  14.239  1.00  0.00    -0.020 A 
BRANCH  27  28
HETATM   28  C15 UNL     1      18.670 -11.410  13.013  1.00  0.00    -0.076 C 
HETATM   29  C16 UNL     1      18.321 -12.249  11.776  1.00  0.00     0.044 C 
HETATM   30  C17 UNL     1      18.172 -10.047  12.811  1.00  0.00     0.044 C 
ENDBRANCH  27  28
ENDBRANCH   1  20
TORSDOF 9
ENDMDL
MODEL 3
REMARK VINA RESULT: -7.105010077      1.981      2.603
REMARK  9 active torsions:
REMARK  status: ('A' for Active; 'I' for Inactive)
REMARK    1  A    between atoms: N1_2  and  C2_4 
REMARK    2  A    between atoms: C2_4  and  N2_6 
REMARK    3  A    between atoms: N2_6  and  N3_8 
REMARK    4  A    between atoms: C3_10  and  O1_11 
REMARK    5  A    between atoms: C3_10  and  C4_13 
REMARK    6  A    between atoms: C4_13  and  C5_14 
REMARK    7  A    between atoms: C5_14  and  N4_15 
REMARK    8  A    between atoms: C5_14  and  C8_20 
REMARK       I    between atoms: N4_15  and  C6_17 
REMARK    9  A    between atoms: C14_27  and  C15_28 
ROOT
HETATM    1  C5  UNL     1      16.484 -14.464  18.556  1.00  0.00     0.126 C 
ENDROOT
BRANCH   1   2
HETATM    2  C4  UNL     1      15.385 -13.391  18.232  1.00  0.00     0.115 C 
BRANCH   2   3
HETATM    3  C3  UNL     1      14.310 -13.403  19.219  1.00  0.00     0.132 C 
HETATM    4  N3  UNL     1      13.696 -12.418  19.937  1.00  0.00    -0.281 N 
ATOM      5  H3  UNL     1      13.990 -11.451  19.798  1.00  0.00     0.189 HD
BRANCH   4   6
HETATM    6  N2  UNL     1      12.658 -12.694  20.878  1.00  0.00    -0.275 N 
ATOM      7  H2  UNL     1      12.100 -13.542  20.785  1.00  0.00     0.189 HD
BRANCH   6   8
HETATM    8  C2  UNL     1      12.399 -11.795  21.939  1.00  0.00     0.186 C 
HETATM    9  S1  UNL     1      13.233 -10.392  22.011  1.00  0.00    -0.040 SA
BRANCH   8  10
HETATM   10  N1  UNL     1      11.431 -12.060  22.929  1.00  0.00    -0.370 N 
HETATM   11  C1  UNL     1      11.221 -11.227  24.100  1.00  0.00     0.148 C 
ATOM     12  H1  UNL     1      10.842 -12.885  22.816  1.00  0.00     0.161 HD
ENDBRANCH   8  10
ENDBRANCH   6   8
ENDBRANCH   4   6
BRANCH   3  13
HETATM   13  O1  UNL     1      13.842 -14.624  19.461  1.00  0.00    -0.348 OA
ATOM     14  H1  UNL     1      13.403 -15.025  18.721  1.00  0.00     0.219 HD
ENDBRANCH   3  13
ENDBRANCH   2   3
ENDBRANCH   1   2
BRANCH   1  15
HETATM   15  N4  UNL     1      16.273 -15.353  17.380  1.00  0.00    -0.352 N 
HETATM   16  C6  UNL     1      15.448 -16.373  17.079  1.00  0.00     0.214 C 
HETATM   17  C7  UNL     1      15.578 -17.016  15.699  1.00  0.00     0.117 C 
HETATM   18  O2  UNL     1      14.552 -16.933  17.740  1.00  0.00    -0.274 OA
ATOM     19  H4  UNL     1      16.910 -15.136  16.614  1.00  0.00     0.163 HD
ENDBRANCH   1  15
BRANCH   1  20
HETATM   20  C8  UNL     1      17.831 -13.965  18.419  1.00  0.00    -0.022 A 
HETATM   21  C9  UNL     1      18.341 -13.786  17.099  1.00  0.00     0.034 A 
HETATM   22  C10 UNL     1      19.615 -13.388  16.828  1.00  0.00     0.035 A 
HETATM   23 CL1  UNL     1      20.092 -13.203  15.131  1.00  0.00    -0.084 Cl
HETATM   24  C11 UNL     1      20.456 -13.146  17.853  1.00  0.00     0.031 A 
HETATM   25  C12 UNL     1      20.015 -13.305  19.147  1.00  0.00    -0.049 A 
HETATM   26  C13 UNL     1      21.030 -13.130  20.227  1.00  0.00     0.049 C 
HETATM   27  C14 UNL     1      18.688 -13.715  19.459  1.00  0.00    -0.020 A 
BRANCH  27  28
HETATM   28  C15 UNL     1      18.362 -13.837  20.845  1.00  0.00    -0.076 C 
HETATM   29  C16 UNL     1      17.473 -12.753  21.470  1.00  0.00     0.044 C 
HETATM   30  C17 UNL     1      18.270 -15.049  21.665  1.00  0.00     0.044 C 
ENDBRANCH  27  28
ENDBRANCH   1  20
TORSDOF 9
ENDMDL
MODEL 4
REMARK VINA RESULT: -7.051082943      4.161      6.692
REMARK  9 active torsions:
REMARK  status: ('A' for Active; 'I' for Inactive)
REMARK    1  A    between atoms: N1_2  and  C2_4 
REMARK    2  A    between atoms: C2_4  and  N2_6 
REMARK    3  A    between atoms: N2_6  and  N3_8 
REMARK    4  A    between atoms: C3_10  and  O1_11 
REMARK    5  A    between atoms: C3_10  and  C4_13 
REMARK    6  A    between atoms: C4_13  and  C5_14 
REMARK    7  A    between atoms: C5_14  and  N4_15 
REMARK    8  A    between atoms: C5_14  and  C8_20 
REMARK       I    between atoms: N4_15  and  C6_17 
REMARK    9  A    between atoms: C14_27  and  C15_28 
ROOT
HETATM    1  C5  UNL     1      17.342 -13.507  21.001  1.00  0.00     0.126 C 
ENDROOT
BRANCH   1   2
HETATM    2  C4  UNL     1      17.003 -14.297  19.688  1.00  0.00     0.115 C 
BRANCH   2   3
HETATM    3  C3  UNL     1      17.167 -13.466  18.500  1.00  0.00     0.132 C 
HETATM    4  N3  UNL     1      17.617 -13.727  17.238  1.00  0.00    -0.281 N 
ATOM      5  H3  UNL     1      17.902 -14.678  17.003  1.00  0.00     0.189 HD
BRANCH   4   6
HETATM    6  N2  UNL     1      17.705 -12.715  16.234  1.00  0.00    -0.275 N 
ATOM      7  H2  UNL     1      16.853 -12.341  15.815  1.00  0.00     0.189 HD
BRANCH   6   8
HETATM    8  C2  UNL     1      18.966 -12.228  15.818  1.00  0.00     0.186 C 
HETATM    9  S1  UNL     1      20.311 -13.059  16.231  1.00  0.00    -0.040 SA
BRANCH   8  10
HETATM   10  N1  UNL     1      19.101 -11.059  15.043  1.00  0.00    -0.370 N 
HETATM   11  C1  UNL     1      19.452 -11.058  13.633  1.00  0.00     0.148 C 
ATOM     12  H1  UNL     1      18.944 -10.160  15.498  1.00  0.00     0.161 HD
ENDBRANCH   8  10
ENDBRANCH   6   8
ENDBRANCH   4   6
BRANCH   3  13
HETATM   13  O1  UNL     1      16.805 -12.202  18.697  1.00  0.00    -0.348 OA
ATOM     14  H1  UNL     1      16.999 -11.874  19.567  1.00  0.00     0.219 HD
ENDBRANCH   3  13
ENDBRANCH   2   3
ENDBRANCH   1   2
BRANCH   1  15
HETATM   15  N4  UNL     1      15.969 -13.448  21.579  1.00  0.00    -0.352 N 
HETATM   16  C6  UNL     1      14.907 -12.631  21.455  1.00  0.00     0.214 C 
HETATM   17  C7  UNL     1      13.651 -12.963  22.259  1.00  0.00     0.117 C 
HETATM   18  O2  UNL     1      14.734 -11.598  20.780  1.00  0.00    -0.274 OA
ATOM     19  H4  UNL     1      15.791 -14.214  22.228  1.00  0.00     0.163 HD
ENDBRANCH   1  15
BRANCH   1  20
HETATM   20  C8  UNL     1      18.119 -14.272  21.946  1.00  0.00    -0.022 A 
HETATM   21  C9  UNL     1      17.484 -14.669  23.160  1.00  0.00     0.034 A 
HETATM   22  C10 UNL     1      18.121 -15.334  24.165  1.00  0.00     0.035 A 
HETATM   23 CL1  UNL     1      17.186 -15.766  25.608  1.00  0.00    -0.084 Cl
HETATM   24  C11 UNL     1      19.425 -15.640  24.021  1.00  0.00     0.031 A 
HETATM   25  C12 UNL     1      20.086 -15.278  22.869  1.00  0.00    -0.049 A 
HETATM   26  C13 UNL     1      21.554 -15.549  22.827  1.00  0.00     0.049 C 
HETATM   27  C14 UNL     1      19.445 -14.588  21.802  1.00  0.00    -0.020 A 
BRANCH  27  28
HETATM   28  C15 UNL     1      20.249 -14.276  20.663  1.00  0.00    -0.076 C 
HETATM   29  C16 UNL     1      20.203 -15.238  19.468  1.00  0.00     0.044 C 
HETATM   30  C17 UNL     1      20.707 -12.966  20.192  1.00  0.00     0.044 C 
ENDBRANCH  27  28
ENDBRANCH   1  20
TORSDOF 9
ENDMDL
MODEL 5
REMARK VINA RESULT: -7.042876739      2.904      4.088
REMARK  9 active torsions:
REMARK  status: ('A' for Active; 'I' for Inactive)
REMARK    1  A    between atoms: N1_2  and  C2_4 
REMARK    2  A    between atoms: C2_4  and  N2_6 
REMARK    3  A    between atoms: N2_6  and  N3_8 
REMARK    4  A    between atoms: C3_10  and  O1_11 
REMARK    5  A    between atoms: C3_10  and  C4_13 
REMARK    6  A    between atoms: C4_13  and  C5_14 
REMARK    7  A    between atoms: C5_14  and  N4_15 
REMARK    8  A    between atoms: C5_14  and  C8_20 
REMARK       I    between atoms: N4_15  and  C6_17 
REMARK    9  A    between atoms: C14_27  and  C15_28 
ROOT
HETATM    1  C5  UNL     1      16.546 -14.213  21.989  1.00  0.00     0.126 C 
ENDROOT
BRANCH   1   2
HETATM    2  C4  UNL     1      16.114 -12.795  21.474  1.00  0.00     0.115 C 
BRANCH   2   3
HETATM    3  C3  UNL     1      14.694 -12.547  21.700  1.00  0.00     0.132 C 
HETATM    4  N3  UNL     1      13.855 -11.538  21.325  1.00  0.00    -0.281 N 
ATOM      5  H3  UNL     1      14.225 -10.774  20.759  1.00  0.00     0.189 HD
BRANCH   4   6
HETATM    6  N2  UNL     1      12.476 -11.513  21.697  1.00  0.00    -0.275 N 
ATOM      7  H2  UNL     1      11.765 -11.812  21.030  1.00  0.00     0.189 HD
BRANCH   6   8
HETATM    8  C2  UNL     1      12.092 -11.077  22.987  1.00  0.00     0.186 C 
HETATM    9  S1  UNL     1      11.098 -12.019  23.878  1.00  0.00    -0.040 SA
BRANCH   8  10
HETATM   10  N1  UNL     1      12.554  -9.866  23.538  1.00  0.00    -0.370 N 
HETATM   11  C1  UNL     1      11.873  -9.148  24.602  1.00  0.00     0.148 C 
ATOM     12  H1  UNL     1      13.418  -9.469  23.169  1.00  0.00     0.161 HD
ENDBRANCH   8  10
ENDBRANCH   6   8
ENDBRANCH   4   6
BRANCH   3  13
HETATM   13  O1  UNL     1      14.109 -13.501  22.419  1.00  0.00    -0.348 OA
ATOM     14  H1  UNL     1      14.030 -14.333  21.968  1.00  0.00     0.219 HD
ENDBRANCH   3  13
ENDBRANCH   2   3
ENDBRANCH   1   2
BRANCH   1  15
HETATM   15  N4  UNL     1      16.109 -15.014  20.810  1.00  0.00    -0.352 N 
HETATM   16  C6  UNL     1      15.191 -15.971  20.582  1.00  0.00     0.214 C 
HETATM   17  C7  UNL     1      15.074 -16.529  19.165  1.00  0.00     0.117 C 
HETATM   18  O2  UNL     1      14.373 -16.527  21.341  1.00  0.00    -0.274 OA
ATOM     19  H4  UNL     1      16.636 -14.779  19.968  1.00  0.00     0.163 HD
ENDBRANCH   1  15
BRANCH   1  20
HETATM   20  C8  UNL     1      17.977 -14.388  22.058  1.00  0.00    -0.022 A 
HETATM   21  C9  UNL     1      18.777 -13.683  21.112  1.00  0.00     0.034 A 
HETATM   22  C10 UNL     1      20.131 -13.810  21.022  1.00  0.00     0.035 A 
HETATM   23 CL1  UNL     1      20.983 -12.854  19.796  1.00  0.00    -0.084 Cl
HETATM   24  C11 UNL     1      20.766 -14.646  21.866  1.00  0.00     0.031 A 
HETATM   25  C12 UNL     1      20.040 -15.353  22.798  1.00  0.00    -0.049 A 
HETATM   26  C13 UNL     1      20.792 -16.343  23.623  1.00  0.00     0.049 C 
HETATM   27  C14 UNL     1      18.626 -15.236  22.917  1.00  0.00    -0.020 A 
BRANCH  27  28
HETATM   28  C15 UNL     1      17.998 -16.025  23.929  1.00  0.00    -0.076 C 
HETATM   29  C16 UNL     1      17.721 -15.361  25.286  1.00  0.00     0.044 C 
HETATM   30  C17 UNL     1      17.097 -17.171  23.776  1.00  0.00     0.044 C 
ENDBRANCH  27  28
ENDBRANCH   1  20
TORSDOF 9
ENDMDL
