MODEL 1
REMARK VINA RESULT: -7.590188098      0.000      0.000
REMARK  12 active torsions:
REMARK  status: ('A' for Active; 'I' for Inactive)
REMARK    1  A    between atoms: C2_2  and  C3_3 
REMARK    2  A    between atoms: C3_3  and  O1_4 
REMARK    3  A    between atoms: C3_3  and  C4_6 
REMARK    4  A    between atoms: C4_6  and  C5_7 
REMARK    5  A    between atoms: C5_7  and  C6_8 
REMARK    6  A    between atoms: C6_8  and  C8_10 
REMARK    7  A    between atoms: C12_14  and  O2_15 
REMARK    8  A    between atoms: C15_19  and  O3_20 
REMARK    9  A    between atoms: C16_22  and  C17_23 
REMARK   10  A    between atoms: C18_25  and  O5_26 
REMARK   11  A    between atoms: O5_26  and  C19_27 
REMARK   12  A    between atoms: C19_27  and  C20_28 
ROOT
HETATM    1  C8  UNL     1      50.983  52.380  19.662  1.00  0.00    -0.002 C 
HETATM    2  C9  UNL     1      52.241  51.756  20.181  1.00  0.00    -0.012 C 
HETATM    3  C10 UNL     1      52.320  51.779  21.722  1.00  0.00     0.010 C 
HETATM    4  C11 UNL     1      52.453  50.315  19.810  1.00  0.00     0.037 C 
HETATM    5  C12 UNL     1      51.223  49.479  19.876  1.00  0.00     0.123 C 
HETATM    6  C13 UNL     1      49.942  50.266  19.789  1.00  0.00     0.022 C 
HETATM    7  C14 UNL     1      48.780  49.471  19.317  1.00  0.00     0.040 C 
HETATM    8  C15 UNL     1      48.841  49.132  17.848  1.00  0.00     0.136 C 
HETATM    9  C16 UNL     1      49.120  50.365  17.003  1.00  0.00     0.069 C 
HETATM   10  C18 UNL     1      49.301  49.887  15.599  1.00  0.00     0.140 C 
HETATM   11  C21 UNL     1      50.749  49.538  15.344  1.00  0.00     0.033 C 
HETATM   12  C22 UNL     1      51.511  50.819  15.367  1.00  0.00     0.003 C 
HETATM   13  C23 UNL     1      51.013  51.768  16.473  1.00  0.00     0.006 C 
HETATM   14  C24 UNL     1      50.433  50.962  17.560  1.00  0.00     0.011 C 
HETATM   15  C25 UNL     1      50.124  51.500  18.859  1.00  0.00     0.002 C 
ENDROOT
BRANCH   1  16
HETATM   16  C6  UNL     1      51.168  53.810  19.195  1.00  0.00    -0.014 C 
HETATM   17  C7  UNL     1      52.659  54.082  19.039  1.00  0.00     0.010 C 
BRANCH  16  18
HETATM   18  C5  UNL     1      50.684  54.813  20.171  1.00  0.00     0.007 C 
BRANCH  18  19
HETATM   19  C4  UNL     1      51.832  55.403  20.957  1.00  0.00     0.032 C 
BRANCH  19  20
HETATM   20  C3  UNL     1      51.312  56.561  21.828  1.00  0.00     0.117 C 
BRANCH  20  21
HETATM   21  C2  UNL     1      50.314  57.339  21.037  1.00  0.00     0.027 C 
HETATM   22  C1  UNL     1      49.650  58.435  21.816  1.00  0.00     0.007 C 
ENDBRANCH  20  21
BRANCH  20  23
HETATM   23  O1  UNL     1      52.384  57.393  22.121  1.00  0.00    -0.396 OA
ATOM     24  H1  UNL     1      52.057  58.279  22.222  1.00  0.00     0.210 HD
ENDBRANCH  20  23
ENDBRANCH  19  20
ENDBRANCH  18  19
ENDBRANCH  16  18
ENDBRANCH   1  16
BRANCH   5  25
HETATM   25  O2  UNL     1      51.153  48.766  21.099  1.00  0.00    -0.395 OA
ATOM     26  H2  UNL     1      50.379  49.008  21.593  1.00  0.00     0.210 HD
ENDBRANCH   5  25
BRANCH   9  27
HETATM   27  C17 UNL     1      47.998  51.296  17.035  1.00  0.00     0.246 C 
HETATM   28  O4  UNL     1      48.005  52.279  16.289  1.00  0.00    -0.306 OA
ENDBRANCH   9  27
BRANCH   8  29
HETATM   29  O3  UNL     1      47.657  48.517  17.495  1.00  0.00    -0.394 OA
ATOM     30  H3  UNL     1      46.958  49.159  17.553  1.00  0.00     0.210 HD
ENDBRANCH   8  29
BRANCH  10  31
HETATM   31  O5  UNL     1      48.463  48.830  15.277  1.00  0.00    -0.374 OA
BRANCH  31  32
HETATM   32  C19 UNL     1      47.596  49.179  14.244  1.00  0.00     0.281 C 
BRANCH  32  33
HETATM   33  C20 UNL     1      46.314  48.474  14.393  1.00  0.00     0.197 C 
HETATM   34  O6  UNL     1      45.914  47.711  13.496  1.00  0.00    -0.646 OA
HETATM   35  O7  UNL     1      45.555  48.661  15.533  1.00  0.00    -0.646 OA
ENDBRANCH  32  33
ENDBRANCH  31  32
ENDBRANCH  10  31
TORSDOF 12
ENDMDL
MODEL 2
REMARK VINA RESULT: -7.461278564      2.387      7.176
REMARK  12 active torsions:
REMARK  status: ('A' for Active; 'I' for Inactive)
REMARK    1  A    between atoms: C2_2  and  C3_3 
REMARK    2  A    between atoms: C3_3  and  O1_4 
REMARK    3  A    between atoms: C3_3  and  C4_6 
REMARK    4  A    between atoms: C4_6  and  C5_7 
REMARK    5  A    between atoms: C5_7  and  C6_8 
REMARK    6  A    between atoms: C6_8  and  C8_10 
REMARK    7  A    between atoms: C12_14  and  O2_15 
REMARK    8  A    between atoms: C15_19  and  O3_20 
REMARK    9  A    between atoms: C16_22  and  C17_23 
REMARK   10  A    between atoms: C18_25  and  O5_26 
REMARK   11  A    between atoms: O5_26  and  C19_27 
REMARK   12  A    between atoms: C19_27  and  C20_28 
ROOT
HETATM    1  C8  UNL     1      49.337  49.835  16.467  1.00  0.00    -0.002 C 
HETATM    2  C9  UNL     1      47.842  49.805  16.538  1.00  0.00    -0.012 C 
HETATM    3  C10 UNL     1      47.269  48.386  16.347  1.00  0.00     0.010 C 
HETATM    4  C11 UNL     1      47.243  50.288  17.829  1.00  0.00     0.037 C 
HETATM    5  C12 UNL     1      47.973  49.839  19.047  1.00  0.00     0.123 C 
HETATM    6  C13 UNL     1      49.405  49.448  18.793  1.00  0.00     0.022 C 
HETATM    7  C14 UNL     1      50.271  49.527  19.997  1.00  0.00     0.040 C 
HETATM    8  C15 UNL     1      50.580  50.941  20.423  1.00  0.00     0.136 C 
HETATM    9  C16 UNL     1      51.082  51.777  19.256  1.00  0.00     0.069 C 
HETATM   10  C18 UNL     1      51.214  53.177  19.762  1.00  0.00     0.140 C 
HETATM   11  C21 UNL     1      49.915  53.928  19.580  1.00  0.00     0.033 C 
HETATM   12  C22 UNL     1      49.726  54.113  18.113  1.00  0.00     0.003 C 
HETATM   13  C23 UNL     1      50.144  52.864  17.314  1.00  0.00     0.006 C 
HETATM   14  C24 UNL     1      49.983  51.679  18.173  1.00  0.00     0.011 C 
HETATM   15  C25 UNL     1      50.019  50.331  17.669  1.00  0.00     0.002 C 
ENDROOT
BRANCH   1  16
HETATM   16  C6  UNL     1      49.867  50.276  15.117  1.00  0.00    -0.014 C 
HETATM   17  C7  UNL     1      48.748  50.151  14.090  1.00  0.00     0.010 C 
BRANCH  16  18
HETATM   18  C5  UNL     1      50.964  49.422  14.610  1.00  0.00     0.007 C 
BRANCH  18  19
HETATM   19  C4  UNL     1      52.087  50.259  14.044  1.00  0.00     0.032 C 
BRANCH  19  20
HETATM   20  C3  UNL     1      53.148  50.496  15.134  1.00  0.00     0.117 C 
BRANCH  20  21
HETATM   21  C2  UNL     1      53.523  51.940  15.126  1.00  0.00     0.027 C 
HETATM   22  C1  UNL     1      54.163  52.389  13.846  1.00  0.00     0.007 C 
ENDBRANCH  20  21
BRANCH  20  23
HETATM   23  O1  UNL     1      54.272  49.749  14.808  1.00  0.00    -0.396 OA
ATOM     24  H1  UNL     1      53.994  48.989  14.312  1.00  0.00     0.210 HD
ENDBRANCH  20  23
ENDBRANCH  19  20
ENDBRANCH  18  19
ENDBRANCH  16  18
ENDBRANCH   1  16
BRANCH   5  25
HETATM   25  O2  UNL     1      47.360  48.698  19.621  1.00  0.00    -0.395 OA
ATOM     26  H2  UNL     1      46.583  48.936  20.112  1.00  0.00     0.210 HD
ENDBRANCH   5  25
BRANCH   9  27
HETATM   27  C17 UNL     1      52.390  51.324  18.801  1.00  0.00     0.246 C 
HETATM   28  O4  UNL     1      53.388  51.567  19.485  1.00  0.00    -0.306 OA
ENDBRANCH   9  27
BRANCH   8  29
HETATM   29  O3  UNL     1      51.493  50.893  21.457  1.00  0.00    -0.394 OA
ATOM     30  H3  UNL     1      51.023  51.007  22.276  1.00  0.00     0.210 HD
ENDBRANCH   8  29
BRANCH  10  31
HETATM   31  O5  UNL     1      51.651  53.237  21.076  1.00  0.00    -0.374 OA
BRANCH  31  32
HETATM   32  C19 UNL     1      51.012  54.265  21.767  1.00  0.00     0.281 C 
BRANCH  32  33
HETATM   33  C20 UNL     1      51.993  55.266  22.215  1.00  0.00     0.197 C 
HETATM   34  O6  UNL     1      52.652  55.911  21.381  1.00  0.00    -0.646 OA
HETATM   35  O7  UNL     1      52.179  55.487  23.567  1.00  0.00    -0.646 OA
ENDBRANCH  32  33
ENDBRANCH  31  32
ENDBRANCH  10  31
TORSDOF 12
ENDMDL
MODEL 3
REMARK VINA RESULT: -7.351046709      1.721      2.141
REMARK  12 active torsions:
REMARK  status: ('A' for Active; 'I' for Inactive)
REMARK    1  A    between atoms: C2_2  and  C3_3 
REMARK    2  A    between atoms: C3_3  and  O1_4 
REMARK    3  A    between atoms: C3_3  and  C4_6 
REMARK    4  A    between atoms: C4_6  and  C5_7 
REMARK    5  A    between atoms: C5_7  and  C6_8 
REMARK    6  A    between atoms: C6_8  and  C8_10 
REMARK    7  A    between atoms: C12_14  and  O2_15 
REMARK    8  A    between atoms: C15_19  and  O3_20 
REMARK    9  A    between atoms: C16_22  and  C17_23 
REMARK   10  A    between atoms: C18_25  and  O5_26 
REMARK   11  A    between atoms: O5_26  and  C19_27 
REMARK   12  A    between atoms: C19_27  and  C20_28 
ROOT
HETATM    1  C8  UNL     1      49.780  53.073  18.811  1.00  0.00    -0.002 C 
HETATM    2  C9  UNL     1      51.205  53.254  18.389  1.00  0.00    -0.012 C 
HETATM    3  C10 UNL     1      52.147  53.513  19.583  1.00  0.00     0.010 C 
HETATM    4  C11 UNL     1      51.821  52.090  17.664  1.00  0.00     0.037 C 
HETATM    5  C12 UNL     1      51.459  50.759  18.226  1.00  0.00     0.123 C 
HETATM    6  C13 UNL     1      50.193  50.762  19.041  1.00  0.00     0.022 C 
HETATM    7  C14 UNL     1      49.541  49.431  19.143  1.00  0.00     0.040 C 
HETATM    8  C15 UNL     1      48.885  48.985  17.860  1.00  0.00     0.136 C 
HETATM    9  C16 UNL     1      47.979  50.066  17.292  1.00  0.00     0.069 C 
HETATM   10  C18 UNL     1      47.506  49.570  15.964  1.00  0.00     0.140 C 
HETATM   11  C21 UNL     1      48.469  49.980  14.875  1.00  0.00     0.033 C 
HETATM   12  C22 UNL     1      48.364  51.462  14.741  1.00  0.00     0.003 C 
HETATM   13  C23 UNL     1      48.229  52.157  16.109  1.00  0.00     0.006 C 
HETATM   14  C24 UNL     1      48.874  51.316  17.132  1.00  0.00     0.011 C 
HETATM   15  C25 UNL     1      49.174  51.783  18.460  1.00  0.00     0.002 C 
ENDROOT
BRANCH   1  16
HETATM   16  C6  UNL     1      48.939  54.323  18.641  1.00  0.00    -0.014 C 
HETATM   17  C7  UNL     1      49.618  55.231  17.622  1.00  0.00     0.010 C 
BRANCH  16  18
HETATM   18  C5  UNL     1      48.829  55.129  19.877  1.00  0.00     0.007 C 
BRANCH  18  19
HETATM   19  C4  UNL     1      49.486  56.479  19.705  1.00  0.00     0.032 C 
BRANCH  19  20
HETATM   20  C3  UNL     1      50.358  56.782  20.937  1.00  0.00     0.117 C 
BRANCH  20  21
HETATM   21  C2  UNL     1      49.913  58.080  21.525  1.00  0.00     0.027 C 
HETATM   22  C1  UNL     1      48.574  58.537  21.030  1.00  0.00     0.007 C 
ENDBRANCH  20  21
BRANCH  20  23
HETATM   23  O1  UNL     1      51.671  56.923  20.510  1.00  0.00    -0.396 OA
ATOM     24  H1  UNL     1      51.837  56.276  19.834  1.00  0.00     0.210 HD
ENDBRANCH  20  23
ENDBRANCH  19  20
ENDBRANCH  18  19
ENDBRANCH  16  18
ENDBRANCH   1  16
BRANCH   5  25
HETATM   25  O2  UNL     1      52.472  50.276  19.091  1.00  0.00    -0.395 OA
ATOM     26  H2  UNL     1      52.452  49.328  19.147  1.00  0.00     0.210 HD
ENDBRANCH   5  25
BRANCH   9  27
HETATM   27  C17 UNL     1      46.817  50.287  18.145  1.00  0.00     0.246 C 
HETATM   28  O4  UNL     1      46.011  49.369  18.321  1.00  0.00    -0.306 OA
ENDBRANCH   9  27
BRANCH   8  29
HETATM   29  O3  UNL     1      48.202  47.812  18.108  1.00  0.00    -0.394 OA
ATOM     30  H3  UNL     1      47.340  47.879  17.713  1.00  0.00     0.210 HD
ENDBRANCH   8  29
BRANCH  10  31
HETATM   31  O5  UNL     1      47.280  48.202  15.948  1.00  0.00    -0.374 OA
BRANCH  31  32
HETATM   32  C19 UNL     1      46.497  47.840  14.854  1.00  0.00     0.281 C 
BRANCH  32  33
HETATM   33  C20 UNL     1      45.069  47.900  15.206  1.00  0.00     0.197 C 
HETATM   34  O6  UNL     1      44.253  48.404  14.414  1.00  0.00    -0.646 OA
HETATM   35  O7  UNL     1      44.638  47.393  16.417  1.00  0.00    -0.646 OA
ENDBRANCH  32  33
ENDBRANCH  31  32
ENDBRANCH  10  31
TORSDOF 12
ENDMDL
MODEL 4
REMARK VINA RESULT: -7.344313874      2.558      8.724
REMARK  12 active torsions:
REMARK  status: ('A' for Active; 'I' for Inactive)
REMARK    1  A    between atoms: C2_2  and  C3_3 
REMARK    2  A    between atoms: C3_3  and  O1_4 
REMARK    3  A    between atoms: C3_3  and  C4_6 
REMARK    4  A    between atoms: C4_6  and  C5_7 
REMARK    5  A    between atoms: C5_7  and  C6_8 
REMARK    6  A    between atoms: C6_8  and  C8_10 
REMARK    7  A    between atoms: C12_14  and  O2_15 
REMARK    8  A    between atoms: C15_19  and  O3_20 
REMARK    9  A    between atoms: C16_22  and  C17_23 
REMARK   10  A    between atoms: C18_25  and  O5_26 
REMARK   11  A    between atoms: O5_26  and  C19_27 
REMARK   12  A    between atoms: C19_27  and  C20_28 
ROOT
HETATM    1  C8  UNL     1      48.975  53.913  18.266  1.00  0.00    -0.002 C 
HETATM    2  C9  UNL     1      48.903  54.558  16.917  1.00  0.00    -0.012 C 
HETATM    3  C10 UNL     1      47.452  54.747  16.428  1.00  0.00     0.010 C 
HETATM    4  C11 UNL     1      49.520  55.926  16.817  1.00  0.00     0.037 C 
HETATM    5  C12 UNL     1      49.249  56.806  17.988  1.00  0.00     0.123 C 
HETATM    6  C13 UNL     1      48.879  56.059  19.242  1.00  0.00     0.022 C 
HETATM    7  C14 UNL     1      49.135  56.821  20.491  1.00  0.00     0.040 C 
HETATM    8  C15 UNL     1      50.599  56.951  20.827  1.00  0.00     0.136 C 
HETATM    9  C16 UNL     1      51.303  55.603  20.780  1.00  0.00     0.069 C 
HETATM   10  C18 UNL     1      52.758  55.876  20.984  1.00  0.00     0.140 C 
HETATM   11  C21 UNL     1      53.436  56.135  19.659  1.00  0.00     0.033 C 
HETATM   12  C22 UNL     1      53.433  54.844  18.913  1.00  0.00     0.003 C 
HETATM   13  C23 UNL     1      52.111  54.075  19.093  1.00  0.00     0.006 C 
HETATM   14  C24 UNL     1      51.035  55.044  19.364  1.00  0.00     0.011 C 
HETATM   15  C25 UNL     1      49.638  54.703  19.312  1.00  0.00     0.002 C 
ENDROOT
BRANCH   1  16
HETATM   16  C6  UNL     1      49.265  52.427  18.208  1.00  0.00    -0.014 C 
HETATM   17  C7  UNL     1      50.186  52.156  17.024  1.00  0.00     0.010 C 
BRANCH  16  18
HETATM   18  C5  UNL     1      48.059  51.603  17.965  1.00  0.00     0.007 C 
BRANCH  18  19
HETATM   19  C4  UNL     1      48.294  50.613  16.848  1.00  0.00     0.032 C 
BRANCH  19  20
HETATM   20  C3  UNL     1      48.033  49.187  17.366  1.00  0.00     0.117 C 
BRANCH  20  21
HETATM   21  C2  UNL     1      47.167  49.273  18.579  1.00  0.00     0.027 C 
HETATM   22  C1  UNL     1      45.821  48.636  18.403  1.00  0.00     0.007 C 
ENDBRANCH  20  21
BRANCH  20  23
HETATM   23  O1  UNL     1      49.252  48.636  17.737  1.00  0.00    -0.396 OA
ATOM     24  H1  UNL     1      49.746  49.293  18.213  1.00  0.00     0.210 HD
ENDBRANCH  20  23
ENDBRANCH  19  20
ENDBRANCH  18  19
ENDBRANCH  16  18
ENDBRANCH   1  16
BRANCH   5  25
HETATM   25  O2  UNL     1      48.167  57.683  17.730  1.00  0.00    -0.395 OA
ATOM     26  H2  UNL     1      48.472  58.569  17.578  1.00  0.00     0.210 HD
ENDBRANCH   5  25
BRANCH   9  27
HETATM   27  C17 UNL     1      50.842  54.726  21.849  1.00  0.00     0.246 C 
HETATM   28  O4  UNL     1      51.660  54.030  22.458  1.00  0.00    -0.306 OA
ENDBRANCH   9  27
BRANCH   8  29
HETATM   29  O3  UNL     1      50.709  57.552  22.064  1.00  0.00    -0.394 OA
ATOM     30  H3  UNL     1      50.067  57.160  22.645  1.00  0.00     0.210 HD
ENDBRANCH   8  29
BRANCH  10  31
HETATM   31  O5  UNL     1      52.994  56.907  21.881  1.00  0.00    -0.374 OA
BRANCH  31  32
HETATM   32  C19 UNL     1      54.277  57.424  21.719  1.00  0.00     0.281 C 
BRANCH  32  33
HETATM   33  C20 UNL     1      54.211  58.812  21.238  1.00  0.00     0.197 C 
HETATM   34  O6  UNL     1      54.996  59.204  20.357  1.00  0.00    -0.646 OA
HETATM   35  O7  UNL     1      53.275  59.680  21.768  1.00  0.00    -0.646 OA
ENDBRANCH  32  33
ENDBRANCH  31  32
ENDBRANCH  10  31
TORSDOF 12
ENDMDL
MODEL 5
REMARK VINA RESULT: -7.324186157      1.072      1.195
REMARK  12 active torsions:
REMARK  status: ('A' for Active; 'I' for Inactive)
REMARK    1  A    between atoms: C2_2  and  C3_3 
REMARK    2  A    between atoms: C3_3  and  O1_4 
REMARK    3  A    between atoms: C3_3  and  C4_6 
REMARK    4  A    between atoms: C4_6  and  C5_7 
REMARK    5  A    between atoms: C5_7  and  C6_8 
REMARK    6  A    between atoms: C6_8  and  C8_10 
REMARK    7  A    between atoms: C12_14  and  O2_15 
REMARK    8  A    between atoms: C15_19  and  O3_20 
REMARK    9  A    between atoms: C16_22  and  C17_23 
REMARK   10  A    between atoms: C18_25  and  O5_26 
REMARK   11  A    between atoms: O5_26  and  C19_27 
REMARK   12  A    between atoms: C19_27  and  C20_28 
ROOT
HETATM    1  C8  UNL     1      50.964  52.372  19.667  1.00  0.00    -0.002 C 
HETATM    2  C9  UNL     1      52.218  51.743  20.190  1.00  0.00    -0.012 C 
HETATM    3  C10 UNL     1      52.291  51.763  21.731  1.00  0.00     0.010 C 
HETATM    4  C11 UNL     1      52.426  50.302  19.818  1.00  0.00     0.037 C 
HETATM    5  C12 UNL     1      51.192  49.470  19.878  1.00  0.00     0.123 C 
HETATM    6  C13 UNL     1      49.915  50.262  19.787  1.00  0.00     0.022 C 
HETATM    7  C14 UNL     1      48.752  49.472  19.308  1.00  0.00     0.040 C 
HETATM    8  C15 UNL     1      48.818  49.135  17.840  1.00  0.00     0.136 C 
HETATM    9  C16 UNL     1      49.105  50.368  16.997  1.00  0.00     0.069 C 
HETATM   10  C18 UNL     1      49.290  49.891  15.593  1.00  0.00     0.140 C 
HETATM   11  C21 UNL     1      50.737  49.537  15.344  1.00  0.00     0.033 C 
HETATM   12  C22 UNL     1      51.505  50.814  15.372  1.00  0.00     0.003 C 
HETATM   13  C23 UNL     1      51.006  51.764  16.477  1.00  0.00     0.006 C 
HETATM   14  C24 UNL     1      50.418  50.959  17.561  1.00  0.00     0.011 C 
HETATM   15  C25 UNL     1      50.105  51.496  18.859  1.00  0.00     0.002 C 
ENDROOT
BRANCH   1  16
HETATM   16  C6  UNL     1      51.156  53.802  19.203  1.00  0.00    -0.014 C 
HETATM   17  C7  UNL     1      52.645  54.048  18.987  1.00  0.00     0.010 C 
BRANCH  16  18
HETATM   18  C5  UNL     1      50.732  54.806  20.204  1.00  0.00     0.007 C 
BRANCH  18  19
HETATM   19  C4  UNL     1      49.380  55.383  19.855  1.00  0.00     0.032 C 
BRANCH  19  20
HETATM   20  C3  UNL     1      49.537  56.872  19.498  1.00  0.00     0.117 C 
BRANCH  20  21
HETATM   21  C2  UNL     1      48.650  57.671  20.394  1.00  0.00     0.027 C 
HETATM   22  C1  UNL     1      49.372  58.305  21.545  1.00  0.00     0.007 C 
ENDBRANCH  20  21
BRANCH  20  23
HETATM   23  O1  UNL     1      49.109  57.046  18.189  1.00  0.00    -0.396 OA
ATOM     24  H1  UNL     1      48.350  57.618  18.195  1.00  0.00     0.210 HD
ENDBRANCH  20  23
ENDBRANCH  19  20
ENDBRANCH  18  19
ENDBRANCH  16  18
ENDBRANCH   1  16
BRANCH   5  25
HETATM   25  O2  UNL     1      51.114  48.756  21.100  1.00  0.00    -0.395 OA
ATOM     26  H2  UNL     1      51.001  47.826  20.947  1.00  0.00     0.210 HD
ENDBRANCH   5  25
BRANCH   9  27
HETATM   27  C17 UNL     1      47.986  51.303  17.026  1.00  0.00     0.246 C 
HETATM   28  O4  UNL     1      47.955  52.235  16.217  1.00  0.00    -0.306 OA
ENDBRANCH   9  27
BRANCH   8  29
HETATM   29  O3  UNL     1      47.633  48.525  17.481  1.00  0.00    -0.394 OA
ATOM     30  H3  UNL     1      47.815  47.905  16.784  1.00  0.00     0.210 HD
ENDBRANCH   8  29
BRANCH  10  31
HETATM   31  O5  UNL     1      48.450  48.837  15.266  1.00  0.00    -0.374 OA
BRANCH  31  32
HETATM   32  C19 UNL     1      47.583  49.194  14.236  1.00  0.00     0.281 C 
BRANCH  32  33
HETATM   33  C20 UNL     1      46.311  48.466  14.363  1.00  0.00     0.197 C 
HETATM   34  O6  UNL     1      45.935  47.704  13.456  1.00  0.00    -0.646 OA
HETATM   35  O7  UNL     1      45.535  48.633  15.495  1.00  0.00    -0.646 OA
ENDBRANCH  32  33
ENDBRANCH  31  32
ENDBRANCH  10  31
TORSDOF 12
ENDMDL
