MODEL 1
REMARK VINA RESULT: -9.632723771      0.000      0.000
REMARK  8 active torsions:
REMARK  status: ('A' for Active; 'I' for Inactive)
REMARK    1  A    between atoms: N3_7  and  N4_8 
REMARK    2  A    between atoms: C3_12  and  C4_13 
REMARK    3  A    between atoms: C4_13  and  O1_14 
REMARK    4  A    between atoms: C4_13  and  C5_16 
REMARK       I    between atoms: C5_16  and  N5_18 
REMARK       I    between atoms: N5_18  and  C6_20 
REMARK    5  A    between atoms: C6_20  and  C7_22 
REMARK    6  A    between atoms: C7_22  and  S1_23 
REMARK    7  A    between atoms: S1_23  and  C8_24 
REMARK    8  A    between atoms: N11_36  and  N12_37 
ROOT
HETATM    1  N1  UNL     1       3.300  12.494  41.170  1.00  0.00    -0.230 N 
ATOM      2  H11 UNL     1       2.848  13.376  40.929  1.00  0.00     0.174 HD
ATOM      3  H12 UNL     1       3.647  11.945  40.384  1.00  0.00     0.174 HD
HETATM    4  C1  UNL     1       3.425  12.100  42.388  1.00  0.00     0.730 A 
HETATM    5  N2  UNL     1       4.055  10.872  42.724  1.00  0.00    -0.107 N 
ATOM      6  H2  UNL     1       4.420  10.282  41.976  1.00  0.00     0.208 HD
HETATM    7  N3  UNL     1       4.189  10.445  44.054  1.00  0.00    -0.168 N 
HETATM    8  C2  UNL     1       3.758  11.114  45.059  1.00  0.00     0.197 A 
HETATM    9  C3  UNL     1       3.744  10.951  46.499  1.00  0.00     0.048 A 
HETATM   10  C10 UNL     1       3.142  12.032  47.015  1.00  0.00     0.123 A 
HETATM   11  N9  UNL     1       2.741  12.920  46.006  1.00  0.00    -0.286 N 
ATOM     12  H9  UNL     1       2.262  13.811  46.145  1.00  0.00     0.188 HD
HETATM   13  N10 UNL     1       3.110  12.373  44.787  1.00  0.00    -0.140 N 
HETATM   14  N11 UNL     1       2.939  12.870  43.490  1.00  0.00    -0.002 N 
ENDROOT
BRANCH   9  15
HETATM   15  C4  UNL     1       4.194   9.829  47.304  1.00  0.00     0.248 C 
BRANCH  15  16
HETATM   16  O1  UNL     1       5.594   9.616  47.223  1.00  0.00    -0.381 OA
ATOM     17  H1  UNL     1       5.841   9.045  46.505  1.00  0.00     0.211 HD
ENDBRANCH  15  16
BRANCH  15  18
HETATM   18  C5  UNL     1       3.821   9.812  48.720  1.00  0.00     0.257 C 
HETATM   19  O2  UNL     1       4.523  10.313  49.604  1.00  0.00    -0.270 OA
HETATM   20  N5  UNL     1       2.604   9.205  49.156  1.00  0.00    -0.294 N 
HETATM   21  C6  UNL     1       2.187   9.154  50.504  1.00  0.00     0.233 C 
ATOM     22  H5  UNL     1       1.999   8.783  48.451  1.00  0.00     0.171 HD
HETATM   23  O3  UNL     1       1.074   8.584  50.752  1.00  0.00    -0.272 OA
BRANCH  21  24
HETATM   24  C7  UNL     1       2.964   9.720  51.632  1.00  0.00     0.184 C 
BRANCH  24  25
HETATM   25  S1  UNL     1       3.938   8.393  52.428  1.00  0.00    -0.099 SA
BRANCH  25  26
HETATM   26  C8  UNL     1       5.276   7.867  51.313  1.00  0.00     0.119 A 
HETATM   27  N6  UNL     1       6.455   8.490  51.344  1.00  0.00    -0.304 N 
HETATM   28  S2  UNL     1       7.368   7.700  50.182  1.00  0.00     0.069 SA
ATOM     29  H6  UNL     1       6.737   9.268  51.940  1.00  0.00     0.176 HD
HETATM   30  N7  UNL     1       6.225   6.588  49.675  1.00  0.00    -0.298 N 
HETATM   31  C9  UNL     1       5.155   6.851  50.420  1.00  0.00     0.157 A 
ATOM     32  H7  UNL     1       6.325   5.870  48.956  1.00  0.00     0.177 HD
HETATM   33  N8  UNL     1       3.927   6.082  50.273  1.00  0.00    -0.079 NA
ENDBRANCH  25  26
ENDBRANCH  24  25
ENDBRANCH  21  24
ENDBRANCH  15  18
ENDBRANCH   9  15
BRANCH   7  34
HETATM   34  N4  UNL     1       4.867   9.258  44.253  1.00  0.00    -0.322 N 
ATOM     35  H42 UNL     1       5.185   8.712  43.453  1.00  0.00     0.179 HD
ATOM     36  H41 UNL     1       4.989   8.963  45.221  1.00  0.00     0.179 HD
ENDBRANCH   7  34
BRANCH  14  37
HETATM   37  N12 UNL     1       2.311  14.081  43.297  1.00  0.00    -0.307 N 
ATOM     38 2H12 UNL     1       1.346  14.207  43.603  1.00  0.00     0.179 HD
ATOM     39 1H12 UNL     1       2.791  14.863  42.851  1.00  0.00     0.179 HD
ENDBRANCH  14  37
TORSDOF 8
ENDMDL
MODEL 2
REMARK VINA RESULT: -9.438082005      1.123      1.230
REMARK  8 active torsions:
REMARK  status: ('A' for Active; 'I' for Inactive)
REMARK    1  A    between atoms: N3_7  and  N4_8 
REMARK    2  A    between atoms: C3_12  and  C4_13 
REMARK    3  A    between atoms: C4_13  and  O1_14 
REMARK    4  A    between atoms: C4_13  and  C5_16 
REMARK       I    between atoms: C5_16  and  N5_18 
REMARK       I    between atoms: N5_18  and  C6_20 
REMARK    5  A    between atoms: C6_20  and  C7_22 
REMARK    6  A    between atoms: C7_22  and  S1_23 
REMARK    7  A    between atoms: S1_23  and  C8_24 
REMARK    8  A    between atoms: N11_36  and  N12_37 
ROOT
HETATM    1  N1  UNL     1       2.791  13.585  41.701  1.00  0.00    -0.230 N 
ATOM      2  H11 UNL     1       2.277  14.465  41.699  1.00  0.00     0.174 HD
ATOM      3  H12 UNL     1       3.107  13.254  40.789  1.00  0.00     0.174 HD
HETATM    4  C1  UNL     1       3.026  12.932  42.783  1.00  0.00     0.730 A 
HETATM    5  N2  UNL     1       3.742  11.705  42.786  1.00  0.00    -0.107 N 
ATOM      6  H2  UNL     1       4.081  11.328  41.901  1.00  0.00     0.208 HD
HETATM    7  N3  UNL     1       3.997  10.995  43.969  1.00  0.00    -0.168 N 
HETATM    8  C2  UNL     1       3.608  11.386  45.127  1.00  0.00     0.197 A 
HETATM    9  C3  UNL     1       3.709  10.897  46.488  1.00  0.00     0.048 A 
HETATM   10  C10 UNL     1       3.091  11.788  47.276  1.00  0.00     0.123 A 
HETATM   11  N9  UNL     1       2.570  12.854  46.528  1.00  0.00    -0.286 N 
ATOM     12  H9  UNL     1       2.058  13.655  46.899  1.00  0.00     0.188 HD
HETATM   13  N10 UNL     1       2.876  12.626  45.195  1.00  0.00    -0.140 N 
HETATM   14  N11 UNL     1       2.583  13.394  44.062  1.00  0.00    -0.002 N 
ENDROOT
BRANCH   9  15
HETATM   15  C4  UNL     1       4.275   9.654  46.980  1.00  0.00     0.248 C 
BRANCH  15  16
HETATM   16  O1  UNL     1       5.628   9.785  47.386  1.00  0.00    -0.381 OA
ATOM     17  H1  UNL     1       6.057  10.542  47.005  1.00  0.00     0.211 HD
ENDBRANCH  15  16
BRANCH  15  18
HETATM   18  C5  UNL     1       3.556   8.952  48.045  1.00  0.00     0.257 C 
HETATM   19  O2  UNL     1       3.357   7.733  48.029  1.00  0.00    -0.270 OA
HETATM   20  N5  UNL     1       3.041   9.656  49.177  1.00  0.00    -0.294 N 
HETATM   21  C6  UNL     1       2.338   9.039  50.235  1.00  0.00     0.233 C 
ATOM     22  H5  UNL     1       3.190  10.664  49.223  1.00  0.00     0.171 HD
HETATM   23  O3  UNL     1       1.937   9.788  51.186  1.00  0.00    -0.272 OA
BRANCH  21  24
HETATM   24  C7  UNL     1       2.045   7.588  50.299  1.00  0.00     0.184 C 
BRANCH  24  25
HETATM   25  S1  UNL     1       3.221   6.779  51.442  1.00  0.00    -0.099 SA
BRANCH  25  26
HETATM   26  C8  UNL     1       4.915   7.323  51.059  1.00  0.00     0.119 A 
HETATM   27  N6  UNL     1       5.421   8.402  51.657  1.00  0.00    -0.304 N 
HETATM   28  S2  UNL     1       6.968   8.535  51.024  1.00  0.00     0.069 SA
ATOM     29  H6  UNL     1       4.971   9.008  52.342  1.00  0.00     0.176 HD
HETATM   30  N7  UNL     1       6.939   7.207  50.005  1.00  0.00    -0.298 N 
HETATM   31  C9  UNL     1       5.728   6.686  50.176  1.00  0.00     0.157 A 
ATOM     32  H7  UNL     1       7.682   6.873  49.390  1.00  0.00     0.177 HD
HETATM   33  N8  UNL     1       5.310   5.495  49.449  1.00  0.00    -0.079 NA
ENDBRANCH  25  26
ENDBRANCH  24  25
ENDBRANCH  21  24
ENDBRANCH  15  18
ENDBRANCH   9  15
BRANCH   7  34
HETATM   34  N4  UNL     1       4.749   9.844  43.845  1.00  0.00    -0.322 N 
ATOM     35  H42 UNL     1       4.346   8.942  44.100  1.00  0.00     0.179 HD
ATOM     36  H41 UNL     1       5.710   9.961  43.527  1.00  0.00     0.179 HD
ENDBRANCH   7  34
BRANCH  14  37
HETATM   37  N12 UNL     1       1.881  14.572  44.194  1.00  0.00    -0.307 N 
ATOM     38 2H12 UNL     1       1.338  14.747  45.039  1.00  0.00     0.179 HD
ATOM     39 1H12 UNL     1       1.890  15.281  43.461  1.00  0.00     0.179 HD
ENDBRANCH  14  37
TORSDOF 8
ENDMDL
MODEL 3
REMARK VINA RESULT: -9.428610753      1.691      2.184
REMARK  8 active torsions:
REMARK  status: ('A' for Active; 'I' for Inactive)
REMARK    1  A    between atoms: N3_7  and  N4_8 
REMARK    2  A    between atoms: C3_12  and  C4_13 
REMARK    3  A    between atoms: C4_13  and  O1_14 
REMARK    4  A    between atoms: C4_13  and  C5_16 
REMARK       I    between atoms: C5_16  and  N5_18 
REMARK       I    between atoms: N5_18  and  C6_20 
REMARK    5  A    between atoms: C6_20  and  C7_22 
REMARK    6  A    between atoms: C7_22  and  S1_23 
REMARK    7  A    between atoms: S1_23  and  C8_24 
REMARK    8  A    between atoms: N11_36  and  N12_37 
ROOT
HETATM    1  N1  UNL     1       2.679  13.598  41.960  1.00  0.00    -0.230 N 
ATOM      2  H11 UNL     1       2.114  14.446  42.006  1.00  0.00     0.174 HD
ATOM      3  H12 UNL     1       2.980  13.316  41.027  1.00  0.00     0.174 HD
HETATM    4  C1  UNL     1       2.992  12.928  43.011  1.00  0.00     0.730 A 
HETATM    5  N2  UNL     1       3.779  11.747  42.949  1.00  0.00    -0.107 N 
ATOM      6  H2  UNL     1       4.107  11.419  42.040  1.00  0.00     0.208 HD
HETATM    7  N3  UNL     1       4.119  11.018  44.098  1.00  0.00    -0.168 N 
HETATM    8  C2  UNL     1       3.750  11.349  45.281  1.00  0.00     0.197 A 
HETATM    9  C3  UNL     1       3.930  10.825  46.621  1.00  0.00     0.048 A 
HETATM   10  C10 UNL     1       3.290  11.652  47.459  1.00  0.00     0.123 A 
HETATM   11  N9  UNL     1       2.680  12.707  46.765  1.00  0.00    -0.286 N 
ATOM     12  H9  UNL     1       2.134  13.464  47.180  1.00  0.00     0.188 HD
HETATM   13  N10 UNL     1       2.949  12.540  45.416  1.00  0.00    -0.140 N 
HETATM   14  N11 UNL     1       2.570  13.323  44.319  1.00  0.00    -0.002 N 
ENDROOT
BRANCH   9  15
HETATM   15  C4  UNL     1       4.587   9.604  47.052  1.00  0.00     0.248 C 
BRANCH  15  16
HETATM   16  O1  UNL     1       5.941   9.805  47.421  1.00  0.00    -0.381 OA
ATOM     17  H1  UNL     1       6.082   9.747  48.359  1.00  0.00     0.211 HD
ENDBRANCH  15  16
BRANCH  15  18
HETATM   18  C5  UNL     1       3.947   8.824  48.113  1.00  0.00     0.257 C 
HETATM   19  O2  UNL     1       2.864   9.140  48.618  1.00  0.00    -0.270 OA
HETATM   20  N5  UNL     1       4.553   7.635  48.624  1.00  0.00    -0.294 N 
HETATM   21  C6  UNL     1       3.990   6.840  49.646  1.00  0.00     0.233 C 
ATOM     22  H5  UNL     1       5.446   7.344  48.228  1.00  0.00     0.171 HD
HETATM   23  O3  UNL     1       4.637   5.802  50.004  1.00  0.00    -0.272 OA
BRANCH  21  24
HETATM   24  C7  UNL     1       2.702   7.142  50.315  1.00  0.00     0.184 C 
BRANCH  24  25
HETATM   25  S1  UNL     1       3.020   7.687  52.031  1.00  0.00    -0.099 SA
BRANCH  25  26
HETATM   26  C8  UNL     1       4.622   8.544  52.111  1.00  0.00     0.119 A 
HETATM   27  N6  UNL     1       5.736   7.857  52.368  1.00  0.00    -0.304 N 
HETATM   28  S2  UNL     1       6.948   9.015  52.349  1.00  0.00     0.069 SA
ATOM     29  H6  UNL     1       5.829   6.856  52.538  1.00  0.00     0.176 HD
HETATM   30  N7  UNL     1       6.008  10.359  52.013  1.00  0.00    -0.298 N 
HETATM   31  C9  UNL     1       4.770   9.881  51.922  1.00  0.00     0.157 A 
ATOM     32  H7  UNL     1       6.315  11.326  51.903  1.00  0.00     0.177 HD
HETATM   33  N8  UNL     1       3.644  10.759  51.634  1.00  0.00    -0.079 NA
ENDBRANCH  25  26
ENDBRANCH  24  25
ENDBRANCH  21  24
ENDBRANCH  15  18
ENDBRANCH   9  15
BRANCH   7  34
HETATM   34  N4  UNL     1       4.933   9.918  43.911  1.00  0.00    -0.322 N 
ATOM     35  H42 UNL     1       5.193   9.631  42.967  1.00  0.00     0.179 HD
ATOM     36  H41 UNL     1       5.213   9.413  44.750  1.00  0.00     0.179 HD
ENDBRANCH   7  34
BRANCH  14  37
HETATM   37  N12 UNL     1       1.804  14.452  44.515  1.00  0.00    -0.307 N 
ATOM     38 2H12 UNL     1       1.056  14.677  43.859  1.00  0.00     0.179 HD
ATOM     39 1H12 UNL     1       1.968  15.074  45.306  1.00  0.00     0.179 HD
ENDBRANCH  14  37
TORSDOF 8
ENDMDL
MODEL 4
REMARK VINA RESULT: -9.377087959      1.258      1.444
REMARK  8 active torsions:
REMARK  status: ('A' for Active; 'I' for Inactive)
REMARK    1  A    between atoms: N3_7  and  N4_8 
REMARK    2  A    between atoms: C3_12  and  C4_13 
REMARK    3  A    between atoms: C4_13  and  O1_14 
REMARK    4  A    between atoms: C4_13  and  C5_16 
REMARK       I    between atoms: C5_16  and  N5_18 
REMARK       I    between atoms: N5_18  and  C6_20 
REMARK    5  A    between atoms: C6_20  and  C7_22 
REMARK    6  A    between atoms: C7_22  and  S1_23 
REMARK    7  A    between atoms: S1_23  and  C8_24 
REMARK    8  A    between atoms: N11_36  and  N12_37 
ROOT
HETATM    1  N1  UNL     1       2.853  13.214  41.851  1.00  0.00    -0.230 N 
ATOM      2  H11 UNL     1       2.350  14.098  41.776  1.00  0.00     0.174 HD
ATOM      3  H12 UNL     1       3.180  12.814  40.972  1.00  0.00     0.174 HD
HETATM    4  C1  UNL     1       3.061  12.641  42.983  1.00  0.00     0.730 A 
HETATM    5  N2  UNL     1       3.762  11.410  43.090  1.00  0.00    -0.107 N 
ATOM      6  H2  UNL     1       4.111  10.965  42.241  1.00  0.00     0.208 HD
HETATM    7  N3  UNL     1       3.987  10.787  44.326  1.00  0.00    -0.168 N 
HETATM    8  C2  UNL     1       3.583  11.267  45.445  1.00  0.00     0.197 A 
HETATM    9  C3  UNL     1       3.655  10.879  46.840  1.00  0.00     0.048 A 
HETATM   10  C10 UNL     1       3.034  11.833  47.549  1.00  0.00     0.123 A 
HETATM   11  N9  UNL     1       2.540  12.847  46.714  1.00  0.00    -0.286 N 
ATOM     12  H9  UNL     1       2.031  13.678  47.016  1.00  0.00     0.188 HD
HETATM   13  N10 UNL     1       2.866  12.517  45.408  1.00  0.00    -0.140 N 
HETATM   14  N11 UNL     1       2.602  13.202  44.216  1.00  0.00    -0.002 N 
ENDROOT
BRANCH   9  15
HETATM   15  C4  UNL     1       4.197   9.670  47.433  1.00  0.00     0.248 C 
BRANCH  15  16
HETATM   16  O1  UNL     1       5.591   9.526  47.218  1.00  0.00    -0.381 OA
ATOM     17  H1  UNL     1       5.949   8.743  47.621  1.00  0.00     0.211 HD
ENDBRANCH  15  16
BRANCH  15  18
HETATM   18  C5  UNL     1       3.937   9.433  48.854  1.00  0.00     0.257 C 
HETATM   19  O2  UNL     1       4.791   9.607  49.731  1.00  0.00    -0.270 OA
HETATM   20  N5  UNL     1       2.660   8.980  49.307  1.00  0.00    -0.294 N 
HETATM   21  C6  UNL     1       2.346   8.731  50.660  1.00  0.00     0.233 C 
ATOM     22  H5  UNL     1       1.931   8.828  48.609  1.00  0.00     0.171 HD
HETATM   23  O3  UNL     1       1.163   8.335  50.924  1.00  0.00    -0.272 OA
BRANCH  21  24
HETATM   24  C7  UNL     1       3.304   8.905  51.778  1.00  0.00     0.184 C 
BRANCH  24  25
HETATM   25  S1  UNL     1       3.891   7.266  52.337  1.00  0.00    -0.099 SA
BRANCH  25  26
HETATM   26  C8  UNL     1       5.656   7.365  52.767  1.00  0.00     0.119 A 
HETATM   27  N6  UNL     1       6.025   7.663  54.013  1.00  0.00    -0.304 N 
HETATM   28  S2  UNL     1       7.700   7.648  53.962  1.00  0.00     0.069 SA
ATOM     29  H6  UNL     1       5.424   7.855  54.815  1.00  0.00     0.176 HD
HETATM   30  N7  UNL     1       7.900   7.262  52.345  1.00  0.00    -0.298 N 
HETATM   31  C9  UNL     1       6.660   7.151  51.877  1.00  0.00     0.157 A 
ATOM     32  H7  UNL     1       8.775   7.139  51.835  1.00  0.00     0.177 HD
HETATM   33  N8  UNL     1       6.409   6.819  50.481  1.00  0.00    -0.079 NA
ENDBRANCH  25  26
ENDBRANCH  24  25
ENDBRANCH  21  24
ENDBRANCH  15  18
ENDBRANCH   9  15
BRANCH   7  34
HETATM   34  N4  UNL     1       4.727   9.621  44.302  1.00  0.00    -0.322 N 
ATOM     35  H42 UNL     1       5.497   9.492  44.957  1.00  0.00     0.179 HD
ATOM     36  H41 UNL     1       4.477   8.941  43.585  1.00  0.00     0.179 HD
ENDBRANCH   7  34
BRANCH  14  37
HETATM   37  N12 UNL     1       1.912  14.394  44.248  1.00  0.00    -0.307 N 
ATOM     38 2H12 UNL     1       1.617  14.834  43.376  1.00  0.00     0.179 HD
ATOM     39 1H12 UNL     1       1.686  14.853  45.130  1.00  0.00     0.179 HD
ENDBRANCH  14  37
TORSDOF 8
ENDMDL
MODEL 5
REMARK VINA RESULT: -9.298978514      1.374      1.890
REMARK  8 active torsions:
REMARK  status: ('A' for Active; 'I' for Inactive)
REMARK    1  A    between atoms: N3_7  and  N4_8 
REMARK    2  A    between atoms: C3_12  and  C4_13 
REMARK    3  A    between atoms: C4_13  and  O1_14 
REMARK    4  A    between atoms: C4_13  and  C5_16 
REMARK       I    between atoms: C5_16  and  N5_18 
REMARK       I    between atoms: N5_18  and  C6_20 
REMARK    5  A    between atoms: C6_20  and  C7_22 
REMARK    6  A    between atoms: C7_22  and  S1_23 
REMARK    7  A    between atoms: S1_23  and  C8_24 
REMARK    8  A    between atoms: N11_36  and  N12_37 
ROOT
HETATM    1  N1  UNL     1       2.915  13.107  41.547  1.00  0.00    -0.230 N 
ATOM      2  H11 UNL     1       2.416  13.986  41.409  1.00  0.00     0.174 HD
ATOM      3  H12 UNL     1       3.241  12.645  40.699  1.00  0.00     0.174 HD
HETATM    4  C1  UNL     1       3.120  12.613  42.717  1.00  0.00     0.730 A 
HETATM    5  N2  UNL     1       3.815  11.389  42.910  1.00  0.00    -0.107 N 
ATOM      6  H2  UNL     1       4.163  10.885  42.095  1.00  0.00     0.208 HD
HETATM    7  N3  UNL     1       4.036  10.854  44.187  1.00  0.00    -0.168 N 
HETATM    8  C2  UNL     1       3.632  11.413  45.269  1.00  0.00     0.197 A 
HETATM    9  C3  UNL     1       3.701  11.123  46.688  1.00  0.00     0.048 A 
HETATM   10  C10 UNL     1       3.084  12.127  47.328  1.00  0.00     0.123 A 
HETATM   11  N9  UNL     1       2.595  13.081  46.424  1.00  0.00    -0.286 N 
ATOM     12  H9  UNL     1       2.089  13.934  46.666  1.00  0.00     0.188 HD
HETATM   13  N10 UNL     1       2.920  12.660  45.144  1.00  0.00    -0.140 N 
HETATM   14  N11 UNL     1       2.661  13.261  43.906  1.00  0.00    -0.002 N 
ENDROOT
BRANCH   9  15
HETATM   15  C4  UNL     1       4.237   9.956  47.365  1.00  0.00     0.248 C 
BRANCH  15  16
HETATM   16  O1  UNL     1       5.629   9.785  47.155  1.00  0.00    -0.381 OA
ATOM     17  H1  UNL     1       6.156  10.127  47.868  1.00  0.00     0.211 HD
ENDBRANCH  15  16
BRANCH  15  18
HETATM   18  C5  UNL     1       3.983   9.824  48.801  1.00  0.00     0.257 C 
HETATM   19  O2  UNL     1       2.894   9.465  49.260  1.00  0.00    -0.270 OA
HETATM   20  N5  UNL     1       5.003  10.110  49.761  1.00  0.00    -0.294 N 
HETATM   21  C6  UNL     1       4.822  10.005  51.157  1.00  0.00     0.233 C 
ATOM     22  H5  UNL     1       5.915  10.407  49.416  1.00  0.00     0.171 HD
HETATM   23  O3  UNL     1       5.820  10.286  51.899  1.00  0.00    -0.272 OA
BRANCH  21  24
HETATM   24  C7  UNL     1       3.552   9.589  51.798  1.00  0.00     0.184 C 
BRANCH  24  25
HETATM   25  S1  UNL     1       3.618   7.802  52.179  1.00  0.00    -0.099 SA
BRANCH  25  26
HETATM   26  C8  UNL     1       4.096   6.878  50.686  1.00  0.00     0.119 A 
HETATM   27  N6  UNL     1       3.179   6.574  49.766  1.00  0.00    -0.304 N 
HETATM   28  S2  UNL     1       4.035   5.742  48.590  1.00  0.00     0.069 SA
ATOM     29  H6  UNL     1       2.184   6.797  49.777  1.00  0.00     0.176 HD
HETATM   30  N7  UNL     1       5.553   5.797  49.296  1.00  0.00    -0.298 N 
HETATM   31  C9  UNL     1       5.364   6.462  50.432  1.00  0.00     0.157 A 
ATOM     32  H7  UNL     1       6.425   5.408  48.936  1.00  0.00     0.177 HD
HETATM   33  N8  UNL     1       6.468   6.721  51.346  1.00  0.00    -0.079 NA
ENDBRANCH  25  26
ENDBRANCH  24  25
ENDBRANCH  21  24
ENDBRANCH  15  18
ENDBRANCH   9  15
BRANCH   7  34
HETATM   34  N4  UNL     1       4.770   9.686  44.246  1.00  0.00    -0.322 N 
ATOM     35  H42 UNL     1       5.776   9.707  44.080  1.00  0.00     0.179 HD
ATOM     36  H41 UNL     1       4.247   8.829  44.424  1.00  0.00     0.179 HD
ENDBRANCH   7  34
BRANCH  14  37
HETATM   37  N12 UNL     1       1.976  14.455  43.854  1.00  0.00    -0.307 N 
ATOM     38 2H12 UNL     1       1.491  14.725  42.999  1.00  0.00     0.179 HD
ATOM     39 1H12 UNL     1       1.942  15.083  44.657  1.00  0.00     0.179 HD
ENDBRANCH  14  37
TORSDOF 8
ENDMDL
