MODEL 1
REMARK VINA RESULT: -7.370790357      0.000      0.000
REMARK  5 active torsions:
REMARK  status: ('A' for Active; 'I' for Inactive)
REMARK    1  A    between atoms: N1_1  and  C1_4 
REMARK    2  A    between atoms: N4_11  and  C3_12 
REMARK    3  A    between atoms: C3_12  and  C4_13 
REMARK       I    between atoms: C4_13  and  N5_15 
REMARK    4  A    between atoms: N5_15  and  C5_17 
REMARK    5  A    between atoms: C5_17  and  C6_18 
ROOT
HETATM    1  C4  UNL     1      60.814  44.682  38.314  1.00  0.00     0.239 C 
HETATM    2  O2  UNL     1      61.441  45.002  39.353  1.00  0.00    -0.272 OA
HETATM    3  N5  UNL     1      60.472  45.637  37.335  1.00  0.00    -0.309 N 
ATOM      4  H5  UNL     1      59.961  45.293  36.522  1.00  0.00     0.167 HD
ENDROOT
BRANCH   1   5
HETATM    5  C3  UNL     1      60.440  43.256  38.154  1.00  0.00     0.240 C 
BRANCH   5   6
HETATM    6  N4  UNL     1      61.455  42.479  37.520  1.00  0.00    -0.253 N 
HETATM    7  C2  UNL     1      61.725  42.472  36.195  1.00  0.00     0.344 A 
HETATM    8  N3  UNL     1      62.686  41.699  35.665  1.00  0.00    -0.249 N 
HETATM    9  O1  UNL     1      61.057  43.204  35.452  1.00  0.00    -0.245 OA
HETATM   10  N2  UNL     1      63.403  40.916  36.450  1.00  0.00    -0.277 N 
ATOM     11  H3  UNL     1      62.863  41.717  34.660  1.00  0.00     0.192 HD
HETATM   12  C1  UNL     1      63.204  40.861  37.771  1.00  0.00     0.183 A 
ATOM     13  H2  UNL     1      64.131  40.333  36.036  1.00  0.00     0.189 HD
HETATM   14  C8  UNL     1      62.216  41.656  38.303  1.00  0.00     0.297 A 
HETATM   15  O6  UNL     1      62.016  41.616  39.544  1.00  0.00    -0.264 OA
BRANCH  12  16
HETATM   16  N1  UNL     1      63.917  40.082  38.506  1.00  0.00    -0.380 N 
ATOM     17  H12 UNL     1      64.917  40.235  38.640  1.00  0.00     0.158 HD
ATOM     18  H11 UNL     1      63.491  39.286  38.980  1.00  0.00     0.158 HD
ENDBRANCH  12  16
ENDBRANCH   5   6
ENDBRANCH   1   5
BRANCH   3  19
HETATM   19  C5  UNL     1      60.762  47.032  37.357  1.00  0.00     0.295 C 
HETATM   20  N6  UNL     1      59.718  47.869  36.782  1.00  0.00    -0.071 NA
HETATM   21  N7  UNL     1      60.079  49.128  37.320  1.00  0.00    -0.251 N 
HETATM   22  C7  UNL     1      60.679  48.916  38.609  1.00  0.00     0.335 C 
ATOM     23  H7  UNL     1      59.938  50.032  36.870  1.00  0.00     0.187 HD
HETATM   24  O5  UNL     1      60.960  49.799  39.441  1.00  0.00    -0.246 OA
HETATM   25  N8  UNL     1      60.879  47.493  38.733  1.00  0.00    -0.291 N 
ATOM     26  H8  UNL     1      61.058  46.946  39.575  1.00  0.00     0.168 HD
BRANCH  19  27
HETATM   27  C6  UNL     1      62.007  47.302  36.610  1.00  0.00     0.245 C 
HETATM   28  O3  UNL     1      61.959  48.007  35.579  1.00  0.00    -0.644 OA
HETATM   29  O4  UNL     1      63.195  46.766  37.068  1.00  0.00    -0.644 OA
ENDBRANCH  19  27
ENDBRANCH   3  19
TORSDOF 5
ENDMDL
MODEL 2
REMARK VINA RESULT: -7.228942144      2.290      3.475
REMARK  5 active torsions:
REMARK  status: ('A' for Active; 'I' for Inactive)
REMARK    1  A    between atoms: N1_1  and  C1_4 
REMARK    2  A    between atoms: N4_11  and  C3_12 
REMARK    3  A    between atoms: C3_12  and  C4_13 
REMARK       I    between atoms: C4_13  and  N5_15 
REMARK    4  A    between atoms: N5_15  and  C5_17 
REMARK    5  A    between atoms: C5_17  and  C6_18 
ROOT
HETATM    1  C4  UNL     1      61.133  46.256  37.340  1.00  0.00     0.239 C 
HETATM    2  O2  UNL     1      61.295  45.950  38.546  1.00  0.00    -0.272 OA
HETATM    3  N5  UNL     1      59.969  46.918  36.897  1.00  0.00    -0.309 N 
ATOM      4  H5  UNL     1      59.918  47.129  35.900  1.00  0.00     0.167 HD
ENDROOT
BRANCH   1   5
HETATM    5  C3  UNL     1      62.215  45.893  36.392  1.00  0.00     0.240 C 
BRANCH   5   6
HETATM    6  N4  UNL     1      62.383  44.484  36.247  1.00  0.00    -0.253 N 
HETATM    7  C2  UNL     1      63.408  43.760  36.752  1.00  0.00     0.344 A 
HETATM    8  N3  UNL     1      63.511  42.435  36.560  1.00  0.00    -0.249 N 
HETATM    9  O1  UNL     1      64.277  44.346  37.411  1.00  0.00    -0.245 OA
HETATM   10  N2  UNL     1      62.588  41.803  35.858  1.00  0.00    -0.277 N 
ATOM     11  H3  UNL     1      64.298  41.920  36.953  1.00  0.00     0.192 HD
HETATM   12  C1  UNL     1      61.541  42.441  35.324  1.00  0.00     0.183 A 
ATOM     13  H2  UNL     1      62.676  40.797  35.719  1.00  0.00     0.189 HD
HETATM   14  C8  UNL     1      61.446  43.797  35.527  1.00  0.00     0.297 A 
HETATM   15  O6  UNL     1      60.468  44.412  35.031  1.00  0.00    -0.264 OA
BRANCH  12  16
HETATM   16  N1  UNL     1      60.663  41.793  34.641  1.00  0.00    -0.380 N 
ATOM     17  H12 UNL     1      60.908  40.968  34.094  1.00  0.00     0.158 HD
ATOM     18  H11 UNL     1      59.689  42.095  34.636  1.00  0.00     0.158 HD
ENDBRANCH  12  16
ENDBRANCH   5   6
ENDBRANCH   1   5
BRANCH   3  19
HETATM   19  C5  UNL     1      58.857  47.323  37.689  1.00  0.00     0.295 C 
HETATM   20  N6  UNL     1      57.604  47.427  36.952  1.00  0.00    -0.071 NA
HETATM   21  N7  UNL     1      56.680  47.412  38.025  1.00  0.00    -0.251 N 
HETATM   22  C7  UNL     1      57.225  46.607  39.084  1.00  0.00     0.335 C 
ATOM     23  H7  UNL     1      55.780  47.892  38.043  1.00  0.00     0.187 HD
HETATM   24  O5  UNL     1      56.619  46.233  40.106  1.00  0.00    -0.246 OA
HETATM   25  N8  UNL     1      58.591  46.328  38.717  1.00  0.00    -0.291 N 
ATOM     26  H8  UNL     1      59.216  45.612  39.087  1.00  0.00     0.168 HD
BRANCH  19  27
HETATM   27  C6  UNL     1      59.123  48.643  38.297  1.00  0.00     0.245 C 
HETATM   28  O3  UNL     1      58.727  49.674  37.712  1.00  0.00    -0.644 OA
HETATM   29  O4  UNL     1      59.804  48.704  39.497  1.00  0.00    -0.644 OA
ENDBRANCH  19  27
ENDBRANCH   3  19
TORSDOF 5
ENDMDL
MODEL 3
REMARK VINA RESULT: -7.202016655      3.403      5.882
REMARK  5 active torsions:
REMARK  status: ('A' for Active; 'I' for Inactive)
REMARK    1  A    between atoms: N1_1  and  C1_4 
REMARK    2  A    between atoms: N4_11  and  C3_12 
REMARK    3  A    between atoms: C3_12  and  C4_13 
REMARK       I    between atoms: C4_13  and  N5_15 
REMARK    4  A    between atoms: N5_15  and  C5_17 
REMARK    5  A    between atoms: C5_17  and  C6_18 
ROOT
HETATM    1  C4  UNL     1      63.692  40.073  38.038  1.00  0.00     0.239 C 
HETATM    2  O2  UNL     1      64.693  40.658  38.519  1.00  0.00    -0.272 OA
HETATM    3  N5  UNL     1      62.648  40.789  37.417  1.00  0.00    -0.309 N 
ATOM      4  H5  UNL     1      61.871  40.236  37.054  1.00  0.00     0.167 HD
ENDROOT
BRANCH   1   5
HETATM    5  C3  UNL     1      63.646  38.595  38.149  1.00  0.00     0.240 C 
BRANCH   5   6
HETATM    6  N4  UNL     1      64.622  38.070  39.048  1.00  0.00    -0.253 N 
HETATM    7  C2  UNL     1      64.474  37.954  40.388  1.00  0.00     0.344 A 
HETATM    8  N3  UNL     1      65.445  37.466  41.175  1.00  0.00    -0.249 N 
HETATM    9  O1  UNL     1      63.404  38.314  40.896  1.00  0.00    -0.245 OA
HETATM   10  N2  UNL     1      66.589  37.081  40.640  1.00  0.00    -0.277 N 
ATOM     11  H3  UNL     1      65.300  37.393  42.182  1.00  0.00     0.192 HD
HETATM   12  C1  UNL     1      66.820  37.160  39.326  1.00  0.00     0.183 A 
ATOM     13  H2  UNL     1      67.319  36.711  41.248  1.00  0.00     0.189 HD
HETATM   14  C8  UNL     1      65.818  37.662  38.528  1.00  0.00     0.297 A 
HETATM   15  O6  UNL     1      66.020  37.743  37.290  1.00  0.00    -0.264 OA
BRANCH  12  16
HETATM   16  N1  UNL     1      67.949  36.780  38.838  1.00  0.00    -0.380 N 
ATOM     17  H12 UNL     1      68.712  37.437  38.673  1.00  0.00     0.158 HD
ATOM     18  H11 UNL     1      68.108  35.800  38.606  1.00  0.00     0.158 HD
ENDBRANCH  12  16
ENDBRANCH   5   6
ENDBRANCH   1   5
BRANCH   3  19
HETATM   19  C5  UNL     1      62.558  42.200  37.242  1.00  0.00     0.295 C 
HETATM   20  N6  UNL     1      62.367  42.945  38.480  1.00  0.00    -0.071 NA
HETATM   21  N7  UNL     1      62.739  44.243  38.052  1.00  0.00    -0.251 N 
HETATM   22  C7  UNL     1      63.747  44.114  37.035  1.00  0.00     0.335 C 
ATOM     23  H7  UNL     1      62.357  45.120  38.405  1.00  0.00     0.187 HD
HETATM   24  O5  UNL     1      64.426  45.042  36.555  1.00  0.00    -0.246 OA
HETATM   25  N8  UNL     1      63.807  42.713  36.700  1.00  0.00    -0.291 N 
ATOM     26  H8  UNL     1      64.541  42.207  36.205  1.00  0.00     0.168 HD
BRANCH  19  27
HETATM   27  C6  UNL     1      61.428  42.528  36.350  1.00  0.00     0.245 C 
HETATM   28  O3  UNL     1      60.455  43.166  36.808  1.00  0.00    -0.644 OA
HETATM   29  O4  UNL     1      61.474  42.121  35.031  1.00  0.00    -0.644 OA
ENDBRANCH  19  27
ENDBRANCH   3  19
TORSDOF 5
ENDMDL
MODEL 4
REMARK VINA RESULT: -7.166177453      2.088      3.425
REMARK  5 active torsions:
REMARK  status: ('A' for Active; 'I' for Inactive)
REMARK    1  A    between atoms: N1_1  and  C1_4 
REMARK    2  A    between atoms: N4_11  and  C3_12 
REMARK    3  A    between atoms: C3_12  and  C4_13 
REMARK       I    between atoms: C4_13  and  N5_15 
REMARK    4  A    between atoms: N5_15  and  C5_17 
REMARK    5  A    between atoms: C5_17  and  C6_18 
ROOT
HETATM    1  C4  UNL     1      61.155  42.554  38.503  1.00  0.00     0.239 C 
HETATM    2  O2  UNL     1      61.545  43.410  39.333  1.00  0.00    -0.272 OA
HETATM    3  N5  UNL     1      60.962  42.880  37.144  1.00  0.00    -0.309 N 
ATOM      4  H5  UNL     1      60.643  42.125  36.536  1.00  0.00     0.167 HD
ENDROOT
BRANCH   1   5
HETATM    5  C3  UNL     1      60.901  41.182  39.004  1.00  0.00     0.240 C 
BRANCH   5   6
HETATM    6  N4  UNL     1      62.098  40.458  39.287  1.00  0.00    -0.253 N 
HETATM    7  C2  UNL     1      63.179  40.382  38.478  1.00  0.00     0.344 A 
HETATM    8  N3  UNL     1      64.266  39.666  38.803  1.00  0.00    -0.249 N 
HETATM    9  O1  UNL     1      63.156  40.996  37.402  1.00  0.00    -0.245 OA
HETATM   10  N2  UNL     1      64.298  39.008  39.948  1.00  0.00    -0.277 N 
ATOM     11  H3  UNL     1      65.064  39.629  38.169  1.00  0.00     0.192 HD
HETATM   12  C1  UNL     1      63.274  39.029  40.807  1.00  0.00     0.183 A 
ATOM     13  H2  UNL     1      65.130  38.468  40.184  1.00  0.00     0.189 HD
HETATM   14  C8  UNL     1      62.165  39.766  40.463  1.00  0.00     0.297 A 
HETATM   15  O6  UNL     1      61.193  39.796  41.261  1.00  0.00    -0.264 OA
BRANCH  12  16
HETATM   16  N1  UNL     1      63.337  38.372  41.912  1.00  0.00    -0.380 N 
ATOM     17  H12 UNL     1      63.940  37.557  42.020  1.00  0.00     0.158 HD
ATOM     18  H11 UNL     1      62.779  38.660  42.716  1.00  0.00     0.158 HD
ENDBRANCH  12  16
ENDBRANCH   5   6
ENDBRANCH   1   5
BRANCH   3  19
HETATM   19  C5  UNL     1      61.164  44.148  36.527  1.00  0.00     0.295 C 
HETATM   20  N6  UNL     1      60.124  45.126  36.818  1.00  0.00    -0.071 NA
HETATM   21  N7  UNL     1      60.794  46.321  36.456  1.00  0.00    -0.251 N 
HETATM   22  C7  UNL     1      62.197  46.152  36.721  1.00  0.00     0.335 C 
ATOM     23  H7  UNL     1      60.356  47.158  36.072  1.00  0.00     0.187 HD
HETATM   24  O5  UNL     1      63.062  47.048  36.687  1.00  0.00    -0.246 OA
HETATM   25  N8  UNL     1      62.385  44.757  37.032  1.00  0.00    -0.291 N 
ATOM     26  H8  UNL     1      63.178  44.308  37.492  1.00  0.00     0.168 HD
BRANCH  19  27
HETATM   27  C6  UNL     1      61.228  43.992  35.060  1.00  0.00     0.245 C 
HETATM   28  O3  UNL     1      62.303  43.635  34.531  1.00  0.00    -0.644 OA
HETATM   29  O4  UNL     1      60.097  44.248  34.309  1.00  0.00    -0.644 OA
ENDBRANCH  19  27
ENDBRANCH   3  19
TORSDOF 5
ENDMDL
MODEL 5
REMARK VINA RESULT: -7.095703501      2.252      2.853
REMARK  5 active torsions:
REMARK  status: ('A' for Active; 'I' for Inactive)
REMARK    1  A    between atoms: N1_1  and  C1_4 
REMARK    2  A    between atoms: N4_11  and  C3_12 
REMARK    3  A    between atoms: C3_12  and  C4_13 
REMARK       I    between atoms: C4_13  and  N5_15 
REMARK    4  A    between atoms: N5_15  and  C5_17 
REMARK    5  A    between atoms: C5_17  and  C6_18 
ROOT
HETATM    1  C4  UNL     1      60.632  45.996  36.955  1.00  0.00     0.239 C 
HETATM    2  O2  UNL     1      60.068  45.076  37.595  1.00  0.00    -0.272 OA
HETATM    3  N5  UNL     1      60.139  47.317  36.974  1.00  0.00    -0.309 N 
ATOM      4  H5  UNL     1      60.657  48.004  36.425  1.00  0.00     0.167 HD
ENDROOT
BRANCH   1   5
HETATM    5  C3  UNL     1      61.840  45.642  36.172  1.00  0.00     0.240 C 
BRANCH   5   6
HETATM    6  N4  UNL     1      62.008  44.235  36.007  1.00  0.00    -0.253 N 
HETATM    7  C2  UNL     1      61.380  43.473  35.082  1.00  0.00     0.344 A 
HETATM    8  N3  UNL     1      61.574  42.147  34.997  1.00  0.00    -0.249 N 
HETATM    9  O1  UNL     1      60.601  44.023  34.293  1.00  0.00    -0.245 OA
HETATM   10  N2  UNL     1      62.404  41.553  35.835  1.00  0.00    -0.277 N 
ATOM     11  H3  UNL     1      61.084  41.602  34.288  1.00  0.00     0.192 HD
HETATM   12  C1  UNL     1      63.065  42.229  36.778  1.00  0.00     0.183 A 
ATOM     13  H2  UNL     1      62.543  40.545  35.760  1.00  0.00     0.189 HD
HETATM   14  C8  UNL     1      62.859  43.587  36.857  1.00  0.00     0.297 A 
HETATM   15  O6  UNL     1      63.474  44.238  37.740  1.00  0.00    -0.264 OA
BRANCH  12  16
HETATM   16  N1  UNL     1      63.863  41.617  37.582  1.00  0.00    -0.380 N 
ATOM     17  H12 UNL     1      64.429  40.825  37.278  1.00  0.00     0.158 HD
ATOM     18  H11 UNL     1      63.948  41.917  38.553  1.00  0.00     0.158 HD
ENDBRANCH  12  16
ENDBRANCH   5   6
ENDBRANCH   1   5
BRANCH   3  19
HETATM   19  C5  UNL     1      58.996  47.798  37.676  1.00  0.00     0.295 C 
HETATM   20  N6  UNL     1      57.726  47.490  37.032  1.00  0.00    -0.071 NA
HETATM   21  N7  UNL     1      56.838  47.692  38.117  1.00  0.00    -0.251 N 
HETATM   22  C7  UNL     1      57.522  47.348  39.333  1.00  0.00     0.335 C 
ATOM     23  H7  UNL     1      55.877  48.026  38.047  1.00  0.00     0.187 HD
HETATM   24  O5  UNL     1      57.003  47.239  40.461  1.00  0.00    -0.246 OA
HETATM   25  N8  UNL     1      58.906  47.156  38.978  1.00  0.00    -0.291 N 
ATOM     26  H8  UNL     1      59.641  46.686  39.508  1.00  0.00     0.168 HD
BRANCH  19  27
HETATM   27  C6  UNL     1      59.073  49.266  37.823  1.00  0.00     0.245 C 
HETATM   28  O3  UNL     1      58.439  49.992  37.027  1.00  0.00    -0.644 OA
HETATM   29  O4  UNL     1      59.845  49.799  38.836  1.00  0.00    -0.644 OA
ENDBRANCH  19  27
ENDBRANCH   3  19
TORSDOF 5
ENDMDL
