MODEL 1
REMARK VINA RESULT: -7.849203889      0.000      0.000
REMARK  10 active torsions:
REMARK  status: ('A' for Active; 'I' for Inactive)
REMARK    1  A    between atoms: C2_2  and  C3_4 
REMARK       I    between atoms: C3_4  and  N1_6 
REMARK    2  A    between atoms: N1_6  and  C4_7 
REMARK    3  A    between atoms: C5_10  and  N3_11 
REMARK    4  A    between atoms: N3_11  and  N4_13 
REMARK    5  A    between atoms: N4_13  and  O3_15 
REMARK    6  A    between atoms: C6_19  and  N6_20 
REMARK    7  A    between atoms: N6_20  and  N7_22 
REMARK    8  A    between atoms: N7_22  and  C7_24 
REMARK    9  A    between atoms: C7_24  and  O4_25 
REMARK   10  A    between atoms: C7_24  and  C8_27 
ROOT
HETATM    1  C4  UNL     1      61.928  41.536  38.983  1.00  0.00     0.291 A 
HETATM    2  N2  UNL     1      62.107  41.147  37.682  1.00  0.00    -0.146 N 
ATOM      3  H2  UNL     1      62.088  40.153  37.455  1.00  0.00     0.188 HD
HETATM    4  C5  UNL     1      62.306  42.034  36.699  1.00  0.00     0.716 A 
HETATM    5  N5  UNL     1      62.333  43.345  36.962  1.00  0.00    -0.019 N 
ATOM      6  H5  UNL     1      62.483  44.012  36.206  1.00  0.00     0.203 HD
HETATM    7  C6  UNL     1      62.166  43.780  38.203  1.00  0.00     0.714 A 
HETATM    8  N9  UNL     1      61.968  42.889  39.182  1.00  0.00    -0.146 N 
ATOM      9  H9  UNL     1      61.840  43.238  40.132  1.00  0.00     0.188 HD
ENDROOT
BRANCH   7  10
HETATM   10  N6  UNL     1      62.198  45.054  38.428  1.00  0.00    -0.133 N 
ATOM     11  H6  UNL     1      61.701  45.464  39.219  1.00  0.00     0.205 HD
BRANCH  10  12
HETATM   12  N7  UNL     1      62.938  45.844  37.546  1.00  0.00    -0.285 N 
ATOM     13  H7  UNL     1      63.856  45.546  37.214  1.00  0.00     0.184 HD
BRANCH  12  14
HETATM   14  C7  UNL     1      62.358  47.101  37.120  1.00  0.00     0.324 C 
BRANCH  14  15
HETATM   15  O4  UNL     1      63.326  47.879  36.518  1.00  0.00    -0.367 OA
ATOM     16  H4  UNL     1      62.923  48.644  36.126  1.00  0.00     0.212 HD
ENDBRANCH  14  15
BRANCH  14  17
HETATM   17  C8  UNL     1      61.206  46.870  36.222  1.00  0.00     0.281 C 
HETATM   18  N8  UNL     1      60.316  47.920  35.913  1.00  0.00    -0.058 NA
HETATM   19  O5  UNL     1      61.011  45.729  35.724  1.00  0.00    -0.272 OA
ENDBRANCH  14  17
ENDBRANCH  12  14
ENDBRANCH  10  12
ENDBRANCH   7  10
BRANCH   4  20
HETATM   20  N3  UNL     1      62.468  41.620  35.495  1.00  0.00    -0.112 N 
ATOM     21  H3  UNL     1      63.301  41.078  35.265  1.00  0.00     0.207 HD
BRANCH  20  22
HETATM   22  N4  UNL     1      61.534  41.891  34.491  1.00  0.00    -0.196 N 
ATOM     23  H4  UNL     1      60.863  41.184  34.190  1.00  0.00     0.216 HD
BRANCH  22  24
HETATM   24  O3  UNL     1      61.548  43.113  33.936  1.00  0.00    -0.274 OA
ATOM     25  H3  UNL     1      60.726  43.462  33.611  1.00  0.00     0.246 HD
ENDBRANCH  22  24
ENDBRANCH  20  22
ENDBRANCH   4  20
BRANCH   1  26
HETATM   26  N1  UNL     1      61.749  40.798  39.895  1.00  0.00    -0.327 NA
HETATM   27  C3  UNL     1      61.582  40.012  40.920  1.00  0.00     0.364 C 
HETATM   28  O2  UNL     1      60.558  40.113  41.690  1.00  0.00    -0.248 OA
BRANCH  27  29
HETATM   29  C2  UNL     1      62.526  38.967  41.281  1.00  0.00     0.227 C 
HETATM   30  C1  UNL     1      62.592  38.424  42.653  1.00  0.00     0.103 C 
HETATM   31  O1  UNL     1      63.300  38.515  40.406  1.00  0.00    -0.286 OA
ENDBRANCH  27  29
ENDBRANCH   1  26
TORSDOF 10
ENDMDL
MODEL 2
REMARK VINA RESULT: -7.597520710      1.241      1.322
REMARK  10 active torsions:
REMARK  status: ('A' for Active; 'I' for Inactive)
REMARK    1  A    between atoms: C2_2  and  C3_4 
REMARK       I    between atoms: C3_4  and  N1_6 
REMARK    2  A    between atoms: N1_6  and  C4_7 
REMARK    3  A    between atoms: C5_10  and  N3_11 
REMARK    4  A    between atoms: N3_11  and  N4_13 
REMARK    5  A    between atoms: N4_13  and  O3_15 
REMARK    6  A    between atoms: C6_19  and  N6_20 
REMARK    7  A    between atoms: N6_20  and  N7_22 
REMARK    8  A    between atoms: N7_22  and  C7_24 
REMARK    9  A    between atoms: C7_24  and  O4_25 
REMARK   10  A    between atoms: C7_24  and  C8_27 
ROOT
HETATM    1  C4  UNL     1      61.825  42.110  38.354  1.00  0.00     0.291 A 
HETATM    2  N2  UNL     1      61.877  41.877  37.006  1.00  0.00    -0.146 N 
ATOM      3  H2  UNL     1      61.802  40.918  36.666  1.00  0.00     0.188 HD
HETATM    4  C5  UNL     1      62.023  42.870  36.122  1.00  0.00     0.716 A 
HETATM    5  N5  UNL     1      62.120  44.139  36.535  1.00  0.00    -0.019 N 
ATOM      6  H5  UNL     1      62.229  44.889  35.852  1.00  0.00     0.203 HD
HETATM    7  C6  UNL     1      62.076  44.425  37.827  1.00  0.00     0.714 A 
HETATM    8  N9  UNL     1      61.930  43.427  38.708  1.00  0.00    -0.146 N 
ATOM      9  H9  UNL     1      61.897  43.662  39.700  1.00  0.00     0.188 HD
ENDROOT
BRANCH   7  10
HETATM   10  N6  UNL     1      62.173  45.661  38.198  1.00  0.00    -0.133 N 
ATOM     11  H6  UNL     1      61.726  45.994  39.052  1.00  0.00     0.205 HD
BRANCH  10  12
HETATM   12  N7  UNL     1      62.915  46.520  37.384  1.00  0.00    -0.285 N 
ATOM     13  H7  UNL     1      63.794  46.219  36.963  1.00  0.00     0.184 HD
BRANCH  12  14
HETATM   14  C7  UNL     1      62.392  47.851  37.158  1.00  0.00     0.324 C 
BRANCH  14  15
HETATM   15  O4  UNL     1      62.638  48.231  35.855  1.00  0.00    -0.367 OA
ATOM     16  H4  UNL     1      62.147  49.020  35.654  1.00  0.00     0.212 HD
ENDBRANCH  14  15
BRANCH  14  17
HETATM   17  C8  UNL     1      60.949  47.911  37.482  1.00  0.00     0.281 C 
HETATM   18  N8  UNL     1      59.987  47.474  36.549  1.00  0.00    -0.058 NA
HETATM   19  O5  UNL     1      60.571  48.353  38.599  1.00  0.00    -0.272 OA
ENDBRANCH  14  17
ENDBRANCH  12  14
ENDBRANCH  10  12
ENDBRANCH   7  10
BRANCH   4  20
HETATM   20  N3  UNL     1      62.066  42.601  34.867  1.00  0.00    -0.112 N 
ATOM     21  H3  UNL     1      62.677  43.150  34.263  1.00  0.00     0.207 HD
BRANCH  20  22
HETATM   22  N4  UNL     1      61.298  41.576  34.308  1.00  0.00    -0.196 N 
ATOM     23  H4  UNL     1      61.725  40.855  33.726  1.00  0.00     0.216 HD
BRANCH  22  24
HETATM   24  O3  UNL     1      59.980  41.571  34.560  1.00  0.00    -0.274 OA
ATOM     25  H3  UNL     1      59.498  40.771  34.386  1.00  0.00     0.246 HD
ENDBRANCH  22  24
ENDBRANCH  20  22
ENDBRANCH   4  20
BRANCH   1  26
HETATM   26  N1  UNL     1      61.697  41.271  39.186  1.00  0.00    -0.327 NA
HETATM   27  C3  UNL     1      61.586  40.375  40.124  1.00  0.00     0.364 C 
HETATM   28  O2  UNL     1      60.565  40.335  40.903  1.00  0.00    -0.248 OA
BRANCH  27  29
HETATM   29  C2  UNL     1      62.593  39.356  40.370  1.00  0.00     0.227 C 
HETATM   30  C1  UNL     1      62.762  38.744  41.704  1.00  0.00     0.103 C 
HETATM   31  O1  UNL     1      63.332  38.988  39.429  1.00  0.00    -0.286 OA
ENDBRANCH  27  29
ENDBRANCH   1  26
TORSDOF 10
ENDMDL
MODEL 3
REMARK VINA RESULT: -7.564154980      2.705      4.389
REMARK  10 active torsions:
REMARK  status: ('A' for Active; 'I' for Inactive)
REMARK    1  A    between atoms: C2_2  and  C3_4 
REMARK       I    between atoms: C3_4  and  N1_6 
REMARK    2  A    between atoms: N1_6  and  C4_7 
REMARK    3  A    between atoms: C5_10  and  N3_11 
REMARK    4  A    between atoms: N3_11  and  N4_13 
REMARK    5  A    between atoms: N4_13  and  O3_15 
REMARK    6  A    between atoms: C6_19  and  N6_20 
REMARK    7  A    between atoms: N6_20  and  N7_22 
REMARK    8  A    between atoms: N7_22  and  C7_24 
REMARK    9  A    between atoms: C7_24  and  O4_25 
REMARK   10  A    between atoms: C7_24  and  C8_27 
ROOT
HETATM    1  C4  UNL     1      63.872  39.429  39.114  1.00  0.00     0.291 A 
HETATM    2  N2  UNL     1      62.822  39.883  39.865  1.00  0.00    -0.146 N 
ATOM      3  H2  UNL     1      62.693  39.516  40.809  1.00  0.00     0.188 HD
HETATM    4  C5  UNL     1      61.958  40.793  39.399  1.00  0.00     0.716 A 
HETATM    5  N5  UNL     1      62.100  41.296  38.168  1.00  0.00    -0.019 N 
ATOM      6  H5  UNL     1      61.438  41.991  37.823  1.00  0.00     0.203 HD
HETATM    7  C6  UNL     1      63.098  40.895  37.395  1.00  0.00     0.714 A 
HETATM    8  N9  UNL     1      63.959  39.984  37.866  1.00  0.00    -0.146 N 
ATOM      9  H9  UNL     1      64.723  39.685  37.260  1.00  0.00     0.188 HD
ENDROOT
BRANCH   7  10
HETATM   10  N6  UNL     1      63.211  41.398  36.208  1.00  0.00    -0.133 N 
ATOM     11  H6  UNL     1      64.116  41.454  35.740  1.00  0.00     0.205 HD
BRANCH  10  12
HETATM   12  N7  UNL     1      62.046  41.862  35.593  1.00  0.00    -0.285 N 
ATOM     13  H7  UNL     1      61.241  41.250  35.458  1.00  0.00     0.184 HD
BRANCH  12  14
HETATM   14  C7  UNL     1      62.020  43.243  35.155  1.00  0.00     0.324 C 
BRANCH  14  15
HETATM   15  O4  UNL     1      61.622  43.304  33.836  1.00  0.00    -0.367 OA
ATOM     16  H4  UNL     1      61.091  44.080  33.697  1.00  0.00     0.212 HD
ENDBRANCH  14  15
BRANCH  14  17
HETATM   17  C8  UNL     1      61.143  44.054  36.029  1.00  0.00     0.281 C 
HETATM   18  N8  UNL     1      61.258  43.974  37.432  1.00  0.00    -0.058 NA
HETATM   19  O5  UNL     1      60.286  44.825  35.522  1.00  0.00    -0.272 OA
ENDBRANCH  14  17
ENDBRANCH  12  14
ENDBRANCH  10  12
ENDBRANCH   7  10
BRANCH   4  20
HETATM   20  N3  UNL     1      60.989  41.187  40.143  1.00  0.00    -0.112 N 
ATOM     21  H3  UNL     1      60.360  40.493  40.547  1.00  0.00     0.207 HD
BRANCH  20  22
HETATM   22  N4  UNL     1      60.772  42.541  40.414  1.00  0.00    -0.196 N 
ATOM     23  H4  UNL     1      59.844  42.887  40.658  1.00  0.00     0.216 HD
BRANCH  22  24
HETATM   24  O3  UNL     1      61.824  43.371  40.341  1.00  0.00    -0.274 OA
ATOM     25  H3  UNL     1      61.896  44.055  40.997  1.00  0.00     0.246 HD
ENDBRANCH  22  24
ENDBRANCH  20  22
ENDBRANCH   4  20
BRANCH   1  26
HETATM   26  N1  UNL     1      64.668  38.625  39.472  1.00  0.00    -0.327 NA
HETATM   27  C3  UNL     1      65.563  37.775  39.886  1.00  0.00     0.364 C 
HETATM   28  O2  UNL     1      65.341  36.986  40.875  1.00  0.00    -0.248 OA
BRANCH  27  29
HETATM   29  C2  UNL     1      66.877  37.646  39.276  1.00  0.00     0.227 C 
HETATM   30  C1  UNL     1      68.112  37.666  40.086  1.00  0.00     0.103 C 
HETATM   31  O1  UNL     1      66.962  37.513  38.033  1.00  0.00    -0.286 OA
ENDBRANCH  27  29
ENDBRANCH   1  26
TORSDOF 10
ENDMDL
MODEL 4
REMARK VINA RESULT: -7.558707073      2.704      4.269
REMARK  10 active torsions:
REMARK  status: ('A' for Active; 'I' for Inactive)
REMARK    1  A    between atoms: C2_2  and  C3_4 
REMARK       I    between atoms: C3_4  and  N1_6 
REMARK    2  A    between atoms: N1_6  and  C4_7 
REMARK    3  A    between atoms: C5_10  and  N3_11 
REMARK    4  A    between atoms: N3_11  and  N4_13 
REMARK    5  A    between atoms: N4_13  and  O3_15 
REMARK    6  A    between atoms: C6_19  and  N6_20 
REMARK    7  A    between atoms: N6_20  and  N7_22 
REMARK    8  A    between atoms: N7_22  and  C7_24 
REMARK    9  A    between atoms: C7_24  and  O4_25 
REMARK   10  A    between atoms: C7_24  and  C8_27 
ROOT
HETATM    1  C4  UNL     1      63.310  39.079  39.904  1.00  0.00     0.291 A 
HETATM    2  N2  UNL     1      63.910  38.213  39.030  1.00  0.00    -0.146 N 
ATOM      3  H2  UNL     1      64.148  37.274  39.348  1.00  0.00     0.188 HD
HETATM    4  C5  UNL     1      64.194  38.563  37.769  1.00  0.00     0.716 A 
HETATM    5  N5  UNL     1      63.892  39.786  37.319  1.00  0.00    -0.019 N 
ATOM      6  H5  UNL     1      64.111  40.041  36.356  1.00  0.00     0.203 HD
HETATM    7  C6  UNL     1      63.311  40.666  38.119  1.00  0.00     0.714 A 
HETATM    8  N9  UNL     1      63.030  40.312  39.380  1.00  0.00    -0.146 N 
ATOM      9  H9  UNL     1      62.581  41.000  39.984  1.00  0.00     0.188 HD
ENDROOT
BRANCH   7  10
HETATM   10  N6  UNL     1      63.031  41.842  37.657  1.00  0.00    -0.133 N 
ATOM     11  H6  UNL     1      63.078  42.670  38.251  1.00  0.00     0.205 HD
BRANCH  10  12
HETATM   12  N7  UNL     1      62.662  41.934  36.313  1.00  0.00    -0.285 N 
ATOM     13  H7  UNL     1      62.679  41.115  35.704  1.00  0.00     0.184 HD
BRANCH  12  14
HETATM   14  C7  UNL     1      62.256  43.231  35.814  1.00  0.00     0.324 C 
BRANCH  14  15
HETATM   15  O4  UNL     1      63.328  43.851  35.206  1.00  0.00    -0.367 OA
ATOM     16  H4  UNL     1      63.056  44.216  34.372  1.00  0.00     0.212 HD
ENDBRANCH  14  15
BRANCH  14  17
HETATM   17  C8  UNL     1      61.105  43.101  34.892  1.00  0.00     0.281 C 
HETATM   18  N8  UNL     1      60.796  41.858  34.302  1.00  0.00    -0.058 NA
HETATM   19  O5  UNL     1      60.391  44.105  34.628  1.00  0.00    -0.272 OA
ENDBRANCH  14  17
ENDBRANCH  12  14
ENDBRANCH  10  12
ENDBRANCH   7  10
BRANCH   4  20
HETATM   20  N3  UNL     1      64.757  37.714  36.987  1.00  0.00    -0.112 N 
ATOM     21  H3  UNL     1      64.659  37.827  35.979  1.00  0.00     0.207 HD
BRANCH  20  22
HETATM   22  N4  UNL     1      65.501  36.638  37.482  1.00  0.00    -0.196 N 
ATOM     23  H4  UNL     1      65.191  35.677  37.345  1.00  0.00     0.216 HD
BRANCH  22  24
HETATM   24  O3  UNL     1      66.636  36.913  38.144  1.00  0.00    -0.274 OA
ATOM     25  H3  UNL     1      66.924  36.295  38.806  1.00  0.00     0.246 HD
ENDBRANCH  22  24
ENDBRANCH  20  22
ENDBRANCH   4  20
BRANCH   1  26
HETATM   26  N1  UNL     1      63.035  38.828  41.031  1.00  0.00    -0.327 NA
HETATM   27  C3  UNL     1      62.699  38.528  42.252  1.00  0.00     0.364 C 
HETATM   28  O2  UNL     1      63.313  37.617  42.919  1.00  0.00    -0.248 OA
BRANCH  27  29
HETATM   29  C2  UNL     1      61.613  39.186  42.960  1.00  0.00     0.227 C 
HETATM   30  C1  UNL     1      61.336  38.906  44.384  1.00  0.00     0.103 C 
HETATM   31  O1  UNL     1      60.896  40.011  42.348  1.00  0.00    -0.286 OA
ENDBRANCH  27  29
ENDBRANCH   1  26
TORSDOF 10
ENDMDL
MODEL 5
REMARK VINA RESULT: -7.553492718      2.735      4.204
REMARK  10 active torsions:
REMARK  status: ('A' for Active; 'I' for Inactive)
REMARK    1  A    between atoms: C2_2  and  C3_4 
REMARK       I    between atoms: C3_4  and  N1_6 
REMARK    2  A    between atoms: N1_6  and  C4_7 
REMARK    3  A    between atoms: C5_10  and  N3_11 
REMARK    4  A    between atoms: N3_11  and  N4_13 
REMARK    5  A    between atoms: N4_13  and  O3_15 
REMARK    6  A    between atoms: C6_19  and  N6_20 
REMARK    7  A    between atoms: N6_20  and  N7_22 
REMARK    8  A    between atoms: N7_22  and  C7_24 
REMARK    9  A    between atoms: C7_24  and  O4_25 
REMARK   10  A    between atoms: C7_24  and  C8_27 
ROOT
HETATM    1  C4  UNL     1      63.278  39.025  39.882  1.00  0.00     0.291 A 
HETATM    2  N2  UNL     1      63.911  38.187  39.004  1.00  0.00    -0.146 N 
ATOM      3  H2  UNL     1      64.163  37.247  39.310  1.00  0.00     0.188 HD
HETATM    4  C5  UNL     1      64.210  38.565  37.755  1.00  0.00     0.716 A 
HETATM    5  N5  UNL     1      63.891  39.789  37.321  1.00  0.00    -0.019 N 
ATOM      6  H5  UNL     1      64.121  40.067  36.367  1.00  0.00     0.203 HD
HETATM    7  C6  UNL     1      63.277  40.644  38.126  1.00  0.00     0.714 A 
HETATM    8  N9  UNL     1      62.981  40.261  39.375  1.00  0.00    -0.146 N 
ATOM      9  H9  UNL     1      62.508  40.929  39.983  1.00  0.00     0.188 HD
ENDROOT
BRANCH   7  10
HETATM   10  N6  UNL     1      62.981  41.821  37.680  1.00  0.00    -0.133 N 
ATOM     11  H6  UNL     1      62.978  42.636  38.295  1.00  0.00     0.205 HD
BRANCH  10  12
HETATM   12  N7  UNL     1      62.667  41.935  36.324  1.00  0.00    -0.285 N 
ATOM     13  H7  UNL     1      62.721  41.129  35.701  1.00  0.00     0.184 HD
BRANCH  12  14
HETATM   14  C7  UNL     1      62.261  43.236  35.834  1.00  0.00     0.324 C 
BRANCH  14  15
HETATM   15  O4  UNL     1      63.340  43.872  35.256  1.00  0.00    -0.367 OA
ATOM     16  H4  UNL     1      63.040  44.439  34.555  1.00  0.00     0.212 HD
ENDBRANCH  14  15
BRANCH  14  17
HETATM   17  C8  UNL     1      61.129  43.111  34.889  1.00  0.00     0.281 C 
HETATM   18  N8  UNL     1      60.803  41.861  34.322  1.00  0.00    -0.058 NA
HETATM   19  O5  UNL     1      60.447  44.124  34.583  1.00  0.00    -0.272 OA
ENDBRANCH  14  17
ENDBRANCH  12  14
ENDBRANCH  10  12
ENDBRANCH   7  10
BRANCH   4  20
HETATM   20  N3  UNL     1      64.804  37.742  36.969  1.00  0.00    -0.112 N 
ATOM     21  H3  UNL     1      64.746  37.889  35.962  1.00  0.00     0.207 HD
BRANCH  20  22
HETATM   22  N4  UNL     1      65.529  36.651  37.457  1.00  0.00    -0.196 N 
ATOM     23  H4  UNL     1      65.184  35.698  37.346  1.00  0.00     0.216 HD
BRANCH  22  24
HETATM   24  O3  UNL     1      66.694  36.899  38.077  1.00  0.00    -0.274 OA
ATOM     25  H3  UNL     1      67.496  36.733  37.595  1.00  0.00     0.246 HD
ENDBRANCH  22  24
ENDBRANCH  20  22
ENDBRANCH   4  20
BRANCH   1  26
HETATM   26  N1  UNL     1      62.989  38.748  41.000  1.00  0.00    -0.327 NA
HETATM   27  C3  UNL     1      62.709  38.463  42.239  1.00  0.00     0.364 C 
HETATM   28  O2  UNL     1      61.849  39.142  42.911  1.00  0.00    -0.248 OA
BRANCH  27  29
HETATM   29  C2  UNL     1      63.335  37.370  42.963  1.00  0.00     0.227 C 
HETATM   30  C1  UNL     1      63.165  37.210  44.422  1.00  0.00     0.103 C 
HETATM   31  O1  UNL     1      64.034  36.542  42.334  1.00  0.00    -0.286 OA
ENDBRANCH  27  29
ENDBRANCH   1  26
TORSDOF 10
ENDMDL
