MODEL 1
REMARK VINA RESULT: -8.789876996      0.000      0.000
REMARK  4 active torsions:
REMARK  status: ('A' for Active; 'I' for Inactive)
REMARK       I    between atoms: C1_2  and  N3_4 
REMARK       I    between atoms: N3_4  and  C2_6 
REMARK    1  A    between atoms: C2_6  and  C3_8 
REMARK    2  A    between atoms: N6_14  and  C5_16 
REMARK    3  A    between atoms: C5_16  and  C6_17 
REMARK    4  A    between atoms: C5_16  and  C7_20 
REMARK       I    between atoms: C7_20  and  N7_22 
REMARK       I    between atoms: N7_22  and  C8_24 
REMARK       I    between atoms: C8_24  and  N8_25 
REMARK       I    between atoms: C8_24  and  N9_29 
ROOT
HETATM    1  C5  UNL     1      62.122  42.760  35.891  1.00  0.00     0.279 C 
ENDROOT
BRANCH   1   2
HETATM    2  N6  UNL     1      61.690  42.174  37.094  1.00  0.00    -0.333 N 
HETATM    3  C4  UNL     1      62.218  41.195  37.747  1.00  0.00     0.242 A 
HETATM    4  N5  UNL     1      61.735  40.695  38.898  1.00  0.00    -0.263 N 
HETATM    5  O5  UNL     1      63.290  40.495  37.460  1.00  0.00    -0.254 OA
HETATM    6  N4  UNL     1      62.546  39.698  39.266  1.00  0.00    -0.272 N 
ATOM      7  H5  UNL     1      60.905  41.016  39.397  1.00  0.00     0.190 HD
HETATM    8  C3  UNL     1      63.525  39.581  38.351  1.00  0.00     0.235 A 
ATOM      9  H4  UNL     1      62.441  39.122  40.101  1.00  0.00     0.189 HD
ATOM     10  H6  UNL     1      60.848  42.577  37.505  1.00  0.00     0.164 HD
BRANCH   8  11
HETATM   11  C2  UNL     1      64.623  38.595  38.388  1.00  0.00     0.300 C 
HETATM   12  N3  UNL     1      64.994  37.935  39.573  1.00  0.00    -0.296 N 
HETATM   13  C1  UNL     1      66.224  37.685  39.806  1.00  0.00     0.203 C 
ATOM     14  H3  UNL     1      64.280  37.655  40.246  1.00  0.00     0.171 HD
HETATM   15  N1  UNL     1      66.586  37.028  40.995  1.00  0.00    -0.066 NA
HETATM   16  N2  UNL     1      67.210  38.070  38.888  1.00  0.00    -0.066 NA
HETATM   17  O1  UNL     1      65.243  38.340  37.318  1.00  0.00    -0.263 OA
ENDBRANCH   8  11
ENDBRANCH   1   2
BRANCH   1  18
HETATM   18  C6  UNL     1      61.075  42.727  34.855  1.00  0.00     0.206 C 
HETATM   19  O2  UNL     1      60.811  41.687  34.202  1.00  0.00    -0.646 OA
HETATM   20  O3  UNL     1      60.348  43.870  34.581  1.00  0.00    -0.646 OA
ENDBRANCH   1  18
BRANCH   1  21
HETATM   21  C7  UNL     1      62.543  44.173  36.177  1.00  0.00     0.254 C 
HETATM   22  O4  UNL     1      63.726  44.514  35.940  1.00  0.00    -0.271 OA
HETATM   23  N7  UNL     1      61.648  45.136  36.707  1.00  0.00    -0.309 N 
HETATM   24  C8  UNL     1      62.125  46.473  36.960  1.00  0.00     0.482 C 
ATOM     25  H7  UNL     1      60.679  44.888  36.906  1.00  0.00     0.166 HD
HETATM   26  N8  UNL     1      61.845  46.818  38.327  1.00  0.00    -0.033 N 
HETATM   27  N9  UNL     1      61.537  47.458  36.069  1.00  0.00    -0.033 N 
ATOM     28  H83 UNL     1      60.858  46.706  38.561  1.00  0.00     0.278 HD
ATOM     29  H82 UNL     1      62.226  46.138  38.985  1.00  0.00     0.278 HD
ATOM     30  H81 UNL     1      62.183  47.764  38.506  1.00  0.00     0.278 HD
ATOM     31  H93 UNL     1      61.678  47.198  35.093  1.00  0.00     0.278 HD
ATOM     32  H92 UNL     1      60.518  47.421  36.104  1.00  0.00     0.278 HD
ATOM     33  H91 UNL     1      61.876  48.404  36.248  1.00  0.00     0.278 HD
ENDBRANCH   1  21
TORSDOF 4
ENDMDL
MODEL 2
REMARK VINA RESULT: -8.435718885      1.252      1.456
REMARK  4 active torsions:
REMARK  status: ('A' for Active; 'I' for Inactive)
REMARK       I    between atoms: C1_2  and  N3_4 
REMARK       I    between atoms: N3_4  and  C2_6 
REMARK    1  A    between atoms: C2_6  and  C3_8 
REMARK    2  A    between atoms: N6_14  and  C5_16 
REMARK    3  A    between atoms: C5_16  and  C6_17 
REMARK    4  A    between atoms: C5_16  and  C7_20 
REMARK       I    between atoms: C7_20  and  N7_22 
REMARK       I    between atoms: N7_22  and  C8_24 
REMARK       I    between atoms: C8_24  and  N8_25 
REMARK       I    between atoms: C8_24  and  N9_29 
ROOT
HETATM    1  C5  UNL     1      61.770  42.889  36.049  1.00  0.00     0.279 C 
ENDROOT
BRANCH   1   2
HETATM    2  N6  UNL     1      61.109  42.528  37.237  1.00  0.00    -0.333 N 
HETATM    3  C4  UNL     1      61.475  41.676  38.133  1.00  0.00     0.242 A 
HETATM    4  N5  UNL     1      60.776  41.390  39.246  1.00  0.00    -0.263 N 
HETATM    5  O5  UNL     1      62.553  40.929  38.170  1.00  0.00    -0.254 OA
HETATM    6  N4  UNL     1      61.471  40.468  39.921  1.00  0.00    -0.272 N 
ATOM      7  H5  UNL     1      59.885  41.800  39.523  1.00  0.00     0.190 HD
HETATM    8  C3  UNL     1      62.591  40.185  39.232  1.00  0.00     0.235 A 
ATOM      9  H4  UNL     1      61.197  40.049  40.810  1.00  0.00     0.189 HD
ATOM     10  H6  UNL     1      60.223  43.003  37.412  1.00  0.00     0.164 HD
BRANCH   8  11
HETATM   11  C2  UNL     1      63.627  39.214  39.638  1.00  0.00     0.300 C 
HETATM   12  N3  UNL     1      64.850  39.099  38.955  1.00  0.00    -0.296 N 
HETATM   13  C1  UNL     1      65.387  37.951  38.797  1.00  0.00     0.203 C 
ATOM     14  H3  UNL     1      65.309  39.932  38.587  1.00  0.00     0.171 HD
HETATM   15  N1  UNL     1      66.609  37.846  38.111  1.00  0.00    -0.066 NA
HETATM   16  N2  UNL     1      64.761  36.802  39.297  1.00  0.00    -0.066 NA
HETATM   17  O1  UNL     1      63.400  38.468  40.631  1.00  0.00    -0.263 OA
ENDBRANCH   8  11
ENDBRANCH   1   2
BRANCH   1  18
HETATM   18  C6  UNL     1      60.879  42.815  34.878  1.00  0.00     0.206 C 
HETATM   19  O2  UNL     1      60.624  41.730  34.299  1.00  0.00    -0.646 OA
HETATM   20  O3  UNL     1      60.295  43.967  34.388  1.00  0.00    -0.646 OA
ENDBRANCH   1  18
BRANCH   1  21
HETATM   21  C7  UNL     1      62.314  44.280  36.215  1.00  0.00     0.254 C 
HETATM   22  O4  UNL     1      63.500  44.511  35.879  1.00  0.00    -0.271 OA
HETATM   23  N7  UNL     1      61.533  45.341  36.738  1.00  0.00    -0.309 N 
HETATM   24  C8  UNL     1      62.127  46.648  36.872  1.00  0.00     0.482 C 
ATOM     25  H7  UNL     1      60.565  45.182  37.016  1.00  0.00     0.166 HD
HETATM   26  N8  UNL     1      61.969  47.095  38.229  1.00  0.00    -0.033 N 
HETATM   27  N9  UNL     1      61.553  47.621  35.960  1.00  0.00    -0.033 N 
ATOM     28  H83 UNL     1      60.996  47.076  38.535  1.00  0.00     0.278 HD
ATOM     29  H82 UNL     1      62.343  46.427  38.904  1.00  0.00     0.278 HD
ATOM     30  H81 UNL     1      62.389  48.020  38.324  1.00  0.00     0.278 HD
ATOM     31  H93 UNL     1      61.605  47.293  34.995  1.00  0.00     0.278 HD
ATOM     32  H92 UNL     1      60.539  47.667  36.064  1.00  0.00     0.278 HD
ATOM     33  H91 UNL     1      61.973  48.546  36.055  1.00  0.00     0.278 HD
ENDBRANCH   1  21
TORSDOF 4
ENDMDL
MODEL 3
REMARK VINA RESULT: -8.424170878      1.816      7.824
REMARK  4 active torsions:
REMARK  status: ('A' for Active; 'I' for Inactive)
REMARK       I    between atoms: C1_2  and  N3_4 
REMARK       I    between atoms: N3_4  and  C2_6 
REMARK    1  A    between atoms: C2_6  and  C3_8 
REMARK    2  A    between atoms: N6_14  and  C5_16 
REMARK    3  A    between atoms: C5_16  and  C6_17 
REMARK    4  A    between atoms: C5_16  and  C7_20 
REMARK       I    between atoms: C7_20  and  N7_22 
REMARK       I    between atoms: N7_22  and  C8_24 
REMARK       I    between atoms: C8_24  and  N8_25 
REMARK       I    between atoms: C8_24  and  N9_29 
ROOT
HETATM    1  C5  UNL     1      63.440  40.273  38.644  1.00  0.00     0.279 C 
ENDROOT
BRANCH   1   2
HETATM    2  N6  UNL     1      63.082  40.583  37.320  1.00  0.00    -0.333 N 
HETATM    3  C4  UNL     1      62.838  41.740  36.803  1.00  0.00     0.242 A 
HETATM    4  N5  UNL     1      62.500  41.946  35.518  1.00  0.00    -0.263 N 
HETATM    5  O5  UNL     1      62.862  42.920  37.374  1.00  0.00    -0.254 OA
HETATM    6  N4  UNL     1      62.330  43.264  35.362  1.00  0.00    -0.272 N 
ATOM      7  H5  UNL     1      62.394  41.232  34.798  1.00  0.00     0.190 HD
HETATM    8  C3  UNL     1      62.561  43.868  36.541  1.00  0.00     0.235 A 
ATOM      9  H4  UNL     1      62.068  43.731  34.494  1.00  0.00     0.189 HD
ATOM     10  H6  UNL     1      63.005  39.789  36.684  1.00  0.00     0.164 HD
BRANCH   8  11
HETATM   11  C2  UNL     1      62.476  45.321  36.793  1.00  0.00     0.300 C 
HETATM   12  N3  UNL     1      61.244  45.985  36.924  1.00  0.00    -0.296 N 
HETATM   13  C1  UNL     1      61.101  47.163  36.455  1.00  0.00     0.203 C 
ATOM     14  H3  UNL     1      60.464  45.525  37.394  1.00  0.00     0.171 HD
HETATM   15  N1  UNL     1      59.864  47.818  36.589  1.00  0.00    -0.066 NA
HETATM   16  N2  UNL     1      62.167  47.800  35.805  1.00  0.00    -0.066 NA
HETATM   17  O1  UNL     1      63.548  45.980  36.895  1.00  0.00    -0.263 OA
ENDBRANCH   8  11
ENDBRANCH   1   2
BRANCH   1  18
HETATM   18  C6  UNL     1      62.260  40.087  39.505  1.00  0.00     0.206 C 
HETATM   19  O2  UNL     1      61.167  40.662  39.276  1.00  0.00    -0.646 OA
HETATM   20  O3  UNL     1      62.339  39.254  40.605  1.00  0.00    -0.646 OA
ENDBRANCH   1  18
BRANCH   1  21
HETATM   21  C7  UNL     1      64.286  39.031  38.626  1.00  0.00     0.254 C 
HETATM   22  O4  UNL     1      64.017  38.126  37.801  1.00  0.00    -0.271 OA
HETATM   23  N7  UNL     1      65.378  38.847  39.510  1.00  0.00    -0.309 N 
HETATM   24  C8  UNL     1      66.141  37.625  39.437  1.00  0.00     0.482 C 
ATOM     25  H7  UNL     1      65.622  39.568  40.189  1.00  0.00     0.166 HD
HETATM   26  N8  UNL     1      66.181  37.021  40.740  1.00  0.00    -0.033 N 
HETATM   27  N9  UNL     1      67.492  37.836  38.946  1.00  0.00    -0.033 N 
ATOM     28  H83 UNL     1      66.534  37.659  41.454  1.00  0.00     0.278 HD
ATOM     29  H82 UNL     1      65.249  36.875  41.129  1.00  0.00     0.278 HD
ATOM     30  H81 UNL     1      66.721  36.157  40.688  1.00  0.00     0.278 HD
ATOM     31  H93 UNL     1      67.483  38.316  38.046  1.00  0.00     0.278 HD
ATOM     32  H92 UNL     1      67.978  38.538  39.503  1.00  0.00     0.278 HD
ATOM     33  H91 UNL     1      68.032  36.972  38.894  1.00  0.00     0.278 HD
ENDBRANCH   1  21
TORSDOF 4
ENDMDL
MODEL 4
REMARK VINA RESULT: -7.991980048      2.856      4.417
REMARK  4 active torsions:
REMARK  status: ('A' for Active; 'I' for Inactive)
REMARK       I    between atoms: C1_2  and  N3_4 
REMARK       I    between atoms: N3_4  and  C2_6 
REMARK    1  A    between atoms: C2_6  and  C3_8 
REMARK    2  A    between atoms: N6_14  and  C5_16 
REMARK    3  A    between atoms: C5_16  and  C6_17 
REMARK    4  A    between atoms: C5_16  and  C7_20 
REMARK       I    between atoms: C7_20  and  N7_22 
REMARK       I    between atoms: N7_22  and  C8_24 
REMARK       I    between atoms: C8_24  and  N8_25 
REMARK       I    between atoms: C8_24  and  N9_29 
ROOT
HETATM    1  C5  UNL     1      62.470  43.512  35.246  1.00  0.00     0.279 C 
ENDROOT
BRANCH   1   2
HETATM    2  N6  UNL     1      63.014  42.361  35.843  1.00  0.00    -0.333 N 
HETATM    3  C4  UNL     1      62.628  41.751  36.912  1.00  0.00     0.242 A 
HETATM    4  N5  UNL     1      63.211  40.649  37.416  1.00  0.00    -0.263 N 
HETATM    5  O5  UNL     1      61.634  42.044  37.716  1.00  0.00    -0.254 OA
HETATM    6  N4  UNL     1      62.535  40.315  38.520  1.00  0.00    -0.272 N 
ATOM      7  H5  UNL     1      64.017  40.159  37.027  1.00  0.00     0.190 HD
HETATM    8  C3  UNL     1      61.542  41.203  38.700  1.00  0.00     0.235 A 
ATOM      9  H4  UNL     1      62.740  39.520  39.125  1.00  0.00     0.189 HD
ATOM     10  H6  UNL     1      63.820  41.954  35.367  1.00  0.00     0.164 HD
BRANCH   8  11
HETATM   11  C2  UNL     1      60.567  41.189  39.809  1.00  0.00     0.300 C 
HETATM   12  N3  UNL     1      59.460  42.055  39.841  1.00  0.00    -0.296 N 
HETATM   13  C1  UNL     1      59.068  42.549  40.951  1.00  0.00     0.203 C 
ATOM     14  H3  UNL     1      58.970  42.290  38.977  1.00  0.00     0.171 HD
HETATM   15  N1  UNL     1      57.962  43.417  40.973  1.00  0.00    -0.066 NA
HETATM   16  N2  UNL     1      59.738  42.235  42.141  1.00  0.00    -0.066 NA
HETATM   17  O1  UNL     1      60.738  40.369  40.753  1.00  0.00    -0.263 OA
ENDBRANCH   8  11
ENDBRANCH   1   2
BRANCH   1  18
HETATM   18  C6  UNL     1      61.119  43.269  34.709  1.00  0.00     0.206 C 
HETATM   19  O2  UNL     1      60.278  44.192  34.571  1.00  0.00    -0.646 OA
HETATM   20  O3  UNL     1      60.749  41.990  34.340  1.00  0.00    -0.646 OA
ENDBRANCH   1  18
BRANCH   1  21
HETATM   21  C7  UNL     1      62.445  44.610  36.271  1.00  0.00     0.254 C 
HETATM   22  O4  UNL     1      63.456  45.339  36.402  1.00  0.00    -0.271 OA
HETATM   23  N7  UNL     1      61.318  44.849  37.096  1.00  0.00    -0.309 N 
HETATM   24  C8  UNL     1      61.370  45.919  38.061  1.00  0.00     0.482 C 
ATOM     25  H7  UNL     1      60.481  44.273  37.008  1.00  0.00     0.166 HD
HETATM   26  N8  UNL     1      61.049  45.393  39.359  1.00  0.00    -0.033 N 
HETATM   27  N9  UNL     1      60.474  47.015  37.734  1.00  0.00    -0.033 N 
ATOM     28  H83 UNL     1      60.154  44.902  39.369  1.00  0.00     0.278 HD
ATOM     29  H82 UNL     1      61.645  44.606  39.618  1.00  0.00     0.278 HD
ATOM     30  H81 UNL     1      61.086  46.150  40.042  1.00  0.00     0.278 HD
ATOM     31  H93 UNL     1      60.651  47.363  36.792  1.00  0.00     0.278 HD
ATOM     32  H92 UNL     1      59.518  46.680  37.609  1.00  0.00     0.278 HD
ATOM     33  H91 UNL     1      60.511  47.772  38.417  1.00  0.00     0.278 HD
ENDBRANCH   1  21
TORSDOF 4
ENDMDL
MODEL 5
REMARK VINA RESULT: -7.868895889      2.784      3.642
REMARK  4 active torsions:
REMARK  status: ('A' for Active; 'I' for Inactive)
REMARK       I    between atoms: C1_2  and  N3_4 
REMARK       I    between atoms: N3_4  and  C2_6 
REMARK    1  A    between atoms: C2_6  and  C3_8 
REMARK    2  A    between atoms: N6_14  and  C5_16 
REMARK    3  A    between atoms: C5_16  and  C6_17 
REMARK    4  A    between atoms: C5_16  and  C7_20 
REMARK       I    between atoms: C7_20  and  N7_22 
REMARK       I    between atoms: N7_22  and  C8_24 
REMARK       I    between atoms: C8_24  and  N8_25 
REMARK       I    between atoms: C8_24  and  N9_29 
ROOT
HETATM    1  C5  UNL     1      62.243  43.556  35.196  1.00  0.00     0.279 C 
ENDROOT
BRANCH   1   2
HETATM    2  N6  UNL     1      62.874  42.401  35.691  1.00  0.00    -0.333 N 
HETATM    3  C4  UNL     1      62.708  41.820  36.831  1.00  0.00     0.242 A 
HETATM    4  N5  UNL     1      63.359  40.710  37.224  1.00  0.00    -0.263 N 
HETATM    5  O5  UNL     1      61.912  42.152  37.818  1.00  0.00    -0.254 OA
HETATM    6  N4  UNL     1      62.923  40.413  38.453  1.00  0.00    -0.272 N 
ATOM      7  H5  UNL     1      64.054  40.193  36.687  1.00  0.00     0.190 HD
HETATM    8  C3  UNL     1      62.009  41.330  38.818  1.00  0.00     0.235 A 
ATOM      9  H4  UNL     1      63.231  39.622  39.019  1.00  0.00     0.189 HD
ATOM     10  H6  UNL     1      63.553  41.965  35.066  1.00  0.00     0.164 HD
BRANCH   8  11
HETATM   11  C2  UNL     1      61.288  41.360  40.106  1.00  0.00     0.300 C 
HETATM   12  N3  UNL     1      61.799  42.030  41.232  1.00  0.00    -0.296 N 
HETATM   13  C1  UNL     1      61.633  41.536  42.397  1.00  0.00     0.203 C 
ATOM     14  H3  UNL     1      62.302  42.910  41.118  1.00  0.00     0.171 HD
HETATM   15  N1  UNL     1      62.150  42.211  43.517  1.00  0.00    -0.066 NA
HETATM   16  N2  UNL     1      60.947  40.325  42.562  1.00  0.00    -0.066 NA
HETATM   17  O1  UNL     1      60.178  40.765  40.191  1.00  0.00    -0.263 OA
ENDBRANCH   8  11
ENDBRANCH   1   2
BRANCH   1  18
HETATM   18  C6  UNL     1      60.849  43.295  34.799  1.00  0.00     0.206 C 
HETATM   19  O2  UNL     1      59.999  44.214  34.695  1.00  0.00    -0.646 OA
HETATM   20  O3  UNL     1      60.445  42.002  34.526  1.00  0.00    -0.646 OA
ENDBRANCH   1  18
BRANCH   1  21
HETATM   21  C7  UNL     1      62.304  44.619  36.256  1.00  0.00     0.254 C 
HETATM   22  O4  UNL     1      63.330  45.334  36.339  1.00  0.00    -0.271 OA
HETATM   23  N7  UNL     1      61.241  44.841  37.166  1.00  0.00    -0.309 N 
HETATM   24  C8  UNL     1      61.374  45.877  38.160  1.00  0.00     0.482 C 
ATOM     25  H7  UNL     1      60.393  44.276  37.120  1.00  0.00     0.166 HD
HETATM   26  N8  UNL     1      61.139  45.310  39.460  1.00  0.00    -0.033 N 
HETATM   27  N9  UNL     1      60.469  46.991  37.934  1.00  0.00    -0.033 N 
ATOM     28  H83 UNL     1      60.242  44.828  39.518  1.00  0.00     0.278 HD
ATOM     29  H82 UNL     1      61.743  44.510  39.649  1.00  0.00     0.278 HD
ATOM     30  H81 UNL     1      61.233  46.044  40.163  1.00  0.00     0.278 HD
ATOM     31  H93 UNL     1      60.584  47.369  36.994  1.00  0.00     0.278 HD
ATOM     32  H92 UNL     1      59.503  46.670  37.867  1.00  0.00     0.278 HD
ATOM     33  H91 UNL     1      60.564  47.724  38.637  1.00  0.00     0.278 HD
ENDBRANCH   1  21
TORSDOF 4
ENDMDL
