MODEL 1
REMARK VINA RESULT: -7.582398742      0.000      0.000
REMARK  10 active torsions:
REMARK  status: ('A' for Active; 'I' for Inactive)
REMARK    1  A    between atoms: N2_3  and  C2_5 
REMARK    2  A    between atoms: C2_5  and  C3_6 
REMARK    3  A    between atoms: C3_6  and  C4_7 
REMARK    4  A    between atoms: C4_7  and  C5_8 
REMARK    5  A    between atoms: C5_8  and  C6_9 
REMARK    6  A    between atoms: C7_13  and  C8_14 
REMARK    7  A    between atoms: C8_14  and  C9_15 
REMARK    8  A    between atoms: C9_15  and  C10_16 
REMARK    9  A    between atoms: C10_16  and  N4_17 
REMARK   10  A    between atoms: C13_26  and  O2_27 
ROOT
HETATM    1  C6  UNL     1      15.888  -5.579  20.054  1.00  0.00     0.235 C 
HETATM    2  N3  UNL     1      15.810  -4.217  20.509  1.00  0.00    -0.054 N 
ATOM      3  H31 UNL     1      14.888  -3.821  20.322  1.00  0.00     0.278 HD
ATOM      4  H32 UNL     1      16.375  -3.602  19.922  1.00  0.00     0.278 HD
HETATM    5  C7  UNL     1      16.164  -4.072  21.908  1.00  0.00     0.277 C 
HETATM    6  C12 UNL     1      17.583  -4.427  22.008  1.00  0.00     0.250 C 
HETATM    7  O1  UNL     1      18.493  -3.796  22.554  1.00  0.00    -0.271 OA
HETATM    8  N7  UNL     1      17.958  -5.676  21.387  1.00  0.00    -0.331 N 
ATOM      9  H7  UNL     1      18.793  -6.161  21.715  1.00  0.00     0.165 HD
HETATM   10  C13 UNL     1      17.184  -6.255  20.319  1.00  0.00     0.251 C 
ENDROOT
BRANCH   1  11
HETATM   11  C5  UNL     1      15.610  -5.580  18.565  1.00  0.00     0.037 C 
BRANCH  11  12
HETATM   12  C4  UNL     1      14.483  -6.517  18.180  1.00  0.00     0.004 C 
BRANCH  12  13
HETATM   13  C3  UNL     1      14.927  -7.558  17.175  1.00  0.00     0.020 C 
BRANCH  13  14
HETATM   14  C2  UNL     1      14.144  -8.826  17.279  1.00  0.00     0.120 C 
BRANCH  14  15
HETATM   15  N2  UNL     1      14.896  -9.938  17.760  1.00  0.00    -0.388 N 
HETATM   16  C1  UNL     1      15.332 -10.814  16.941  1.00  0.00     0.185 C 
HETATM   17  N1  UNL     1      15.072 -10.687  15.557  1.00  0.00    -0.097 NA
ATOM     18  H2  UNL     1      15.084 -10.034  18.758  1.00  0.00     0.159 HD
ENDBRANCH  14  15
ENDBRANCH  13  14
ENDBRANCH  12  13
ENDBRANCH  11  12
ENDBRANCH   1  11
BRANCH  10  19
HETATM   19  O2  UNL     1      18.022  -6.324  19.201  1.00  0.00    -0.375 OA
ATOM     20  H2  UNL     1      18.219  -5.477  18.817  1.00  0.00     0.212 HD
ENDBRANCH  10  19
BRANCH   5  21
HETATM   21  C8  UNL     1      15.803  -2.695  22.325  1.00  0.00     0.044 C 
BRANCH  21  22
HETATM   22  C9  UNL     1      14.770  -2.007  21.485  1.00  0.00     0.022 C 
BRANCH  22  23
HETATM   23  C10 UNL     1      14.163  -0.908  22.371  1.00  0.00     0.122 C 
BRANCH  23  24
HETATM   24  N4  UNL     1      12.984  -1.375  23.041  1.00  0.00    -0.367 N 
HETATM   25  C11 UNL     1      12.046  -0.585  23.380  1.00  0.00     0.196 C 
HETATM   26  N5  UNL     1      10.894  -1.085  24.041  1.00  0.00    -0.067 NA
HETATM   27  N6  UNL     1      12.159   0.800  23.094  1.00  0.00    -0.067 NA
ATOM     28  H4  UNL     1      12.894  -2.369  23.251  1.00  0.00     0.161 HD
ENDBRANCH  23  24
ENDBRANCH  22  23
ENDBRANCH  21  22
ENDBRANCH   5  21
TORSDOF 10
ENDMDL
MODEL 2
REMARK VINA RESULT: -7.533270460      1.830      8.029
REMARK  10 active torsions:
REMARK  status: ('A' for Active; 'I' for Inactive)
REMARK    1  A    between atoms: N2_3  and  C2_5 
REMARK    2  A    between atoms: C2_5  and  C3_6 
REMARK    3  A    between atoms: C3_6  and  C4_7 
REMARK    4  A    between atoms: C4_7  and  C5_8 
REMARK    5  A    between atoms: C5_8  and  C6_9 
REMARK    6  A    between atoms: C7_13  and  C8_14 
REMARK    7  A    between atoms: C8_14  and  C9_15 
REMARK    8  A    between atoms: C9_15  and  C10_16 
REMARK    9  A    between atoms: C10_16  and  N4_17 
REMARK   10  A    between atoms: C13_26  and  O2_27 
ROOT
HETATM    1  C6  UNL     1      16.168  -3.851  22.041  1.00  0.00     0.235 C 
HETATM    2  N3  UNL     1      17.018  -4.841  21.435  1.00  0.00    -0.054 N 
ATOM      3  H31 UNL     1      17.519  -5.376  22.144  1.00  0.00     0.278 HD
ATOM      4  H32 UNL     1      17.811  -4.405  20.965  1.00  0.00     0.278 HD
HETATM    5  C7  UNL     1      16.297  -5.720  20.533  1.00  0.00     0.277 C 
HETATM    6  C12 UNL     1      15.840  -4.878  19.423  1.00  0.00     0.250 C 
HETATM    7  O1  UNL     1      15.965  -5.076  18.210  1.00  0.00    -0.271 OA
HETATM    8  N7  UNL     1      15.156  -3.664  19.802  1.00  0.00    -0.331 N 
ATOM      9  H7  UNL     1      14.507  -3.234  19.144  1.00  0.00     0.165 HD
HETATM   10  C13 UNL     1      15.365  -3.045  21.087  1.00  0.00     0.251 C 
ENDROOT
BRANCH   1  11
HETATM   11  C5  UNL     1      17.052  -2.934  22.862  1.00  0.00     0.037 C 
BRANCH  11  12
HETATM   12  C4  UNL     1      16.458  -2.607  24.217  1.00  0.00     0.004 C 
BRANCH  12  13
HETATM   13  C3  UNL     1      16.274  -1.117  24.414  1.00  0.00     0.020 C 
BRANCH  13  14
HETATM   14  C2  UNL     1      14.842  -0.700  24.337  1.00  0.00     0.120 C 
BRANCH  14  15
HETATM   15  N2  UNL     1      14.431  -0.261  23.044  1.00  0.00    -0.388 N 
HETATM   16  C1  UNL     1      13.201  -0.323  22.711  1.00  0.00     0.185 C 
HETATM   17  N1  UNL     1      12.242  -0.828  23.620  1.00  0.00    -0.097 NA
ATOM     18  H2  UNL     1      15.120   0.103  22.385  1.00  0.00     0.159 HD
ENDBRANCH  14  15
ENDBRANCH  13  14
ENDBRANCH  12  13
ENDBRANCH  11  12
ENDBRANCH   1  11
BRANCH  10  19
HETATM   19  O2  UNL     1      15.890  -1.771  20.843  1.00  0.00    -0.375 OA
ATOM     20  H2  UNL     1      15.374  -1.254  20.237  1.00  0.00     0.212 HD
ENDBRANCH  10  19
BRANCH   5  21
HETATM   21  C8  UNL     1      17.203  -6.839  20.175  1.00  0.00     0.044 C 
BRANCH  21  22
HETATM   22  C9  UNL     1      16.561  -8.189  20.060  1.00  0.00     0.022 C 
BRANCH  22  23
HETATM   23  C10 UNL     1      16.256  -8.390  18.567  1.00  0.00     0.122 C 
BRANCH  23  24
HETATM   24  N4  UNL     1      14.846  -8.322  18.313  1.00  0.00    -0.367 N 
HETATM   25  C11 UNL     1      14.372  -8.390  17.135  1.00  0.00     0.196 C 
HETATM   26  N5  UNL     1      12.971  -8.320  16.924  1.00  0.00    -0.067 NA
HETATM   27  N6  UNL     1      15.253  -8.537  16.032  1.00  0.00    -0.067 NA
ATOM     28  H4  UNL     1      14.206  -8.216  19.100  1.00  0.00     0.161 HD
ENDBRANCH  23  24
ENDBRANCH  22  23
ENDBRANCH  21  22
ENDBRANCH   5  21
TORSDOF 10
ENDMDL
MODEL 3
REMARK VINA RESULT: -7.519538521      1.309      8.046
REMARK  10 active torsions:
REMARK  status: ('A' for Active; 'I' for Inactive)
REMARK    1  A    between atoms: N2_3  and  C2_5 
REMARK    2  A    between atoms: C2_5  and  C3_6 
REMARK    3  A    between atoms: C3_6  and  C4_7 
REMARK    4  A    between atoms: C4_7  and  C5_8 
REMARK    5  A    between atoms: C5_8  and  C6_9 
REMARK    6  A    between atoms: C7_13  and  C8_14 
REMARK    7  A    between atoms: C8_14  and  C9_15 
REMARK    8  A    between atoms: C9_15  and  C10_16 
REMARK    9  A    between atoms: C10_16  and  N4_17 
REMARK   10  A    between atoms: C13_26  and  O2_27 
ROOT
HETATM    1  C6  UNL     1      16.367  -3.641  21.755  1.00  0.00     0.235 C 
HETATM    2  N3  UNL     1      15.739  -4.741  21.074  1.00  0.00    -0.054 N 
ATOM      3  H31 UNL     1      14.953  -4.420  20.508  1.00  0.00     0.278 HD
ATOM      4  H32 UNL     1      15.237  -5.339  21.730  1.00  0.00     0.278 HD
HETATM    5  C7  UNL     1      16.673  -5.512  20.275  1.00  0.00     0.277 C 
HETATM    6  C12 UNL     1      17.604  -6.132  21.223  1.00  0.00     0.250 C 
HETATM    7  O1  UNL     1      17.948  -7.316  21.294  1.00  0.00    -0.271 OA
HETATM    8  N7  UNL     1      18.191  -5.239  22.194  1.00  0.00    -0.331 N 
ATOM      9  H7  UNL     1      19.082  -5.488  22.622  1.00  0.00     0.165 HD
HETATM   10  C13 UNL     1      17.550  -4.005  22.576  1.00  0.00     0.251 C 
ENDROOT
BRANCH   1  11
HETATM   11  C5  UNL     1      15.320  -2.992  22.636  1.00  0.00     0.037 C 
BRANCH  11  12
HETATM   12  C4  UNL     1      14.419  -2.042  21.872  1.00  0.00     0.004 C 
BRANCH  12  13
HETATM   13  C3  UNL     1      14.589  -0.608  22.325  1.00  0.00     0.020 C 
BRANCH  13  14
HETATM   14  C2  UNL     1      13.765  -0.285  23.529  1.00  0.00     0.120 C 
BRANCH  14  15
HETATM   15  N2  UNL     1      12.723   0.658  23.287  1.00  0.00    -0.388 N 
HETATM   16  C1  UNL     1      11.505   0.319  23.463  1.00  0.00     0.185 C 
HETATM   17  N1  UNL     1      11.185  -0.988  23.898  1.00  0.00    -0.097 NA
ATOM     18  H2  UNL     1      12.950   1.601  22.973  1.00  0.00     0.159 HD
ENDBRANCH  14  15
ENDBRANCH  13  14
ENDBRANCH  12  13
ENDBRANCH  11  12
ENDBRANCH   1  11
BRANCH  10  19
HETATM   19  O2  UNL     1      17.281  -4.093  23.945  1.00  0.00    -0.375 OA
ATOM     20  H2  UNL     1      17.513  -4.931  24.329  1.00  0.00     0.212 HD
ENDBRANCH  10  19
BRANCH   5  21
HETATM   21  C8  UNL     1      15.884  -6.441  19.430  1.00  0.00     0.044 C 
BRANCH  21  22
HETATM   22  C9  UNL     1      16.614  -7.055  18.274  1.00  0.00     0.022 C 
BRANCH  22  23
HETATM   23  C10 UNL     1      15.985  -8.441  18.059  1.00  0.00     0.122 C 
BRANCH  23  24
HETATM   24  N4  UNL     1      14.555  -8.353  17.981  1.00  0.00    -0.367 N 
HETATM   25  C11 UNL     1      13.906  -8.834  16.998  1.00  0.00     0.196 C 
HETATM   26  N5  UNL     1      12.492  -8.728  16.956  1.00  0.00    -0.067 NA
HETATM   27  N6  UNL     1      14.604  -9.476  15.943  1.00  0.00    -0.067 NA
ATOM     28  H4  UNL     1      14.045  -7.892  18.734  1.00  0.00     0.161 HD
ENDBRANCH  23  24
ENDBRANCH  22  23
ENDBRANCH  21  22
ENDBRANCH   5  21
TORSDOF 10
ENDMDL
MODEL 4
REMARK VINA RESULT: -7.484596645      1.021      1.235
REMARK  10 active torsions:
REMARK  status: ('A' for Active; 'I' for Inactive)
REMARK    1  A    between atoms: N2_3  and  C2_5 
REMARK    2  A    between atoms: C2_5  and  C3_6 
REMARK    3  A    between atoms: C3_6  and  C4_7 
REMARK    4  A    between atoms: C4_7  and  C5_8 
REMARK    5  A    between atoms: C5_8  and  C6_9 
REMARK    6  A    between atoms: C7_13  and  C8_14 
REMARK    7  A    between atoms: C8_14  and  C9_15 
REMARK    8  A    between atoms: C9_15  and  C10_16 
REMARK    9  A    between atoms: C10_16  and  N4_17 
REMARK   10  A    between atoms: C13_26  and  O2_27 
ROOT
HETATM    1  C6  UNL     1      15.939  -5.668  20.023  1.00  0.00     0.235 C 
HETATM    2  N3  UNL     1      15.887  -4.289  20.427  1.00  0.00    -0.054 N 
ATOM      3  H31 UNL     1      14.977  -3.879  20.217  1.00  0.00     0.278 HD
ATOM      4  H32 UNL     1      16.472  -3.709  19.825  1.00  0.00     0.278 HD
HETATM    5  C7  UNL     1      16.231  -4.102  21.824  1.00  0.00     0.277 C 
HETATM    6  C12 UNL     1      17.641  -4.484  21.952  1.00  0.00     0.250 C 
HETATM    7  O1  UNL     1      18.560  -3.854  22.485  1.00  0.00    -0.271 OA
HETATM    8  N7  UNL     1      17.993  -5.763  21.381  1.00  0.00    -0.331 N 
ATOM      9  H7  UNL     1      18.814  -6.254  21.735  1.00  0.00     0.165 HD
HETATM   10  C13 UNL     1      17.217  -6.363  20.326  1.00  0.00     0.251 C 
ENDROOT
BRANCH   1  11
HETATM   11  C5  UNL     1      15.676  -5.716  18.532  1.00  0.00     0.037 C 
BRANCH  11  12
HETATM   12  C4  UNL     1      14.496  -6.597  18.174  1.00  0.00     0.004 C 
BRANCH  12  13
HETATM   13  C3  UNL     1      14.828  -7.569  17.062  1.00  0.00     0.020 C 
BRANCH  13  14
HETATM   14  C2  UNL     1      16.035  -8.397  17.364  1.00  0.00     0.120 C 
BRANCH  14  15
HETATM   15  N2  UNL     1      15.841  -9.354  18.402  1.00  0.00    -0.388 N 
HETATM   16  C1  UNL     1      16.849  -9.862  18.997  1.00  0.00     0.185 C 
HETATM   17  N1  UNL     1      18.160  -9.480  18.628  1.00  0.00    -0.097 NA
ATOM     18  H2  UNL     1      14.897  -9.632  18.670  1.00  0.00     0.159 HD
ENDBRANCH  14  15
ENDBRANCH  13  14
ENDBRANCH  12  13
ENDBRANCH  11  12
ENDBRANCH   1  11
BRANCH  10  19
HETATM   19  O2  UNL     1      18.064  -6.491  19.220  1.00  0.00    -0.375 OA
ATOM     20  H2  UNL     1      18.970  -6.274  19.404  1.00  0.00     0.212 HD
ENDBRANCH  10  19
BRANCH   5  21
HETATM   21  C8  UNL     1      15.898  -2.702  22.187  1.00  0.00     0.044 C 
BRANCH  21  22
HETATM   22  C9  UNL     1      14.795  -2.066  21.396  1.00  0.00     0.022 C 
BRANCH  22  23
HETATM   23  C10 UNL     1      14.191  -0.981  22.302  1.00  0.00     0.122 C 
BRANCH  23  24
HETATM   24  N4  UNL     1      12.997  -1.449  22.943  1.00  0.00    -0.367 N 
HETATM   25  C11 UNL     1      12.105  -0.648  23.368  1.00  0.00     0.196 C 
HETATM   26  N5  UNL     1      10.936  -1.149  23.998  1.00  0.00    -0.067 NA
HETATM   27  N6  UNL     1      12.285   0.750  23.209  1.00  0.00    -0.067 NA
ATOM     28  H4  UNL     1      12.860  -2.453  23.063  1.00  0.00     0.161 HD
ENDBRANCH  23  24
ENDBRANCH  22  23
ENDBRANCH  21  22
ENDBRANCH   5  21
TORSDOF 10
ENDMDL
MODEL 5
REMARK VINA RESULT: -7.430922848      2.008      2.599
REMARK  10 active torsions:
REMARK  status: ('A' for Active; 'I' for Inactive)
REMARK    1  A    between atoms: N2_3  and  C2_5 
REMARK    2  A    between atoms: C2_5  and  C3_6 
REMARK    3  A    between atoms: C3_6  and  C4_7 
REMARK    4  A    between atoms: C4_7  and  C5_8 
REMARK    5  A    between atoms: C5_8  and  C6_9 
REMARK    6  A    between atoms: C7_13  and  C8_14 
REMARK    7  A    between atoms: C8_14  and  C9_15 
REMARK    8  A    between atoms: C9_15  and  C10_16 
REMARK    9  A    between atoms: C10_16  and  N4_17 
REMARK   10  A    between atoms: C13_26  and  O2_27 
ROOT
HETATM    1  C6  UNL     1      16.251  -5.933  20.268  1.00  0.00     0.235 C 
HETATM    2  N3  UNL     1      15.830  -5.277  21.477  1.00  0.00    -0.054 N 
ATOM      3  H31 UNL     1      16.228  -5.734  22.298  1.00  0.00     0.278 HD
ATOM      4  H32 UNL     1      14.840  -5.444  21.658  1.00  0.00     0.278 HD
HETATM    5  C7  UNL     1      16.128  -3.857  21.476  1.00  0.00     0.277 C 
HETATM    6  C12 UNL     1      15.304  -3.268  20.416  1.00  0.00     0.250 C 
HETATM    7  O1  UNL     1      14.562  -2.284  20.481  1.00  0.00    -0.271 OA
HETATM    8  N7  UNL     1      15.374  -3.929  19.134  1.00  0.00    -0.331 N 
ATOM      9  H7  UNL     1      15.149  -3.400  18.291  1.00  0.00     0.165 HD
HETATM   10  C13 UNL     1      15.753  -5.314  19.013  1.00  0.00     0.251 C 
ENDROOT
BRANCH   1  11
HETATM   11  C5  UNL     1      15.784  -7.372  20.344  1.00  0.00     0.037 C 
BRANCH  11  12
HETATM   12  C4  UNL     1      16.925  -8.348  20.550  1.00  0.00     0.004 C 
BRANCH  12  13
HETATM   13  C3  UNL     1      17.027  -9.351  19.421  1.00  0.00     0.020 C 
BRANCH  13  14
HETATM   14  C2  UNL     1      15.952  -9.176  18.398  1.00  0.00     0.120 C 
BRANCH  14  15
HETATM   15  N2  UNL     1      16.385  -8.535  17.201  1.00  0.00    -0.388 N 
HETATM   16  C1  UNL     1      15.669  -8.604  16.147  1.00  0.00     0.185 C 
HETATM   17  N1  UNL     1      14.448  -9.316  16.161  1.00  0.00    -0.097 NA
ATOM     18  H2  UNL     1      17.266  -8.021  17.187  1.00  0.00     0.159 HD
ENDBRANCH  14  15
ENDBRANCH  13  14
ENDBRANCH  12  13
ENDBRANCH  11  12
ENDBRANCH   1  11
BRANCH  10  19
HETATM   19  O2  UNL     1      14.665  -5.986  18.447  1.00  0.00    -0.375 OA
ATOM     20  H2  UNL     1      14.351  -5.594  17.640  1.00  0.00     0.212 HD
ENDBRANCH  10  19
BRANCH   5  21
HETATM   21  C8  UNL     1      15.892  -3.346  22.849  1.00  0.00     0.044 C 
BRANCH  21  22
HETATM   22  C9  UNL     1      16.512  -2.020  23.170  1.00  0.00     0.022 C 
BRANCH  22  23
HETATM   23  C10 UNL     1      15.395  -1.166  23.789  1.00  0.00     0.122 C 
BRANCH  23  24
HETATM   24  N4  UNL     1      14.718  -0.394  22.787  1.00  0.00    -0.367 N 
HETATM   25  C11 UNL     1      13.449  -0.339  22.726  1.00  0.00     0.196 C 
HETATM   26  N5  UNL     1      12.815   0.435  21.719  1.00  0.00    -0.067 NA
HETATM   27  N6  UNL     1      12.670  -1.057  23.669  1.00  0.00    -0.067 NA
ATOM     28  H4  UNL     1      15.271   0.124  22.104  1.00  0.00     0.161 HD
ENDBRANCH  23  24
ENDBRANCH  22  23
ENDBRANCH  21  22
ENDBRANCH   5  21
TORSDOF 10
ENDMDL
