MODEL 1
REMARK VINA RESULT: -9.357924640      0.000      0.000
REMARK  13 active torsions:
REMARK  status: ('A' for Active; 'I' for Inactive)
REMARK    1  A    between atoms: C2_2  and  C3_3 
REMARK    2  A    between atoms: C2_2  and  N2_7 
REMARK    3  A    between atoms: C3_3  and  C4_4 
REMARK       I    between atoms: N2_7  and  C5_9 
REMARK    4  A    between atoms: C5_9  and  C6_11 
REMARK    5  A    between atoms: C6_11  and  N3_12 
REMARK    6  A    between atoms: C6_11  and  C21_52 
REMARK       I    between atoms: N3_12  and  C7_14 
REMARK    7  A    between atoms: C7_14  and  C8_16 
REMARK    8  A    between atoms: C10_20  and  C11_21 
REMARK    9  A    between atoms: C17_34  and  N6_35 
REMARK   10  A    between atoms: N8_44  and  C20_45 
REMARK   11  A    between atoms: C20_45  and  O10_46 
REMARK   12  A    between atoms: N9_48  and  O11_50 
REMARK       I    between atoms: C21_52  and  N10_54 
REMARK   13  A    between atoms: N10_54  and  N11_56 
ROOT
HETATM    1  C8  UNL     1      17.790  36.559 106.765  1.00  0.00     0.281 C 
HETATM    2  C9  UNL     1      16.780  37.392 107.483  1.00  0.00     0.292 C 
HETATM    3  O4  UNL     1      15.906  37.983 106.800  1.00  0.00    -0.262 OA
HETATM    4  O5  UNL     1      16.748  37.558 108.853  1.00  0.00    -0.303 OA
HETATM    5  C10 UNL     1      16.856  36.581 109.836  1.00  0.00     0.245 C 
HETATM    6  C12 UNL     1      15.856  36.840 110.970  1.00  0.00     0.220 C 
HETATM    7  O7  UNL     1      15.591  35.699 111.735  1.00  0.00    -0.317 OA
HETATM    8  C13 UNL     1      14.540  34.855 111.446  1.00  0.00     0.276 C 
HETATM    9  O8  UNL     1      13.929  34.295 112.378  1.00  0.00    -0.263 OA
HETATM   10  C14 UNL     1      14.165  34.635 110.062  1.00  0.00     0.233 C 
HETATM   11  N5  UNL     1      12.847  34.163 109.839  1.00  0.00    -0.352 N 
ATOM     12  H5  UNL     1      12.316  33.785 110.623  1.00  0.00     0.162 HD
HETATM   13  C15 UNL     1      12.249  34.203 108.563  1.00  0.00     0.220 C 
HETATM   14  O9  UNL     1      11.528  33.236 108.166  1.00  0.00    -0.274 OA
HETATM   15  C16 UNL     1      12.426  35.336 107.650  1.00  0.00     0.137 C 
HETATM   16  C17 UNL     1      12.425  34.982 106.186  1.00  0.00     0.217 C 
HETATM   17  C18 UNL     1      13.770  34.542 105.670  1.00  0.00     0.267 C 
HETATM   18  N7  UNL     1      14.862  35.175 106.382  1.00  0.00    -0.057 N 
ATOM     19  H71 UNL     1      15.171  34.630 107.186  1.00  0.00     0.279 HD
ATOM     20  H72 UNL     1      14.566  36.012 106.885  1.00  0.00     0.279 HD
HETATM   21  C19 UNL     1      15.918  35.437 105.462  1.00  0.00     0.361 C 
HETATM   22  N8  UNL     1      17.235  35.457 106.073  1.00  0.00    -0.299 N 
ENDROOT
BRANCH   1  23
HETATM   23  C7  UNL     1      18.676  37.395 105.930  1.00  0.00     0.251 C 
HETATM   24  N3  UNL     1      18.295  38.003 104.712  1.00  0.00    -0.338 N 
ATOM     25  H3  UNL     1      17.348  37.880 104.355  1.00  0.00     0.163 HD
HETATM   26  O3  UNL     1      19.862  37.564 106.363  1.00  0.00    -0.271 OA
BRANCH  24  27
HETATM   27  C6  UNL     1      19.276  38.819 103.951  1.00  0.00     0.271 C 
BRANCH  27  28
HETATM   28  C5  UNL     1      18.705  40.178 103.780  1.00  0.00     0.250 C 
HETATM   29  N2  UNL     1      19.368  41.232 103.145  1.00  0.00    -0.354 N 
ATOM     30  H2  UNL     1      20.305  41.082 102.773  1.00  0.00     0.162 HD
HETATM   31  O2  UNL     1      17.539  40.444 104.230  1.00  0.00    -0.271 OA
BRANCH  29  32
HETATM   32  C2  UNL     1      18.745  42.539 103.003  1.00  0.00     0.088 C 
HETATM   33  C1  UNL     1      19.711  43.673 103.195  1.00  0.00     0.032 C 
BRANCH  32  34
HETATM   34  C3  UNL     1      17.972  42.657 101.696  1.00  0.00     0.124 C 
BRANCH  34  35
HETATM   35  C4  UNL     1      16.659  43.287 101.890  1.00  0.00     0.233 C 
HETATM   36  N1  UNL     1      15.543  42.480 102.223  1.00  0.00    -0.062 NA
HETATM   37  O1  UNL     1      16.529  44.516 101.764  1.00  0.00    -0.277 OA
ENDBRANCH  34  35
ENDBRANCH  32  34
ENDBRANCH  29  32
ENDBRANCH  27  28
BRANCH  27  38
HETATM   38  C21 UNL     1      19.438  38.193 102.611  1.00  0.00     0.267 C 
HETATM   39  O12 UNL     1      19.556  38.933 101.570  1.00  0.00    -0.269 OA
HETATM   40  N10 UNL     1      19.465  36.806 102.428  1.00  0.00    -0.274 N 
ATOM     41  H10 UNL     1      19.367  36.176 103.225  1.00  0.00     0.189 HD
BRANCH  40  42
HETATM   42  N11 UNL     1      19.631  36.289 101.112  1.00  0.00    -0.343 N 
ATOM     43 2H11 UNL     1      20.568  36.080 100.768  1.00  0.00     0.176 HD
ATOM     44 1H11 UNL     1      18.803  36.136 100.536  1.00  0.00     0.176 HD
ENDBRANCH  40  42
ENDBRANCH  27  38
ENDBRANCH  24  27
ENDBRANCH   1  23
BRANCH  22  45
HETATM   45  C20 UNL     1      17.976  34.264 105.959  1.00  0.00     0.241 C 
HETATM   46  N9  UNL     1      18.401  33.519 106.878  1.00  0.00    -0.233 N 
ATOM     47  H9  UNL     1      18.919  32.701 106.554  1.00  0.00     0.198 HD
BRANCH  45  48
HETATM   48  O10 UNL     1      18.285  33.838 104.642  1.00  0.00    -0.331 OA
ATOM     49  H10 UNL     1      18.968  34.322 104.191  1.00  0.00     0.221 HD
ENDBRANCH  45  48
BRANCH  46  50
HETATM   50  O11 UNL     1      18.290  33.613 108.201  1.00  0.00    -0.287 OA
ATOM     51  H11 UNL     1      18.837  33.270 108.898  1.00  0.00     0.244 HD
ENDBRANCH  46  50
ENDBRANCH  22  45
BRANCH   5  52
HETATM   52  C11 UNL     1      18.200  36.612 110.514  1.00  0.00     0.262 C 
HETATM   53  N4  UNL     1      19.264  35.798 110.046  1.00  0.00    -0.060 NA
HETATM   54  O6  UNL     1      18.417  37.351 111.504  1.00  0.00    -0.274 OA
ENDBRANCH   5  52
BRANCH  16  55
HETATM   55  N6  UNL     1      12.041  36.197 105.459  1.00  0.00    -0.073 N 
ATOM     56  H63 UNL     1      12.576  36.339 104.603  1.00  0.00     0.274 HD
ATOM     57  H62 UNL     1      11.120  36.133 105.026  1.00  0.00     0.274 HD
ATOM     58  H61 UNL     1      12.124  36.971 106.119  1.00  0.00     0.274 HD
ENDBRANCH  16  55
TORSDOF 13
ENDMDL
MODEL 2
REMARK VINA RESULT: -9.314910342      1.105      1.241
REMARK  13 active torsions:
REMARK  status: ('A' for Active; 'I' for Inactive)
REMARK    1  A    between atoms: C2_2  and  C3_3 
REMARK    2  A    between atoms: C2_2  and  N2_7 
REMARK    3  A    between atoms: C3_3  and  C4_4 
REMARK       I    between atoms: N2_7  and  C5_9 
REMARK    4  A    between atoms: C5_9  and  C6_11 
REMARK    5  A    between atoms: C6_11  and  N3_12 
REMARK    6  A    between atoms: C6_11  and  C21_52 
REMARK       I    between atoms: N3_12  and  C7_14 
REMARK    7  A    between atoms: C7_14  and  C8_16 
REMARK    8  A    between atoms: C10_20  and  C11_21 
REMARK    9  A    between atoms: C17_34  and  N6_35 
REMARK   10  A    between atoms: N8_44  and  C20_45 
REMARK   11  A    between atoms: C20_45  and  O10_46 
REMARK   12  A    between atoms: N9_48  and  O11_50 
REMARK       I    between atoms: C21_52  and  N10_54 
REMARK   13  A    between atoms: N10_54  and  N11_56 
ROOT
HETATM    1  C8  UNL     1      17.858  36.525 107.076  1.00  0.00     0.281 C 
HETATM    2  C9  UNL     1      16.812  37.344 107.759  1.00  0.00     0.292 C 
HETATM    3  O4  UNL     1      15.951  37.919 107.046  1.00  0.00    -0.262 OA
HETATM    4  O5  UNL     1      16.732  37.511 109.126  1.00  0.00    -0.303 OA
HETATM    5  C10 UNL     1      16.823  36.537 110.115  1.00  0.00     0.245 C 
HETATM    6  C12 UNL     1      15.782  36.782 111.214  1.00  0.00     0.220 C 
HETATM    7  O7  UNL     1      15.510  35.639 111.973  1.00  0.00    -0.317 OA
HETATM    8  C13 UNL     1      14.483  34.778 111.651  1.00  0.00     0.276 C 
HETATM    9  O8  UNL     1      13.850  34.209 112.563  1.00  0.00    -0.263 OA
HETATM   10  C14 UNL     1      14.156  34.550 110.256  1.00  0.00     0.233 C 
HETATM   11  N5  UNL     1      12.854  34.057 109.990  1.00  0.00    -0.352 N 
ATOM     12  H5  UNL     1      12.304  33.671 110.758  1.00  0.00     0.162 HD
HETATM   13  C15 UNL     1      12.298  34.085 108.695  1.00  0.00     0.220 C 
HETATM   14  O9  UNL     1      11.605  33.106 108.277  1.00  0.00    -0.274 OA
HETATM   15  C16 UNL     1      12.487  35.220 107.787  1.00  0.00     0.137 C 
HETATM   16  C17 UNL     1      12.540  34.863 106.324  1.00  0.00     0.217 C 
HETATM   17  C18 UNL     1      13.908  34.443 105.853  1.00  0.00     0.267 C 
HETATM   18  N7  UNL     1      14.965  35.095 106.600  1.00  0.00    -0.057 N 
ATOM     19  H71 UNL     1      15.257  34.556 107.415  1.00  0.00     0.279 HD
ATOM     20  H72 UNL     1      14.641  35.927 107.090  1.00  0.00     0.279 HD
HETATM   21  C19 UNL     1      16.047  35.371 105.714  1.00  0.00     0.361 C 
HETATM   22  N8  UNL     1      17.343  35.414 106.369  1.00  0.00    -0.299 N 
ENDROOT
BRANCH   1  23
HETATM   23  C7  UNL     1      18.758  37.374 106.269  1.00  0.00     0.251 C 
HETATM   24  N3  UNL     1      18.337  38.219 105.217  1.00  0.00    -0.338 N 
ATOM     25  H3  UNL     1      17.348  38.276 104.973  1.00  0.00     0.163 HD
HETATM   26  O3  UNL     1      19.995  37.320 106.563  1.00  0.00    -0.271 OA
BRANCH  24  27
HETATM   27  C6  UNL     1      19.335  39.025 104.467  1.00  0.00     0.271 C 
BRANCH  27  28
HETATM   28  C5  UNL     1      18.654  40.245 103.966  1.00  0.00     0.250 C 
HETATM   29  N2  UNL     1      19.269  41.210 103.164  1.00  0.00    -0.354 N 
ATOM     30  H2  UNL     1      20.247  41.093 102.900  1.00  0.00     0.162 HD
HETATM   31  O2  UNL     1      17.432  40.465 104.264  1.00  0.00    -0.271 OA
BRANCH  29  32
HETATM   32  C2  UNL     1      18.540  42.380 102.699  1.00  0.00     0.088 C 
HETATM   33  C1  UNL     1      19.214  43.673 103.061  1.00  0.00     0.032 C 
BRANCH  32  34
HETATM   34  C3  UNL     1      18.225  42.293 101.212  1.00  0.00     0.124 C 
BRANCH  34  35
HETATM   35  C4  UNL     1      18.354  40.921 100.703  1.00  0.00     0.233 C 
HETATM   36  N1  UNL     1      19.625  40.446 100.297  1.00  0.00    -0.062 NA
HETATM   37  O1  UNL     1      17.357  40.183 100.631  1.00  0.00    -0.277 OA
ENDBRANCH  34  35
ENDBRANCH  32  34
ENDBRANCH  29  32
ENDBRANCH  27  28
BRANCH  27  38
HETATM   38  C21 UNL     1      19.785  38.212 103.304  1.00  0.00     0.267 C 
HETATM   39  O12 UNL     1      21.004  37.820 103.233  1.00  0.00    -0.269 OA
HETATM   40  N10 UNL     1      18.925  37.852 102.261  1.00  0.00    -0.274 N 
ATOM     41  H10 UNL     1      17.949  38.147 102.269  1.00  0.00     0.189 HD
BRANCH  40  42
HETATM   42  N11 UNL     1      19.435  37.067 101.189  1.00  0.00    -0.343 N 
ATOM     43 2H11 UNL     1      19.993  37.512 100.460  1.00  0.00     0.176 HD
ATOM     44 1H11 UNL     1      19.233  36.067 101.171  1.00  0.00     0.176 HD
ENDBRANCH  40  42
ENDBRANCH  27  38
ENDBRANCH  24  27
ENDBRANCH   1  23
BRANCH  22  45
HETATM   45  C20 UNL     1      18.106  34.232 106.281  1.00  0.00     0.241 C 
HETATM   46  N9  UNL     1      18.547  33.517 107.217  1.00  0.00    -0.233 N 
ATOM     47  H9  UNL     1      19.079  32.702 106.911  1.00  0.00     0.198 HD
BRANCH  45  48
HETATM   48  O10 UNL     1      18.420  33.780 104.974  1.00  0.00    -0.331 OA
ATOM     49  H10 UNL     1      18.478  32.839 104.855  1.00  0.00     0.221 HD
ENDBRANCH  45  48
BRANCH  46  50
HETATM   50  O11 UNL     1      18.438  33.642 108.538  1.00  0.00    -0.287 OA
ATOM     51  H11 UNL     1      19.019  33.374 109.239  1.00  0.00     0.244 HD
ENDBRANCH  46  50
ENDBRANCH  22  45
BRANCH   5  52
HETATM   52  C11 UNL     1      18.143  36.590 110.836  1.00  0.00     0.262 C 
HETATM   53  N4  UNL     1      19.259  35.858 110.356  1.00  0.00    -0.060 NA
HETATM   54  O6  UNL     1      18.294  37.278 111.875  1.00  0.00    -0.274 OA
ENDBRANCH   5  52
BRANCH  16  55
HETATM   55  N6  UNL     1      12.161  36.070 105.582  1.00  0.00    -0.073 N 
ATOM     56  H63 UNL     1      11.502  35.888 104.826  1.00  0.00     0.274 HD
ATOM     57  H62 UNL     1      11.569  36.703 106.119  1.00  0.00     0.274 HD
ATOM     58  H61 UNL     1      13.029  36.503 105.265  1.00  0.00     0.274 HD
ENDBRANCH  16  55
TORSDOF 13
ENDMDL
MODEL 3
REMARK VINA RESULT: -9.297415565      2.924      9.895
REMARK  13 active torsions:
REMARK  status: ('A' for Active; 'I' for Inactive)
REMARK    1  A    between atoms: C2_2  and  C3_3 
REMARK    2  A    between atoms: C2_2  and  N2_7 
REMARK    3  A    between atoms: C3_3  and  C4_4 
REMARK       I    between atoms: N2_7  and  C5_9 
REMARK    4  A    between atoms: C5_9  and  C6_11 
REMARK    5  A    between atoms: C6_11  and  N3_12 
REMARK    6  A    between atoms: C6_11  and  C21_52 
REMARK       I    between atoms: N3_12  and  C7_14 
REMARK    7  A    between atoms: C7_14  and  C8_16 
REMARK    8  A    between atoms: C10_20  and  C11_21 
REMARK    9  A    between atoms: C17_34  and  N6_35 
REMARK   10  A    between atoms: N8_44  and  C20_45 
REMARK   11  A    between atoms: C20_45  and  O10_46 
REMARK   12  A    between atoms: N9_48  and  O11_50 
REMARK       I    between atoms: C21_52  and  N10_54 
REMARK   13  A    between atoms: N10_54  and  N11_56 
ROOT
HETATM    1  C8  UNL     1      18.057  38.265 103.059  1.00  0.00     0.281 C 
HETATM    2  C9  UNL     1      17.207  38.738 101.926  1.00  0.00     0.292 C 
HETATM    3  O4  UNL     1      16.328  39.603 102.167  1.00  0.00    -0.262 OA
HETATM    4  O5  UNL     1      17.324  38.282 100.629  1.00  0.00    -0.303 OA
HETATM    5  C10 UNL     1      18.485  38.118  99.881  1.00  0.00     0.245 C 
HETATM    6  C12 UNL     1      18.272  38.595  98.439  1.00  0.00     0.220 C 
HETATM    7  O7  UNL     1      19.470  38.883  97.777  1.00  0.00    -0.317 OA
HETATM    8  C13 UNL     1      20.012  40.151  97.768  1.00  0.00     0.276 C 
HETATM    9  O8  UNL     1      20.620  40.550  96.755  1.00  0.00    -0.263 OA
HETATM   10  C14 UNL     1      19.864  40.996  98.937  1.00  0.00     0.233 C 
HETATM   11  N5  UNL     1      20.009  42.390  98.723  1.00  0.00    -0.352 N 
ATOM     12  H5  UNL     1      20.429  42.717  97.853  1.00  0.00     0.162 HD
HETATM   13  C15 UNL     1      19.590  43.336  99.680  1.00  0.00     0.220 C 
HETATM   14  O9  UNL     1      20.292  44.371  99.904  1.00  0.00    -0.274 OA
HETATM   15  C16 UNL     1      18.351  43.179 100.447  1.00  0.00     0.137 C 
HETATM   16  C17 UNL     1      18.388  43.744 101.843  1.00  0.00     0.217 C 
HETATM   17  C18 UNL     1      18.970  42.799 102.862  1.00  0.00     0.267 C 
HETATM   18  N7  UNL     1      18.726  41.412 102.522  1.00  0.00    -0.057 N 
ATOM     19  H71 UNL     1      19.475  41.010 101.959  1.00  0.00     0.279 HD
ATOM     20  H72 UNL     1      17.969  41.303 101.847  1.00  0.00     0.279 HD
HETATM   21  C19 UNL     1      18.494  40.680 103.722  1.00  0.00     0.361 C 
HETATM   22  N8  UNL     1      18.861  39.278 103.633  1.00  0.00    -0.299 N 
ENDROOT
BRANCH   1  23
HETATM   23  C7  UNL     1      17.259  37.513 104.048  1.00  0.00     0.251 C 
HETATM   24  N3  UNL     1      17.714  37.141 105.334  1.00  0.00    -0.338 N 
ATOM     25  H3  UNL     1      18.654  37.398 105.636  1.00  0.00     0.163 HD
HETATM   26  O3  UNL     1      16.081  37.188 103.690  1.00  0.00    -0.271 OA
BRANCH  24  27
HETATM   27  C6  UNL     1      16.823  36.377 106.245  1.00  0.00     0.271 C 
BRANCH  27  28
HETATM   28  C5  UNL     1      17.260  36.639 107.638  1.00  0.00     0.250 C 
HETATM   29  N2  UNL     1      17.203  35.695 108.667  1.00  0.00    -0.354 N 
ATOM     30  H2  UNL     1      16.838  34.763 108.472  1.00  0.00     0.162 HD
HETATM   31  O2  UNL     1      17.720  37.787 107.960  1.00  0.00    -0.271 OA
BRANCH  29  32
HETATM   32  C2  UNL     1      17.658  36.016 110.011  1.00  0.00     0.088 C 
HETATM   33  C1  UNL     1      16.544  36.024 111.020  1.00  0.00     0.032 C 
BRANCH  32  34
HETATM   34  C3  UNL     1      18.816  35.127 110.442  1.00  0.00     0.124 C 
BRANCH  34  35
HETATM   35  C4  UNL     1      19.738  34.850 109.331  1.00  0.00     0.233 C 
HETATM   36  N1  UNL     1      19.424  33.823 108.407  1.00  0.00    -0.062 NA
HETATM   37  O1  UNL     1      20.782  35.512 109.203  1.00  0.00    -0.277 OA
ENDBRANCH  34  35
ENDBRANCH  32  34
ENDBRANCH  29  32
ENDBRANCH  27  28
BRANCH  27  38
HETATM   38  C21 UNL     1      17.009  34.931 105.945  1.00  0.00     0.267 C 
HETATM   39  O12 UNL     1      16.013  34.128 106.032  1.00  0.00    -0.269 OA
HETATM   40  N10 UNL     1      18.246  34.395 105.570  1.00  0.00    -0.274 N 
ATOM     41  H10 UNL     1      19.069  34.993 105.496  1.00  0.00     0.189 HD
BRANCH  40  42
HETATM   42  N11 UNL     1      18.336  33.001 105.295  1.00  0.00    -0.343 N 
ATOM     43 2H11 UNL     1      17.504  32.492 104.994  1.00  0.00     0.176 HD
ATOM     44 1H11 UNL     1      19.237  32.535 105.404  1.00  0.00     0.176 HD
ENDBRANCH  40  42
ENDBRANCH  27  38
ENDBRANCH  24  27
ENDBRANCH   1  23
BRANCH  22  45
HETATM   45  C20 UNL     1      20.128  38.947 104.155  1.00  0.00     0.241 C 
HETATM   46  N9  UNL     1      20.484  38.890 105.360  1.00  0.00    -0.233 N 
ATOM     47  H9  UNL     1      21.459  38.627 105.500  1.00  0.00     0.198 HD
BRANCH  45  48
HETATM   48  O10 UNL     1      21.137  38.634 103.209  1.00  0.00    -0.331 OA
ATOM     49  H10 UNL     1      21.796  39.302 103.059  1.00  0.00     0.221 HD
ENDBRANCH  45  48
BRANCH  46  50
HETATM   50  O11 UNL     1      19.805  39.113 106.483  1.00  0.00    -0.287 OA
ATOM     51  H11 UNL     1      19.739  38.605 107.283  1.00  0.00     0.244 HD
ENDBRANCH  46  50
ENDBRANCH  22  45
BRANCH   5  52
HETATM   52  C11 UNL     1      18.860  36.666  99.738  1.00  0.00     0.262 C 
HETATM   53  N4  UNL     1      20.150  36.296  99.277  1.00  0.00    -0.060 NA
HETATM   54  O6  UNL     1      18.052  35.750 100.020  1.00  0.00    -0.274 OA
ENDBRANCH   5  52
BRANCH  16  55
HETATM   55  N6  UNL     1      16.999  44.015 102.225  1.00  0.00    -0.073 N 
ATOM     56  H63 UNL     1      16.323  43.714 101.523  1.00  0.00     0.274 HD
ATOM     57  H62 UNL     1      16.667  43.423 102.986  1.00  0.00     0.274 HD
ATOM     58  H61 UNL     1      16.943  45.012 102.436  1.00  0.00     0.274 HD
ENDBRANCH  16  55
TORSDOF 13
ENDMDL
MODEL 4
REMARK VINA RESULT: -9.073514415      1.152      1.648
REMARK  13 active torsions:
REMARK  status: ('A' for Active; 'I' for Inactive)
REMARK    1  A    between atoms: C2_2  and  C3_3 
REMARK    2  A    between atoms: C2_2  and  N2_7 
REMARK    3  A    between atoms: C3_3  and  C4_4 
REMARK       I    between atoms: N2_7  and  C5_9 
REMARK    4  A    between atoms: C5_9  and  C6_11 
REMARK    5  A    between atoms: C6_11  and  N3_12 
REMARK    6  A    between atoms: C6_11  and  C21_52 
REMARK       I    between atoms: N3_12  and  C7_14 
REMARK    7  A    between atoms: C7_14  and  C8_16 
REMARK    8  A    between atoms: C10_20  and  C11_21 
REMARK    9  A    between atoms: C17_34  and  N6_35 
REMARK   10  A    between atoms: N8_44  and  C20_45 
REMARK   11  A    between atoms: C20_45  and  O10_46 
REMARK   12  A    between atoms: N9_48  and  O11_50 
REMARK       I    between atoms: C21_52  and  N10_54 
REMARK   13  A    between atoms: N10_54  and  N11_56 
ROOT
HETATM    1  C8  UNL     1      17.631  36.601 106.885  1.00  0.00     0.281 C 
HETATM    2  C9  UNL     1      16.664  37.437 107.658  1.00  0.00     0.292 C 
HETATM    3  O4  UNL     1      15.786  38.070 107.019  1.00  0.00    -0.262 OA
HETATM    4  O5  UNL     1      16.676  37.561 109.033  1.00  0.00    -0.303 OA
HETATM    5  C10 UNL     1      16.787  36.551 109.982  1.00  0.00     0.245 C 
HETATM    6  C12 UNL     1      15.827  36.800 111.152  1.00  0.00     0.220 C 
HETATM    7  O7  UNL     1      15.554  35.644 111.890  1.00  0.00    -0.317 OA
HETATM    8  C13 UNL     1      14.474  34.836 111.607  1.00  0.00     0.276 C 
HETATM    9  O8  UNL     1      13.875  34.262 112.539  1.00  0.00    -0.263 OA
HETATM   10  C14 UNL     1      14.053  34.668 110.229  1.00  0.00     0.233 C 
HETATM   11  N5  UNL     1      12.717  34.238 110.031  1.00  0.00    -0.352 N 
ATOM     12  H5  UNL     1      12.200  33.848 110.819  1.00  0.00     0.162 HD
HETATM   13  C15 UNL     1      12.084  34.332 108.775  1.00  0.00     0.220 C 
HETATM   14  O9  UNL     1      11.326  33.396 108.371  1.00  0.00    -0.274 OA
HETATM   15  C16 UNL     1      12.264  35.488 107.892  1.00  0.00     0.137 C 
HETATM   16  C17 UNL     1      12.211  35.180 106.418  1.00  0.00     0.217 C 
HETATM   17  C18 UNL     1      13.529  34.722 105.849  1.00  0.00     0.267 C 
HETATM   18  N7  UNL     1      14.657  35.305 106.548  1.00  0.00    -0.057 N 
ATOM     19  H71 UNL     1      14.975  34.727 107.325  1.00  0.00     0.279 HD
ATOM     20  H72 UNL     1      14.398  36.132 107.084  1.00  0.00     0.279 HD
HETATM   21  C19 UNL     1      15.692  35.568 105.605  1.00  0.00     0.361 C 
HETATM   22  N8  UNL     1      17.027  35.536 106.177  1.00  0.00    -0.299 N 
ENDROOT
BRANCH   1  23
HETATM   23  C7  UNL     1      18.514  37.440 106.050  1.00  0.00     0.251 C 
HETATM   24  N3  UNL     1      18.078  38.232 104.963  1.00  0.00    -0.338 N 
ATOM     25  H3  UNL     1      17.090  38.254 104.711  1.00  0.00     0.163 HD
HETATM   26  O3  UNL     1      19.750  37.430 106.353  1.00  0.00    -0.271 OA
BRANCH  24  27
HETATM   27  C6  UNL     1      19.060  39.033 104.187  1.00  0.00     0.271 C 
BRANCH  27  28
HETATM   28  C5  UNL     1      18.310  40.057 103.419  1.00  0.00     0.250 C 
HETATM   29  N2  UNL     1      18.664  41.408 103.365  1.00  0.00    -0.354 N 
ATOM     30  H2  UNL     1      19.480  41.734 103.882  1.00  0.00     0.162 HD
HETATM   31  O2  UNL     1      17.271  39.726 102.755  1.00  0.00    -0.271 OA
BRANCH  29  32
HETATM   32  C2  UNL     1      17.889  42.360 102.584  1.00  0.00     0.088 C 
HETATM   33  C1  UNL     1      16.747  42.959 103.355  1.00  0.00     0.032 C 
BRANCH  32  34
HETATM   34  C3  UNL     1      18.775  43.424 101.950  1.00  0.00     0.124 C 
BRANCH  34  35
HETATM   35  C4  UNL     1      19.825  43.881 102.870  1.00  0.00     0.233 C 
HETATM   36  N1  UNL     1      20.962  43.065 103.088  1.00  0.00    -0.062 NA
HETATM   37  O1  UNL     1      19.718  44.974 103.451  1.00  0.00    -0.277 OA
ENDBRANCH  34  35
ENDBRANCH  32  34
ENDBRANCH  29  32
ENDBRANCH  27  28
BRANCH  27  38
HETATM   38  C21 UNL     1      19.735  38.112 103.232  1.00  0.00     0.267 C 
HETATM   39  O12 UNL     1      21.014  38.110 103.143  1.00  0.00    -0.269 OA
HETATM   40  N10 UNL     1      19.024  37.235 102.406  1.00  0.00    -0.274 N 
ATOM     41  H10 UNL     1      18.005  37.206 102.434  1.00  0.00     0.189 HD
BRANCH  40  42
HETATM   42  N11 UNL     1      19.748  36.383 101.525  1.00  0.00    -0.343 N 
ATOM     43 2H11 UNL     1      20.541  35.847 101.879  1.00  0.00     0.176 HD
ATOM     44 1H11 UNL     1      19.458  36.323 100.548  1.00  0.00     0.176 HD
ENDBRANCH  40  42
ENDBRANCH  27  38
ENDBRANCH  24  27
ENDBRANCH   1  23
BRANCH  22  45
HETATM   45  C20 UNL     1      17.732  34.328 106.004  1.00  0.00     0.241 C 
HETATM   46  N9  UNL     1      18.355  33.927 104.988  1.00  0.00    -0.233 N 
ATOM     47  H9  UNL     1      18.793  33.012 105.094  1.00  0.00     0.198 HD
BRANCH  45  48
HETATM   48  O10 UNL     1      17.752  33.445 107.114  1.00  0.00    -0.331 OA
ATOM     49  H10 UNL     1      18.562  32.970 107.261  1.00  0.00     0.221 HD
ENDBRANCH  45  48
BRANCH  46  50
HETATM   50  O11 UNL     1      18.540  34.493 103.797  1.00  0.00    -0.287 OA
ATOM     51  H11 UNL     1      19.281  34.969 103.442  1.00  0.00     0.244 HD
ENDBRANCH  46  50
ENDBRANCH  22  45
BRANCH   5  52
HETATM   52  C11 UNL     1      18.150  36.527 110.620  1.00  0.00     0.262 C 
HETATM   53  N4  UNL     1      18.370  37.147 111.877  1.00  0.00    -0.060 NA
HETATM   54  O6  UNL     1      19.123  35.963 110.065  1.00  0.00    -0.274 OA
ENDBRANCH   5  52
BRANCH  16  55
HETATM   55  N6  UNL     1      11.839  36.425 105.741  1.00  0.00    -0.073 N 
ATOM     56  H63 UNL     1      12.268  36.527 104.821  1.00  0.00     0.274 HD
ATOM     57  H62 UNL     1      10.867  36.441 105.432  1.00  0.00     0.274 HD
ATOM     58  H61 UNL     1      12.070  37.187 106.379  1.00  0.00     0.274 HD
ENDBRANCH  16  55
TORSDOF 13
ENDMDL
MODEL 5
REMARK VINA RESULT: -9.055978284      3.648      6.024
REMARK  13 active torsions:
REMARK  status: ('A' for Active; 'I' for Inactive)
REMARK    1  A    between atoms: C2_2  and  C3_3 
REMARK    2  A    between atoms: C2_2  and  N2_7 
REMARK    3  A    between atoms: C3_3  and  C4_4 
REMARK       I    between atoms: N2_7  and  C5_9 
REMARK    4  A    between atoms: C5_9  and  C6_11 
REMARK    5  A    between atoms: C6_11  and  N3_12 
REMARK    6  A    between atoms: C6_11  and  C21_52 
REMARK       I    between atoms: N3_12  and  C7_14 
REMARK    7  A    between atoms: C7_14  and  C8_16 
REMARK    8  A    between atoms: C10_20  and  C11_21 
REMARK    9  A    between atoms: C17_34  and  N6_35 
REMARK   10  A    between atoms: N8_44  and  C20_45 
REMARK   11  A    between atoms: C20_45  and  O10_46 
REMARK   12  A    between atoms: N9_48  and  O11_50 
REMARK       I    between atoms: C21_52  and  N10_54 
REMARK   13  A    between atoms: N10_54  and  N11_56 
ROOT
HETATM    1  C8  UNL     1      17.877  38.429 101.871  1.00  0.00     0.281 C 
HETATM    2  C9  UNL     1      16.937  38.325 103.027  1.00  0.00     0.292 C 
HETATM    3  O4  UNL     1      15.704  38.284 102.785  1.00  0.00    -0.262 OA
HETATM    4  O5  UNL     1      17.337  38.274 104.347  1.00  0.00    -0.303 OA
HETATM    5  C10 UNL     1      18.342  37.494 104.907  1.00  0.00     0.245 C 
HETATM    6  C12 UNL     1      17.893  36.916 106.254  1.00  0.00     0.220 C 
HETATM    7  O7  UNL     1      18.636  35.796 106.643  1.00  0.00    -0.317 OA
HETATM    8  C13 UNL     1      18.238  34.513 106.334  1.00  0.00     0.276 C 
HETATM    9  O8  UNL     1      18.462  33.590 107.142  1.00  0.00    -0.263 OA
HETATM   10  C14 UNL     1      17.566  34.261 105.073  1.00  0.00     0.233 C 
HETATM   11  N5  UNL     1      16.786  33.080 105.006  1.00  0.00    -0.352 N 
ATOM     12  H5  UNL     1      16.910  32.363 105.720  1.00  0.00     0.162 HD
HETATM   13  C15 UNL     1      15.844  32.869 103.978  1.00  0.00     0.220 C 
HETATM   14  O9  UNL     1      15.716  31.717 103.457  1.00  0.00    -0.274 OA
HETATM   15  C16 UNL     1      14.984  33.942 103.471  1.00  0.00     0.137 C 
HETATM   16  C17 UNL     1      14.632  33.840 102.010  1.00  0.00     0.217 C 
HETATM   17  C18 UNL     1      15.670  34.435 101.094  1.00  0.00     0.267 C 
HETATM   18  N7  UNL     1      16.378  35.536 101.714  1.00  0.00    -0.057 N 
ATOM     19  H71 UNL     1      17.218  35.233 102.207  1.00  0.00     0.279 HD
ATOM     20  H72 UNL     1      15.876  35.921 102.515  1.00  0.00     0.279 HD
HETATM   21  C19 UNL     1      16.654  36.520 100.721  1.00  0.00     0.361 C 
HETATM   22  N8  UNL     1      17.836  37.316 100.998  1.00  0.00    -0.299 N 
ENDROOT
BRANCH   1  23
HETATM   23  C7  UNL     1      17.734  39.727 101.181  1.00  0.00     0.251 C 
HETATM   24  N3  UNL     1      17.980  40.985 101.777  1.00  0.00    -0.338 N 
ATOM     25  H3  UNL     1      18.283  41.039 102.749  1.00  0.00     0.163 HD
HETATM   26  O3  UNL     1      17.362  39.679  99.965  1.00  0.00    -0.271 OA
BRANCH  24  27
HETATM   27  C6  UNL     1      17.796  42.229 100.986  1.00  0.00     0.271 C 
BRANCH  27  28
HETATM   28  C5  UNL     1      18.994  42.408 100.129  1.00  0.00     0.250 C 
HETATM   29  N2  UNL     1      19.155  41.814  98.874  1.00  0.00    -0.354 N 
ATOM     30  H2  UNL     1      18.418  41.212  98.507  1.00  0.00     0.162 HD
HETATM   31  O2  UNL     1      19.962  43.141 100.527  1.00  0.00    -0.271 OA
BRANCH  29  32
HETATM   32  C2  UNL     1      20.353  42.040  98.081  1.00  0.00     0.088 C 
HETATM   33  C1  UNL     1      21.014  40.764  97.643  1.00  0.00     0.032 C 
BRANCH  32  34
HETATM   34  C3  UNL     1      20.088  42.981  96.913  1.00  0.00     0.124 C 
BRANCH  34  35
HETATM   35  C4  UNL     1      20.902  44.201  96.997  1.00  0.00     0.233 C 
HETATM   36  N1  UNL     1      21.803  44.509  95.947  1.00  0.00    -0.062 NA
HETATM   37  O1  UNL     1      20.802  44.955  97.979  1.00  0.00    -0.277 OA
ENDBRANCH  34  35
ENDBRANCH  32  34
ENDBRANCH  29  32
ENDBRANCH  27  28
BRANCH  27  38
HETATM   38  C21 UNL     1      17.716  43.364 101.946  1.00  0.00     0.267 C 
HETATM   39  O12 UNL     1      17.727  43.135 103.208  1.00  0.00    -0.269 OA
HETATM   40  N10 UNL     1      17.624  44.696 101.528  1.00  0.00    -0.274 N 
ATOM     41  H10 UNL     1      17.603  44.928 100.535  1.00  0.00     0.189 HD
BRANCH  40  42
HETATM   42  N11 UNL     1      17.558  45.722 102.513  1.00  0.00    -0.343 N 
ATOM     43 2H11 UNL     1      18.319  46.398 102.587  1.00  0.00     0.176 HD
ATOM     44 1H11 UNL     1      16.747  45.762 103.129  1.00  0.00     0.176 HD
ENDBRANCH  40  42
ENDBRANCH  27  38
ENDBRANCH  24  27
ENDBRANCH   1  23
BRANCH  22  45
HETATM   45  C20 UNL     1      19.012  36.906 100.339  1.00  0.00     0.241 C 
HETATM   46  N9  UNL     1      19.305  37.023  99.122  1.00  0.00    -0.233 N 
ATOM     47  H9  UNL     1      20.220  36.649  98.869  1.00  0.00     0.198 HD
BRANCH  45  48
HETATM   48  O10 UNL     1      20.001  36.283 101.143  1.00  0.00    -0.331 OA
ATOM     49  H10 UNL     1      20.664  36.854 101.514  1.00  0.00     0.221 HD
ENDBRANCH  45  48
BRANCH  46  50
HETATM   50  O11 UNL     1      18.626  37.552  98.106  1.00  0.00    -0.287 OA
ATOM     51  H11 UNL     1      18.618  38.433  97.753  1.00  0.00     0.244 HD
ENDBRANCH  46  50
ENDBRANCH  22  45
BRANCH   5  52
HETATM   52  C11 UNL     1      19.564  38.308 105.243  1.00  0.00     0.262 C 
HETATM   53  N4  UNL     1      20.708  38.274 104.405  1.00  0.00    -0.060 NA
HETATM   54  O6  UNL     1      19.606  39.034 106.265  1.00  0.00    -0.274 OA
ENDBRANCH   5  52
BRANCH  16  55
HETATM   55  N6  UNL     1      13.387  34.592 101.824  1.00  0.00    -0.073 N 
ATOM     56  H63 UNL     1      12.594  34.002 101.573  1.00  0.00     0.274 HD
ATOM     57  H62 UNL     1      13.004  34.959 102.695  1.00  0.00     0.274 HD
ATOM     58  H61 UNL     1      13.583  35.317 101.133  1.00  0.00     0.274 HD
ENDBRANCH  16  55
TORSDOF 13
ENDMDL
