MODEL 1
REMARK VINA RESULT: -9.197397156      0.000      0.000
REMARK  15 active torsions:
REMARK  status: ('A' for Active; 'I' for Inactive)
REMARK    1  A    between atoms: N1_1  and  N2_4 
REMARK    2  A    between atoms: N2_4  and  N3_6 
REMARK    3  A    between atoms: N3_6  and  C1_8 
REMARK    4  A    between atoms: C4_14  and  C5_15 
REMARK    5  A    between atoms: C5_15  and  N5_16 
REMARK    6  A    between atoms: N5_16  and  C6_18 
REMARK    7  A    between atoms: C9_26  and  N8_27 
REMARK    8  A    between atoms: N10_33  and  N11_34 
REMARK    9  A    between atoms: N12_39  and  C12_40 
REMARK   10  A    between atoms: N14_44  and  C14_45 
REMARK   11  A    between atoms: C14_45  and  C15_46 
REMARK   12  A    between atoms: C15_46  and  N15_47 
REMARK       I    between atoms: N15_47  and  C16_49 
REMARK   13  A    between atoms: C17_52  and  S1_53 
REMARK   14  A    between atoms: S1_53  and  C18_56 
REMARK   15  A    between atoms: N18_58  and  N19_60 
ROOT
HETATM    1  C1  UNL     1      16.162  33.890 100.842  1.00  0.00     0.126 C 
HETATM    2  C2  UNL     1      15.312  32.649 100.706  1.00  0.00     0.310 C 
HETATM    3  N4  UNL     1      14.144  32.964 101.567  1.00  0.00    -0.066 N 
ATOM      4  H41 UNL     1      13.338  32.369 101.375  1.00  0.00     0.277 HD
ATOM      5  H42 UNL     1      13.710  33.857 101.336  1.00  0.00     0.277 HD
HETATM    6  C3  UNL     1      14.570  32.892 102.911  1.00  0.00     0.263 C 
HETATM    7  C4  UNL     1      15.652  33.940 103.217  1.00  0.00     0.155 C 
HETATM    8  N12 UNL     1      16.026  34.663 102.034  1.00  0.00    -0.319 N 
ENDROOT
BRANCH   7   9
HETATM    9  C5  UNL     1      16.794  33.119 103.802  1.00  0.00     0.090 C 
BRANCH   9  10
HETATM   10  N5  UNL     1      17.664  33.962 104.516  1.00  0.00    -0.349 N 
ATOM     11  H5  UNL     1      18.168  34.614 103.914  1.00  0.00     0.166 HD
BRANCH  10  12
HETATM   12  C6  UNL     1      17.960  34.091 105.732  1.00  0.00     0.177 A 
HETATM   13  N6  UNL     1      17.660  35.145 106.499  1.00  0.00    -0.330 N 
HETATM   14  C7  UNL     1      18.026  35.187 107.794  1.00  0.00     0.150 A 
ATOM     15  H6  UNL     1      17.147  35.930 106.097  1.00  0.00     0.168 HD
HETATM   16  C8  UNL     1      17.722  36.265 108.600  1.00  0.00     0.290 A 
HETATM   17  C10 UNL     1      18.721  34.162 108.395  1.00  0.00     0.177 A 
HETATM   18  O1  UNL     1      17.085  37.216 108.071  1.00  0.00    -0.265 OA
HETATM   19  N7  UNL     1      18.058  36.365 109.898  1.00  0.00    -0.154 N 
HETATM   20  C9  UNL     1      18.743  35.324 110.438  1.00  0.00     0.680 A 
ATOM     21  H7  UNL     1      17.811  37.185 110.452  1.00  0.00     0.187 HD
HETATM   22  N9  UNL     1      19.064  34.247 109.690  1.00  0.00    -0.172 N 
ATOM     23  H9  UNL     1      19.579  33.478 110.120  1.00  0.00     0.186 HD
HETATM   24  N10 UNL     1      19.026  33.095 107.624  1.00  0.00    -0.204 N 
HETATM   25  C11 UNL     1      18.667  33.044 106.341  1.00  0.00     0.312 A 
HETATM   26  O2  UNL     1      18.976  32.016 105.644  1.00  0.00    -0.262 OA
BRANCH  20  27
HETATM   27  N8  UNL     1      19.077  35.401 111.686  1.00  0.00    -0.234 N 
ATOM     28  H82 UNL     1      19.590  36.205 112.049  1.00  0.00     0.174 HD
ATOM     29  H81 UNL     1      18.810  34.631 112.300  1.00  0.00     0.174 HD
ENDBRANCH  20  27
BRANCH  24  30
HETATM   30  N11 UNL     1      19.735  32.045 108.216  1.00  0.00    -0.334 N 
ATOM     31 2H11 UNL     1      20.447  32.224 108.923  1.00  0.00     0.177 HD
ATOM     32 1H11 UNL     1      19.513  31.094 107.918  1.00  0.00     0.177 HD
ENDBRANCH  24  30
ENDBRANCH  10  12
ENDBRANCH   9  10
ENDBRANCH   7   9
BRANCH   8  33
HETATM   33  C12 UNL     1      16.168  36.051 101.969  1.00  0.00     0.094 A 
HETATM   34  C13 UNL     1      14.980  36.855 101.844  1.00  0.00     0.140 A 
HETATM   35  N13 UNL     1      15.376  38.110 101.731  1.00  0.00    -0.306 N 
HETATM   36  N14 UNL     1      16.706  38.171 101.773  1.00  0.00    -0.278 N 
ATOM     37  H13 UNL     1      14.755  38.912 101.626  1.00  0.00     0.186 HD
HETATM   38  C17 UNL     1      17.225  36.915 101.925  1.00  0.00     0.181 A 
BRANCH  36  39
HETATM   39  C14 UNL     1      17.466  39.383 101.596  1.00  0.00     0.170 C 
BRANCH  39  40
HETATM   40  C15 UNL     1      17.464  40.213 102.878  1.00  0.00     0.145 C 
BRANCH  40  41
HETATM   41  N15 UNL     1      18.766  40.680 103.254  1.00  0.00    -0.344 N 
HETATM   42  C16 UNL     1      19.407  41.846 102.774  1.00  0.00     0.328 C 
HETATM   43  N16 UNL     1      20.707  42.215 103.221  1.00  0.00    -0.040 NA
HETATM   44  O3  UNL     1      18.829  42.594 101.928  1.00  0.00    -0.251 OA
ATOM     45  H15 UNL     1      19.280  40.117 103.933  1.00  0.00     0.163 HD
ENDBRANCH  40  41
ENDBRANCH  39  40
ENDBRANCH  36  39
BRANCH  38  46
HETATM   46  S1  UNL     1      18.895  36.570 102.094  1.00  0.00     0.256 S 
HETATM   47  O4  UNL     1      19.725  36.993 100.875  1.00  0.00    -0.213 OA
HETATM   48  O5  UNL     1      19.233  35.119 102.282  1.00  0.00    -0.213 OA
BRANCH  46  49
HETATM   49  C18 UNL     1      19.651  37.402 103.441  1.00  0.00     0.238 C 
HETATM   50  N17 UNL     1      20.841  38.160 103.316  1.00  0.00    -0.068 NA
HETATM   51  N18 UNL     1      19.150  37.388 104.652  1.00  0.00    -0.217 N 
ATOM     52  H18 UNL     1      18.285  36.870 104.808  1.00  0.00     0.195 HD
BRANCH  51  53
HETATM   53  N19 UNL     1      19.728  38.037 105.734  1.00  0.00    -0.037 N 
HETATM   54  O6  UNL     1      20.700  37.522 106.361  1.00  0.00    -0.516 OA
HETATM   55  O7  UNL     1      19.307  39.252 106.200  1.00  0.00    -0.516 OA
ENDBRANCH  51  53
ENDBRANCH  46  49
ENDBRANCH  38  46
ENDBRANCH   8  33
BRANCH   1  56
HETATM   56  N3  UNL     1      16.934  34.230  99.918  1.00  0.00    -0.273 N 
ATOM     57  H3  UNL     1      16.615  34.882  99.201  1.00  0.00     0.190 HD
BRANCH  56  58
HETATM   58  N2  UNL     1      18.230  33.715  99.868  1.00  0.00    -0.248 N 
ATOM     59  H2  UNL     1      18.431  32.846 100.362  1.00  0.00     0.207 HD
BRANCH  58  60
HETATM   60  N1  UNL     1      19.179  34.295  99.225  1.00  0.00    -0.331 N 
ATOM     61  H12 UNL     1      18.942  35.115  98.668  1.00  0.00     0.178 HD
ATOM     62  H11 UNL     1      20.144  33.964  99.254  1.00  0.00     0.178 HD
ENDBRANCH  58  60
ENDBRANCH  56  58
ENDBRANCH   1  56
TORSDOF 15
ENDMDL
MODEL 2
REMARK VINA RESULT: -9.144236771      1.311      1.712
REMARK  15 active torsions:
REMARK  status: ('A' for Active; 'I' for Inactive)
REMARK    1  A    between atoms: N1_1  and  N2_4 
REMARK    2  A    between atoms: N2_4  and  N3_6 
REMARK    3  A    between atoms: N3_6  and  C1_8 
REMARK    4  A    between atoms: C4_14  and  C5_15 
REMARK    5  A    between atoms: C5_15  and  N5_16 
REMARK    6  A    between atoms: N5_16  and  C6_18 
REMARK    7  A    between atoms: C9_26  and  N8_27 
REMARK    8  A    between atoms: N10_33  and  N11_34 
REMARK    9  A    between atoms: N12_39  and  C12_40 
REMARK   10  A    between atoms: N14_44  and  C14_45 
REMARK   11  A    between atoms: C14_45  and  C15_46 
REMARK   12  A    between atoms: C15_46  and  N15_47 
REMARK       I    between atoms: N15_47  and  C16_49 
REMARK   13  A    between atoms: C17_52  and  S1_53 
REMARK   14  A    between atoms: S1_53  and  C18_56 
REMARK   15  A    between atoms: N18_58  and  N19_60 
ROOT
HETATM    1  C1  UNL     1      16.168  33.866 100.865  1.00  0.00     0.126 C 
HETATM    2  C2  UNL     1      15.395  32.582 100.678  1.00  0.00     0.310 C 
HETATM    3  N4  UNL     1      14.208  32.792 101.545  1.00  0.00    -0.066 N 
ATOM      4  H41 UNL     1      13.440  32.158 101.326  1.00  0.00     0.277 HD
ATOM      5  H42 UNL     1      13.721  33.666 101.346  1.00  0.00     0.277 HD
HETATM    6  C3  UNL     1      14.635  32.695 102.887  1.00  0.00     0.263 C 
HETATM    7  C4  UNL     1      15.651  33.794 103.237  1.00  0.00     0.155 C 
HETATM    8  N12 UNL     1      15.983  34.583 102.085  1.00  0.00    -0.319 N 
ENDROOT
BRANCH   7   9
HETATM    9  C5  UNL     1      16.840  33.022 103.796  1.00  0.00     0.090 C 
BRANCH   9  10
HETATM   10  N5  UNL     1      17.678  33.896 104.509  1.00  0.00    -0.349 N 
ATOM     11  H5  UNL     1      18.155  34.569 103.908  1.00  0.00     0.166 HD
BRANCH  10  12
HETATM   12  C6  UNL     1      17.971  34.035 105.725  1.00  0.00     0.177 A 
HETATM   13  N6  UNL     1      17.645  35.083 106.490  1.00  0.00    -0.330 N 
HETATM   14  C7  UNL     1      18.010  35.136 107.785  1.00  0.00     0.150 A 
ATOM     15  H6  UNL     1      17.112  35.853 106.087  1.00  0.00     0.168 HD
HETATM   16  C8  UNL     1      17.680  36.207 108.590  1.00  0.00     0.290 A 
HETATM   17  C10 UNL     1      18.731  34.129 108.387  1.00  0.00     0.177 A 
HETATM   18  O1  UNL     1      17.020  37.141 108.060  1.00  0.00    -0.265 OA
HETATM   19  N7  UNL     1      18.015  36.317 109.888  1.00  0.00    -0.154 N 
HETATM   20  C9  UNL     1      18.725  35.295 110.429  1.00  0.00     0.680 A 
ATOM     21  H7  UNL     1      17.747  37.132 110.441  1.00  0.00     0.187 HD
HETATM   22  N9  UNL     1      19.072  34.224 109.682  1.00  0.00    -0.172 N 
ATOM     23  H9  UNL     1      19.607  33.470 110.113  1.00  0.00     0.186 HD
HETATM   24  N10 UNL     1      19.062  33.069 107.618  1.00  0.00    -0.204 N 
HETATM   25  C11 UNL     1      18.705  33.007 106.336  1.00  0.00     0.312 A 
HETATM   26  O2  UNL     1      19.038  31.986 105.640  1.00  0.00    -0.262 OA
BRANCH  20  27
HETATM   27  N8  UNL     1      19.058  35.382 111.676  1.00  0.00    -0.234 N 
ATOM     28  H82 UNL     1      19.920  35.846 111.964  1.00  0.00     0.174 HD
ATOM     29  H81 UNL     1      18.430  34.972 112.368  1.00  0.00     0.174 HD
ENDBRANCH  20  27
BRANCH  24  30
HETATM   30  N11 UNL     1      19.798  32.037 108.211  1.00  0.00    -0.334 N 
ATOM     31 2H11 UNL     1      20.096  32.097 109.185  1.00  0.00     0.177 HD
ATOM     32 1H11 UNL     1      20.022  31.223 107.639  1.00  0.00     0.177 HD
ENDBRANCH  24  30
ENDBRANCH  10  12
ENDBRANCH   9  10
ENDBRANCH   7   9
BRANCH   8  33
HETATM   33  C12 UNL     1      16.041  35.979 102.073  1.00  0.00     0.094 A 
HETATM   34  C13 UNL     1      14.804  36.714 102.027  1.00  0.00     0.140 A 
HETATM   35  N13 UNL     1      15.121  37.994 101.952  1.00  0.00    -0.306 N 
HETATM   36  N14 UNL     1      16.446  38.133 101.946  1.00  0.00    -0.278 N 
ATOM     37  H13 UNL     1      14.451  38.761 101.905  1.00  0.00     0.186 HD
HETATM   38  C17 UNL     1      17.043  36.905 102.025  1.00  0.00     0.181 A 
BRANCH  36  39
HETATM   39  C14 UNL     1      17.126  39.395 101.792  1.00  0.00     0.170 C 
BRANCH  39  40
HETATM   40  C15 UNL     1      16.587  40.423 102.784  1.00  0.00     0.145 C 
BRANCH  40  41
HETATM   41  N15 UNL     1      15.555  41.254 102.236  1.00  0.00    -0.344 N 
HETATM   42  C16 UNL     1      14.177  41.194 102.553  1.00  0.00     0.328 C 
HETATM   43  N16 UNL     1      13.238  42.074 101.945  1.00  0.00    -0.040 NA
HETATM   44  O3  UNL     1      13.748  40.346 103.393  1.00  0.00    -0.251 OA
ATOM     45  H15 UNL     1      15.841  41.955 101.552  1.00  0.00     0.163 HD
ENDBRANCH  40  41
ENDBRANCH  39  40
ENDBRANCH  36  39
BRANCH  38  46
HETATM   46  S1  UNL     1      18.736  36.655 102.117  1.00  0.00     0.256 S 
HETATM   47  O4  UNL     1      19.490  37.183 100.890  1.00  0.00    -0.213 OA
HETATM   48  O5  UNL     1      19.166  35.220 102.222  1.00  0.00    -0.213 OA
BRANCH  46  49
HETATM   49  C18 UNL     1      19.494  37.468 103.473  1.00  0.00     0.238 C 
HETATM   50  N17 UNL     1      20.663  38.259 103.350  1.00  0.00    -0.068 NA
HETATM   51  N18 UNL     1      19.014  37.409 104.692  1.00  0.00    -0.217 N 
ATOM     52  H18 UNL     1      18.164  36.866 104.847  1.00  0.00     0.195 HD
BRANCH  51  53
HETATM   53  N19 UNL     1      19.594  38.043 105.782  1.00  0.00    -0.037 N 
HETATM   54  O6  UNL     1      20.637  37.577 106.329  1.00  0.00    -0.516 OA
HETATM   55  O7  UNL     1      19.101  39.190 106.340  1.00  0.00    -0.516 OA
ENDBRANCH  51  53
ENDBRANCH  46  49
ENDBRANCH  38  46
ENDBRANCH   8  33
BRANCH   1  56
HETATM   56  N3  UNL     1      16.919  34.287  99.957  1.00  0.00    -0.273 N 
ATOM     57  H3  UNL     1      16.584  34.994  99.304  1.00  0.00     0.190 HD
BRANCH  56  58
HETATM   58  N2  UNL     1      18.217  33.786  99.839  1.00  0.00    -0.248 N 
ATOM     59  H2  UNL     1      18.426  32.869 100.235  1.00  0.00     0.207 HD
BRANCH  58  60
HETATM   60  N1  UNL     1      19.158  34.436  99.253  1.00  0.00    -0.331 N 
ATOM     61  H12 UNL     1      19.817  34.947  99.839  1.00  0.00     0.178 HD
ATOM     62  H11 UNL     1      19.262  34.454  98.238  1.00  0.00     0.178 HD
ENDBRANCH  58  60
ENDBRANCH  56  58
ENDBRANCH   1  56
TORSDOF 15
ENDMDL
MODEL 3
REMARK VINA RESULT: -8.951152737      1.352      1.505
REMARK  15 active torsions:
REMARK  status: ('A' for Active; 'I' for Inactive)
REMARK    1  A    between atoms: N1_1  and  N2_4 
REMARK    2  A    between atoms: N2_4  and  N3_6 
REMARK    3  A    between atoms: N3_6  and  C1_8 
REMARK    4  A    between atoms: C4_14  and  C5_15 
REMARK    5  A    between atoms: C5_15  and  N5_16 
REMARK    6  A    between atoms: N5_16  and  C6_18 
REMARK    7  A    between atoms: C9_26  and  N8_27 
REMARK    8  A    between atoms: N10_33  and  N11_34 
REMARK    9  A    between atoms: N12_39  and  C12_40 
REMARK   10  A    between atoms: N14_44  and  C14_45 
REMARK   11  A    between atoms: C14_45  and  C15_46 
REMARK   12  A    between atoms: C15_46  and  N15_47 
REMARK       I    between atoms: N15_47  and  C16_49 
REMARK   13  A    between atoms: C17_52  and  S1_53 
REMARK   14  A    between atoms: S1_53  and  C18_56 
REMARK   15  A    between atoms: N18_58  and  N19_60 
ROOT
HETATM    1  C1  UNL     1      16.161  33.910 100.798  1.00  0.00     0.126 C 
HETATM    2  C2  UNL     1      15.300  32.677 100.664  1.00  0.00     0.310 C 
HETATM    3  N4  UNL     1      14.129  33.008 101.514  1.00  0.00    -0.066 N 
ATOM      4  H41 UNL     1      13.319  32.420 101.319  1.00  0.00     0.277 HD
ATOM      5  H42 UNL     1      13.705  33.904 101.274  1.00  0.00     0.277 HD
HETATM    6  C3  UNL     1      14.544  32.941 102.862  1.00  0.00     0.263 C 
HETATM    7  C4  UNL     1      15.634  33.981 103.168  1.00  0.00     0.155 C 
HETATM    8  N12 UNL     1      16.024  34.692 101.984  1.00  0.00    -0.319 N 
ENDROOT
BRANCH   7   9
HETATM    9  C5  UNL     1      16.764  33.153 103.768  1.00  0.00     0.090 C 
BRANCH   9  10
HETATM   10  N5  UNL     1      17.631  33.992 104.491  1.00  0.00    -0.349 N 
ATOM     11  H5  UNL     1      18.131  34.652 103.896  1.00  0.00     0.166 HD
BRANCH  10  12
HETATM   12  C6  UNL     1      17.926  34.108 105.708  1.00  0.00     0.177 A 
HETATM   13  N6  UNL     1      17.609  35.146 106.491  1.00  0.00    -0.330 N 
HETATM   14  C7  UNL     1      17.976  35.175 107.786  1.00  0.00     0.150 A 
ATOM     15  H6  UNL     1      17.080  35.926 106.101  1.00  0.00     0.168 HD
HETATM   16  C8  UNL     1      17.655  36.235 108.609  1.00  0.00     0.290 A 
HETATM   17  C10 UNL     1      18.692  34.154 108.370  1.00  0.00     0.177 A 
HETATM   18  O1  UNL     1      16.999  37.182 108.095  1.00  0.00    -0.265 OA
HETATM   19  N7  UNL     1      17.992  36.322 109.907  1.00  0.00    -0.154 N 
HETATM   20  C9  UNL     1      18.697  35.286 110.430  1.00  0.00     0.680 A 
ATOM     21  H7  UNL     1      17.731  37.129 110.474  1.00  0.00     0.187 HD
HETATM   22  N9  UNL     1      19.036  34.226 109.666  1.00  0.00    -0.172 N 
ATOM     23  H9  UNL     1      19.566  33.461 110.084  1.00  0.00     0.186 HD
HETATM   24  N10 UNL     1      19.015  33.105 107.583  1.00  0.00    -0.204 N 
HETATM   25  C11 UNL     1      18.655  33.066 106.301  1.00  0.00     0.312 A 
HETATM   26  O2  UNL     1      18.980  32.054 105.588  1.00  0.00    -0.262 OA
BRANCH  20  27
HETATM   27  N8  UNL     1      19.032  35.351 111.679  1.00  0.00    -0.234 N 
ATOM     28  H82 UNL     1      18.405  35.023 112.414  1.00  0.00     0.174 HD
ATOM     29  H81 UNL     1      19.947  35.739 111.908  1.00  0.00     0.174 HD
ENDBRANCH  20  27
BRANCH  24  30
HETATM   30  N11 UNL     1      19.744  32.059 108.158  1.00  0.00    -0.334 N 
ATOM     31 2H11 UNL     1      19.307  31.410 108.813  1.00  0.00     0.177 HD
ATOM     32 1H11 UNL     1      20.726  31.965 107.898  1.00  0.00     0.177 HD
ENDBRANCH  24  30
ENDBRANCH  10  12
ENDBRANCH   9  10
ENDBRANCH   7   9
BRANCH   8  33
HETATM   33  C12 UNL     1      16.179  36.079 101.911  1.00  0.00     0.094 A 
HETATM   34  C13 UNL     1      15.002  36.892 101.750  1.00  0.00     0.140 A 
HETATM   35  N13 UNL     1      15.411  38.142 101.635  1.00  0.00    -0.306 N 
HETATM   36  N14 UNL     1      16.740  38.192 101.709  1.00  0.00    -0.278 N 
ATOM     37  H13 UNL     1      14.800  38.949 101.509  1.00  0.00     0.186 HD
HETATM   38  C17 UNL     1      17.244  36.933 101.885  1.00  0.00     0.181 A 
BRANCH  36  39
HETATM   39  C14 UNL     1      17.515  39.396 101.541  1.00  0.00     0.170 C 
BRANCH  39  40
HETATM   40  C15 UNL     1      17.767  39.673 100.060  1.00  0.00     0.145 C 
BRANCH  40  41
HETATM   41  N15 UNL     1      19.157  39.670  99.711  1.00  0.00    -0.344 N 
HETATM   42  C16 UNL     1      19.697  39.911  98.426  1.00  0.00     0.328 C 
HETATM   43  N16 UNL     1      21.101  39.885  98.194  1.00  0.00    -0.040 NA
HETATM   44  O3  UNL     1      18.932  40.158  97.445  1.00  0.00    -0.251 OA
ATOM     45  H15 UNL     1      19.822  39.476 100.461  1.00  0.00     0.163 HD
ENDBRANCH  40  41
ENDBRANCH  39  40
ENDBRANCH  36  39
BRANCH  38  46
HETATM   46  S1  UNL     1      18.907  36.576 102.098  1.00  0.00     0.256 S 
HETATM   47  O4  UNL     1      19.772  36.995 100.902  1.00  0.00    -0.213 OA
HETATM   48  O5  UNL     1      19.229  35.122 102.291  1.00  0.00    -0.213 OA
BRANCH  46  49
HETATM   49  C18 UNL     1      19.633  37.399 103.466  1.00  0.00     0.238 C 
HETATM   50  N17 UNL     1      20.797  38.200 103.361  1.00  0.00    -0.068 NA
HETATM   51  N18 UNL     1      19.130  37.339 104.675  1.00  0.00    -0.217 N 
ATOM     52  H18 UNL     1      18.283  36.789 104.817  1.00  0.00     0.195 HD
BRANCH  51  53
HETATM   53  N19 UNL     1      19.685  37.981 105.774  1.00  0.00    -0.037 N 
HETATM   54  O6  UNL     1      20.689  37.496 106.376  1.00  0.00    -0.516 OA
HETATM   55  O7  UNL     1      19.207  39.156 106.284  1.00  0.00    -0.516 OA
ENDBRANCH  51  53
ENDBRANCH  46  49
ENDBRANCH  38  46
ENDBRANCH   8  33
BRANCH   1  56
HETATM   56  N3  UNL     1      16.943  34.236  99.877  1.00  0.00    -0.273 N 
ATOM     57  H3  UNL     1      16.627  34.866  99.139  1.00  0.00     0.190 HD
BRANCH  56  58
HETATM   58  N2  UNL     1      18.246  33.738  99.861  1.00  0.00    -0.248 N 
ATOM     59  H2  UNL     1      18.446  32.871 100.361  1.00  0.00     0.207 HD
BRANCH  58  60
HETATM   60  N1  UNL     1      19.204  34.329  99.243  1.00  0.00    -0.331 N 
ATOM     61  H12 UNL     1      19.466  33.974  98.324  1.00  0.00     0.178 HD
ATOM     62  H11 UNL     1      19.702  35.129  99.637  1.00  0.00     0.178 HD
ENDBRANCH  58  60
ENDBRANCH  56  58
ENDBRANCH   1  56
TORSDOF 15
ENDMDL
MODEL 4
REMARK VINA RESULT: -8.867732251      2.601      4.657
REMARK  15 active torsions:
REMARK  status: ('A' for Active; 'I' for Inactive)
REMARK    1  A    between atoms: N1_1  and  N2_4 
REMARK    2  A    between atoms: N2_4  and  N3_6 
REMARK    3  A    between atoms: N3_6  and  C1_8 
REMARK    4  A    between atoms: C4_14  and  C5_15 
REMARK    5  A    between atoms: C5_15  and  N5_16 
REMARK    6  A    between atoms: N5_16  and  C6_18 
REMARK    7  A    between atoms: C9_26  and  N8_27 
REMARK    8  A    between atoms: N10_33  and  N11_34 
REMARK    9  A    between atoms: N12_39  and  C12_40 
REMARK   10  A    between atoms: N14_44  and  C14_45 
REMARK   11  A    between atoms: C14_45  and  C15_46 
REMARK   12  A    between atoms: C15_46  and  N15_47 
REMARK       I    between atoms: N15_47  and  C16_49 
REMARK   13  A    between atoms: C17_52  and  S1_53 
REMARK   14  A    between atoms: S1_53  and  C18_56 
REMARK   15  A    between atoms: N18_58  and  N19_60 
ROOT
HETATM    1  C1  UNL     1      15.543  39.309 102.062  1.00  0.00     0.126 C 
HETATM    2  C2  UNL     1      14.160  38.713 102.178  1.00  0.00     0.310 C 
HETATM    3  N4  UNL     1      13.670  39.283 103.459  1.00  0.00    -0.066 N 
ATOM      4  H41 UNL     1      12.658  39.222 103.558  1.00  0.00     0.277 HD
ATOM      5  H42 UNL     1      13.748  40.299 103.496  1.00  0.00     0.277 HD
HETATM    6  C3  UNL     1      14.365  38.641 104.507  1.00  0.00     0.263 C 
HETATM    7  C4  UNL     1      15.875  38.918 104.436  1.00  0.00     0.155 C 
HETATM    8  N12 UNL     1      16.211  39.680 103.267  1.00  0.00    -0.319 N 
ENDROOT
BRANCH   7   9
HETATM    9  C5  UNL     1      16.497  37.527 104.443  1.00  0.00     0.090 C 
BRANCH   9  10
HETATM   10  N5  UNL     1      17.224  37.341 105.632  1.00  0.00    -0.349 N 
ATOM     11  H5  UNL     1      17.420  38.215 106.119  1.00  0.00     0.166 HD
BRANCH  10  12
HETATM   12  C6  UNL     1      17.686  36.334 106.230  1.00  0.00     0.177 A 
HETATM   13  N6  UNL     1      17.935  35.144 105.673  1.00  0.00    -0.330 N 
HETATM   14  C7  UNL     1      18.429  34.126 106.403  1.00  0.00     0.150 A 
ATOM     15  H6  UNL     1      17.747  35.004 104.680  1.00  0.00     0.168 HD
HETATM   16  C8  UNL     1      18.694  32.892 105.844  1.00  0.00     0.290 A 
HETATM   17  C10 UNL     1      18.701  34.251 107.747  1.00  0.00     0.177 A 
HETATM   18  O1  UNL     1      18.452  32.756 104.615  1.00  0.00    -0.265 OA
HETATM   19  N7  UNL     1      19.187  31.840 106.521  1.00  0.00    -0.154 N 
HETATM   20  C9  UNL     1      19.437  32.020 107.842  1.00  0.00     0.680 A 
ATOM     21  H7  UNL     1      19.365  30.947 106.061  1.00  0.00     0.187 HD
HETATM   22  N9  UNL     1      19.194  33.209 108.435  1.00  0.00    -0.172 N 
ATOM     23  H9  UNL     1      19.391  33.318 109.430  1.00  0.00     0.186 HD
HETATM   24  N10 UNL     1      18.451  35.452 108.313  1.00  0.00    -0.204 N 
HETATM   25  C11 UNL     1      17.963  36.465 107.599  1.00  0.00     0.312 A 
HETATM   26  O2  UNL     1      17.740  37.586 108.172  1.00  0.00    -0.262 OA
BRANCH  20  27
HETATM   27  N8  UNL     1      19.912  31.019 108.512  1.00  0.00    -0.234 N 
ATOM     28  H82 UNL     1      20.789  30.571 108.245  1.00  0.00     0.174 HD
ATOM     29  H81 UNL     1      19.381  30.689 109.318  1.00  0.00     0.174 HD
ENDBRANCH  20  27
BRANCH  24  30
HETATM   30  N11 UNL     1      18.719  35.596 109.679  1.00  0.00    -0.334 N 
ATOM     31 2H11 UNL     1      18.441  34.878 110.348  1.00  0.00     0.177 HD
ATOM     32 1H11 UNL     1      19.203  36.442 109.981  1.00  0.00     0.177 HD
ENDBRANCH  24  30
ENDBRANCH  10  12
ENDBRANCH   9  10
ENDBRANCH   7   9
BRANCH   8  33
HETATM   33  C12 UNL     1      17.059  40.790 103.265  1.00  0.00     0.094 A 
HETATM   34  C13 UNL     1      16.468  42.102 103.282  1.00  0.00     0.140 A 
HETATM   35  N13 UNL     1      17.460  42.971 103.203  1.00  0.00    -0.306 N 
HETATM   36  N14 UNL     1      18.623  42.326 103.138  1.00  0.00    -0.278 N 
ATOM     37  H13 UNL     1      17.350  43.985 103.194  1.00  0.00     0.186 HD
HETATM   38  C17 UNL     1      18.409  40.976 103.179  1.00  0.00     0.181 A 
BRANCH  36  39
HETATM   39  C14 UNL     1      19.899  42.974 102.964  1.00  0.00     0.170 C 
BRANCH  39  40
HETATM   40  C15 UNL     1      19.733  44.302 102.228  1.00  0.00     0.145 C 
BRANCH  40  41
HETATM   41  N15 UNL     1      19.961  45.445 103.064  1.00  0.00    -0.344 N 
HETATM   42  C16 UNL     1      18.968  46.277 103.632  1.00  0.00     0.328 C 
HETATM   43  N16 UNL     1      19.311  47.389 104.451  1.00  0.00    -0.040 NA
HETATM   44  O3  UNL     1      17.738  46.045 103.419  1.00  0.00    -0.251 OA
ATOM     45  H15 UNL     1      20.933  45.681 103.268  1.00  0.00     0.163 HD
ENDBRANCH  40  41
ENDBRANCH  39  40
ENDBRANCH  36  39
BRANCH  38  46
HETATM   46  S1  UNL     1      19.654  39.798 103.190  1.00  0.00     0.256 S 
HETATM   47  O4  UNL     1      19.809  39.098 104.547  1.00  0.00    -0.213 OA
HETATM   48  O5  UNL     1      21.030  40.318 102.887  1.00  0.00    -0.213 OA
BRANCH  46  49
HETATM   49  C18 UNL     1      19.392  38.487 102.056  1.00  0.00     0.238 C 
HETATM   50  N17 UNL     1      19.067  38.693 100.693  1.00  0.00    -0.068 NA
HETATM   51  N18 UNL     1      19.500  37.225 102.396  1.00  0.00    -0.217 N 
ATOM     52  H18 UNL     1      19.746  37.007 103.362  1.00  0.00     0.195 HD
BRANCH  51  53
HETATM   53  N19 UNL     1      19.298  36.169 101.518  1.00  0.00    -0.037 N 
HETATM   54  O6  UNL     1      18.219  35.506 101.530  1.00  0.00    -0.516 OA
HETATM   55  O7  UNL     1      20.223  35.768 100.593  1.00  0.00    -0.516 OA
ENDBRANCH  51  53
ENDBRANCH  46  49
ENDBRANCH  38  46
ENDBRANCH   8  33
BRANCH   1  56
HETATM   56  N3  UNL     1      16.058  39.490 100.936  1.00  0.00    -0.273 N 
ATOM     57  H3  UNL     1      16.616  40.325 100.759  1.00  0.00     0.190 HD
BRANCH  56  58
HETATM   58  N2  UNL     1      15.869  38.548  99.924  1.00  0.00    -0.248 N 
ATOM     59  H2  UNL     1      15.162  38.729  99.212  1.00  0.00     0.207 HD
BRANCH  58  60
HETATM   60  N1  UNL     1      16.551  37.461  99.855  1.00  0.00    -0.331 N 
ATOM     61  H12 UNL     1      17.297  37.326 100.537  1.00  0.00     0.178 HD
ATOM     62  H11 UNL     1      16.372  36.744  99.152  1.00  0.00     0.178 HD
ENDBRANCH  58  60
ENDBRANCH  56  58
ENDBRANCH   1  56
TORSDOF 15
ENDMDL
MODEL 5
REMARK VINA RESULT: -8.605881472      4.540      7.583
REMARK  15 active torsions:
REMARK  status: ('A' for Active; 'I' for Inactive)
REMARK    1  A    between atoms: N1_1  and  N2_4 
REMARK    2  A    between atoms: N2_4  and  N3_6 
REMARK    3  A    between atoms: N3_6  and  C1_8 
REMARK    4  A    between atoms: C4_14  and  C5_15 
REMARK    5  A    between atoms: C5_15  and  N5_16 
REMARK    6  A    between atoms: N5_16  and  C6_18 
REMARK    7  A    between atoms: C9_26  and  N8_27 
REMARK    8  A    between atoms: N10_33  and  N11_34 
REMARK    9  A    between atoms: N12_39  and  C12_40 
REMARK   10  A    between atoms: N14_44  and  C14_45 
REMARK   11  A    between atoms: C14_45  and  C15_46 
REMARK   12  A    between atoms: C15_46  and  N15_47 
REMARK       I    between atoms: N15_47  and  C16_49 
REMARK   13  A    between atoms: C17_52  and  S1_53 
REMARK   14  A    between atoms: S1_53  and  C18_56 
REMARK   15  A    between atoms: N18_58  and  N19_60 
ROOT
HETATM    1  C1  UNL     1      15.929  36.214 101.384  1.00  0.00     0.126 C 
HETATM    2  C2  UNL     1      15.088  35.423 100.410  1.00  0.00     0.310 C 
HETATM    3  N4  UNL     1      14.690  36.454  99.418  1.00  0.00    -0.066 N 
ATOM      4  H41 UNL     1      14.361  36.053  98.540  1.00  0.00     0.277 HD
ATOM      5  H42 UNL     1      15.486  36.969  99.041  1.00  0.00     0.277 HD
HETATM    6  C3  UNL     1      13.735  37.293 100.031  1.00  0.00     0.263 C 
HETATM    7  C4  UNL     1      14.327  38.034 101.240  1.00  0.00     0.155 C 
HETATM    8  N12 UNL     1      15.674  37.613 101.501  1.00  0.00    -0.319 N 
ENDROOT
BRANCH   7   9
HETATM    9  C5  UNL     1      13.366  37.699 102.374  1.00  0.00     0.090 C 
BRANCH   9  10
HETATM   10  N5  UNL     1      12.728  38.872 102.814  1.00  0.00    -0.349 N 
ATOM     11  H5  UNL     1      13.348  39.682 102.822  1.00  0.00     0.166 HD
BRANCH  10  12
HETATM   12  C6  UNL     1      11.562  39.145 103.201  1.00  0.00     0.177 A 
HETATM   13  N6  UNL     1      10.552  38.273 103.307  1.00  0.00    -0.330 N 
HETATM   14  C7  UNL     1       9.337  38.669 103.730  1.00  0.00     0.150 A 
ATOM     15  H6  UNL     1      10.705  37.295 103.063  1.00  0.00     0.168 HD
HETATM   16  C8  UNL     1       8.285  37.783 103.848  1.00  0.00     0.290 A 
HETATM   17  C10 UNL     1       9.067  39.975 104.072  1.00  0.00     0.177 A 
HETATM   18  O1  UNL     1       8.510  36.581 103.540  1.00  0.00    -0.265 OA
HETATM   19  N7  UNL     1       7.051  38.116 104.265  1.00  0.00    -0.154 N 
HETATM   20  C9  UNL     1       6.842  39.418 104.589  1.00  0.00     0.680 A 
ATOM     21  H7  UNL     1       6.306  37.423 104.334  1.00  0.00     0.187 HD
HETATM   22  N9  UNL     1       7.839  40.323 104.490  1.00  0.00    -0.172 N 
ATOM     23  H9  UNL     1       7.655  41.294 104.740  1.00  0.00     0.186 HD
HETATM   24  N10 UNL     1      10.083  40.858 103.967  1.00  0.00    -0.204 N 
HETATM   25  C11 UNL     1      11.290  40.476 103.550  1.00  0.00     0.312 A 
HETATM   26  O2  UNL     1      12.227  41.343 103.463  1.00  0.00    -0.262 OA
BRANCH  20  27
HETATM   27  N8  UNL     1       5.660  39.760 104.991  1.00  0.00    -0.234 N 
ATOM     28  H82 UNL     1       5.362  39.602 105.954  1.00  0.00     0.174 HD
ATOM     29  H81 UNL     1       5.033  40.195 104.315  1.00  0.00     0.174 HD
ENDBRANCH  20  27
BRANCH  24  30
HETATM   30  N11 UNL     1       9.827  42.190 104.307  1.00  0.00    -0.334 N 
ATOM     31 2H11 UNL     1       8.881  42.504 104.526  1.00  0.00     0.177 HD
ATOM     32 1H11 UNL     1      10.617  42.835 104.331  1.00  0.00     0.177 HD
ENDBRANCH  24  30
ENDBRANCH  10  12
ENDBRANCH   9  10
ENDBRANCH   7   9
BRANCH   8  33
HETATM   33  C12 UNL     1      16.736  38.482 101.762  1.00  0.00     0.094 A 
HETATM   34  C13 UNL     1      16.695  39.272 102.964  1.00  0.00     0.140 A 
HETATM   35  N13 UNL     1      17.759  40.054 102.947  1.00  0.00    -0.306 N 
HETATM   36  N14 UNL     1      18.469  39.828 101.843  1.00  0.00    -0.278 N 
ATOM     37  H13 UNL     1      18.002  40.729 103.672  1.00  0.00     0.186 HD
HETATM   38  C17 UNL     1      17.865  38.859 101.092  1.00  0.00     0.181 A 
BRANCH  36  39
HETATM   39  C14 UNL     1      19.649  40.570 101.474  1.00  0.00     0.170 C 
BRANCH  39  40
HETATM   40  C15 UNL     1      20.427  40.998 102.716  1.00  0.00     0.145 C 
BRANCH  40  41
HETATM   41  N15 UNL     1      20.643  42.414 102.791  1.00  0.00    -0.344 N 
HETATM   42  C16 UNL     1      19.684  43.387 103.160  1.00  0.00     0.328 C 
HETATM   43  N16 UNL     1      20.011  44.771 103.203  1.00  0.00    -0.040 NA
HETATM   44  O3  UNL     1      18.502  43.040 103.464  1.00  0.00    -0.251 OA
ATOM     45  H15 UNL     1      21.576  42.752 102.556  1.00  0.00     0.163 HD
ENDBRANCH  40  41
ENDBRANCH  39  40
ENDBRANCH  36  39
BRANCH  38  46
HETATM   46  S1  UNL     1      18.500  38.230  99.629  1.00  0.00     0.256 S 
HETATM   47  O4  UNL     1      19.545  39.147  98.982  1.00  0.00    -0.213 OA
HETATM   48  O5  UNL     1      17.492  37.998  98.541  1.00  0.00    -0.213 OA
BRANCH  46  49
HETATM   49  C18 UNL     1      19.333  36.698  99.825  1.00  0.00     0.238 C 
HETATM   50  N17 UNL     1      19.934  36.291 101.041  1.00  0.00    -0.068 NA
HETATM   51  N18 UNL     1      19.436  35.821  98.856  1.00  0.00    -0.217 N 
ATOM     52  H18 UNL     1      19.012  36.046  97.956  1.00  0.00     0.195 HD
BRANCH  51  53
HETATM   53  N19 UNL     1      20.088  34.602  98.985  1.00  0.00    -0.037 N 
HETATM   54  O6  UNL     1      19.480  33.577  99.412  1.00  0.00    -0.516 OA
HETATM   55  O7  UNL     1      21.406  34.414  98.672  1.00  0.00    -0.516 OA
ENDBRANCH  51  53
ENDBRANCH  46  49
ENDBRANCH  38  46
ENDBRANCH   8  33
BRANCH   1  56
HETATM   56  N3  UNL     1      16.834  35.649 102.039  1.00  0.00    -0.273 N 
ATOM     57  H3  UNL     1      17.204  36.088 102.881  1.00  0.00     0.190 HD
BRANCH  56  58
HETATM   58  N2  UNL     1      17.335  34.418 101.613  1.00  0.00    -0.248 N 
ATOM     59  H2  UNL     1      16.880  33.946 100.832  1.00  0.00     0.207 HD
BRANCH  58  60
HETATM   60  N1  UNL     1      18.348  33.856 102.169  1.00  0.00    -0.331 N 
ATOM     61  H12 UNL     1      18.183  33.308 103.012  1.00  0.00     0.178 HD
ATOM     62  H11 UNL     1      19.295  33.940 101.797  1.00  0.00     0.178 HD
ENDBRANCH  58  60
ENDBRANCH  56  58
ENDBRANCH   1  56
TORSDOF 15
ENDMDL
