MODEL 1
REMARK VINA RESULT: -6.190407330      0.000      0.000
REMARK  2 active torsions:
REMARK  status: ('A' for Active; 'I' for Inactive)
REMARK    1  A    between atoms: C2_2  and  C3_3 
REMARK    2  A    between atoms: N1_6  and  N2_7 
REMARK       I    between atoms: N2_7  and  C6_9 
REMARK       I    between atoms: C6_9  and  N3_11 
ROOT
HETATM    1  N2  UNL     1      -4.248   4.583  13.631  1.00  0.00    -0.246 N 
ATOM      2  H2  UNL     1      -3.847   5.486  13.886  1.00  0.00     0.192 HD
HETATM    3  C6  UNL     1      -4.197   4.135  12.267  1.00  0.00     0.337 C 
HETATM    4  O1  UNL     1      -4.678   2.985  11.982  1.00  0.00    -0.245 OA
HETATM    5  N3  UNL     1      -3.648   4.891  11.234  1.00  0.00    -0.331 N 
HETATM    6  C7  UNL     1      -3.566   4.315   9.900  1.00  0.00     0.137 C 
HETATM    7  C8  UNL     1      -3.899   5.365   8.854  1.00  0.00     0.093 C 
HETATM    8  S1  UNL     1      -5.052   6.593   9.513  1.00  0.00    -0.166 SA
HETATM    9  C9  UNL     1      -4.448   7.113  11.141  1.00  0.00     0.093 C 
HETATM   10  C10 UNL     1      -3.209   6.255  11.432  1.00  0.00     0.137 C 
ENDROOT
BRANCH   1  11
HETATM   11  N1  UNL     1      -4.825   3.812  14.576  1.00  0.00    -0.282 N 
HETATM   12  C5  UNL     1      -6.141   4.085  14.994  1.00  0.00     0.089 C 
HETATM   13  C4  UNL     1      -6.185   4.336  16.482  1.00  0.00     0.055 C 
HETATM   14  C3  UNL     1      -5.819   3.064  17.202  1.00  0.00     0.017 C 
HETATM   15  C12 UNL     1      -4.683   2.376  16.541  1.00  0.00     0.055 C 
HETATM   16  C11 UNL     1      -3.958   3.227  15.500  1.00  0.00     0.089 C 
BRANCH  14  17
HETATM   17  C2  UNL     1      -7.063   2.208  17.160  1.00  0.00    -0.032 C 
HETATM   18  C1  UNL     1      -6.953   0.901  17.319  1.00  0.00     0.007 C 
ENDBRANCH  14  17
ENDBRANCH   1  11
TORSDOF 2
ENDMDL
MODEL 2
REMARK VINA RESULT: -5.997898370      1.460      2.050
REMARK  2 active torsions:
REMARK  status: ('A' for Active; 'I' for Inactive)
REMARK    1  A    between atoms: C2_2  and  C3_3 
REMARK    2  A    between atoms: N1_6  and  N2_7 
REMARK       I    between atoms: N2_7  and  C6_9 
REMARK       I    between atoms: C6_9  and  N3_11 
ROOT
HETATM    1  N2  UNL     1      -3.451   3.547  14.604  1.00  0.00    -0.246 N 
ATOM      2  H2  UNL     1      -2.494   3.862  14.768  1.00  0.00     0.192 HD
HETATM    3  C6  UNL     1      -3.928   3.370  13.261  1.00  0.00     0.337 C 
HETATM    4  O1  UNL     1      -5.121   2.944  13.086  1.00  0.00    -0.245 OA
HETATM    5  N3  UNL     1      -3.155   3.638  12.133  1.00  0.00    -0.331 N 
HETATM    6  C7  UNL     1      -3.698   3.345  10.815  1.00  0.00     0.137 C 
HETATM    7  C8  UNL     1      -3.319   4.443   9.836  1.00  0.00     0.093 C 
HETATM    8  S1  UNL     1      -3.134   6.030  10.682  1.00  0.00    -0.166 SA
HETATM    9  C9  UNL     1      -2.122   5.763  12.162  1.00  0.00     0.093 C 
HETATM   10  C10 UNL     1      -1.850   4.254  12.228  1.00  0.00     0.137 C 
ENDROOT
BRANCH   1  11
HETATM   11  N1  UNL     1      -4.267   3.299  15.651  1.00  0.00    -0.282 N 
HETATM   12  C5  UNL     1      -4.306   2.011  16.217  1.00  0.00     0.089 C 
HETATM   13  C4  UNL     1      -5.708   1.454  16.175  1.00  0.00     0.055 C 
HETATM   14  C3  UNL     1      -6.589   2.284  17.070  1.00  0.00     0.017 C 
HETATM   15  C12 UNL     1      -6.301   3.732  16.923  1.00  0.00     0.055 C 
HETATM   16  C11 UNL     1      -5.425   4.074  15.719  1.00  0.00     0.089 C 
BRANCH  14  17
HETATM   17  C2  UNL     1      -6.287   1.817  18.475  1.00  0.00    -0.032 C 
HETATM   18  C1  UNL     1      -6.246   2.702  19.455  1.00  0.00     0.007 C 
ENDBRANCH  14  17
ENDBRANCH   1  11
TORSDOF 2
ENDMDL
MODEL 3
REMARK VINA RESULT: -5.787335289      1.736      2.089
REMARK  2 active torsions:
REMARK  status: ('A' for Active; 'I' for Inactive)
REMARK    1  A    between atoms: C2_2  and  C3_3 
REMARK    2  A    between atoms: N1_6  and  N2_7 
REMARK       I    between atoms: N2_7  and  C6_9 
REMARK       I    between atoms: C6_9  and  N3_11 
ROOT
HETATM    1  N2  UNL     1      -2.935   3.946  14.174  1.00  0.00    -0.246 N 
ATOM      2  H2  UNL     1      -1.948   4.106  14.375  1.00  0.00     0.192 HD
HETATM    3  C6  UNL     1      -3.364   3.719  12.821  1.00  0.00     0.337 C 
HETATM    4  O1  UNL     1      -4.602   3.488  12.602  1.00  0.00    -0.245 OA
HETATM    5  N3  UNL     1      -2.497   3.737  11.731  1.00  0.00    -0.331 N 
HETATM    6  C7  UNL     1      -3.011   3.411  10.410  1.00  0.00     0.137 C 
HETATM    7  C8  UNL     1      -2.393   4.325   9.365  1.00  0.00     0.093 C 
HETATM    8  S1  UNL     1      -1.975   5.933  10.078  1.00  0.00    -0.166 SA
HETATM    9  C9  UNL     1      -1.107   5.646  11.643  1.00  0.00     0.093 C 
HETATM   10  C10 UNL     1      -1.110   4.127  11.862  1.00  0.00     0.137 C 
ENDROOT
BRANCH   1  11
HETATM   11  N1  UNL     1      -3.837   3.946  15.178  1.00  0.00    -0.282 N 
HETATM   12  C5  UNL     1      -4.126   2.749  15.859  1.00  0.00     0.089 C 
HETATM   13  C4  UNL     1      -5.599   2.430  15.770  1.00  0.00     0.055 C 
HETATM   14  C3  UNL     1      -6.372   3.483  16.519  1.00  0.00     0.017 C 
HETATM   15  C12 UNL     1      -5.832   4.839  16.257  1.00  0.00     0.055 C 
HETATM   16  C11 UNL     1      -4.847   4.905  15.091  1.00  0.00     0.089 C 
BRANCH  14  17
HETATM   17  C2  UNL     1      -6.230   3.122  17.979  1.00  0.00    -0.032 C 
HETATM   18  C1  UNL     1      -6.371   1.861  18.350  1.00  0.00     0.007 C 
ENDBRANCH  14  17
ENDBRANCH   1  11
TORSDOF 2
ENDMDL
MODEL 4
REMARK VINA RESULT: -5.686663218      1.200      1.328
REMARK  2 active torsions:
REMARK  status: ('A' for Active; 'I' for Inactive)
REMARK    1  A    between atoms: C2_2  and  C3_3 
REMARK    2  A    between atoms: N1_6  and  N2_7 
REMARK       I    between atoms: N2_7  and  C6_9 
REMARK       I    between atoms: C6_9  and  N3_11 
ROOT
HETATM    1  N2  UNL     1      -4.723   5.390  13.710  1.00  0.00    -0.246 N 
ATOM      2  H2  UNL     1      -4.708   6.307  14.156  1.00  0.00     0.192 HD
HETATM    3  C6  UNL     1      -4.551   5.280  12.288  1.00  0.00     0.337 C 
HETATM    4  O1  UNL     1      -4.541   4.116  11.760  1.00  0.00    -0.245 OA
HETATM    5  N3  UNL     1      -4.391   6.382  11.450  1.00  0.00    -0.331 N 
HETATM    6  C7  UNL     1      -4.137   6.165  10.034  1.00  0.00     0.137 C 
HETATM    7  C8  UNL     1      -4.904   7.179   9.202  1.00  0.00     0.093 C 
HETATM    8  S1  UNL     1      -6.425   7.686  10.039  1.00  0.00    -0.166 SA
HETATM    9  C9  UNL     1      -6.017   8.068  11.763  1.00  0.00     0.093 C 
HETATM   10  C10 UNL     1      -4.528   7.738  11.933  1.00  0.00     0.137 C 
ENDROOT
BRANCH   1  11
HETATM   11  N1  UNL     1      -4.905   4.281  14.457  1.00  0.00    -0.282 N 
HETATM   12  C5  UNL     1      -6.177   3.996  14.988  1.00  0.00     0.089 C 
HETATM   13  C4  UNL     1      -6.113   3.882  16.492  1.00  0.00     0.055 C 
HETATM   14  C3  UNL     1      -5.278   2.682  16.854  1.00  0.00     0.017 C 
HETATM   15  C12 UNL     1      -4.075   2.580  15.993  1.00  0.00     0.055 C 
HETATM   16  C11 UNL     1      -3.790   3.832  15.166  1.00  0.00     0.089 C 
BRANCH  14  17
HETATM   17  C2  UNL     1      -6.184   1.490  16.655  1.00  0.00    -0.032 C 
HETATM   18  C1  UNL     1      -7.127   1.237  17.546  1.00  0.00     0.007 C 
ENDBRANCH  14  17
ENDBRANCH   1  11
TORSDOF 2
ENDMDL
MODEL 5
REMARK VINA RESULT: -5.656307507      3.453      4.685
REMARK  2 active torsions:
REMARK  status: ('A' for Active; 'I' for Inactive)
REMARK    1  A    between atoms: C2_2  and  C3_3 
REMARK    2  A    between atoms: N1_6  and  N2_7 
REMARK       I    between atoms: N2_7  and  C6_9 
REMARK       I    between atoms: C6_9  and  N3_11 
ROOT
HETATM    1  N2  UNL     1      -4.082   3.545  12.574  1.00  0.00    -0.246 N 
ATOM      2  H2  UNL     1      -4.985   3.915  12.277  1.00  0.00     0.192 HD
HETATM    3  C6  UNL     1      -3.104   4.422  13.155  1.00  0.00     0.337 C 
HETATM    4  O1  UNL     1      -1.993   3.926  13.548  1.00  0.00    -0.245 OA
HETATM    5  N3  UNL     1      -3.304   5.792  13.316  1.00  0.00    -0.331 N 
HETATM    6  C7  UNL     1      -2.288   6.582  13.994  1.00  0.00     0.137 C 
HETATM    7  C8  UNL     1      -2.118   7.923  13.302  1.00  0.00     0.093 C 
HETATM    8  S1  UNL     1      -2.494   7.794  11.538  1.00  0.00    -0.166 SA
HETATM    9  C9  UNL     1      -4.053   6.887  11.361  1.00  0.00     0.093 C 
HETATM   10  C10 UNL     1      -4.466   6.464  12.778  1.00  0.00     0.137 C 
ENDROOT
BRANCH   1  11
HETATM   11  N1  UNL     1      -3.808   2.233  12.419  1.00  0.00    -0.282 N 
HETATM   12  C5  UNL     1      -3.507   1.727  11.139  1.00  0.00     0.089 C 
HETATM   13  C4  UNL     1      -4.470   0.627  10.763  1.00  0.00     0.055 C 
HETATM   14  C3  UNL     1      -4.258  -0.543  11.687  1.00  0.00     0.017 C 
HETATM   15  C12 UNL     1      -4.064  -0.097  13.089  1.00  0.00     0.055 C 
HETATM   16  C11 UNL     1      -4.415   1.370  13.332  1.00  0.00     0.089 C 
BRANCH  14  17
HETATM   17  C2  UNL     1      -3.024  -1.243  11.171  1.00  0.00    -0.032 C 
HETATM   18  C1  UNL     1      -2.808  -2.503  11.506  1.00  0.00     0.007 C 
ENDBRANCH  14  17
ENDBRANCH   1  11
TORSDOF 2
ENDMDL
