MODEL 1
REMARK VINA RESULT: -6.797921430      0.000      0.000
REMARK  19 active torsions:
REMARK  status: ('A' for Active; 'I' for Inactive)
REMARK    1  A    between atoms: C2_2  and  N1_3 
REMARK    2  A    between atoms: N1_3  and  C3_5 
REMARK    3  A    between atoms: C3_5  and  C4_6 
REMARK    4  A    between atoms: C3_5  and  C28_47 
REMARK       I    between atoms: C4_6  and  N2_8 
REMARK    5  A    between atoms: N2_8  and  C5_10 
REMARK    6  A    between atoms: C5_10  and  C6_11 
REMARK    7  A    between atoms: C5_10  and  C8_13 
REMARK    8  A    between atoms: C8_13  and  O2_14 
REMARK    9  A    between atoms: C8_13  and  N3_16 
REMARK   10  A    between atoms: N3_16  and  C9_17 
REMARK   11  A    between atoms: C9_17  and  C10_18 
REMARK   12  A    between atoms: C10_18  and  C11_19 
REMARK   13  A    between atoms: C17_25  and  O3_26 
REMARK   14  A    between atoms: C17_25  and  N4_28 
REMARK   15  A    between atoms: N4_28  and  C18_30 
REMARK   16  A    between atoms: C18_30  and  C20_32 
REMARK   17  A    between atoms: C20_32  and  O4_33 
REMARK   18  A    between atoms: C20_32  and  C21_35 
REMARK   19  A    between atoms: C23_40  and  C24_41 
ROOT
HETATM    1  C9  UNL     1      36.580  24.910  21.272  1.00  0.00     0.160 C 
HETATM    2  C17 UNL     1      36.565  23.530  21.470  1.00  0.00     0.178 C 
ENDROOT
BRANCH   1   3
HETATM    3  N3  UNL     1      37.211  25.507  20.139  1.00  0.00    -0.379 NA
BRANCH   3   4
HETATM    4  C8  UNL     1      37.798  26.025  19.116  1.00  0.00     0.213 C 
BRANCH   4   5
HETATM    5  C5  UNL     1      37.404  27.359  18.236  1.00  0.00     0.174 C 
BRANCH   5   6
HETATM    6  N2  UNL     1      36.111  27.611  18.778  1.00  0.00    -0.343 N 
HETATM    7  C4  UNL     1      34.989  27.419  17.393  1.00  0.00     0.264 C 
HETATM    8  O1  UNL     1      35.951  27.413  16.760  1.00  0.00    -0.266 OA
ATOM      9  H2  UNL     1      35.875  27.848  19.741  1.00  0.00     0.163 HD
BRANCH   7  10
HETATM   10  C3  UNL     1      33.854  27.433  18.187  1.00  0.00     0.077 C 
BRANCH  10  11
HETATM   11  N1  UNL     1      32.869  28.398  18.397  1.00  0.00    -0.389 N 
ATOM     12  H1  UNL     1      31.945  28.109  18.719  1.00  0.00     0.159 HD
BRANCH  11  13
HETATM   13  C2  UNL     1      33.132  29.772  18.172  1.00  0.00     0.115 C 
HETATM   14  C1  UNL     1      33.774  30.416  19.408  1.00  0.00     0.026 C 
ENDBRANCH  11  13
ENDBRANCH  10  11
BRANCH  10  15
HETATM   15  C28 UNL     1      33.017  26.104  18.175  1.00  0.00     0.033 C 
HETATM   16  C29 UNL     1      33.608  24.978  18.905  1.00  0.00     0.016 C 
HETATM   17  C30 UNL     1      31.702  26.491  18.754  1.00  0.00     0.016 C 
ENDBRANCH  10  15
ENDBRANCH   7  10
ENDBRANCH   5   6
BRANCH   5  18
HETATM   18  C6  UNL     1      38.398  28.397  18.558  1.00  0.00     0.030 C 
HETATM   19  C7  UNL     1      38.500  28.689  20.040  1.00  0.00     0.007 C 
ENDBRANCH   5  18
ENDBRANCH   4   5
BRANCH   4  20
HETATM   20  O2  UNL     1      38.909  25.547  18.573  1.00  0.00    -0.337 OA
ATOM     21  H2  UNL     1      39.424  25.204  19.292  1.00  0.00     0.220 HD
ENDBRANCH   4  20
ENDBRANCH   3   4
ENDBRANCH   1   3
BRANCH   1  22
HETATM   22  C10 UNL     1      36.020  25.896  22.179  1.00  0.00     0.052 C 
BRANCH  22  23
HETATM   23  C11 UNL     1      35.224  27.080  21.913  1.00  0.00    -0.077 C 
HETATM   24  C12 UNL     1      35.492  28.469  22.164  1.00  0.00     0.034 C 
HETATM   25  C13 UNL     1      34.550  29.046  23.240  1.00  0.00     0.004 C 
HETATM   26  C14 UNL     1      33.109  28.895  22.940  1.00  0.00     0.001 C 
HETATM   27  C15 UNL     1      32.856  27.852  21.887  1.00  0.00     0.004 C 
HETATM   28  C16 UNL     1      33.722  26.644  22.158  1.00  0.00     0.034 C 
ENDBRANCH  22  23
ENDBRANCH   1  22
BRANCH   2  29
HETATM   29  O3  UNL     1      36.590  23.265  22.823  1.00  0.00    -0.344 OA
ATOM     30  H3  UNL     1      37.312  23.736  23.221  1.00  0.00     0.219 HD
ENDBRANCH   2  29
BRANCH   2  31
HETATM   31  N4  UNL     1      36.564  22.210  20.842  1.00  0.00    -0.361 N 
ATOM     32  H4  UNL     1      37.334  21.542  20.848  1.00  0.00     0.162 HD
BRANCH  31  33
HETATM   33  C18 UNL     1      35.218  22.011  20.180  1.00  0.00     0.111 C 
HETATM   34  C19 UNL     1      34.646  20.817  21.190  1.00  0.00     0.035 C 
BRANCH  33  35
HETATM   35  C20 UNL     1      34.952  21.488  18.949  1.00  0.00     0.173 C 
BRANCH  35  36
HETATM   36  O4  UNL     1      36.309  21.795  18.260  1.00  0.00    -0.391 OA
ATOM     37  H4  UNL     1      36.263  21.160  17.555  1.00  0.00     0.210 HD
ENDBRANCH  35  36
BRANCH  35  38
HETATM   38  C21 UNL     1      34.263  20.869  17.959  1.00  0.00     0.215 C 
HETATM   39  N5  UNL     1      33.083  21.208  17.190  1.00  0.00    -0.343 N 
HETATM   40  C22 UNL     1      33.009  21.055  15.808  1.00  0.00     0.248 C 
ATOM     41  H5  UNL     1      32.270  21.576  17.683  1.00  0.00     0.163 HD
HETATM   42  O5  UNL     1      32.227  20.418  15.149  1.00  0.00    -0.271 OA
HETATM   43  C23 UNL     1      34.158  21.857  15.074  1.00  0.00     0.227 C 
HETATM   44  O6  UNL     1      35.279  21.560  15.865  1.00  0.00    -0.304 OA
HETATM   45  C27 UNL     1      35.305  20.529  16.801  1.00  0.00     0.285 C 
HETATM   46  O7  UNL     1      35.956  19.507  16.851  1.00  0.00    -0.263 OA
BRANCH  43  47
HETATM   47  C24 UNL     1      33.659  23.267  15.069  1.00  0.00     0.016 C 
HETATM   48  C25 UNL     1      34.600  24.346  15.346  1.00  0.00     0.012 C 
HETATM   49  C26 UNL     1      33.072  23.413  13.602  1.00  0.00     0.012 C 
ENDBRANCH  43  47
ENDBRANCH  35  38
ENDBRANCH  33  35
ENDBRANCH  31  33
ENDBRANCH   2  31
TORSDOF 19
ENDMDL
MODEL 2
REMARK VINA RESULT: -6.635616907      1.356      1.996
REMARK  19 active torsions:
REMARK  status: ('A' for Active; 'I' for Inactive)
REMARK    1  A    between atoms: C2_2  and  N1_3 
REMARK    2  A    between atoms: N1_3  and  C3_5 
REMARK    3  A    between atoms: C3_5  and  C4_6 
REMARK    4  A    between atoms: C3_5  and  C28_47 
REMARK       I    between atoms: C4_6  and  N2_8 
REMARK    5  A    between atoms: N2_8  and  C5_10 
REMARK    6  A    between atoms: C5_10  and  C6_11 
REMARK    7  A    between atoms: C5_10  and  C8_13 
REMARK    8  A    between atoms: C8_13  and  O2_14 
REMARK    9  A    between atoms: C8_13  and  N3_16 
REMARK   10  A    between atoms: N3_16  and  C9_17 
REMARK   11  A    between atoms: C9_17  and  C10_18 
REMARK   12  A    between atoms: C10_18  and  C11_19 
REMARK   13  A    between atoms: C17_25  and  O3_26 
REMARK   14  A    between atoms: C17_25  and  N4_28 
REMARK   15  A    between atoms: N4_28  and  C18_30 
REMARK   16  A    between atoms: C18_30  and  C20_32 
REMARK   17  A    between atoms: C20_32  and  O4_33 
REMARK   18  A    between atoms: C20_32  and  C21_35 
REMARK   19  A    between atoms: C23_40  and  C24_41 
ROOT
HETATM    1  C9  UNL     1      36.562  24.827  21.455  1.00  0.00     0.160 C 
HETATM    2  C17 UNL     1      36.412  23.491  21.825  1.00  0.00     0.178 C 
ENDROOT
BRANCH   1   3
HETATM    3  N3  UNL     1      37.091  25.206  20.185  1.00  0.00    -0.379 NA
BRANCH   3   4
HETATM    4  C8  UNL     1      37.543  25.546  19.028  1.00  0.00     0.213 C 
BRANCH   4   5
HETATM    5  C5  UNL     1      37.651  27.034  18.332  1.00  0.00     0.174 C 
BRANCH   5   6
HETATM    6  N2  UNL     1      36.383  27.555  18.720  1.00  0.00    -0.343 N 
HETATM    7  C4  UNL     1      35.514  27.839  17.178  1.00  0.00     0.264 C 
HETATM    8  O1  UNL     1      36.542  27.653  16.694  1.00  0.00    -0.266 OA
ATOM      9  H2  UNL     1      36.044  27.727  19.666  1.00  0.00     0.163 HD
BRANCH   7  10
HETATM   10  C3  UNL     1      34.294  28.060  17.796  1.00  0.00     0.077 C 
BRANCH  10  11
HETATM   11  N1  UNL     1      33.473  29.185  17.875  1.00  0.00    -0.389 N 
ATOM     12  H1  UNL     1      32.574  29.185  17.392  1.00  0.00     0.159 HD
BRANCH  11  13
HETATM   13  C2  UNL     1      33.867  30.327  18.616  1.00  0.00     0.115 C 
HETATM   14  C1  UNL     1      32.664  30.958  19.328  1.00  0.00     0.026 C 
ENDBRANCH  11  13
ENDBRANCH  10  11
BRANCH  10  15
HETATM   15  C28 UNL     1      33.248  26.899  17.637  1.00  0.00     0.033 C 
HETATM   16  C29 UNL     1      31.869  27.234  18.008  1.00  0.00     0.016 C 
HETATM   17  C30 UNL     1      33.342  26.509  16.205  1.00  0.00     0.016 C 
ENDBRANCH  10  15
ENDBRANCH   7  10
ENDBRANCH   5   6
BRANCH   5  18
HETATM   18  C6  UNL     1      38.794  27.721  18.957  1.00  0.00     0.030 C 
HETATM   19  C7  UNL     1      38.392  28.651  20.081  1.00  0.00     0.007 C 
ENDBRANCH   5  18
ENDBRANCH   4   5
BRANCH   4  20
HETATM   20  O2  UNL     1      38.052  24.696  18.146  1.00  0.00    -0.337 OA
ATOM     21  H2  UNL     1      38.425  25.230  17.455  1.00  0.00     0.220 HD
ENDBRANCH   4  20
ENDBRANCH   3   4
ENDBRANCH   1   3
BRANCH   1  22
HETATM   22  C10 UNL     1      36.256  25.972  22.294  1.00  0.00     0.052 C 
BRANCH  22  23
HETATM   23  C11 UNL     1      35.487  27.170  22.014  1.00  0.00    -0.077 C 
HETATM   24  C12 UNL     1      35.564  28.490  22.577  1.00  0.00     0.034 C 
HETATM   25  C13 UNL     1      34.307  28.832  23.401  1.00  0.00     0.004 C 
HETATM   26  C14 UNL     1      33.034  28.715  22.657  1.00  0.00     0.001 C 
HETATM   27  C15 UNL     1      33.181  27.889  21.409  1.00  0.00     0.004 C 
HETATM   28  C16 UNL     1      34.017  26.668  21.711  1.00  0.00     0.034 C 
ENDBRANCH  22  23
ENDBRANCH   1  22
BRANCH   2  29
HETATM   29  O3  UNL     1      36.597  23.374  23.187  1.00  0.00    -0.344 OA
ATOM     30  H3  UNL     1      35.752  23.391  23.621  1.00  0.00     0.219 HD
ENDBRANCH   2  29
BRANCH   2  31
HETATM   31  N4  UNL     1      36.165  22.122  21.374  1.00  0.00    -0.361 N 
ATOM     32  H4  UNL     1      36.687  21.294  21.658  1.00  0.00     0.162 HD
BRANCH  31  33
HETATM   33  C18 UNL     1      34.998  22.154  20.412  1.00  0.00     0.111 C 
HETATM   34  C19 UNL     1      34.637  20.528  20.443  1.00  0.00     0.035 C 
BRANCH  33  35
HETATM   35  C20 UNL     1      35.016  22.410  19.073  1.00  0.00     0.173 C 
BRANCH  35  36
HETATM   36  O4  UNL     1      35.359  20.985  18.560  1.00  0.00    -0.391 OA
ATOM     37  H4  UNL     1      36.284  21.110  18.386  1.00  0.00     0.210 HD
ENDBRANCH  35  36
BRANCH  35  38
HETATM   38  C21 UNL     1      34.917  23.112  17.917  1.00  0.00     0.215 C 
HETATM   39  N5  UNL     1      35.746  23.225  16.734  1.00  0.00    -0.343 N 
HETATM   40  C22 UNL     1      35.232  23.181  15.441  1.00  0.00     0.248 C 
ATOM     41  H5  UNL     1      36.752  23.341  16.854  1.00  0.00     0.163 HD
HETATM   42  O5  UNL     1      35.320  23.992  14.554  1.00  0.00    -0.271 OA
HETATM   43  C23 UNL     1      34.421  21.848  15.185  1.00  0.00     0.227 C 
HETATM   44  O6  UNL     1      33.667  21.729  16.363  1.00  0.00    -0.304 OA
HETATM   45  C27 UNL     1      33.499  22.768  17.275  1.00  0.00     0.285 C 
HETATM   46  O7  UNL     1      32.513  23.384  17.617  1.00  0.00    -0.263 OA
BRANCH  43  47
HETATM   47  C24 UNL     1      35.485  20.829  14.928  1.00  0.00     0.016 C 
HETATM   48  C25 UNL     1      35.371  19.519  15.560  1.00  0.00     0.012 C 
HETATM   49  C26 UNL     1      35.439  20.682  13.349  1.00  0.00     0.012 C 
ENDBRANCH  43  47
ENDBRANCH  35  38
ENDBRANCH  33  35
ENDBRANCH  31  33
ENDBRANCH   2  31
TORSDOF 19
ENDMDL
MODEL 3
REMARK VINA RESULT: -6.626690922      1.217      1.640
REMARK  19 active torsions:
REMARK  status: ('A' for Active; 'I' for Inactive)
REMARK    1  A    between atoms: C2_2  and  N1_3 
REMARK    2  A    between atoms: N1_3  and  C3_5 
REMARK    3  A    between atoms: C3_5  and  C4_6 
REMARK    4  A    between atoms: C3_5  and  C28_47 
REMARK       I    between atoms: C4_6  and  N2_8 
REMARK    5  A    between atoms: N2_8  and  C5_10 
REMARK    6  A    between atoms: C5_10  and  C6_11 
REMARK    7  A    between atoms: C5_10  and  C8_13 
REMARK    8  A    between atoms: C8_13  and  O2_14 
REMARK    9  A    between atoms: C8_13  and  N3_16 
REMARK   10  A    between atoms: N3_16  and  C9_17 
REMARK   11  A    between atoms: C9_17  and  C10_18 
REMARK   12  A    between atoms: C10_18  and  C11_19 
REMARK   13  A    between atoms: C17_25  and  O3_26 
REMARK   14  A    between atoms: C17_25  and  N4_28 
REMARK   15  A    between atoms: N4_28  and  C18_30 
REMARK   16  A    between atoms: C18_30  and  C20_32 
REMARK   17  A    between atoms: C20_32  and  O4_33 
REMARK   18  A    between atoms: C20_32  and  C21_35 
REMARK   19  A    between atoms: C23_40  and  C24_41 
ROOT
HETATM    1  C9  UNL     1      36.520  24.913  21.494  1.00  0.00     0.160 C 
HETATM    2  C17 UNL     1      36.469  23.560  21.827  1.00  0.00     0.178 C 
ENDROOT
BRANCH   1   3
HETATM    3  N3  UNL     1      37.018  25.365  20.236  1.00  0.00    -0.379 NA
BRANCH   3   4
HETATM    4  C8  UNL     1      37.493  25.768  19.108  1.00  0.00     0.213 C 
BRANCH   4   5
HETATM    5  C5  UNL     1      37.558  27.285  18.471  1.00  0.00     0.174 C 
BRANCH   5   6
HETATM    6  N2  UNL     1      36.225  27.702  18.750  1.00  0.00    -0.343 N 
HETATM    7  C4  UNL     1      35.480  27.959  17.140  1.00  0.00     0.264 C 
HETATM    8  O1  UNL     1      36.559  27.860  16.750  1.00  0.00    -0.266 OA
ATOM      9  H2  UNL     1      35.790  27.826  19.664  1.00  0.00     0.163 HD
BRANCH   7  10
HETATM   10  C3  UNL     1      34.196  28.075  17.647  1.00  0.00     0.077 C 
BRANCH  10  11
HETATM   11  N1  UNL     1      33.320  29.156  17.742  1.00  0.00    -0.389 N 
ATOM     12  H1  UNL     1      32.392  29.088  17.324  1.00  0.00     0.159 HD
BRANCH  11  13
HETATM   13  C2  UNL     1      33.699  30.347  18.411  1.00  0.00     0.115 C 
HETATM   14  C1  UNL     1      32.464  31.124  18.884  1.00  0.00     0.026 C 
ENDBRANCH  11  13
ENDBRANCH  10  11
BRANCH  10  15
HETATM   15  C28 UNL     1      33.226  26.896  17.278  1.00  0.00     0.033 C 
HETATM   16  C29 UNL     1      31.819  27.098  17.640  1.00  0.00     0.016 C 
HETATM   17  C30 UNL     1      33.386  26.731  15.808  1.00  0.00     0.016 C 
ENDBRANCH  10  15
ENDBRANCH   7  10
ENDBRANCH   5   6
BRANCH   5  18
HETATM   18  C6  UNL     1      38.585  28.025  19.225  1.00  0.00     0.030 C 
HETATM   19  C7  UNL     1      38.076  28.585  20.536  1.00  0.00     0.007 C 
ENDBRANCH   5  18
ENDBRANCH   4   5
BRANCH   4  20
HETATM   20  O2  UNL     1      38.067  24.975  18.214  1.00  0.00    -0.337 OA
ATOM     21  H2  UNL     1      37.626  24.137  18.289  1.00  0.00     0.220 HD
ENDBRANCH   4  20
ENDBRANCH   3   4
ENDBRANCH   1   3
BRANCH   1  22
HETATM   22  C10 UNL     1      36.134  26.009  22.366  1.00  0.00     0.052 C 
BRANCH  22  23
HETATM   23  C11 UNL     1      34.841  26.630  22.586  1.00  0.00    -0.077 C 
HETATM   24  C12 UNL     1      33.566  26.392  21.969  1.00  0.00     0.034 C 
HETATM   25  C13 UNL     1      33.112  27.594  21.118  1.00  0.00     0.004 C 
HETATM   26  C14 UNL     1      33.043  28.876  21.853  1.00  0.00     0.001 C 
HETATM   27  C15 UNL     1      33.826  28.837  23.136  1.00  0.00     0.004 C 
HETATM   28  C16 UNL     1      35.150  28.151  22.895  1.00  0.00     0.034 C 
ENDBRANCH  22  23
ENDBRANCH   1  22
BRANCH   2  29
HETATM   29  O3  UNL     1      36.665  23.419  23.186  1.00  0.00    -0.344 OA
ATOM     30  H3  UNL     1      36.921  22.524  23.374  1.00  0.00     0.219 HD
ENDBRANCH   2  29
BRANCH   2  31
HETATM   31  N4  UNL     1      36.321  22.190  21.338  1.00  0.00    -0.361 N 
ATOM     32  H4  UNL     1      36.926  21.402  21.569  1.00  0.00     0.162 HD
BRANCH  31  33
HETATM   33  C18 UNL     1      35.113  22.150  20.428  1.00  0.00     0.111 C 
HETATM   34  C19 UNL     1      34.579  20.625  20.832  1.00  0.00     0.035 C 
BRANCH  33  35
HETATM   35  C20 UNL     1      35.085  22.103  19.065  1.00  0.00     0.173 C 
BRANCH  35  36
HETATM   36  O4  UNL     1      34.815  23.606  18.780  1.00  0.00    -0.391 OA
ATOM     37  H4  UNL     1      35.613  23.812  18.308  1.00  0.00     0.210 HD
ENDBRANCH  35  36
BRANCH  35  38
HETATM   38  C21 UNL     1      35.151  21.584  17.815  1.00  0.00     0.215 C 
HETATM   39  N5  UNL     1      34.202  20.904  16.957  1.00  0.00    -0.343 N 
HETATM   40  C22 UNL     1      34.041  21.213  15.609  1.00  0.00     0.248 C 
ATOM     41  H5  UNL     1      33.625  20.165  17.359  1.00  0.00     0.163 HD
HETATM   42  O5  UNL     1      34.147  20.502  14.642  1.00  0.00    -0.271 OA
HETATM   43  C23 UNL     1      33.680  22.739  15.404  1.00  0.00     0.227 C 
HETATM   44  O6  UNL     1      34.571  23.375  16.282  1.00  0.00    -0.304 OA
HETATM   45  C27 UNL     1      35.673  22.740  16.850  1.00  0.00     0.285 C 
HETATM   46  O7  UNL     1      36.863  22.934  16.724  1.00  0.00    -0.263 OA
BRANCH  43  47
HETATM   47  C24 UNL     1      32.220  22.804  15.719  1.00  0.00     0.016 C 
HETATM   48  C25 UNL     1      31.798  23.425  16.969  1.00  0.00     0.012 C 
HETATM   49  C26 UNL     1      31.641  23.610  14.482  1.00  0.00     0.012 C 
ENDBRANCH  43  47
ENDBRANCH  35  38
ENDBRANCH  33  35
ENDBRANCH  31  33
ENDBRANCH   2  31
TORSDOF 19
ENDMDL
MODEL 4
REMARK VINA RESULT: -6.535491916      2.310      6.910
REMARK  19 active torsions:
REMARK  status: ('A' for Active; 'I' for Inactive)
REMARK    1  A    between atoms: C2_2  and  N1_3 
REMARK    2  A    between atoms: N1_3  and  C3_5 
REMARK    3  A    between atoms: C3_5  and  C4_6 
REMARK    4  A    between atoms: C3_5  and  C28_47 
REMARK       I    between atoms: C4_6  and  N2_8 
REMARK    5  A    between atoms: N2_8  and  C5_10 
REMARK    6  A    between atoms: C5_10  and  C6_11 
REMARK    7  A    between atoms: C5_10  and  C8_13 
REMARK    8  A    between atoms: C8_13  and  O2_14 
REMARK    9  A    between atoms: C8_13  and  N3_16 
REMARK   10  A    between atoms: N3_16  and  C9_17 
REMARK   11  A    between atoms: C9_17  and  C10_18 
REMARK   12  A    between atoms: C10_18  and  C11_19 
REMARK   13  A    between atoms: C17_25  and  O3_26 
REMARK   14  A    between atoms: C17_25  and  N4_28 
REMARK   15  A    between atoms: N4_28  and  C18_30 
REMARK   16  A    between atoms: C18_30  and  C20_32 
REMARK   17  A    between atoms: C20_32  and  O4_33 
REMARK   18  A    between atoms: C20_32  and  C21_35 
REMARK   19  A    between atoms: C23_40  and  C24_41 
ROOT
HETATM    1  C9  UNL     1      34.913  29.137  17.296  1.00  0.00     0.160 C 
HETATM    2  C17 UNL     1      36.248  29.538  17.329  1.00  0.00     0.178 C 
ENDROOT
BRANCH   1   3
HETATM    3  N3  UNL     1      34.534  27.787  17.030  1.00  0.00    -0.379 NA
BRANCH   3   4
HETATM    4  C8  UNL     1      34.216  26.564  16.778  1.00  0.00     0.213 C 
BRANCH   4   5
HETATM    5  C5  UNL     1      32.966  25.659  17.351  1.00  0.00     0.174 C 
BRANCH   5   6
HETATM    6  N2  UNL     1      33.710  24.672  18.060  1.00  0.00    -0.343 N 
HETATM    7  C4  UNL     1      33.357  23.135  17.208  1.00  0.00     0.264 C 
HETATM    8  O1  UNL     1      32.538  23.746  16.678  1.00  0.00    -0.266 OA
ATOM      9  H2  UNL     1      34.311  24.810  18.872  1.00  0.00     0.163 HD
BRANCH   7  10
HETATM   10  C3  UNL     1      34.352  22.431  17.867  1.00  0.00     0.077 C 
BRANCH  10  11
HETATM   11  N1  UNL     1      34.332  21.620  19.001  1.00  0.00    -0.389 N 
ATOM     12  H1  UNL     1      34.736  21.966  19.872  1.00  0.00     0.159 HD
BRANCH  11  13
HETATM   13  C2  UNL     1      33.759  20.324  18.964  1.00  0.00     0.115 C 
HETATM   14  C1  UNL     1      34.063  19.555  20.256  1.00  0.00     0.026 C 
ENDBRANCH  11  13
ENDBRANCH  10  11
BRANCH  10  15
HETATM   15  C28 UNL     1      35.357  21.666  16.933  1.00  0.00     0.033 C 
HETATM   16  C29 UNL     1      34.853  21.338  15.595  1.00  0.00     0.016 C 
HETATM   17  C30 UNL     1      36.544  22.560  16.857  1.00  0.00     0.016 C 
ENDBRANCH  10  15
ENDBRANCH   7  10
ENDBRANCH   5   6
BRANCH   5  18
HETATM   18  C6  UNL     1      32.161  26.536  18.219  1.00  0.00     0.030 C 
HETATM   19  C7  UNL     1      31.056  27.259  17.479  1.00  0.00     0.007 C 
ENDBRANCH   5  18
ENDBRANCH   4   5
BRANCH   4  20
HETATM   20  O2  UNL     1      34.878  25.779  15.940  1.00  0.00    -0.337 OA
ATOM     21  H2  UNL     1      35.788  25.820  16.210  1.00  0.00     0.220 HD
ENDBRANCH   4  20
ENDBRANCH   3   4
ENDBRANCH   1   3
BRANCH   1  22
HETATM   22  C10 UNL     1      33.767  30.011  17.474  1.00  0.00     0.052 C 
BRANCH  22  23
HETATM   23  C11 UNL     1      33.179  30.564  18.680  1.00  0.00    -0.077 C 
HETATM   24  C12 UNL     1      33.110  30.043  20.017  1.00  0.00     0.034 C 
HETATM   25  C13 UNL     1      31.662  29.698  20.419  1.00  0.00     0.004 C 
HETATM   26  C14 UNL     1      30.708  30.823  20.306  1.00  0.00     0.001 C 
HETATM   27  C15 UNL     1      31.235  31.927  19.432  1.00  0.00     0.004 C 
HETATM   28  C16 UNL     1      31.878  31.330  18.202  1.00  0.00     0.034 C 
ENDBRANCH  22  23
ENDBRANCH   1  22
BRANCH   2  29
HETATM   29  O3  UNL     1      36.342  30.841  16.885  1.00  0.00    -0.344 OA
ATOM     30  H3  UNL     1      37.153  30.950  16.404  1.00  0.00     0.219 HD
ENDBRANCH   2  29
BRANCH   2  31
HETATM   31  N4  UNL     1      37.629  29.151  17.612  1.00  0.00    -0.361 N 
ATOM     32  H4  UNL     1      38.339  28.912  16.920  1.00  0.00     0.162 HD
BRANCH  31  33
HETATM   33  C18 UNL     1      37.818  29.168  19.113  1.00  0.00     0.111 C 
HETATM   34  C19 UNL     1      39.257  28.331  19.168  1.00  0.00     0.035 C 
BRANCH  33  35
HETATM   35  C20 UNL     1      37.083  28.523  20.063  1.00  0.00     0.173 C 
BRANCH  35  36
HETATM   36  O4  UNL     1      38.235  28.114  21.021  1.00  0.00    -0.391 OA
ATOM     37  H4  UNL     1      37.819  27.372  21.443  1.00  0.00     0.210 HD
ENDBRANCH  35  36
BRANCH  35  38
HETATM   38  C21 UNL     1      35.994  28.023  20.698  1.00  0.00     0.215 C 
HETATM   39  N5  UNL     1      35.022  26.999  20.375  1.00  0.00    -0.343 N 
HETATM   40  C22 UNL     1      34.606  26.033  21.288  1.00  0.00     0.248 C 
ATOM     41  H5  UNL     1      34.624  26.985  19.436  1.00  0.00     0.163 HD
HETATM   42  O5  UNL     1      33.496  25.779  21.681  1.00  0.00    -0.271 OA
HETATM   43  C23 UNL     1      35.829  25.202  21.848  1.00  0.00     0.227 C 
HETATM   44  O6  UNL     1      36.778  26.206  22.104  1.00  0.00    -0.304 OA
HETATM   45  C27 UNL     1      36.465  27.562  22.150  1.00  0.00     0.285 C 
HETATM   46  O7  UNL     1      36.504  28.364  23.059  1.00  0.00    -0.263 OA
BRANCH  43  47
HETATM   47  C24 UNL     1      36.123  24.222  20.758  1.00  0.00     0.016 C 
HETATM   48  C25 UNL     1      37.202  24.515  19.822  1.00  0.00     0.012 C 
HETATM   49  C26 UNL     1      36.444  22.898  21.570  1.00  0.00     0.012 C 
ENDBRANCH  43  47
ENDBRANCH  35  38
ENDBRANCH  33  35
ENDBRANCH  31  33
ENDBRANCH   2  31
TORSDOF 19
ENDMDL
MODEL 5
REMARK VINA RESULT: -6.458308385      2.425      4.389
REMARK  19 active torsions:
REMARK  status: ('A' for Active; 'I' for Inactive)
REMARK    1  A    between atoms: C2_2  and  N1_3 
REMARK    2  A    between atoms: N1_3  and  C3_5 
REMARK    3  A    between atoms: C3_5  and  C4_6 
REMARK    4  A    between atoms: C3_5  and  C28_47 
REMARK       I    between atoms: C4_6  and  N2_8 
REMARK    5  A    between atoms: N2_8  and  C5_10 
REMARK    6  A    between atoms: C5_10  and  C6_11 
REMARK    7  A    between atoms: C5_10  and  C8_13 
REMARK    8  A    between atoms: C8_13  and  O2_14 
REMARK    9  A    between atoms: C8_13  and  N3_16 
REMARK   10  A    between atoms: N3_16  and  C9_17 
REMARK   11  A    between atoms: C9_17  and  C10_18 
REMARK   12  A    between atoms: C10_18  and  C11_19 
REMARK   13  A    between atoms: C17_25  and  O3_26 
REMARK   14  A    between atoms: C17_25  and  N4_28 
REMARK   15  A    between atoms: N4_28  and  C18_30 
REMARK   16  A    between atoms: C18_30  and  C20_32 
REMARK   17  A    between atoms: C20_32  and  O4_33 
REMARK   18  A    between atoms: C20_32  and  C21_35 
REMARK   19  A    between atoms: C23_40  and  C24_41 
ROOT
HETATM    1  C9  UNL     1      35.383  29.589  20.252  1.00  0.00     0.160 C 
HETATM    2  C17 UNL     1      35.793  28.951  21.421  1.00  0.00     0.178 C 
ENDROOT
BRANCH   1   3
HETATM    3  N3  UNL     1      36.059  29.402  19.009  1.00  0.00    -0.379 NA
BRANCH   3   4
HETATM    4  C8  UNL     1      36.667  29.205  17.890  1.00  0.00     0.213 C 
BRANCH   4   5
HETATM    5  C5  UNL     1      36.103  29.325  16.348  1.00  0.00     0.174 C 
BRANCH   5   6
HETATM    6  N2  UNL     1      34.705  29.342  16.621  1.00  0.00    -0.343 N 
HETATM    7  C4  UNL     1      34.082  27.817  15.913  1.00  0.00     0.264 C 
HETATM    8  O1  UNL     1      35.121  27.753  15.422  1.00  0.00    -0.266 OA
ATOM      9  H2  UNL     1      34.175  30.062  17.112  1.00  0.00     0.163 HD
BRANCH   7  10
HETATM   10  C3  UNL     1      32.842  27.931  16.519  1.00  0.00     0.077 C 
BRANCH  10  11
HETATM   11  N1  UNL     1      31.584  28.273  16.024  1.00  0.00    -0.389 N 
ATOM     12  H1  UNL     1      30.794  27.647  16.184  1.00  0.00     0.159 HD
BRANCH  11  13
HETATM   13  C2  UNL     1      31.385  29.476  15.301  1.00  0.00     0.115 C 
HETATM   14  C1  UNL     1      30.105  30.184  15.761  1.00  0.00     0.026 C 
ENDBRANCH  11  13
ENDBRANCH  10  11
BRANCH  10  15
HETATM   15  C28 UNL     1      32.494  26.791  17.543  1.00  0.00     0.033 C 
HETATM   16  C29 UNL     1      33.210  26.850  18.821  1.00  0.00     0.016 C 
HETATM   17  C30 UNL     1      31.024  26.908  17.742  1.00  0.00     0.016 C 
ENDBRANCH  10  15
ENDBRANCH   7  10
ENDBRANCH   5   6
BRANCH   5  18
HETATM   18  C6  UNL     1      36.618  30.591  15.798  1.00  0.00     0.030 C 
HETATM   19  C7  UNL     1      35.528  31.517  15.304  1.00  0.00     0.007 C 
ENDBRANCH   5  18
ENDBRANCH   4   5
BRANCH   4  20
HETATM   20  O2  UNL     1      37.944  28.867  17.784  1.00  0.00    -0.337 OA
ATOM     21  H2  UNL     1      38.439  29.646  18.009  1.00  0.00     0.220 HD
ENDBRANCH   4  20
ENDBRANCH   3   4
ENDBRANCH   1   3
BRANCH   1  22
HETATM   22  C10 UNL     1      34.283  30.532  20.150  1.00  0.00     0.052 C 
BRANCH  22  23
HETATM   23  C11 UNL     1      32.990  30.410  19.502  1.00  0.00    -0.077 C 
HETATM   24  C12 UNL     1      32.360  31.222  18.499  1.00  0.00     0.034 C 
HETATM   25  C13 UNL     1      31.125  31.958  19.056  1.00  0.00     0.004 C 
HETATM   26  C14 UNL     1      30.100  31.073  19.652  1.00  0.00     0.001 C 
HETATM   27  C15 UNL     1      30.648  29.712  19.979  1.00  0.00     0.004 C 
HETATM   28  C16 UNL     1      32.010  29.859  20.616  1.00  0.00     0.034 C 
ENDBRANCH  22  23
ENDBRANCH   1  22
BRANCH   2  29
HETATM   29  O3  UNL     1      35.526  29.766  22.502  1.00  0.00    -0.344 OA
ATOM     30  H3  UNL     1      35.496  29.239  23.291  1.00  0.00     0.219 HD
ENDBRANCH   2  29
BRANCH   2  31
HETATM   31  N4  UNL     1      36.428  27.771  22.006  1.00  0.00    -0.361 N 
ATOM     32  H4  UNL     1      37.305  27.757  22.526  1.00  0.00     0.162 HD
BRANCH  31  33
HETATM   33  C18 UNL     1      35.553  26.574  21.703  1.00  0.00     0.111 C 
HETATM   34  C19 UNL     1      34.952  26.341  23.239  1.00  0.00     0.035 C 
BRANCH  33  35
HETATM   35  C20 UNL     1      35.940  25.312  21.360  1.00  0.00     0.173 C 
BRANCH  35  36
HETATM   36  O4  UNL     1      37.335  25.642  20.765  1.00  0.00    -0.391 OA
ATOM     37  H4  UNL     1      37.659  26.210  21.455  1.00  0.00     0.210 HD
ENDBRANCH  35  36
BRANCH  35  38
HETATM   38  C21 UNL     1      35.881  23.965  21.218  1.00  0.00     0.215 C 
HETATM   39  N5  UNL     1      34.975  23.064  20.534  1.00  0.00    -0.343 N 
HETATM   40  C22 UNL     1      35.413  22.004  19.745  1.00  0.00     0.248 C 
ATOM     41  H5  UNL     1      33.972  23.213  20.637  1.00  0.00     0.163 HD
HETATM   42  O5  UNL     1      35.172  20.828  19.840  1.00  0.00    -0.271 OA
HETATM   43  C23 UNL     1      36.366  22.502  18.585  1.00  0.00     0.227 C 
HETATM   44  O6  UNL     1      37.198  23.412  19.255  1.00  0.00    -0.304 OA
HETATM   45  C27 UNL     1      37.290  23.490  20.643  1.00  0.00     0.285 C 
HETATM   46  O7  UNL     1      38.211  23.270  21.399  1.00  0.00    -0.263 OA
BRANCH  43  47
HETATM   47  C24 UNL     1      35.423  23.040  17.556  1.00  0.00     0.016 C 
HETATM   48  C25 UNL     1      35.438  24.470  17.269  1.00  0.00     0.012 C 
HETATM   49  C26 UNL     1      35.827  22.215  16.262  1.00  0.00     0.012 C 
ENDBRANCH  43  47
ENDBRANCH  35  38
ENDBRANCH  33  35
ENDBRANCH  31  33
ENDBRANCH   2  31
TORSDOF 19
ENDMDL
