MODEL 1
REMARK VINA RESULT: -7.341976159      0.000      0.000
REMARK  18 active torsions:
REMARK  status: ('A' for Active; 'I' for Inactive)
REMARK    1  A    between atoms: N1_2  and  C2_5 
REMARK    2  A    between atoms: C2_5  and  C3_6 
REMARK    3  A    between atoms: C2_5  and  C11_15 
REMARK    4  A    between atoms: C3_6  and  S1_7 
REMARK    5  A    between atoms: S1_7  and  C4_8 
REMARK    6  A    between atoms: C4_8  and  C5_9 
REMARK       I    between atoms: C11_15  and  N2_17 
REMARK    7  A    between atoms: N2_17  and  C12_18 
REMARK    8  A    between atoms: N3_21  and  C15_22 
REMARK    9  A    between atoms: C15_22  and  C17_24 
REMARK       I    between atoms: C17_24  and  N4_26 
REMARK   10  A    between atoms: N4_26  and  C18_28 
REMARK   11  A    between atoms: C18_28  and  C19_29 
REMARK   12  A    between atoms: C18_28  and  C26_45 
REMARK       I    between atoms: C19_29  and  N5_31 
REMARK   13  A    between atoms: N5_31  and  C20_33 
REMARK   14  A    between atoms: C20_33  and  O4_34 
REMARK   15  A    between atoms: C20_33  and  C21_36 
REMARK   16  A    between atoms: C21_36  and  N6_37 
REMARK   17  A    between atoms: C21_36  and  C22_41 
REMARK   18  A    between atoms: C22_41  and  C23_42 
ROOT
HETATM    1  C15 UNL     1      36.244  28.385  21.644  1.00  0.00     0.175 C 
HETATM    2  C16 UNL     1      37.139  28.506  22.822  1.00  0.00     0.042 C 
ENDROOT
BRANCH   1   3
HETATM    3  N3  UNL     1      36.936  28.329  20.375  1.00  0.00    -0.336 N 
HETATM    4  C14 UNL     1      37.785  27.153  20.057  1.00  0.00     0.130 C 
HETATM    5  C13 UNL     1      37.870  27.196  18.573  1.00  0.00     0.069 C 
HETATM    6  C12 UNL     1      37.870  28.640  18.199  1.00  0.00     0.260 C 
HETATM    7  C29 UNL     1      37.014  29.248  19.320  1.00  0.00     0.256 C 
HETATM    8  O5  UNL     1      36.499  30.395  19.229  1.00  0.00    -0.270 OA
BRANCH   6   9
HETATM    9  N2  UNL     1      37.523  28.878  16.926  1.00  0.00    -0.398 NA
HETATM   10  C11 UNL     1      37.173  29.115  15.609  1.00  0.00     0.319 C 
HETATM   11  O1  UNL     1      37.559  28.508  14.580  1.00  0.00    -0.255 OA
BRANCH  10  12
HETATM   12  C2  UNL     1      36.198  30.235  15.308  1.00  0.00     0.300 C 
BRANCH  12  13
HETATM   13  N1  UNL     1      36.565  31.387  16.041  1.00  0.00    -0.064 N 
HETATM   14  C1  UNL     1      37.142  32.457  15.243  1.00  0.00     0.268 C 
ATOM     15  H12 UNL     1      37.195  31.136  16.803  1.00  0.00     0.277 HD
ATOM     16  H11 UNL     1      35.770  31.734  16.576  1.00  0.00     0.277 HD
ENDBRANCH  12  13
BRANCH  12  17
HETATM   17  C3  UNL     1      34.806  29.795  15.324  1.00  0.00     0.118 C 
BRANCH  17  18
HETATM   18  S1  UNL     1      33.635  30.793  16.242  1.00  0.00    -0.166 SA
BRANCH  18  19
HETATM   19  C4  UNL     1      33.124  29.888  17.736  1.00  0.00     0.078 C 
BRANCH  19  20
HETATM   20  C5  UNL     1      33.058  30.806  18.921  1.00  0.00    -0.005 C 
HETATM   21  C6  UNL     1      33.255  30.139  20.233  1.00  0.00     0.005 C 
HETATM   22  C7  UNL     1      32.069  29.455  20.804  1.00  0.00     0.000 C 
HETATM   23  C8  UNL     1      30.737  29.887  20.364  1.00  0.00     0.000 C 
HETATM   24  C9  UNL     1      30.629  30.891  19.278  1.00  0.00     0.000 C 
HETATM   25  C10 UNL     1      31.857  31.657  18.972  1.00  0.00     0.005 C 
ENDBRANCH  19  20
ENDBRANCH  18  19
ENDBRANCH  17  18
ENDBRANCH  12  17
ENDBRANCH  10  12
ENDBRANCH   6   9
ENDBRANCH   1   3
BRANCH   1  26
HETATM   26  C17 UNL     1      35.274  27.296  21.776  1.00  0.00     0.241 C 
HETATM   27  O2  UNL     1      35.083  26.861  22.954  1.00  0.00    -0.271 OA
HETATM   28  N4  UNL     1      34.551  26.706  20.736  1.00  0.00    -0.346 N 
ATOM     29  H4  UNL     1      34.691  27.013  19.774  1.00  0.00     0.163 HD
BRANCH  28  30
HETATM   30  C18 UNL     1      33.581  25.631  21.042  1.00  0.00     0.181 C 
BRANCH  30  31
HETATM   31  C19 UNL     1      34.240  24.308  21.117  1.00  0.00     0.246 C 
HETATM   32  O3  UNL     1      33.558  23.265  21.031  1.00  0.00    -0.271 OA
HETATM   33  N5  UNL     1      35.631  24.254  21.279  1.00  0.00    -0.308 N 
ATOM     34  H5  UNL     1      36.086  25.152  21.445  1.00  0.00     0.170 HD
BRANCH  33  35
HETATM   35  C20 UNL     1      36.481  23.156  21.248  1.00  0.00     0.149 C 
BRANCH  35  36
HETATM   36  O4  UNL     1      36.676  22.542  22.379  1.00  0.00    -0.348 OA
ATOM     37  H4  UNL     1      37.577  22.328  22.594  1.00  0.00     0.219 HD
ENDBRANCH  35  36
BRANCH  35  38
HETATM   38  C21 UNL     1      37.201  22.590  20.105  1.00  0.00     0.257 C 
BRANCH  38  39
HETATM   39  N6  UNL     1      38.639  22.677  20.456  1.00  0.00    -0.068 N 
ATOM     40  H63 UNL     1      39.222  23.042  19.703  1.00  0.00     0.275 HD
ATOM     41  H62 UNL     1      38.851  23.407  21.137  1.00  0.00     0.275 HD
ATOM     42  H61 UNL     1      38.904  21.742  20.763  1.00  0.00     0.275 HD
ENDBRANCH  38  39
BRANCH  38  43
HETATM   43  C22 UNL     1      37.087  23.545  18.921  1.00  0.00     0.045 C 
BRANCH  43  44
HETATM   44  C23 UNL     1      36.043  23.233  17.926  1.00  0.00    -0.020 C 
HETATM   45  C24 UNL     1      36.481  22.429  16.746  1.00  0.00     0.009 C 
HETATM   46  C25 UNL     1      35.386  24.541  17.481  1.00  0.00     0.009 C 
ENDBRANCH  43  44
ENDBRANCH  38  43
ENDBRANCH  35  38
ENDBRANCH  33  35
ENDBRANCH  30  31
BRANCH  30  47
HETATM   47  C26 UNL     1      32.400  25.736  20.188  1.00  0.00     0.018 A 
HETATM   48  C27 UNL     1      32.209  25.001  18.906  1.00  0.00     0.007 A 
HETATM   49  C28 UNL     1      32.483  26.469  18.894  1.00  0.00     0.007 A 
ENDBRANCH  30  47
ENDBRANCH  28  30
ENDBRANCH   1  26
TORSDOF 18
ENDMDL
MODEL 2
REMARK VINA RESULT: -7.180636492      1.483      1.859
REMARK  18 active torsions:
REMARK  status: ('A' for Active; 'I' for Inactive)
REMARK    1  A    between atoms: N1_2  and  C2_5 
REMARK    2  A    between atoms: C2_5  and  C3_6 
REMARK    3  A    between atoms: C2_5  and  C11_15 
REMARK    4  A    between atoms: C3_6  and  S1_7 
REMARK    5  A    between atoms: S1_7  and  C4_8 
REMARK    6  A    between atoms: C4_8  and  C5_9 
REMARK       I    between atoms: C11_15  and  N2_17 
REMARK    7  A    between atoms: N2_17  and  C12_18 
REMARK    8  A    between atoms: N3_21  and  C15_22 
REMARK    9  A    between atoms: C15_22  and  C17_24 
REMARK       I    between atoms: C17_24  and  N4_26 
REMARK   10  A    between atoms: N4_26  and  C18_28 
REMARK   11  A    between atoms: C18_28  and  C19_29 
REMARK   12  A    between atoms: C18_28  and  C26_45 
REMARK       I    between atoms: C19_29  and  N5_31 
REMARK   13  A    between atoms: N5_31  and  C20_33 
REMARK   14  A    between atoms: C20_33  and  O4_34 
REMARK   15  A    between atoms: C20_33  and  C21_36 
REMARK   16  A    between atoms: C21_36  and  N6_37 
REMARK   17  A    between atoms: C21_36  and  C22_41 
REMARK   18  A    between atoms: C22_41  and  C23_42 
ROOT
HETATM    1  C15 UNL     1      37.774  28.948  21.249  1.00  0.00     0.175 C 
HETATM    2  C16 UNL     1      39.085  28.933  21.947  1.00  0.00     0.042 C 
ENDROOT
BRANCH   1   3
HETATM    3  N3  UNL     1      37.859  28.747  19.820  1.00  0.00    -0.336 N 
HETATM    4  C14 UNL     1      38.908  27.853  19.268  1.00  0.00     0.130 C 
HETATM    5  C13 UNL     1      38.367  27.493  17.929  1.00  0.00     0.069 C 
HETATM    6  C12 UNL     1      37.631  28.696  17.443  1.00  0.00     0.260 C 
HETATM    7  C29 UNL     1      37.128  29.303  18.761  1.00  0.00     0.256 C 
HETATM    8  O5  UNL     1      36.203  30.158  18.800  1.00  0.00    -0.270 OA
BRANCH   6   9
HETATM    9  N2  UNL     1      36.741  28.440  16.474  1.00  0.00    -0.398 NA
HETATM   10  C11 UNL     1      35.828  28.166  15.471  1.00  0.00     0.319 C 
HETATM   11  O1  UNL     1      35.731  27.130  14.768  1.00  0.00    -0.255 OA
BRANCH  10  12
HETATM   12  C2  UNL     1      34.782  29.210  15.138  1.00  0.00     0.300 C 
BRANCH  12  13
HETATM   13  N1  UNL     1      35.152  30.447  15.715  1.00  0.00    -0.064 N 
HETATM   14  C1  UNL     1      34.872  31.611  14.890  1.00  0.00     0.268 C 
ATOM     15  H12 UNL     1      36.136  30.432  15.984  1.00  0.00     0.277 HD
ATOM     16  H11 UNL     1      34.720  30.552  16.633  1.00  0.00     0.277 HD
ENDBRANCH  12  13
BRANCH  12  17
HETATM   17  C3  UNL     1      33.417  28.723  15.313  1.00  0.00     0.118 C 
BRANCH  17  18
HETATM   18  S1  UNL     1      32.908  28.268  16.970  1.00  0.00    -0.166 SA
BRANCH  18  19
HETATM   19  C4  UNL     1      31.301  29.039  17.333  1.00  0.00     0.078 C 
BRANCH  19  20
HETATM   20  C5  UNL     1      31.403  30.535  17.294  1.00  0.00    -0.005 C 
HETATM   21  C6  UNL     1      32.596  31.092  17.980  1.00  0.00     0.005 C 
HETATM   22  C7  UNL     1      32.503  31.222  19.454  1.00  0.00     0.000 C 
HETATM   23  C8  UNL     1      31.170  31.305  20.063  1.00  0.00     0.000 C 
HETATM   24  C9  UNL     1      29.975  31.125  19.203  1.00  0.00     0.000 C 
HETATM   25  C10 UNL     1      30.195  31.245  17.745  1.00  0.00     0.005 C 
ENDBRANCH  19  20
ENDBRANCH  18  19
ENDBRANCH  17  18
ENDBRANCH  12  17
ENDBRANCH  10  12
ENDBRANCH   6   9
ENDBRANCH   1   3
BRANCH   1  26
HETATM   26  C17 UNL     1      36.794  28.047  21.861  1.00  0.00     0.241 C 
HETATM   27  O2  UNL     1      37.041  27.682  23.053  1.00  0.00    -0.271 OA
HETATM   28  N4  UNL     1      35.630  27.565  21.259  1.00  0.00    -0.346 N 
ATOM     29  H4  UNL     1      35.406  27.819  20.297  1.00  0.00     0.163 HD
BRANCH  28  30
HETATM   30  C18 UNL     1      34.723  26.683  22.027  1.00  0.00     0.181 C 
BRANCH  30  31
HETATM   31  C19 UNL     1      34.944  25.257  21.700  1.00  0.00     0.246 C 
HETATM   32  O3  UNL     1      33.997  24.560  21.275  1.00  0.00    -0.271 OA
HETATM   33  N5  UNL     1      36.226  24.715  21.868  1.00  0.00    -0.308 N 
ATOM     34  H5  UNL     1      36.904  25.331  22.316  1.00  0.00     0.170 HD
BRANCH  33  35
HETATM   35  C20 UNL     1      36.707  23.462  21.513  1.00  0.00     0.149 C 
BRANCH  35  36
HETATM   36  O4  UNL     1      36.693  22.552  22.443  1.00  0.00    -0.348 OA
ATOM     37  H4  UNL     1      36.195  21.764  22.257  1.00  0.00     0.219 HD
ENDBRANCH  35  36
BRANCH  35  38
HETATM   38  C21 UNL     1      37.239  23.019  20.223  1.00  0.00     0.257 C 
BRANCH  38  39
HETATM   39  N6  UNL     1      38.676  22.737  20.460  1.00  0.00    -0.068 N 
ATOM     40  H63 UNL     1      39.229  23.570  20.658  1.00  0.00     0.275 HD
ATOM     41  H62 UNL     1      38.860  22.258  21.341  1.00  0.00     0.275 HD
ATOM     42  H61 UNL     1      38.993  22.220  19.640  1.00  0.00     0.275 HD
ENDBRANCH  38  39
BRANCH  38  43
HETATM   43  C22 UNL     1      37.286  24.207  19.268  1.00  0.00     0.045 C 
BRANCH  43  44
HETATM   44  C23 UNL     1      36.320  24.187  18.151  1.00  0.00    -0.020 C 
HETATM   45  C24 UNL     1      35.400  25.360  18.060  1.00  0.00     0.009 C 
HETATM   46  C25 UNL     1      35.530  22.878  18.212  1.00  0.00     0.009 C 
ENDBRANCH  43  44
ENDBRANCH  38  43
ENDBRANCH  35  38
ENDBRANCH  33  35
ENDBRANCH  30  31
BRANCH  30  47
HETATM   47  C26 UNL     1      33.347  27.172  21.970  1.00  0.00     0.018 A 
HETATM   48  C27 UNL     1      32.757  27.920  20.824  1.00  0.00     0.007 A 
HETATM   49  C28 UNL     1      33.073  28.631  22.098  1.00  0.00     0.007 A 
ENDBRANCH  30  47
ENDBRANCH  28  30
ENDBRANCH   1  26
TORSDOF 18
ENDMDL
MODEL 3
REMARK VINA RESULT: -7.079498058      2.530      4.886
REMARK  18 active torsions:
REMARK  status: ('A' for Active; 'I' for Inactive)
REMARK    1  A    between atoms: N1_2  and  C2_5 
REMARK    2  A    between atoms: C2_5  and  C3_6 
REMARK    3  A    between atoms: C2_5  and  C11_15 
REMARK    4  A    between atoms: C3_6  and  S1_7 
REMARK    5  A    between atoms: S1_7  and  C4_8 
REMARK    6  A    between atoms: C4_8  and  C5_9 
REMARK       I    between atoms: C11_15  and  N2_17 
REMARK    7  A    between atoms: N2_17  and  C12_18 
REMARK    8  A    between atoms: N3_21  and  C15_22 
REMARK    9  A    between atoms: C15_22  and  C17_24 
REMARK       I    between atoms: C17_24  and  N4_26 
REMARK   10  A    between atoms: N4_26  and  C18_28 
REMARK   11  A    between atoms: C18_28  and  C19_29 
REMARK   12  A    between atoms: C18_28  and  C26_45 
REMARK       I    between atoms: C19_29  and  N5_31 
REMARK   13  A    between atoms: N5_31  and  C20_33 
REMARK   14  A    between atoms: C20_33  and  O4_34 
REMARK   15  A    between atoms: C20_33  and  C21_36 
REMARK   16  A    between atoms: C21_36  and  N6_37 
REMARK   17  A    between atoms: C21_36  and  C22_41 
REMARK   18  A    between atoms: C22_41  and  C23_42 
ROOT
HETATM    1  C15 UNL     1      37.197  29.007  19.443  1.00  0.00     0.175 C 
HETATM    2  C16 UNL     1      37.961  28.492  18.279  1.00  0.00     0.042 C 
ENDROOT
BRANCH   1   3
HETATM    3  N3  UNL     1      35.882  29.513  19.116  1.00  0.00    -0.336 N 
HETATM    4  C14 UNL     1      35.401  29.444  17.713  1.00  0.00     0.130 C 
HETATM    5  C13 UNL     1      33.924  29.537  17.863  1.00  0.00     0.069 C 
HETATM    6  C12 UNL     1      33.682  30.438  19.027  1.00  0.00     0.260 C 
HETATM    7  C29 UNL     1      34.911  30.148  19.902  1.00  0.00     0.256 C 
HETATM    8  O5  UNL     1      34.960  30.461  21.122  1.00  0.00    -0.270 OA
BRANCH   6   9
HETATM    9  N2  UNL     1      32.464  30.316  19.572  1.00  0.00    -0.398 NA
HETATM   10  C11 UNL     1      31.211  30.186  20.145  1.00  0.00     0.319 C 
HETATM   11  O1  UNL     1      30.918  29.752  21.286  1.00  0.00    -0.255 OA
BRANCH  10  12
HETATM   12  C2  UNL     1      29.999  30.609  19.340  1.00  0.00     0.300 C 
BRANCH  12  13
HETATM   13  N1  UNL     1      28.828  30.116  19.961  1.00  0.00    -0.064 N 
HETATM   14  C1  UNL     1      27.776  31.102  20.144  1.00  0.00     0.268 C 
ATOM     15  H12 UNL     1      29.058  29.675  20.852  1.00  0.00     0.277 HD
ATOM     16  H11 UNL     1      28.471  29.308  19.451  1.00  0.00     0.277 HD
ENDBRANCH  12  13
BRANCH  12  17
HETATM   17  C3  UNL     1      30.176  30.421  17.904  1.00  0.00     0.118 C 
BRANCH  17  18
HETATM   18  S1  UNL     1      29.560  28.899  17.187  1.00  0.00    -0.166 SA
BRANCH  18  19
HETATM   19  C4  UNL     1      30.802  27.589  17.410  1.00  0.00     0.078 C 
BRANCH  19  20
HETATM   20  C5  UNL     1      30.597  26.872  18.711  1.00  0.00    -0.005 C 
HETATM   21  C6  UNL     1      31.832  26.672  19.511  1.00  0.00     0.005 C 
HETATM   22  C7  UNL     1      32.691  25.530  19.115  1.00  0.00     0.000 C 
HETATM   23  C8  UNL     1      32.077  24.420  18.377  1.00  0.00     0.000 C 
HETATM   24  C9  UNL     1      30.663  24.539  17.944  1.00  0.00     0.000 C 
HETATM   25  C10 UNL     1      29.866  25.598  18.601  1.00  0.00     0.005 C 
ENDBRANCH  19  20
ENDBRANCH  18  19
ENDBRANCH  17  18
ENDBRANCH  12  17
ENDBRANCH  10  12
ENDBRANCH   6   9
ENDBRANCH   1   3
BRANCH   1  26
HETATM   26  C17 UNL     1      37.144  28.056  20.555  1.00  0.00     0.241 C 
HETATM   27  O2  UNL     1      38.069  28.159  21.420  1.00  0.00    -0.271 OA
HETATM   28  N4  UNL     1      36.180  27.063  20.746  1.00  0.00    -0.346 N 
ATOM     29  H4  UNL     1      35.433  26.935  20.064  1.00  0.00     0.163 HD
BRANCH  28  30
HETATM   30  C18 UNL     1      36.251  26.198  21.944  1.00  0.00     0.181 C 
BRANCH  30  31
HETATM   31  C19 UNL     1      36.524  24.789  21.584  1.00  0.00     0.246 C 
HETATM   32  O3  UNL     1      36.499  23.903  22.465  1.00  0.00    -0.271 OA
HETATM   33  N5  UNL     1      36.800  24.475  20.246  1.00  0.00    -0.308 N 
ATOM     34  H5  UNL     1      36.901  25.276  19.622  1.00  0.00     0.170 HD
BRANCH  33  35
HETATM   35  C20 UNL     1      36.957  23.232  19.646  1.00  0.00     0.149 C 
BRANCH  35  36
HETATM   36  O4  UNL     1      38.024  22.562  19.973  1.00  0.00    -0.348 OA
ATOM     37  H4  UNL     1      38.715  22.523  19.322  1.00  0.00     0.219 HD
ENDBRANCH  35  36
BRANCH  35  38
HETATM   38  C21 UNL     1      36.080  22.566  18.681  1.00  0.00     0.257 C 
BRANCH  38  39
HETATM   39  N6  UNL     1      35.646  23.625  17.738  1.00  0.00    -0.068 N 
ATOM     40  H63 UNL     1      34.700  23.963  17.910  1.00  0.00     0.275 HD
ATOM     41  H62 UNL     1      36.121  24.517  17.877  1.00  0.00     0.275 HD
ATOM     42  H61 UNL     1      35.777  23.232  16.806  1.00  0.00     0.275 HD
ENDBRANCH  38  39
BRANCH  38  43
HETATM   43  C22 UNL     1      34.777  22.182  19.374  1.00  0.00     0.045 C 
BRANCH  43  44
HETATM   44  C23 UNL     1      34.745  20.855  20.020  1.00  0.00    -0.020 C 
HETATM   45  C24 UNL     1      33.691  19.915  19.533  1.00  0.00     0.009 C 
HETATM   46  C25 UNL     1      34.643  21.051  21.534  1.00  0.00     0.009 C 
ENDBRANCH  43  44
ENDBRANCH  38  43
ENDBRANCH  35  38
ENDBRANCH  33  35
ENDBRANCH  30  31
BRANCH  30  47
HETATM   47  C26 UNL     1      35.121  26.448  22.836  1.00  0.00     0.018 A 
HETATM   48  C27 UNL     1      33.940  27.292  22.497  1.00  0.00     0.007 A 
HETATM   49  C28 UNL     1      34.959  27.787  23.470  1.00  0.00     0.007 A 
ENDBRANCH  30  47
ENDBRANCH  28  30
ENDBRANCH   1  26
TORSDOF 18
ENDMDL
MODEL 4
REMARK VINA RESULT: -6.897284438      2.083      2.947
REMARK  18 active torsions:
REMARK  status: ('A' for Active; 'I' for Inactive)
REMARK    1  A    between atoms: N1_2  and  C2_5 
REMARK    2  A    between atoms: C2_5  and  C3_6 
REMARK    3  A    between atoms: C2_5  and  C11_15 
REMARK    4  A    between atoms: C3_6  and  S1_7 
REMARK    5  A    between atoms: S1_7  and  C4_8 
REMARK    6  A    between atoms: C4_8  and  C5_9 
REMARK       I    between atoms: C11_15  and  N2_17 
REMARK    7  A    between atoms: N2_17  and  C12_18 
REMARK    8  A    between atoms: N3_21  and  C15_22 
REMARK    9  A    between atoms: C15_22  and  C17_24 
REMARK       I    between atoms: C17_24  and  N4_26 
REMARK   10  A    between atoms: N4_26  and  C18_28 
REMARK   11  A    between atoms: C18_28  and  C19_29 
REMARK   12  A    between atoms: C18_28  and  C26_45 
REMARK       I    between atoms: C19_29  and  N5_31 
REMARK   13  A    between atoms: N5_31  and  C20_33 
REMARK   14  A    between atoms: C20_33  and  O4_34 
REMARK   15  A    between atoms: C20_33  and  C21_36 
REMARK   16  A    between atoms: C21_36  and  N6_37 
REMARK   17  A    between atoms: C21_36  and  C22_41 
REMARK   18  A    between atoms: C22_41  and  C23_42 
ROOT
HETATM    1  C15 UNL     1      37.259  28.802  19.403  1.00  0.00     0.175 C 
HETATM    2  C16 UNL     1      38.708  28.788  19.084  1.00  0.00     0.042 C 
ENDROOT
BRANCH   1   3
HETATM    3  N3  UNL     1      36.399  28.508  18.279  1.00  0.00    -0.336 N 
HETATM    4  C14 UNL     1      36.084  27.095  17.949  1.00  0.00     0.130 C 
HETATM    5  C13 UNL     1      34.835  27.212  17.149  1.00  0.00     0.069 C 
HETATM    6  C12 UNL     1      34.953  28.483  16.378  1.00  0.00     0.260 C 
HETATM    7  C29 UNL     1      35.791  29.346  17.333  1.00  0.00     0.256 C 
HETATM    8  O5  UNL     1      35.868  30.598  17.218  1.00  0.00    -0.270 OA
BRANCH   6   9
HETATM    9  N2  UNL     1      33.784  28.967  15.935  1.00  0.00    -0.398 NA
HETATM   10  C11 UNL     1      32.573  29.455  15.479  1.00  0.00     0.319 C 
HETATM   11  O1  UNL     1      31.468  28.861  15.414  1.00  0.00    -0.255 OA
BRANCH  10  12
HETATM   12  C2  UNL     1      32.508  30.887  14.988  1.00  0.00     0.300 C 
BRANCH  12  13
HETATM   13  N1  UNL     1      33.663  31.583  15.413  1.00  0.00    -0.064 N 
HETATM   14  C1  UNL     1      34.447  32.172  14.340  1.00  0.00     0.268 C 
ATOM     15  H12 UNL     1      34.249  30.978  15.988  1.00  0.00     0.277 HD
ATOM     16  H11 UNL     1      33.414  32.293  16.101  1.00  0.00     0.277 HD
ENDBRANCH  12  13
BRANCH  12  17
HETATM   17  C3  UNL     1      31.196  31.497  15.185  1.00  0.00     0.118 C 
BRANCH  17  18
HETATM   18  S1  UNL     1      30.867  32.251  16.777  1.00  0.00    -0.166 SA
BRANCH  18  19
HETATM   19  C4  UNL     1      30.048  31.035  17.855  1.00  0.00     0.078 C 
BRANCH  19  20
HETATM   20  C5  UNL     1      30.529  31.164  19.270  1.00  0.00    -0.005 C 
HETATM   21  C6  UNL     1      31.925  31.650  19.408  1.00  0.00     0.005 C 
HETATM   22  C7  UNL     1      32.992  30.635  19.228  1.00  0.00     0.000 C 
HETATM   23  C8  UNL     1      32.654  29.224  19.446  1.00  0.00     0.000 C 
HETATM   24  C9  UNL     1      31.241  28.854  19.706  1.00  0.00     0.000 C 
HETATM   25  C10 UNL     1      30.338  29.960  20.095  1.00  0.00     0.005 C 
ENDBRANCH  19  20
ENDBRANCH  18  19
ENDBRANCH  17  18
ENDBRANCH  12  17
ENDBRANCH  10  12
ENDBRANCH   6   9
ENDBRANCH   1   3
BRANCH   1  26
HETATM   26  C17 UNL     1      36.925  27.976  20.565  1.00  0.00     0.241 C 
HETATM   27  O2  UNL     1      37.909  27.468  21.188  1.00  0.00    -0.271 OA
HETATM   28  N4  UNL     1      35.640  27.704  21.042  1.00  0.00    -0.346 N 
ATOM     29  H4  UNL     1      34.824  28.077  20.558  1.00  0.00     0.163 HD
BRANCH  28  30
HETATM   30  C18 UNL     1      35.473  26.872  22.254  1.00  0.00     0.181 C 
BRANCH  30  31
HETATM   31  C19 UNL     1      35.370  25.435  21.917  1.00  0.00     0.246 C 
HETATM   32  O3  UNL     1      34.263  24.941  21.614  1.00  0.00    -0.271 OA
HETATM   33  N5  UNL     1      36.533  24.651  21.938  1.00  0.00    -0.308 N 
ATOM     34  H5  UNL     1      37.366  25.117  22.298  1.00  0.00     0.170 HD
BRANCH  33  35
HETATM   35  C20 UNL     1      36.715  23.333  21.542  1.00  0.00     0.149 C 
BRANCH  35  36
HETATM   36  O4  UNL     1      36.379  22.417  22.404  1.00  0.00    -0.348 OA
ATOM     37  H4  UNL     1      36.290  21.533  22.069  1.00  0.00     0.219 HD
ENDBRANCH  35  36
BRANCH  35  38
HETATM   38  C21 UNL     1      37.244  22.823  20.275  1.00  0.00     0.257 C 
BRANCH  38  39
HETATM   39  N6  UNL     1      38.712  22.726  20.466  1.00  0.00    -0.068 N 
ATOM     40  H63 UNL     1      39.121  23.545  20.915  1.00  0.00     0.275 HD
ATOM     41  H62 UNL     1      38.989  22.048  21.176  1.00  0.00     0.275 HD
ATOM     42  H61 UNL     1      39.097  22.531  19.542  1.00  0.00     0.275 HD
ENDBRANCH  38  39
BRANCH  38  43
HETATM   43  C22 UNL     1      37.117  23.908  19.210  1.00  0.00     0.045 C 
BRANCH  43  44
HETATM   44  C23 UNL     1      36.155  23.647  18.122  1.00  0.00    -0.020 C 
HETATM   45  C24 UNL     1      34.774  23.265  18.547  1.00  0.00     0.009 C 
HETATM   46  C25 UNL     1      36.749  22.592  17.187  1.00  0.00     0.009 C 
ENDBRANCH  43  44
ENDBRANCH  38  43
ENDBRANCH  35  38
ENDBRANCH  33  35
ENDBRANCH  30  31
BRANCH  30  47
HETATM   47  C26 UNL     1      34.440  27.424  23.127  1.00  0.00     0.018 A 
HETATM   48  C27 UNL     1      33.157  28.019  22.658  1.00  0.00     0.007 A 
HETATM   49  C28 UNL     1      34.237  28.898  23.196  1.00  0.00     0.007 A 
ENDBRANCH  30  47
ENDBRANCH  28  30
ENDBRANCH   1  26
TORSDOF 18
ENDMDL
MODEL 5
REMARK VINA RESULT: -6.886991035      2.023      3.791
REMARK  18 active torsions:
REMARK  status: ('A' for Active; 'I' for Inactive)
REMARK    1  A    between atoms: N1_2  and  C2_5 
REMARK    2  A    between atoms: C2_5  and  C3_6 
REMARK    3  A    between atoms: C2_5  and  C11_15 
REMARK    4  A    between atoms: C3_6  and  S1_7 
REMARK    5  A    between atoms: S1_7  and  C4_8 
REMARK    6  A    between atoms: C4_8  and  C5_9 
REMARK       I    between atoms: C11_15  and  N2_17 
REMARK    7  A    between atoms: N2_17  and  C12_18 
REMARK    8  A    between atoms: N3_21  and  C15_22 
REMARK    9  A    between atoms: C15_22  and  C17_24 
REMARK       I    between atoms: C17_24  and  N4_26 
REMARK   10  A    between atoms: N4_26  and  C18_28 
REMARK   11  A    between atoms: C18_28  and  C19_29 
REMARK   12  A    between atoms: C18_28  and  C26_45 
REMARK       I    between atoms: C19_29  and  N5_31 
REMARK   13  A    between atoms: N5_31  and  C20_33 
REMARK   14  A    between atoms: C20_33  and  O4_34 
REMARK   15  A    between atoms: C20_33  and  C21_36 
REMARK   16  A    between atoms: C21_36  and  N6_37 
REMARK   17  A    between atoms: C21_36  and  C22_41 
REMARK   18  A    between atoms: C22_41  and  C23_42 
ROOT
HETATM    1  C15 UNL     1      37.712  28.789  19.834  1.00  0.00     0.175 C 
HETATM    2  C16 UNL     1      39.040  28.192  19.548  1.00  0.00     0.042 C 
ENDROOT
BRANCH   1   3
HETATM    3  N3  UNL     1      36.927  29.087  18.657  1.00  0.00    -0.336 N 
HETATM    4  C14 UNL     1      37.407  28.638  17.325  1.00  0.00     0.130 C 
HETATM    5  C13 UNL     1      36.165  28.640  16.507  1.00  0.00     0.069 C 
HETATM    6  C12 UNL     1      35.337  29.774  17.012  1.00  0.00     0.260 C 
HETATM    7  C29 UNL     1      35.738  29.810  18.495  1.00  0.00     0.256 C 
HETATM    8  O5  UNL     1      35.052  30.413  19.364  1.00  0.00    -0.270 OA
BRANCH   6   9
HETATM    9  N2  UNL     1      34.037  29.686  16.701  1.00  0.00    -0.398 NA
HETATM   10  C11 UNL     1      32.697  29.588  16.370  1.00  0.00     0.319 C 
HETATM   11  O1  UNL     1      32.171  28.930  15.439  1.00  0.00    -0.255 OA
BRANCH  10  12
HETATM   12  C2  UNL     1      31.686  30.347  17.206  1.00  0.00     0.300 C 
BRANCH  12  13
HETATM   13  N1  UNL     1      32.344  30.957  18.298  1.00  0.00    -0.064 N 
HETATM   14  C1  UNL     1      31.514  31.855  19.084  1.00  0.00     0.268 C 
ATOM     15  H12 UNL     1      33.185  31.440  17.981  1.00  0.00     0.277 HD
ATOM     16  H11 UNL     1      32.765  30.248  18.899  1.00  0.00     0.277 HD
ENDBRANCH  12  13
BRANCH  12  17
HETATM   17  C3  UNL     1      30.463  29.588  17.446  1.00  0.00     0.118 C 
BRANCH  17  18
HETATM   18  S1  UNL     1      30.526  28.286  18.675  1.00  0.00    -0.166 SA
BRANCH  18  19
HETATM   19  C4  UNL     1      30.750  26.686  17.838  1.00  0.00     0.078 C 
BRANCH  19  20
HETATM   20  C5  UNL     1      31.888  25.920  18.445  1.00  0.00    -0.005 C 
HETATM   21  C6  UNL     1      33.237  26.408  18.063  1.00  0.00     0.005 C 
HETATM   22  C7  UNL     1      33.748  25.957  16.746  1.00  0.00     0.000 C 
HETATM   23  C8  UNL     1      33.195  24.726  16.168  1.00  0.00     0.000 C 
HETATM   24  C9  UNL     1      32.063  24.056  16.854  1.00  0.00     0.000 C 
HETATM   25  C10 UNL     1      31.816  24.461  18.255  1.00  0.00     0.005 C 
ENDBRANCH  19  20
ENDBRANCH  18  19
ENDBRANCH  17  18
ENDBRANCH  12  17
ENDBRANCH  10  12
ENDBRANCH   6   9
ENDBRANCH   1   3
BRANCH   1  26
HETATM   26  C17 UNL     1      36.941  28.019  20.813  1.00  0.00     0.241 C 
HETATM   27  O2  UNL     1      37.519  27.792  21.921  1.00  0.00    -0.271 OA
HETATM   28  N4  UNL     1      35.647  27.523  20.637  1.00  0.00    -0.346 N 
ATOM     29  H4  UNL     1      35.158  27.667  19.754  1.00  0.00     0.163 HD
BRANCH  28  30
HETATM   30  C18 UNL     1      34.992  26.788  21.741  1.00  0.00     0.181 C 
BRANCH  30  31
HETATM   31  C19 UNL     1      35.124  25.324  21.574  1.00  0.00     0.246 C 
HETATM   32  O3  UNL     1      34.139  24.645  21.210  1.00  0.00    -0.271 OA
HETATM   33  N5  UNL     1      36.366  24.724  21.823  1.00  0.00    -0.308 N 
ATOM     34  H5  UNL     1      37.078  25.341  22.215  1.00  0.00     0.170 HD
BRANCH  33  35
HETATM   35  C20 UNL     1      36.770  23.411  21.614  1.00  0.00     0.149 C 
BRANCH  35  36
HETATM   36  O4  UNL     1      36.795  22.639  22.662  1.00  0.00    -0.348 OA
ATOM     37  H4  UNL     1      36.091  22.006  22.737  1.00  0.00     0.219 HD
ENDBRANCH  35  36
BRANCH  35  38
HETATM   38  C21 UNL     1      37.182  22.769  20.364  1.00  0.00     0.257 C 
BRANCH  38  39
HETATM   39  N6  UNL     1      38.659  22.656  20.441  1.00  0.00    -0.068 N 
ATOM     40  H63 UNL     1      39.067  23.163  21.226  1.00  0.00     0.275 HD
ATOM     41  H62 UNL     1      38.985  21.729  20.713  1.00  0.00     0.275 HD
ATOM     42  H61 UNL     1      39.005  22.961  19.532  1.00  0.00     0.275 HD
ENDBRANCH  38  39
BRANCH  38  43
HETATM   43  C22 UNL     1      36.981  23.748  19.211  1.00  0.00     0.045 C 
BRANCH  43  44
HETATM   44  C23 UNL     1      35.955  23.384  18.215  1.00  0.00    -0.020 C 
HETATM   45  C24 UNL     1      34.916  22.412  18.670  1.00  0.00     0.009 C 
HETATM   46  C25 UNL     1      36.657  22.879  16.953  1.00  0.00     0.009 C 
ENDBRANCH  43  44
ENDBRANCH  38  43
ENDBRANCH  35  38
ENDBRANCH  33  35
ENDBRANCH  30  31
BRANCH  30  47
HETATM   47  C26 UNL     1      33.650  27.308  21.992  1.00  0.00     0.018 A 
HETATM   48  C27 UNL     1      33.061  28.501  21.320  1.00  0.00     0.007 A 
HETATM   49  C28 UNL     1      33.478  28.578  22.752  1.00  0.00     0.007 A 
ENDBRANCH  30  47
ENDBRANCH  28  30
ENDBRANCH   1  26
TORSDOF 18
ENDMDL
