MODEL 1
REMARK VINA RESULT: -5.755196262      0.000      0.000
REMARK  6 active torsions:
REMARK  status: ('A' for Active; 'I' for Inactive)
REMARK    1  A    between atoms: C2_2  and  O1_5 
REMARK    2  A    between atoms: O1_5  and  C5_6 
REMARK    3  A    between atoms: C5_6  and  C6_8 
REMARK    4  A    between atoms: C6_8  and  N1_9 
REMARK    5  A    between atoms: C9_12  and  N2_13 
REMARK       I    between atoms: N2_13  and  C10_15 
REMARK       I    between atoms: C10_15  and  N4_19 
REMARK    6  A    between atoms: N4_19  and  C11_21 
ROOT
HETATM    1  N1  UNL     1      37.137  25.822  19.978  1.00  0.00     0.095 N 
HETATM    2  C7  UNL     1      37.522  27.102  20.553  1.00  0.00     0.275 C 
HETATM    3  C8  UNL     1      36.292  27.973  20.617  1.00  0.00     0.056 C 
HETATM    4  C9  UNL     1      36.009  28.463  19.213  1.00  0.00     0.102 C 
HETATM    5  C17 UNL     1      36.239  27.355  18.254  1.00  0.00     0.056 C 
HETATM    6  C18 UNL     1      36.280  25.972  18.845  1.00  0.00     0.275 C 
ENDROOT
BRANCH   4   7
HETATM    7  N2  UNL     1      34.695  29.071  19.120  1.00  0.00    -0.222 N 
HETATM    8  C10 UNL     1      34.470  30.033  18.075  1.00  0.00     0.668 C 
HETATM    9  N3  UNL     1      35.450  30.640  17.513  1.00  0.00    -0.235 N 
HETATM   10  N4  UNL     1      33.159  30.343  17.630  1.00  0.00    -0.222 N 
ATOM     11  H32 UNL     1      36.393  30.418  17.833  1.00  0.00     0.174 HD
ATOM     12  H31 UNL     1      35.291  31.322  16.772  1.00  0.00     0.174 HD
ATOM     13  H4  UNL     1      32.734  29.742  16.925  1.00  0.00     0.178 HD
ATOM     14  H2  UNL     1      33.954  28.823  19.776  1.00  0.00     0.178 HD
BRANCH  10  15
HETATM   15  C11 UNL     1      32.394  31.463  18.124  1.00  0.00     0.099 C 
HETATM   16  C12 UNL     1      31.153  31.763  17.348  1.00  0.00     0.026 C 
HETATM   17  C13 UNL     1      30.035  30.786  17.616  1.00  0.00     0.002 C 
HETATM   18  C14 UNL     1      29.883  30.478  19.084  1.00  0.00     0.000 C 
HETATM   19  C15 UNL     1      31.181  30.128  19.754  1.00  0.00     0.002 C 
HETATM   20  C16 UNL     1      32.111  31.318  19.613  1.00  0.00     0.026 C 
ENDBRANCH  10  15
ENDBRANCH   4   7
BRANCH   1  21
HETATM   21  C6  UNL     1      36.631  25.021  21.032  1.00  0.00     0.348 C 
BRANCH  21  22
HETATM   22  C5  UNL     1      36.777  23.570  20.906  1.00  0.00     0.141 C 
HETATM   23  S1  UNL     1      38.200  22.859  20.611  1.00  0.00    -0.056 SA
BRANCH  22  24
HETATM   24  O1  UNL     1      35.668  22.720  21.038  1.00  0.00    -0.332 OA
BRANCH  24  25
HETATM   25  C2  UNL     1      34.885  22.305  19.950  1.00  0.00     0.058 C 
HETATM   26  C1  UNL     1      35.635  22.277  18.642  1.00  0.00     0.045 C 
HETATM   27  C3  UNL     1      33.691  23.224  19.744  1.00  0.00     0.045 C 
HETATM   28  C4  UNL     1      34.360  20.918  20.281  1.00  0.00     0.045 C 
ENDBRANCH  24  25
ENDBRANCH  22  24
ENDBRANCH  21  22
ENDBRANCH   1  21
TORSDOF 6
ENDMDL
MODEL 2
REMARK VINA RESULT: -5.687401881      3.098      4.469
REMARK  6 active torsions:
REMARK  status: ('A' for Active; 'I' for Inactive)
REMARK    1  A    between atoms: C2_2  and  O1_5 
REMARK    2  A    between atoms: O1_5  and  C5_6 
REMARK    3  A    between atoms: C5_6  and  C6_8 
REMARK    4  A    between atoms: C6_8  and  N1_9 
REMARK    5  A    between atoms: C9_12  and  N2_13 
REMARK       I    between atoms: N2_13  and  C10_15 
REMARK       I    between atoms: C10_15  and  N4_19 
REMARK    6  A    between atoms: N4_19  and  C11_21 
ROOT
HETATM    1  N1  UNL     1      36.563  27.001  22.186  1.00  0.00     0.095 N 
HETATM    2  C7  UNL     1      35.519  26.014  22.414  1.00  0.00     0.275 C 
HETATM    3  C8  UNL     1      34.219  26.584  21.901  1.00  0.00     0.056 C 
HETATM    4  C9  UNL     1      33.745  27.612  22.906  1.00  0.00     0.102 C 
HETATM    5  C17 UNL     1      34.908  28.397  23.386  1.00  0.00     0.056 C 
HETATM    6  C18 UNL     1      36.148  28.322  22.536  1.00  0.00     0.275 C 
ENDROOT
BRANCH   4   7
HETATM    7  N2  UNL     1      32.662  28.414  22.371  1.00  0.00    -0.222 N 
HETATM    8  C10 UNL     1      32.744  28.824  20.995  1.00  0.00     0.668 C 
HETATM    9  N3  UNL     1      33.869  28.853  20.379  1.00  0.00    -0.235 N 
HETATM   10  N4  UNL     1      31.586  29.212  20.272  1.00  0.00    -0.222 N 
ATOM     11  H32 UNL     1      34.702  28.575  20.898  1.00  0.00     0.174 HD
ATOM     12  H31 UNL     1      33.927  29.144  19.403  1.00  0.00     0.174 HD
ATOM     13  H4  UNL     1      31.023  28.482  19.836  1.00  0.00     0.178 HD
ATOM     14  H2  UNL     1      31.866  28.678  22.953  1.00  0.00     0.178 HD
BRANCH  10  15
HETATM   15  C11 UNL     1      31.161  30.583  20.123  1.00  0.00     0.099 C 
HETATM   16  C12 UNL     1      32.185  31.492  19.526  1.00  0.00     0.026 C 
HETATM   17  C13 UNL     1      32.351  31.304  18.038  1.00  0.00     0.002 C 
HETATM   18  C14 UNL     1      31.029  31.179  17.325  1.00  0.00     0.000 C 
HETATM   19  C15 UNL     1      30.097  30.192  17.972  1.00  0.00     0.002 C 
HETATM   20  C16 UNL     1      29.830  30.667  19.387  1.00  0.00     0.026 C 
ENDBRANCH  10  15
ENDBRANCH   4   7
BRANCH   1  21
HETATM   21  C6  UNL     1      37.021  26.831  20.855  1.00  0.00     0.348 C 
BRANCH  21  22
HETATM   22  C5  UNL     1      37.580  28.003  20.180  1.00  0.00     0.141 C 
HETATM   23  S1  UNL     1      39.096  28.512  20.427  1.00  0.00    -0.056 SA
BRANCH  22  24
HETATM   24  O1  UNL     1      36.810  28.746  19.271  1.00  0.00    -0.332 OA
BRANCH  24  25
HETATM   25  C2  UNL     1      36.638  28.377  17.929  1.00  0.00     0.058 C 
HETATM   26  C1  UNL     1      35.513  27.396  17.712  1.00  0.00     0.045 C 
HETATM   27  C3  UNL     1      37.894  27.725  17.368  1.00  0.00     0.045 C 
HETATM   28  C4  UNL     1      36.378  29.652  17.144  1.00  0.00     0.045 C 
ENDBRANCH  24  25
ENDBRANCH  22  24
ENDBRANCH  21  22
ENDBRANCH   1  21
TORSDOF 6
ENDMDL
MODEL 3
REMARK VINA RESULT: -5.636191035      4.142      8.937
REMARK  6 active torsions:
REMARK  status: ('A' for Active; 'I' for Inactive)
REMARK    1  A    between atoms: C2_2  and  O1_5 
REMARK    2  A    between atoms: O1_5  and  C5_6 
REMARK    3  A    between atoms: C5_6  and  C6_8 
REMARK    4  A    between atoms: C6_8  and  N1_9 
REMARK    5  A    between atoms: C9_12  and  N2_13 
REMARK       I    between atoms: N2_13  and  C10_15 
REMARK       I    between atoms: C10_15  and  N4_19 
REMARK    6  A    between atoms: N4_19  and  C11_21 
ROOT
HETATM    1  N1  UNL     1      35.896  24.422  20.470  1.00  0.00     0.095 N 
HETATM    2  C7  UNL     1      36.465  23.229  21.078  1.00  0.00     0.275 C 
HETATM    3  C8  UNL     1      36.501  22.144  20.030  1.00  0.00     0.056 C 
HETATM    4  C9  UNL     1      35.088  21.628  19.863  1.00  0.00     0.102 C 
HETATM    5  C17 UNL     1      34.143  22.770  19.898  1.00  0.00     0.056 C 
HETATM    6  C18 UNL     1      34.748  24.130  19.672  1.00  0.00     0.275 C 
ENDROOT
BRANCH   4   7
HETATM    7  N2  UNL     1      34.969  20.788  18.686  1.00  0.00    -0.222 N 
HETATM    8  C10 UNL     1      34.068  19.669  18.747  1.00  0.00     0.668 C 
HETATM    9  N3  UNL     1      33.699  19.176  19.872  1.00  0.00    -0.235 N 
HETATM   10  N4  UNL     1      33.556  19.072  17.565  1.00  0.00    -0.222 N 
ATOM     11  H32 UNL     1      34.067  19.604  20.721  1.00  0.00     0.174 HD
ATOM     12  H31 UNL     1      33.060  18.382  19.914  1.00  0.00     0.174 HD
ATOM     13  H4  UNL     1      32.730  19.486  17.134  1.00  0.00     0.178 HD
ATOM     14  H2  UNL     1      35.507  20.986  17.842  1.00  0.00     0.178 HD
BRANCH  10  15
HETATM   15  C11 UNL     1      34.143  17.910  16.940  1.00  0.00     0.099 C 
HETATM   16  C12 UNL     1      33.316  17.298  15.859  1.00  0.00     0.026 C 
HETATM   17  C13 UNL     1      33.334  18.089  14.574  1.00  0.00     0.002 C 
HETATM   18  C14 UNL     1      34.721  18.558  14.211  1.00  0.00     0.000 C 
HETATM   19  C15 UNL     1      35.443  19.217  15.353  1.00  0.00     0.002 C 
HETATM   20  C16 UNL     1      35.563  18.200  16.472  1.00  0.00     0.026 C 
ENDBRANCH  10  15
ENDBRANCH   4   7
BRANCH   1  21
HETATM   21  C6  UNL     1      36.949  25.104  19.810  1.00  0.00     0.348 C 
BRANCH  21  22
HETATM   22  C5  UNL     1      37.399  26.370  20.388  1.00  0.00     0.141 C 
HETATM   23  S1  UNL     1      38.175  27.497  19.525  1.00  0.00    -0.056 SA
BRANCH  22  24
HETATM   24  O1  UNL     1      37.169  26.666  21.741  1.00  0.00    -0.332 OA
BRANCH  24  25
HETATM   25  C2  UNL     1      36.076  27.425  22.186  1.00  0.00     0.058 C 
HETATM   26  C1  UNL     1      35.095  27.768  21.093  1.00  0.00     0.045 C 
HETATM   27  C3  UNL     1      36.527  28.746  22.792  1.00  0.00     0.045 C 
HETATM   28  C4  UNL     1      35.386  26.619  23.274  1.00  0.00     0.045 C 
ENDBRANCH  24  25
ENDBRANCH  22  24
ENDBRANCH  21  22
ENDBRANCH   1  21
TORSDOF 6
ENDMDL
MODEL 4
REMARK VINA RESULT: -5.621636459      1.276      1.510
REMARK  6 active torsions:
REMARK  status: ('A' for Active; 'I' for Inactive)
REMARK    1  A    between atoms: C2_2  and  O1_5 
REMARK    2  A    between atoms: O1_5  and  C5_6 
REMARK    3  A    between atoms: C5_6  and  C6_8 
REMARK    4  A    between atoms: C6_8  and  N1_9 
REMARK    5  A    between atoms: C9_12  and  N2_13 
REMARK       I    between atoms: N2_13  and  C10_15 
REMARK       I    between atoms: C10_15  and  N4_19 
REMARK    6  A    between atoms: N4_19  and  C11_21 
ROOT
HETATM    1  N1  UNL     1      36.684  25.159  20.700  1.00  0.00     0.095 N 
HETATM    2  C7  UNL     1      36.364  25.915  21.901  1.00  0.00     0.275 C 
HETATM    3  C8  UNL     1      35.099  26.696  21.637  1.00  0.00     0.056 C 
HETATM    4  C9  UNL     1      35.466  27.869  20.754  1.00  0.00     0.102 C 
HETATM    5  C17 UNL     1      36.440  27.423  19.729  1.00  0.00     0.056 C 
HETATM    6  C18 UNL     1      36.532  25.936  19.511  1.00  0.00     0.275 C 
ENDROOT
BRANCH   4   7
HETATM    7  N2  UNL     1      34.284  28.513  20.214  1.00  0.00    -0.222 N 
HETATM    8  C10 UNL     1      34.373  29.908  19.872  1.00  0.00     0.668 C 
HETATM    9  N3  UNL     1      35.282  30.656  20.381  1.00  0.00    -0.235 N 
HETATM   10  N4  UNL     1      33.461  30.502  18.962  1.00  0.00    -0.222 N 
ATOM     11  H32 UNL     1      35.938  30.229  21.035  1.00  0.00     0.174 HD
ATOM     12  H31 UNL     1      35.346  31.645  20.138  1.00  0.00     0.174 HD
ATOM     13  H4  UNL     1      33.657  30.427  17.965  1.00  0.00     0.178 HD
ATOM     14  H2  UNL     1      33.416  27.993  20.082  1.00  0.00     0.178 HD
BRANCH  10  15
HETATM   15  C11 UNL     1      32.270  31.206  19.374  1.00  0.00     0.099 C 
HETATM   16  C12 UNL     1      31.593  31.976  18.288  1.00  0.00     0.026 C 
HETATM   17  C13 UNL     1      30.832  31.102  17.323  1.00  0.00     0.002 C 
HETATM   18  C14 UNL     1      30.029  30.037  18.027  1.00  0.00     0.000 C 
HETATM   19  C15 UNL     1      30.822  29.278  19.055  1.00  0.00     0.002 C 
HETATM   20  C16 UNL     1      31.304  30.273  20.093  1.00  0.00     0.026 C 
ENDBRANCH  10  15
ENDBRANCH   4   7
BRANCH   1  21
HETATM   21  C6  UNL     1      35.938  23.954  20.748  1.00  0.00     0.348 C 
BRANCH  21  22
HETATM   22  C5  UNL     1      36.613  22.726  20.328  1.00  0.00     0.141 C 
HETATM   23  S1  UNL     1      38.220  22.552  20.381  1.00  0.00    -0.056 SA
BRANCH  22  24
HETATM   24  O1  UNL     1      35.879  21.627  19.853  1.00  0.00    -0.332 OA
BRANCH  24  25
HETATM   25  C2  UNL     1      35.253  21.607  18.598  1.00  0.00     0.058 C 
HETATM   26  C1  UNL     1      36.197  21.850  17.448  1.00  0.00     0.045 C 
HETATM   27  C3  UNL     1      34.171  22.673  18.501  1.00  0.00     0.045 C 
HETATM   28  C4  UNL     1      34.590  20.248  18.452  1.00  0.00     0.045 C 
ENDBRANCH  24  25
ENDBRANCH  22  24
ENDBRANCH  21  22
ENDBRANCH   1  21
TORSDOF 6
ENDMDL
MODEL 5
REMARK VINA RESULT: -5.596547102      4.391      8.371
REMARK  6 active torsions:
REMARK  status: ('A' for Active; 'I' for Inactive)
REMARK    1  A    between atoms: C2_2  and  O1_5 
REMARK    2  A    between atoms: O1_5  and  C5_6 
REMARK    3  A    between atoms: C5_6  and  C6_8 
REMARK    4  A    between atoms: C6_8  and  N1_9 
REMARK    5  A    between atoms: C9_12  and  N2_13 
REMARK       I    between atoms: N2_13  and  C10_15 
REMARK       I    between atoms: C10_15  and  N4_19 
REMARK    6  A    between atoms: N4_19  and  C11_21 
ROOT
HETATM    1  N1  UNL     1      36.509  23.432  19.892  1.00  0.00     0.095 N 
HETATM    2  C7  UNL     1      36.971  22.588  18.800  1.00  0.00     0.275 C 
HETATM    3  C8  UNL     1      35.760  22.107  18.039  1.00  0.00     0.056 C 
HETATM    4  C9  UNL     1      35.105  21.022  18.867  1.00  0.00     0.102 C 
HETATM    5  C17 UNL     1      35.132  21.415  20.297  1.00  0.00     0.056 C 
HETATM    6  C18 UNL     1      35.385  22.873  20.573  1.00  0.00     0.275 C 
ENDROOT
BRANCH   4   7
HETATM    7  N2  UNL     1      33.785  20.696  18.361  1.00  0.00    -0.222 N 
HETATM    8  C10 UNL     1      33.375  19.318  18.388  1.00  0.00     0.668 C 
HETATM    9  N3  UNL     1      34.239  18.372  18.457  1.00  0.00    -0.235 N 
HETATM   10  N4  UNL     1      32.003  18.957  18.339  1.00  0.00    -0.222 N 
ATOM     11  H32 UNL     1      35.225  18.631  18.492  1.00  0.00     0.174 HD
ATOM     12  H31 UNL     1      33.948  17.394  18.476  1.00  0.00     0.174 HD
ATOM     13  H4  UNL     1      31.476  18.946  19.212  1.00  0.00     0.178 HD
ATOM     14  H2  UNL     1      33.167  21.422  17.998  1.00  0.00     0.178 HD
BRANCH  10  15
HETATM   15  C11 UNL     1      31.315  18.606  17.120  1.00  0.00     0.099 C 
HETATM   16  C12 UNL     1      29.952  18.029  17.317  1.00  0.00     0.026 C 
HETATM   17  C13 UNL     1      28.917  19.061  17.691  1.00  0.00     0.002 C 
HETATM   18  C14 UNL     1      29.031  20.313  16.859  1.00  0.00     0.000 C 
HETATM   19  C15 UNL     1      30.434  20.847  16.779  1.00  0.00     0.002 C 
HETATM   20  C16 UNL     1      31.300  19.775  16.144  1.00  0.00     0.026 C 
ENDBRANCH  10  15
ENDBRANCH   4   7
BRANCH   1  21
HETATM   21  C6  UNL     1      36.327  24.737  19.369  1.00  0.00     0.348 C 
BRANCH  21  22
HETATM   22  C5  UNL     1      37.236  25.783  19.839  1.00  0.00     0.141 C 
HETATM   23  S1  UNL     1      38.172  26.641  18.837  1.00  0.00    -0.056 SA
BRANCH  22  24
HETATM   24  O1  UNL     1      37.333  26.093  21.205  1.00  0.00    -0.332 OA
BRANCH  24  25
HETATM   25  C2  UNL     1      36.437  26.951  21.862  1.00  0.00     0.058 C 
HETATM   26  C1  UNL     1      35.552  27.733  20.925  1.00  0.00     0.045 C 
HETATM   27  C3  UNL     1      37.173  27.972  22.716  1.00  0.00     0.045 C 
HETATM   28  C4  UNL     1      35.590  26.089  22.784  1.00  0.00     0.045 C 
ENDBRANCH  24  25
ENDBRANCH  22  24
ENDBRANCH  21  22
ENDBRANCH   1  21
TORSDOF 6
ENDMDL
