MODEL 1
REMARK VINA RESULT: -7.674214203      0.000      0.000
REMARK  6 active torsions:
REMARK  status: ('A' for Active; 'I' for Inactive)
REMARK    1  A    between atoms: N1_1  and  N2_4 
REMARK    2  A    between atoms: C3_9  and  N4_10 
REMARK    3  A    between atoms: N4_10  and  C4_12 
REMARK    4  A    between atoms: C4_12  and  C5_13 
REMARK       I    between atoms: N7_19  and  C7_21 
REMARK       I    between atoms: C7_21  and  N8_23 
REMARK    5  A    between atoms: N8_23  and  N9_25 
REMARK    6  A    between atoms: C8_27  and  C9_28 
ROOT
HETATM    1  C5  UNL     1      70.537  38.049  28.227  1.00  0.00     0.087 A 
HETATM    2  N5  UNL     1      69.704  38.982  28.665  1.00  0.00    -0.294 N 
ATOM      3  H5  UNL     1      69.682  39.896  28.214  1.00  0.00     0.187 HD
HETATM    4  N6  UNL     1      68.935  38.740  29.644  1.00  0.00    -0.279 N 
ATOM      5  H6  UNL     1      68.292  39.454  29.984  1.00  0.00     0.189 HD
HETATM    6  C6  UNL     1      68.978  37.538  30.221  1.00  0.00     0.169 A 
HETATM    7  N7  UNL     1      68.275  37.086  31.235  1.00  0.00    -0.286 N 
ATOM      8  H7  UNL     1      68.405  36.138  31.587  1.00  0.00     0.172 HD
HETATM    9  C7  UNL     1      67.339  37.955  31.818  1.00  0.00     0.340 C 
HETATM   10  O1  UNL     1      66.182  38.077  31.315  1.00  0.00    -0.245 OA
HETATM   11  N8  UNL     1      67.682  38.704  32.977  1.00  0.00    -0.252 N 
ATOM     12  H8  UNL     1      68.610  38.610  33.388  1.00  0.00     0.191 HD
HETATM   13  S1  UNL     1      70.188  36.756  29.286  1.00  0.00    -0.036 SA
ENDROOT
BRANCH   1  14
HETATM   14  C4  UNL     1      71.505  38.165  27.102  1.00  0.00     0.204 C 
BRANCH  14  15
HETATM   15  N4  UNL     1      72.032  39.480  27.001  1.00  0.00    -0.219 N 
ATOM     16  H4  UNL     1      71.742  40.084  26.232  1.00  0.00     0.178 HD
BRANCH  15  17
HETATM   17  C3  UNL     1      72.962  39.960  27.965  1.00  0.00     0.690 C 
HETATM   18  N2  UNL     1      72.894  41.274  28.496  1.00  0.00    -0.129 N 
HETATM   19  C1  UNL     1      73.792  41.370  29.648  1.00  0.00     0.187 C 
HETATM   20  C2  UNL     1      74.670  40.153  29.436  1.00  0.00     0.160 C 
HETATM   21  N3  UNL     1      73.947  39.349  28.491  1.00  0.00    -0.223 N 
ATOM     22  H3  UNL     1      74.196  38.386  28.264  1.00  0.00     0.177 HD
BRANCH  18  23
HETATM   23  N1  UNL     1      72.107  42.323  28.022  1.00  0.00    -0.329 N 
ATOM     24  H12 UNL     1      71.115  42.472  28.207  1.00  0.00     0.177 HD
ATOM     25  H11 UNL     1      72.450  43.076  27.425  1.00  0.00     0.177 HD
ENDBRANCH  18  23
ENDBRANCH  15  17
ENDBRANCH  14  15
ENDBRANCH   1  14
BRANCH  11  26
HETATM   26  N9  UNL     1      66.754  39.561  33.547  1.00  0.00    -0.304 N 
HETATM   27  C8  UNL     1      66.960  40.050  34.719  1.00  0.00     0.157 C 
ATOM     28  H9  UNL     1      65.906  39.805  33.036  1.00  0.00     0.186 HD
BRANCH  27  29
HETATM   29  C9  UNL     1      68.150  39.734  35.483  1.00  0.00     0.148 A 
HETATM   30  N10 UNL     1      69.230  40.515  35.631  1.00  0.00    -0.269 N 
HETATM   31  N11 UNL     1      70.102  39.878  36.397  1.00  0.00    -0.007 NA
ATOM     32  H10 UNL     1      69.357  41.442  35.224  1.00  0.00     0.185 HD
HETATM   33  N12 UNL     1      69.615  38.697  36.750  1.00  0.00    -0.007 NA
HETATM   34  N13 UNL     1      68.415  38.619  36.182  1.00  0.00    -0.269 N 
ATOM     35  H13 UNL     1      67.784  37.822  36.266  1.00  0.00     0.185 HD
ENDBRANCH  27  29
ENDBRANCH  11  26
TORSDOF 6
ENDMDL
MODEL 2
REMARK VINA RESULT: -7.658855874      3.110      6.257
REMARK  6 active torsions:
REMARK  status: ('A' for Active; 'I' for Inactive)
REMARK    1  A    between atoms: N1_1  and  N2_4 
REMARK    2  A    between atoms: C3_9  and  N4_10 
REMARK    3  A    between atoms: N4_10  and  C4_12 
REMARK    4  A    between atoms: C4_12  and  C5_13 
REMARK       I    between atoms: N7_19  and  C7_21 
REMARK       I    between atoms: C7_21  and  N8_23 
REMARK    5  A    between atoms: N8_23  and  N9_25 
REMARK    6  A    between atoms: C8_27  and  C9_28 
ROOT
HETATM    1  C5  UNL     1      70.196  36.761  28.491  1.00  0.00     0.087 A 
HETATM    2  N5  UNL     1      70.915  37.402  29.401  1.00  0.00    -0.294 N 
ATOM      3  H5  UNL     1      70.904  37.088  30.371  1.00  0.00     0.187 HD
HETATM    4  N6  UNL     1      71.616  38.404  29.068  1.00  0.00    -0.279 N 
ATOM      5  H6  UNL     1      72.171  38.901  29.764  1.00  0.00     0.189 HD
HETATM    6  C6  UNL     1      71.617  38.801  27.794  1.00  0.00     0.169 A 
HETATM    7  N7  UNL     1      72.266  39.803  27.244  1.00  0.00    -0.286 N 
ATOM      8  H7  UNL     1      72.181  40.004  26.248  1.00  0.00     0.172 HD
HETATM    9  C7  UNL     1      73.081  40.587  28.077  1.00  0.00     0.340 C 
HETATM   10  O1  UNL     1      74.262  40.217  28.345  1.00  0.00    -0.245 OA
HETATM   11  N8  UNL     1      72.585  41.802  28.623  1.00  0.00    -0.252 N 
ATOM     12  H8  UNL     1      71.636  42.108  28.410  1.00  0.00     0.191 HD
HETATM   13  S1  UNL     1      70.554  37.655  27.082  1.00  0.00    -0.036 SA
ENDROOT
BRANCH   1  14
HETATM   14  C4  UNL     1      69.319  35.578  28.708  1.00  0.00     0.204 C 
BRANCH  14  15
HETATM   15  N4  UNL     1      68.822  35.534  30.039  1.00  0.00    -0.219 N 
ATOM     16  H4  UNL     1      69.194  34.847  30.696  1.00  0.00     0.178 HD
BRANCH  15  17
HETATM   17  C3  UNL     1      67.810  36.441  30.460  1.00  0.00     0.690 C 
HETATM   18  N2  UNL     1      68.049  37.445  31.434  1.00  0.00    -0.129 N 
HETATM   19  C1  UNL     1      66.921  38.378  31.444  1.00  0.00     0.187 C 
HETATM   20  C2  UNL     1      65.865  37.568  30.719  1.00  0.00     0.160 C 
HETATM   21  N3  UNL     1      66.601  36.517  30.071  1.00  0.00    -0.223 N 
ATOM     22  H3  UNL     1      66.195  35.896  29.372  1.00  0.00     0.177 HD
BRANCH  18  23
HETATM   23  N1  UNL     1      69.167  37.553  32.260  1.00  0.00    -0.329 N 
ATOM     24  H12 UNL     1      69.256  38.139  33.091  1.00  0.00     0.177 HD
ATOM     25  H11 UNL     1      70.039  37.043  32.119  1.00  0.00     0.177 HD
ENDBRANCH  18  23
ENDBRANCH  15  17
ENDBRANCH  14  15
ENDBRANCH   1  14
BRANCH  11  26
HETATM   26  N9  UNL     1      73.393  42.571  29.445  1.00  0.00    -0.304 N 
HETATM   27  C8  UNL     1      73.351  42.416  30.722  1.00  0.00     0.157 C 
ATOM     28  H9  UNL     1      74.022  43.262  29.037  1.00  0.00     0.186 HD
BRANCH  27  29
HETATM   29  C9  UNL     1      72.475  41.448  31.348  1.00  0.00     0.148 A 
HETATM   30  N10 UNL     1      72.796  40.194  31.696  1.00  0.00    -0.269 N 
HETATM   31  N11 UNL     1      71.729  39.626  32.238  1.00  0.00    -0.007 NA
ATOM     32  H10 UNL     1      73.707  39.753  31.566  1.00  0.00     0.185 HD
HETATM   33  N12 UNL     1      70.719  40.483  32.249  1.00  0.00    -0.007 NA
HETATM   34  N13 UNL     1      71.187  41.599  31.699  1.00  0.00    -0.269 N 
ATOM     35  H13 UNL     1      70.645  42.452  31.563  1.00  0.00     0.185 HD
ENDBRANCH  27  29
ENDBRANCH  11  26
TORSDOF 6
ENDMDL
MODEL 3
REMARK VINA RESULT: -7.651978062      3.208      5.139
REMARK  6 active torsions:
REMARK  status: ('A' for Active; 'I' for Inactive)
REMARK    1  A    between atoms: N1_1  and  N2_4 
REMARK    2  A    between atoms: C3_9  and  N4_10 
REMARK    3  A    between atoms: N4_10  and  C4_12 
REMARK    4  A    between atoms: C4_12  and  C5_13 
REMARK       I    between atoms: N7_19  and  C7_21 
REMARK       I    between atoms: C7_21  and  N8_23 
REMARK    5  A    between atoms: N8_23  and  N9_25 
REMARK    6  A    between atoms: C8_27  and  C9_28 
ROOT
HETATM    1  C5  UNL     1      72.804  40.280  29.303  1.00  0.00     0.087 A 
HETATM    2  N5  UNL     1      72.411  39.027  29.479  1.00  0.00    -0.294 N 
ATOM      3  H5  UNL     1      72.959  38.262  29.085  1.00  0.00     0.187 HD
HETATM    4  N6  UNL     1      71.357  38.776  30.137  1.00  0.00    -0.279 N 
ATOM      5  H6  UNL     1      71.051  37.813  30.276  1.00  0.00     0.189 HD
HETATM    6  C6  UNL     1      70.653  39.789  30.644  1.00  0.00     0.169 A 
HETATM    7  N7  UNL     1      69.544  39.750  31.349  1.00  0.00    -0.286 N 
ATOM      8  H7  UNL     1      69.099  40.605  31.681  1.00  0.00     0.172 HD
HETATM    9  C7  UNL     1      68.994  38.489  31.628  1.00  0.00     0.340 C 
HETATM   10  O1  UNL     1      69.419  37.810  32.611  1.00  0.00    -0.245 OA
HETATM   11  N8  UNL     1      67.956  37.964  30.811  1.00  0.00    -0.252 N 
ATOM     12  H8  UNL     1      67.607  38.505  30.019  1.00  0.00     0.191 HD
HETATM   13  S1  UNL     1      71.583  41.139  30.132  1.00  0.00    -0.036 SA
ENDROOT
BRANCH   1  14
HETATM   14  C4  UNL     1      74.004  40.750  28.559  1.00  0.00     0.204 C 
BRANCH  14  15
HETATM   15  N4  UNL     1      74.653  41.817  29.236  1.00  0.00    -0.219 N 
ATOM     16  H4  UNL     1      74.454  42.781  28.969  1.00  0.00     0.178 HD
BRANCH  15  17
HETATM   17  C3  UNL     1      75.578  41.549  30.284  1.00  0.00     0.690 C 
HETATM   18  N2  UNL     1      75.305  41.873  31.637  1.00  0.00    -0.129 N 
HETATM   19  C1  UNL     1      76.303  41.230  32.493  1.00  0.00     0.187 C 
HETATM   20  C2  UNL     1      77.382  40.896  31.482  1.00  0.00     0.160 C 
HETATM   21  N3  UNL     1      76.728  41.009  30.208  1.00  0.00    -0.223 N 
ATOM     22  H3  UNL     1      77.142  40.690  29.333  1.00  0.00     0.177 HD
BRANCH  18  23
HETATM   23  N1  UNL     1      74.261  42.670  32.108  1.00  0.00    -0.329 N 
ATOM     24  H12 UNL     1      73.645  42.464  32.894  1.00  0.00     0.177 HD
ATOM     25  H11 UNL     1      73.998  43.570  31.707  1.00  0.00     0.177 HD
ENDBRANCH  18  23
ENDBRANCH  15  17
ENDBRANCH  14  15
ENDBRANCH   1  14
BRANCH  11  26
HETATM   26  N9  UNL     1      67.417  36.718  31.091  1.00  0.00    -0.304 N 
HETATM   27  C8  UNL     1      67.765  35.692  30.396  1.00  0.00     0.157 C 
ATOM     28  H9  UNL     1      66.744  36.614  31.849  1.00  0.00     0.186 HD
BRANCH  27  29
HETATM   29  C9  UNL     1      68.718  35.790  29.310  1.00  0.00     0.148 A 
HETATM   30  N10 UNL     1      70.006  35.418  29.347  1.00  0.00    -0.269 N 
HETATM   31  N11 UNL     1      70.545  35.665  28.162  1.00  0.00    -0.007 NA
ATOM     32  H10 UNL     1      70.488  35.014  30.150  1.00  0.00     0.185 HD
HETATM   33  N12 UNL     1      69.636  36.192  27.354  1.00  0.00    -0.007 NA
HETATM   34  N13 UNL     1      68.517  36.265  28.069  1.00  0.00    -0.269 N 
ATOM     35  H13 UNL     1      67.630  36.631  27.724  1.00  0.00     0.185 HD
ENDBRANCH  27  29
ENDBRANCH  11  26
TORSDOF 6
ENDMDL
MODEL 4
REMARK VINA RESULT: -7.544470913      3.279      7.071
REMARK  6 active torsions:
REMARK  status: ('A' for Active; 'I' for Inactive)
REMARK    1  A    between atoms: N1_1  and  N2_4 
REMARK    2  A    between atoms: C3_9  and  N4_10 
REMARK    3  A    between atoms: N4_10  and  C4_12 
REMARK    4  A    between atoms: C4_12  and  C5_13 
REMARK       I    between atoms: N7_19  and  C7_21 
REMARK       I    between atoms: C7_21  and  N8_23 
REMARK    5  A    between atoms: N8_23  and  N9_25 
REMARK    6  A    between atoms: C8_27  and  C9_28 
ROOT
HETATM    1  C5  UNL     1      69.472  37.866  30.276  1.00  0.00     0.087 A 
HETATM    2  N5  UNL     1      70.727  37.497  30.065  1.00  0.00    -0.294 N 
ATOM      3  H5  UNL     1      71.010  36.534  30.246  1.00  0.00     0.187 HD
HETATM    4  N6  UNL     1      71.575  38.337  29.640  1.00  0.00    -0.279 N 
ATOM      5  H6  UNL     1      72.542  38.058  29.476  1.00  0.00     0.189 HD
HETATM    6  C6  UNL     1      71.186  39.593  29.410  1.00  0.00     0.169 A 
HETATM    7  N7  UNL     1      71.896  40.608  28.973  1.00  0.00    -0.286 N 
ATOM      8  H7  UNL     1      71.476  41.528  28.839  1.00  0.00     0.172 HD
HETATM    9  C7  UNL     1      73.254  40.383  28.697  1.00  0.00     0.340 C 
HETATM   10  O1  UNL     1      73.607  39.900  27.581  1.00  0.00    -0.245 OA
HETATM   11  N8  UNL     1      74.243  40.696  29.670  1.00  0.00    -0.252 N 
ATOM     12  H8  UNL     1      73.967  41.087  30.571  1.00  0.00     0.191 HD
HETATM   13  S1  UNL     1      69.524  39.515  29.836  1.00  0.00    -0.036 SA
ENDROOT
BRANCH   1  14
HETATM   14  C4  UNL     1      68.356  37.016  30.775  1.00  0.00     0.204 C 
BRANCH  14  15
HETATM   15  N4  UNL     1      68.462  36.785  32.172  1.00  0.00    -0.219 N 
ATOM     16  H4  UNL     1      68.420  35.831  32.532  1.00  0.00     0.178 HD
BRANCH  15  17
HETATM   17  C3  UNL     1      68.625  37.874  33.073  1.00  0.00     0.690 C 
HETATM   18  N2  UNL     1      69.862  38.153  33.709  1.00  0.00    -0.129 N 
HETATM   19  C1  UNL     1      69.788  39.473  34.338  1.00  0.00     0.187 C 
HETATM   20  C2  UNL     1      68.289  39.699  34.368  1.00  0.00     0.160 C 
HETATM   21  N3  UNL     1      67.763  38.734  33.443  1.00  0.00    -0.223 N 
ATOM     22  H3  UNL     1      66.797  38.737  33.117  1.00  0.00     0.177 HD
BRANCH  18  23
HETATM   23  N1  UNL     1      70.984  37.327  33.745  1.00  0.00    -0.329 N 
ATOM     24  H12 UNL     1      71.092  36.468  34.286  1.00  0.00     0.177 HD
ATOM     25  H11 UNL     1      71.841  37.496  33.218  1.00  0.00     0.177 HD
ENDBRANCH  18  23
ENDBRANCH  15  17
ENDBRANCH  14  15
ENDBRANCH   1  14
BRANCH  11  26
HETATM   26  N9  UNL     1      75.582  40.470  29.393  1.00  0.00    -0.304 N 
HETATM   27  C8  UNL     1      76.488  40.864  30.217  1.00  0.00     0.157 C 
ATOM     28  H9  UNL     1      75.849  39.991  28.534  1.00  0.00     0.186 HD
BRANCH  27  29
HETATM   29  C9  UNL     1      76.157  41.548  31.450  1.00  0.00     0.148 A 
HETATM   30  N10 UNL     1      75.716  40.979  32.581  1.00  0.00    -0.269 N 
HETATM   31  N11 UNL     1      75.526  41.932  33.481  1.00  0.00    -0.007 NA
ATOM     32  H10 UNL     1      75.555  39.982  32.724  1.00  0.00     0.185 HD
HETATM   33  N12 UNL     1      75.833  43.111  32.960  1.00  0.00    -0.007 NA
HETATM   34  N13 UNL     1      76.219  42.864  31.712  1.00  0.00    -0.269 N 
ATOM     35  H13 UNL     1      76.520  43.575  31.045  1.00  0.00     0.185 HD
ENDBRANCH  27  29
ENDBRANCH  11  26
TORSDOF 6
ENDMDL
MODEL 5
REMARK VINA RESULT: -7.460315368      3.466      6.561
REMARK  6 active torsions:
REMARK  status: ('A' for Active; 'I' for Inactive)
REMARK    1  A    between atoms: N1_1  and  N2_4 
REMARK    2  A    between atoms: C3_9  and  N4_10 
REMARK    3  A    between atoms: N4_10  and  C4_12 
REMARK    4  A    between atoms: C4_12  and  C5_13 
REMARK       I    between atoms: N7_19  and  C7_21 
REMARK       I    between atoms: C7_21  and  N8_23 
REMARK    5  A    between atoms: N8_23  and  N9_25 
REMARK    6  A    between atoms: C8_27  and  C9_28 
ROOT
HETATM    1  C5  UNL     1      69.935  36.694  28.858  1.00  0.00     0.087 A 
HETATM    2  N5  UNL     1      70.669  37.457  29.655  1.00  0.00    -0.294 N 
ATOM      3  H5  UNL     1      70.659  37.297  30.662  1.00  0.00     0.187 HD
HETATM    4  N6  UNL     1      71.382  38.386  29.169  1.00  0.00    -0.279 N 
ATOM      5  H6  UNL     1      71.948  38.975  29.779  1.00  0.00     0.189 HD
HETATM    6  C6  UNL     1      71.381  38.581  27.850  1.00  0.00     0.169 A 
HETATM    7  N7  UNL     1      72.041  39.477  27.150  1.00  0.00    -0.286 N 
ATOM      8  H7  UNL     1      71.952  39.524  26.135  1.00  0.00     0.172 HD
HETATM    9  C7  UNL     1      72.871  40.367  27.848  1.00  0.00     0.340 C 
HETATM   10  O1  UNL     1      74.049  40.026  28.166  1.00  0.00    -0.245 OA
HETATM   11  N8  UNL     1      72.396  41.660  28.203  1.00  0.00    -0.252 N 
ATOM     12  H8  UNL     1      71.450  41.943  27.949  1.00  0.00     0.191 HD
HETATM   13  S1  UNL     1      70.297  37.356  27.327  1.00  0.00    -0.036 SA
ENDROOT
BRANCH   1  14
HETATM   14  C4  UNL     1      69.043  35.572  29.258  1.00  0.00     0.204 C 
BRANCH  14  15
HETATM   15  N4  UNL     1      67.748  35.706  28.689  1.00  0.00    -0.219 N 
ATOM     16  H4  UNL     1      67.498  35.160  27.865  1.00  0.00     0.178 HD
BRANCH  15  17
HETATM   17  C3  UNL     1      66.799  36.599  29.261  1.00  0.00     0.690 C 
HETATM   18  N2  UNL     1      65.842  37.293  28.476  1.00  0.00    -0.129 N 
HETATM   19  C1  UNL     1      64.847  37.899  29.363  1.00  0.00     0.187 C 
HETATM   20  C2  UNL     1      65.572  37.849  30.693  1.00  0.00     0.160 C 
HETATM   21  N3  UNL     1      66.641  36.912  30.484  1.00  0.00    -0.223 N 
ATOM     22  H3  UNL     1      67.216  36.537  31.239  1.00  0.00     0.177 HD
BRANCH  18  23
HETATM   23  N1  UNL     1      65.824  37.398  27.086  1.00  0.00    -0.329 N 
ATOM     24  H12 UNL     1      66.068  36.667  26.417  1.00  0.00     0.177 HD
ATOM     25  H11 UNL     1      65.556  38.239  26.575  1.00  0.00     0.177 HD
ENDBRANCH  18  23
ENDBRANCH  15  17
ENDBRANCH  14  15
ENDBRANCH   1  14
BRANCH  11  26
HETATM   26  N9  UNL     1      73.220  42.535  28.893  1.00  0.00    -0.304 N 
HETATM   27  C8  UNL     1      73.325  42.450  30.173  1.00  0.00     0.157 C 
ATOM     28  H9  UNL     1      73.744  43.247  28.386  1.00  0.00     0.186 HD
BRANCH  27  29
HETATM   29  C9  UNL     1      72.602  41.454  30.937  1.00  0.00     0.148 A 
HETATM   30  N10 UNL     1      73.076  40.269  31.348  1.00  0.00    -0.269 N 
HETATM   31  N11 UNL     1      72.116  39.646  32.015  1.00  0.00    -0.007 NA
ATOM     32  H10 UNL     1      74.014  39.909  31.175  1.00  0.00     0.185 HD
HETATM   33  N12 UNL     1      71.026  40.399  32.047  1.00  0.00    -0.007 NA
HETATM   34  N13 UNL     1      71.335  41.508  31.381  1.00  0.00    -0.269 N 
ATOM     35  H13 UNL     1      70.699  42.290  31.229  1.00  0.00     0.185 HD
ENDBRANCH  27  29
ENDBRANCH  11  26
TORSDOF 6
ENDMDL
