MODEL 1
REMARK VINA RESULT: -7.788417003      0.000      0.000
REMARK  6 active torsions:
REMARK  status: ('A' for Active; 'I' for Inactive)
REMARK    1  A    between atoms: N1_2  and  N3_5 
REMARK    2  A    between atoms: C3_10  and  C4_11 
REMARK    3  A    between atoms: C7_21  and  N10_22 
REMARK    4  A    between atoms: N10_22  and  N11_24 
REMARK    5  A    between atoms: C8_26  and  C9_27 
REMARK    6  A    between atoms: C9_27  and  N12_28 
REMARK       I    between atoms: N12_28  and  C10_30 
ROOT
HETATM    1  C1  UNL     1      66.884  41.809  34.455  1.00  0.00     0.193 C 
HETATM    2  N1  UNL     1      67.431  40.504  34.150  1.00  0.00    -0.211 N 
HETATM    3  C2  UNL     1      67.402  40.062  32.820  1.00  0.00     0.201 C 
HETATM    4  N2  UNL     1      67.357  39.689  31.715  1.00  0.00    -0.170 NA
ENDROOT
BRANCH   2   5
HETATM    5  N3  UNL     1      67.982  39.677  35.134  1.00  0.00    -0.151 N 
HETATM    6  N4  UNL     1      67.318  38.751  35.820  1.00  0.00     0.017 NA
HETATM    7  N5  UNL     1      68.211  38.207  36.639  1.00  0.00    -0.005 NA
HETATM    8  N6  UNL     1      69.401  38.781  36.465  1.00  0.00    -0.267 N 
HETATM    9  C3  UNL     1      69.256  39.706  35.518  1.00  0.00     0.187 A 
ATOM     10  H6  UNL     1      70.262  38.554  36.965  1.00  0.00     0.185 HD
BRANCH   9  11
HETATM   11  C4  UNL     1      70.344  40.572  35.034  1.00  0.00     0.126 A 
HETATM   12  N7  UNL     1      70.656  41.744  35.576  1.00  0.00    -0.293 N 
HETATM   13  N8  UNL     1      71.631  42.508  35.129  1.00  0.00    -0.283 N 
ATOM     14  H7  UNL     1      70.113  42.068  36.376  1.00  0.00     0.187 HD
HETATM   15  C5  UNL     1      72.418  42.160  34.057  1.00  0.00     0.147 A 
ATOM     16  H8  UNL     1      71.810  43.396  35.598  1.00  0.00     0.188 HD
HETATM   17  N9  UNL     1      73.442  42.557  33.289  1.00  0.00    -0.309 N 
HETATM   18  C6  UNL     1      72.148  40.971  33.459  1.00  0.00     0.098 A 
HETATM   19  S1  UNL     1      73.396  41.207  32.342  1.00  0.00    -0.007 SA
ATOM     20  H9  UNL     1      74.033  43.388  33.290  1.00  0.00     0.176 HD
HETATM   21  C7  UNL     1      71.113  40.167  33.937  1.00  0.00     0.102 A 
BRANCH  21  22
HETATM   22  N10 UNL     1      70.830  39.066  33.418  1.00  0.00    -0.297 N 
ATOM     23  H10 UNL     1      70.812  38.321  34.116  1.00  0.00     0.187 HD
BRANCH  22  24
HETATM   24  N11 UNL     1      70.549  38.606  32.219  1.00  0.00    -0.314 N 
HETATM   25  C8  UNL     1      71.117  38.208  31.201  1.00  0.00     0.099 C 
ATOM     26  H11 UNL     1      69.538  38.565  32.090  1.00  0.00     0.185 HD
BRANCH  25  27
HETATM   27  C9  UNL     1      70.279  37.769  30.037  1.00  0.00     0.168 C 
BRANCH  27  28
HETATM   28  N12 UNL     1      70.230  36.343  29.892  1.00  0.00    -0.360 N 
HETATM   29  C10 UNL     1      70.213  35.744  28.613  1.00  0.00     0.182 C 
HETATM   30  N13 UNL     1      70.646  34.502  28.513  1.00  0.00    -0.374 N 
HETATM   31  N14 UNL     1      69.777  36.355  27.416  1.00  0.00    -0.064 NA
ATOM     32 2H13 UNL     1      70.960  34.061  29.377  1.00  0.00     0.158 HD
ATOM     33 1H13 UNL     1      70.634  34.069  27.589  1.00  0.00     0.158 HD
ATOM     34  H12 UNL     1      70.207  35.754  30.724  1.00  0.00     0.162 HD
ENDBRANCH  27  28
ENDBRANCH  25  27
ENDBRANCH  22  24
ENDBRANCH  21  22
ENDBRANCH   9  11
ENDBRANCH   2   5
TORSDOF 6
ENDMDL
MODEL 2
REMARK VINA RESULT: -7.764713174      2.251      5.099
REMARK  6 active torsions:
REMARK  status: ('A' for Active; 'I' for Inactive)
REMARK    1  A    between atoms: N1_2  and  N3_5 
REMARK    2  A    between atoms: C3_10  and  C4_11 
REMARK    3  A    between atoms: C7_21  and  N10_22 
REMARK    4  A    between atoms: N10_22  and  N11_24 
REMARK    5  A    between atoms: C8_26  and  C9_27 
REMARK    6  A    between atoms: C9_27  and  N12_28 
REMARK       I    between atoms: N12_28  and  C10_30 
ROOT
HETATM    1  C1  UNL     1      69.545  41.531  34.746  1.00  0.00     0.193 C 
HETATM    2  N1  UNL     1      69.010  40.186  34.734  1.00  0.00    -0.211 N 
HETATM    3  C2  UNL     1      67.726  39.983  34.209  1.00  0.00     0.201 C 
HETATM    4  N2  UNL     1      66.648  39.822  33.790  1.00  0.00    -0.170 NA
ENDROOT
BRANCH   2   5
HETATM    5  N3  UNL     1      69.727  39.092  35.228  1.00  0.00    -0.151 N 
HETATM    6  N4  UNL     1      69.815  38.744  36.508  1.00  0.00     0.017 NA
HETATM    7  N5  UNL     1      70.583  37.661  36.531  1.00  0.00    -0.005 NA
HETATM    8  N6  UNL     1      70.965  37.344  35.294  1.00  0.00    -0.267 N 
HETATM    9  C3  UNL     1      70.425  38.245  34.474  1.00  0.00     0.187 A 
ATOM     10  H6  UNL     1      71.558  36.559  35.026  1.00  0.00     0.185 HD
BRANCH   9  11
HETATM   11  C4  UNL     1      70.611  38.251  33.014  1.00  0.00     0.126 A 
HETATM   12  N7  UNL     1      69.925  37.480  32.176  1.00  0.00    -0.293 N 
HETATM   13  N8  UNL     1      70.105  37.496  30.872  1.00  0.00    -0.283 N 
ATOM     14  H7  UNL     1      69.227  36.845  32.562  1.00  0.00     0.187 HD
HETATM   15  C5  UNL     1      71.021  38.314  30.256  1.00  0.00     0.147 A 
ATOM     16  H8  UNL     1      69.541  36.873  30.294  1.00  0.00     0.188 HD
HETATM   17  N9  UNL     1      71.534  38.670  29.070  1.00  0.00    -0.309 N 
HETATM   18  C6  UNL     1      71.754  39.128  31.060  1.00  0.00     0.098 A 
HETATM   19  S1  UNL     1      72.576  39.768  29.727  1.00  0.00    -0.007 SA
ATOM     20  H9  UNL     1      71.348  38.371  28.113  1.00  0.00     0.176 HD
HETATM   21  C7  UNL     1      71.559  39.105  32.441  1.00  0.00     0.102 A 
BRANCH  21  22
HETATM   22  N10 UNL     1      72.210  39.836  33.218  1.00  0.00    -0.297 N 
ATOM     23  H10 UNL     1      71.999  39.621  34.193  1.00  0.00     0.187 HD
BRANCH  22  24
HETATM   24  N11 UNL     1      73.092  40.807  33.121  1.00  0.00    -0.314 N 
HETATM   25  C8  UNL     1      73.163  42.034  33.202  1.00  0.00     0.099 C 
ATOM     26  H11 UNL     1      74.012  40.420  32.913  1.00  0.00     0.185 HD
BRANCH  25  27
HETATM   27  C9  UNL     1      74.494  42.691  32.992  1.00  0.00     0.168 C 
BRANCH  27  28
HETATM   28  N12 UNL     1      74.982  42.545  31.652  1.00  0.00    -0.360 N 
HETATM   29  C10 UNL     1      76.242  41.961  31.398  1.00  0.00     0.182 C 
HETATM   30  N13 UNL     1      76.438  41.418  30.211  1.00  0.00    -0.374 N 
HETATM   31  N14 UNL     1      77.325  41.896  32.302  1.00  0.00    -0.064 NA
ATOM     32 2H13 UNL     1      75.656  41.465  29.557  1.00  0.00     0.158 HD
ATOM     33 1H13 UNL     1      77.348  40.996  30.027  1.00  0.00     0.158 HD
ATOM     34  H12 UNL     1      74.411  42.869  30.871  1.00  0.00     0.162 HD
ENDBRANCH  27  28
ENDBRANCH  25  27
ENDBRANCH  22  24
ENDBRANCH  21  22
ENDBRANCH   9  11
ENDBRANCH   2   5
TORSDOF 6
ENDMDL
MODEL 3
REMARK VINA RESULT: -7.699586593      2.983      6.375
REMARK  6 active torsions:
REMARK  status: ('A' for Active; 'I' for Inactive)
REMARK    1  A    between atoms: N1_2  and  N3_5 
REMARK    2  A    between atoms: C3_10  and  C4_11 
REMARK    3  A    between atoms: C7_21  and  N10_22 
REMARK    4  A    between atoms: N10_22  and  N11_24 
REMARK    5  A    between atoms: C8_26  and  C9_27 
REMARK    6  A    between atoms: C9_27  and  N12_28 
REMARK       I    between atoms: N12_28  and  C10_30 
ROOT
HETATM    1  C1  UNL     1      67.925  39.897  28.549  1.00  0.00     0.193 C 
HETATM    2  N1  UNL     1      68.663  39.342  27.434  1.00  0.00    -0.211 N 
HETATM    3  C2  UNL     1      68.611  40.008  26.202  1.00  0.00     0.201 C 
HETATM    4  N2  UNL     1      68.548  40.555  25.172  1.00  0.00    -0.170 NA
ENDROOT
BRANCH   2   5
HETATM    5  N3  UNL     1      69.419  38.171  27.547  1.00  0.00    -0.151 N 
HETATM    6  N4  UNL     1      68.979  36.944  27.284  1.00  0.00     0.017 NA
HETATM    7  N5  UNL     1      70.010  36.140  27.519  1.00  0.00    -0.005 NA
HETATM    8  N6  UNL     1      71.064  36.850  27.919  1.00  0.00    -0.267 N 
HETATM    9  C3  UNL     1      70.691  38.129  27.935  1.00  0.00     0.187 A 
ATOM     10  H6  UNL     1      71.983  36.483  28.166  1.00  0.00     0.185 HD
BRANCH   9  11
HETATM   11  C4  UNL     1      71.571  39.242  28.328  1.00  0.00     0.126 A 
HETATM   12  N7  UNL     1      71.990  40.186  27.492  1.00  0.00    -0.293 N 
HETATM   13  N8  UNL     1      72.780  41.174  27.859  1.00  0.00    -0.283 N 
ATOM     14  H7  UNL     1      71.687  40.143  26.519  1.00  0.00     0.187 HD
HETATM   15  C5  UNL     1      73.243  41.319  29.144  1.00  0.00     0.147 A 
ATOM     16  H8  UNL     1      73.060  41.861  27.158  1.00  0.00     0.188 HD
HETATM   17  N9  UNL     1      73.998  42.084  29.945  1.00  0.00    -0.309 N 
HETATM   18  C6  UNL     1      72.848  40.385  30.047  1.00  0.00     0.098 A 
HETATM   19  S1  UNL     1      73.724  41.149  31.277  1.00  0.00    -0.007 SA
ATOM     20  H9  UNL     1      74.543  42.931  29.790  1.00  0.00     0.176 HD
HETATM   21  C7  UNL     1      72.013  39.340  29.652  1.00  0.00     0.102 A 
BRANCH  21  22
HETATM   22  N10 UNL     1      71.625  38.458  30.448  1.00  0.00    -0.297 N 
ATOM     23  H10 UNL     1      71.916  37.529  30.144  1.00  0.00     0.187 HD
BRANCH  22  24
HETATM   24  N11 UNL     1      70.943  38.403  31.571  1.00  0.00    -0.314 N 
HETATM   25  C8  UNL     1      69.994  38.953  32.131  1.00  0.00     0.099 C 
ATOM     26  H11 UNL     1      71.321  37.670  32.171  1.00  0.00     0.185 HD
BRANCH  25  27
HETATM   27  C9  UNL     1      69.595  38.481  33.497  1.00  0.00     0.168 C 
BRANCH  27  28
HETATM   28  N12 UNL     1      70.245  37.261  33.878  1.00  0.00    -0.360 N 
HETATM   29  C10 UNL     1      70.397  36.913  35.238  1.00  0.00     0.182 C 
HETATM   30  N13 UNL     1      70.542  35.635  35.531  1.00  0.00    -0.374 N 
HETATM   31  N14 UNL     1      70.404  37.811  36.329  1.00  0.00    -0.064 NA
ATOM     32 2H13 UNL     1      70.536  34.986  34.744  1.00  0.00     0.158 HD
ATOM     33 1H13 UNL     1      70.651  35.383  36.514  1.00  0.00     0.158 HD
ATOM     34  H12 UNL     1      70.604  36.636  33.156  1.00  0.00     0.162 HD
ENDBRANCH  27  28
ENDBRANCH  25  27
ENDBRANCH  22  24
ENDBRANCH  21  22
ENDBRANCH   9  11
ENDBRANCH   2   5
TORSDOF 6
ENDMDL
MODEL 4
REMARK VINA RESULT: -7.668056851      3.380      7.543
REMARK  6 active torsions:
REMARK  status: ('A' for Active; 'I' for Inactive)
REMARK    1  A    between atoms: N1_2  and  N3_5 
REMARK    2  A    between atoms: C3_10  and  C4_11 
REMARK    3  A    between atoms: C7_21  and  N10_22 
REMARK    4  A    between atoms: N10_22  and  N11_24 
REMARK    5  A    between atoms: C8_26  and  C9_27 
REMARK    6  A    between atoms: C9_27  and  N12_28 
REMARK       I    between atoms: N12_28  and  C10_30 
ROOT
HETATM    1  C1  UNL     1      69.805  41.342  28.273  1.00  0.00     0.193 C 
HETATM    2  N1  UNL     1      71.015  40.790  28.845  1.00  0.00    -0.211 N 
HETATM    3  C2  UNL     1      71.335  41.114  30.170  1.00  0.00     0.201 C 
HETATM    4  N2  UNL     1      71.608  41.403  31.268  1.00  0.00    -0.170 NA
ENDROOT
BRANCH   2   5
HETATM    5  N3  UNL     1      71.868  39.952  28.120  1.00  0.00    -0.151 N 
HETATM    6  N4  UNL     1      73.113  40.249  27.758  1.00  0.00     0.017 NA
HETATM    7  N5  UNL     1      73.553  39.186  27.096  1.00  0.00    -0.005 NA
HETATM    8  N6  UNL     1      72.606  38.250  27.048  1.00  0.00    -0.267 N 
HETATM    9  C3  UNL     1      71.545  38.733  27.693  1.00  0.00     0.187 A 
ATOM     10  H6  UNL     1      72.679  37.336  26.601  1.00  0.00     0.185 HD
BRANCH   9  11
HETATM   11  C4  UNL     1      70.278  38.005  27.862  1.00  0.00     0.126 A 
HETATM   12  N7  UNL     1      69.326  37.947  26.937  1.00  0.00    -0.293 N 
HETATM   13  N8  UNL     1      68.196  37.292  27.105  1.00  0.00    -0.283 N 
ATOM     14  H7  UNL     1      69.477  38.434  26.054  1.00  0.00     0.187 HD
HETATM   15  C5  UNL     1      67.897  36.605  28.258  1.00  0.00     0.147 A 
ATOM     16  H8  UNL     1      67.512  37.294  26.348  1.00  0.00     0.188 HD
HETATM   17  N9  UNL     1      66.969  35.851  28.862  1.00  0.00    -0.309 N 
HETATM   18  C6  UNL     1      68.832  36.626  29.243  1.00  0.00     0.098 A 
HETATM   19  S1  UNL     1      67.858  35.666  30.239  1.00  0.00    -0.007 SA
ATOM     20  H9  UNL     1      66.050  35.514  28.575  1.00  0.00     0.176 HD
HETATM   21  C7  UNL     1      70.026  37.323  29.059  1.00  0.00     0.102 A 
BRANCH  21  22
HETATM   22  N10 UNL     1      70.915  37.369  29.937  1.00  0.00    -0.297 N 
ATOM     23  H10 UNL     1      71.833  37.159  29.547  1.00  0.00     0.187 HD
BRANCH  22  24
HETATM   24  N11 UNL     1      70.986  37.614  31.227  1.00  0.00    -0.314 N 
HETATM   25  C8  UNL     1      70.344  38.161  32.124  1.00  0.00     0.099 C 
ATOM     26  H11 UNL     1      71.850  37.227  31.607  1.00  0.00     0.185 HD
BRANCH  25  27
HETATM   27  C9  UNL     1      70.908  38.162  33.513  1.00  0.00     0.168 C 
BRANCH  27  28
HETATM   28  N12 UNL     1      70.579  36.976  34.249  1.00  0.00    -0.360 N 
HETATM   29  C10 UNL     1      70.110  37.053  35.579  1.00  0.00     0.182 C 
HETATM   30  N13 UNL     1      69.386  36.047  36.033  1.00  0.00    -0.374 N 
HETATM   31  N14 UNL     1      70.339  38.118  36.479  1.00  0.00    -0.064 NA
ATOM     32 2H13 UNL     1      69.221  35.279  35.383  1.00  0.00     0.158 HD
ATOM     33 1H13 UNL     1      69.047  36.103  36.994  1.00  0.00     0.158 HD
ATOM     34  H12 UNL     1      70.685  36.063  33.806  1.00  0.00     0.162 HD
ENDBRANCH  27  28
ENDBRANCH  25  27
ENDBRANCH  22  24
ENDBRANCH  21  22
ENDBRANCH   9  11
ENDBRANCH   2   5
TORSDOF 6
ENDMDL
MODEL 5
REMARK VINA RESULT: -7.655386032      2.872      6.384
REMARK  6 active torsions:
REMARK  status: ('A' for Active; 'I' for Inactive)
REMARK    1  A    between atoms: N1_2  and  N3_5 
REMARK    2  A    between atoms: C3_10  and  C4_11 
REMARK    3  A    between atoms: C7_21  and  N10_22 
REMARK    4  A    between atoms: N10_22  and  N11_24 
REMARK    5  A    between atoms: C8_26  and  C9_27 
REMARK    6  A    between atoms: C9_27  and  N12_28 
REMARK       I    between atoms: N12_28  and  C10_30 
ROOT
HETATM    1  C1  UNL     1      67.549  38.826  28.205  1.00  0.00     0.193 C 
HETATM    2  N1  UNL     1      68.972  38.560  28.205  1.00  0.00    -0.211 N 
HETATM    3  C2  UNL     1      69.853  39.646  28.107  1.00  0.00     0.201 C 
HETATM    4  N2  UNL     1      70.583  40.551  28.004  1.00  0.00    -0.170 NA
ENDROOT
BRANCH   2   5
HETATM    5  N3  UNL     1      69.490  37.265  28.297  1.00  0.00    -0.151 N 
HETATM    6  N4  UNL     1      69.760  36.469  27.266  1.00  0.00     0.017 NA
HETATM    7  N5  UNL     1      70.230  35.346  27.797  1.00  0.00    -0.005 NA
HETATM    8  N6  UNL     1      70.252  35.442  29.126  1.00  0.00    -0.267 N 
HETATM    9  C3  UNL     1      69.787  36.650  29.440  1.00  0.00     0.187 A 
ATOM     10  H6  UNL     1      70.566  34.724  29.780  1.00  0.00     0.185 HD
BRANCH   9  11
HETATM   11  C4  UNL     1      69.645  37.150  30.817  1.00  0.00     0.126 A 
HETATM   12  N7  UNL     1      68.563  36.966  31.566  1.00  0.00    -0.293 N 
HETATM   13  N8  UNL     1      68.452  37.421  32.796  1.00  0.00    -0.283 N 
ATOM     14  H7  UNL     1      67.780  36.447  31.168  1.00  0.00     0.187 HD
HETATM   15  C5  UNL     1      69.450  38.131  33.421  1.00  0.00     0.147 A 
ATOM     16  H8  UNL     1      67.589  37.240  33.308  1.00  0.00     0.188 HD
HETATM   17  N9  UNL     1      69.790  38.753  34.558  1.00  0.00    -0.309 N 
HETATM   18  C6  UNL     1      70.584  38.352  32.706  1.00  0.00     0.098 A 
HETATM   19  S1  UNL     1      71.277  39.197  33.998  1.00  0.00    -0.007 SA
ATOM     20  H9  UNL     1      69.308  38.899  35.444  1.00  0.00     0.176 HD
HETATM   21  C7  UNL     1      70.694  37.868  31.403  1.00  0.00     0.102 A 
BRANCH  21  22
HETATM   22  N10 UNL     1      71.719  38.047  30.709  1.00  0.00    -0.297 N 
ATOM     23  H10 UNL     1      72.119  37.160  30.403  1.00  0.00     0.187 HD
BRANCH  22  24
HETATM   24  N11 UNL     1      72.420  39.068  30.267  1.00  0.00    -0.314 N 
HETATM   25  C8  UNL     1      73.074  40.021  30.690  1.00  0.00     0.099 C 
ATOM     26  H11 UNL     1      72.424  39.070  29.247  1.00  0.00     0.185 HD
BRANCH  25  27
HETATM   27  C9  UNL     1      73.711  40.950  29.701  1.00  0.00     0.168 C 
BRANCH  27  28
HETATM   28  N12 UNL     1      75.106  40.682  29.502  1.00  0.00    -0.360 N 
HETATM   29  C10 UNL     1      76.085  41.286  30.322  1.00  0.00     0.182 C 
HETATM   30  N13 UNL     1      77.249  40.676  30.436  1.00  0.00    -0.374 N 
HETATM   31  N14 UNL     1      75.935  42.491  31.043  1.00  0.00    -0.064 NA
ATOM     32 2H13 UNL     1      77.358  39.806  29.915  1.00  0.00     0.158 HD
ATOM     33 1H13 UNL     1      77.957  41.112  31.027  1.00  0.00     0.158 HD
ATOM     34  H12 UNL     1      75.395  40.046  28.759  1.00  0.00     0.162 HD
ENDBRANCH  27  28
ENDBRANCH  25  27
ENDBRANCH  22  24
ENDBRANCH  21  22
ENDBRANCH   9  11
ENDBRANCH   2   5
TORSDOF 6
ENDMDL
