MODEL 1
REMARK VINA RESULT: -5.436959973      0.000      0.000
REMARK  6 active torsions:
REMARK  status: ('A' for Active; 'I' for Inactive)
REMARK    1  A    between atoms: S1_2  and  C2_4 
REMARK    2  A    between atoms: C2_4  and  N1_5 
REMARK    3  A    between atoms: C3_6  and  O2_7 
REMARK    4  A    between atoms: C4_9  and  O3_10 
REMARK    5  A    between atoms: C5_12  and  C6_13 
REMARK    6  A    between atoms: C6_13  and  O4_14 
ROOT
HETATM    1  N1  UNL     1      16.580   2.252  15.797  1.00  0.00     0.140 N 
HETATM    2  C3  UNL     1      15.711   1.622  16.734  1.00  0.00     0.389 C 
HETATM    3  C4  UNL     1      16.207   0.241  16.356  1.00  0.00     0.212 C 
HETATM    4  C5  UNL     1      17.285   1.014  15.619  1.00  0.00     0.283 C 
ENDROOT
BRANCH   1   5
HETATM    5  C2  UNL     1      16.012   2.736  14.582  1.00  0.00     0.384 C 
BRANCH   5   6
HETATM    6  S1  UNL     1      17.114   2.488  13.191  1.00  0.00     0.039 S 
HETATM    7  C1  UNL     1      16.378   3.029  11.687  1.00  0.00     0.129 C 
HETATM    8  O1  UNL     1      18.467   3.471  13.480  1.00  0.00    -0.257 OA
ENDBRANCH   5   6
ENDBRANCH   1   5
BRANCH   2   9
HETATM    9  O2  UNL     1      14.360   1.826  16.588  1.00  0.00    -0.366 OA
ATOM     10  H2  UNL     1      13.837   1.903  17.378  1.00  0.00     0.212 HD
ENDBRANCH   2   9
BRANCH   4  11
HETATM   11  C6  UNL     1      18.621   1.043  16.328  1.00  0.00     0.203 C 
BRANCH  11  12
HETATM   12  O4  UNL     1      19.319  -0.147  16.064  1.00  0.00    -0.399 OA
ATOM     13  H4  UNL     1      19.886  -0.353  16.799  1.00  0.00     0.209 HD
ENDBRANCH  11  12
ENDBRANCH   4  11
BRANCH   3  14
HETATM   14  O3  UNL     1      15.329  -0.447  15.502  1.00  0.00    -0.389 OA
ATOM     15  H3  UNL     1      15.724  -0.683  14.672  1.00  0.00     0.210 HD
ENDBRANCH   3  14
TORSDOF 6
ENDMDL
MODEL 2
REMARK VINA RESULT: -5.355854967      2.268      4.300
REMARK  6 active torsions:
REMARK  status: ('A' for Active; 'I' for Inactive)
REMARK    1  A    between atoms: S1_2  and  C2_4 
REMARK    2  A    between atoms: C2_4  and  N1_5 
REMARK    3  A    between atoms: C3_6  and  O2_7 
REMARK    4  A    between atoms: C4_9  and  O3_10 
REMARK    5  A    between atoms: C5_12  and  C6_13 
REMARK    6  A    between atoms: C6_13  and  O4_14 
ROOT
HETATM    1  N1  UNL     1      17.050   2.034  14.105  1.00  0.00     0.140 N 
HETATM    2  C3  UNL     1      16.910   1.282  12.904  1.00  0.00     0.389 C 
HETATM    3  C4  UNL     1      16.825   2.536  12.058  1.00  0.00     0.212 C 
HETATM    4  C5  UNL     1      17.273   3.225  13.333  1.00  0.00     0.283 C 
ENDROOT
BRANCH   1   5
HETATM    5  C2  UNL     1      15.914   2.143  14.960  1.00  0.00     0.384 C 
BRANCH   5   6
HETATM    6  S1  UNL     1      16.040   1.043  16.369  1.00  0.00     0.039 S 
HETATM    7  C1  UNL     1      14.859   1.454  17.608  1.00  0.00     0.129 C 
HETATM    8  O1  UNL     1      15.657  -0.508  15.794  1.00  0.00    -0.257 OA
ENDBRANCH   5   6
ENDBRANCH   1   5
BRANCH   2   9
HETATM    9  O2  UNL     1      15.837   0.429  12.806  1.00  0.00    -0.366 OA
ATOM     10  H2  UNL     1      16.005  -0.503  12.882  1.00  0.00     0.212 HD
ENDBRANCH   2   9
BRANCH   4  11
HETATM   11  C6  UNL     1      18.735   3.615  13.347  1.00  0.00     0.203 C 
BRANCH  11  12
HETATM   12  O4  UNL     1      18.943   4.620  14.306  1.00  0.00    -0.399 OA
ATOM     13  H4  UNL     1      19.516   5.288  13.947  1.00  0.00     0.209 HD
ENDBRANCH  11  12
ENDBRANCH   4  11
BRANCH   3  14
HETATM   14  O3  UNL     1      15.512   2.860  11.679  1.00  0.00    -0.389 OA
ATOM     15  H3  UNL     1      15.040   3.346  12.344  1.00  0.00     0.210 HD
ENDBRANCH   3  14
TORSDOF 6
ENDMDL
MODEL 3
REMARK VINA RESULT: -5.248311312      2.202      3.948
REMARK  6 active torsions:
REMARK  status: ('A' for Active; 'I' for Inactive)
REMARK    1  A    between atoms: S1_2  and  C2_4 
REMARK    2  A    between atoms: C2_4  and  N1_5 
REMARK    3  A    between atoms: C3_6  and  O2_7 
REMARK    4  A    between atoms: C4_9  and  O3_10 
REMARK    5  A    between atoms: C5_12  and  C6_13 
REMARK    6  A    between atoms: C6_13  and  O4_14 
ROOT
HETATM    1  N1  UNL     1      16.195   1.129  13.912  1.00  0.00     0.140 N 
HETATM    2  C3  UNL     1      15.975   1.392  12.529  1.00  0.00     0.389 C 
HETATM    3  C4  UNL     1      17.460   1.515  12.256  1.00  0.00     0.212 C 
HETATM    4  C5  UNL     1      17.595   0.940  13.653  1.00  0.00     0.283 C 
ENDROOT
BRANCH   1   5
HETATM    5  C2  UNL     1      15.948   2.183  14.839  1.00  0.00     0.384 C 
BRANCH   5   6
HETATM    6  S1  UNL     1      15.882   1.579  16.525  1.00  0.00     0.039 S 
HETATM    7  C1  UNL     1      14.412   2.106  17.336  1.00  0.00     0.129 C 
HETATM    8  O1  UNL     1      15.828  -0.114  16.419  1.00  0.00    -0.257 OA
ENDBRANCH   5   6
ENDBRANCH   1   5
BRANCH   2   9
HETATM    9  O2  UNL     1      15.221   2.493  12.202  1.00  0.00    -0.366 OA
ATOM     10  H2  UNL     1      14.755   2.934  12.903  1.00  0.00     0.212 HD
ENDBRANCH   2   9
BRANCH   4  11
HETATM   11  C6  UNL     1      17.961  -0.528  13.687  1.00  0.00     0.203 C 
BRANCH  11  12
HETATM   12  O4  UNL     1      18.487  -0.851  14.949  1.00  0.00    -0.399 OA
ATOM     13  H4  UNL     1      17.786  -1.143  15.520  1.00  0.00     0.209 HD
ENDBRANCH  11  12
ENDBRANCH   4  11
BRANCH   3  14
HETATM   14  O3  UNL     1      17.896   2.846  12.154  1.00  0.00    -0.389 OA
ATOM     15  H3  UNL     1      17.993   3.273  12.997  1.00  0.00     0.210 HD
ENDBRANCH   3  14
TORSDOF 6
ENDMDL
MODEL 4
REMARK VINA RESULT: -5.241069279      1.402      1.405
REMARK  6 active torsions:
REMARK  status: ('A' for Active; 'I' for Inactive)
REMARK    1  A    between atoms: S1_2  and  C2_4 
REMARK    2  A    between atoms: C2_4  and  N1_5 
REMARK    3  A    between atoms: C3_6  and  O2_7 
REMARK    4  A    between atoms: C4_9  and  O3_10 
REMARK    5  A    between atoms: C5_12  and  C6_13 
REMARK    6  A    between atoms: C6_13  and  O4_14 
ROOT
HETATM    1  N1  UNL     1      17.690   1.568  15.474  1.00  0.00     0.140 N 
HETATM    2  C3  UNL     1      16.705   1.251  16.453  1.00  0.00     0.389 C 
HETATM    3  C4  UNL     1      16.274   0.007  15.702  1.00  0.00     0.212 C 
HETATM    4  C5  UNL     1      17.529   0.266  14.891  1.00  0.00     0.283 C 
ENDROOT
BRANCH   1   5
HETATM    5  C2  UNL     1      17.402   2.617  14.554  1.00  0.00     0.384 C 
BRANCH   5   6
HETATM    6  S1  UNL     1      17.255   2.005  12.876  1.00  0.00     0.039 S 
HETATM    7  C1  UNL     1      15.610   2.175  12.274  1.00  0.00     0.129 C 
HETATM    8  O1  UNL     1      18.252   2.996  11.923  1.00  0.00    -0.257 OA
ENDBRANCH   5   6
ENDBRANCH   1   5
BRANCH   2   9
HETATM    9  O2  UNL     1      15.714   2.174  16.684  1.00  0.00    -0.366 OA
ATOM     10  H2  UNL     1      15.390   2.670  15.941  1.00  0.00     0.212 HD
ENDBRANCH   2   9
BRANCH   4  11
HETATM   11  C6  UNL     1      18.693  -0.636  15.244  1.00  0.00     0.203 C 
BRANCH  11  12
HETATM   12  O4  UNL     1      18.827  -1.634  14.265  1.00  0.00    -0.399 OA
ATOM     13  H4  UNL     1      18.791  -1.239  13.401  1.00  0.00     0.209 HD
ENDBRANCH  11  12
ENDBRANCH   4  11
BRANCH   3  14
HETATM   14  O3  UNL     1      15.089   0.185  14.971  1.00  0.00    -0.389 OA
ATOM     15  H3  UNL     1      14.573  -0.609  14.896  1.00  0.00     0.210 HD
ENDBRANCH   3  14
TORSDOF 6
ENDMDL
MODEL 5
REMARK VINA RESULT: -5.232086584      1.440      1.484
REMARK  6 active torsions:
REMARK  status: ('A' for Active; 'I' for Inactive)
REMARK    1  A    between atoms: S1_2  and  C2_4 
REMARK    2  A    between atoms: C2_4  and  N1_5 
REMARK    3  A    between atoms: C3_6  and  O2_7 
REMARK    4  A    between atoms: C4_9  and  O3_10 
REMARK    5  A    between atoms: C5_12  and  C6_13 
REMARK    6  A    between atoms: C6_13  and  O4_14 
ROOT
HETATM    1  N1  UNL     1      17.299   1.248  14.465  1.00  0.00     0.140 N 
HETATM    2  C3  UNL     1      16.839   1.935  15.625  1.00  0.00     0.389 C 
HETATM    3  C4  UNL     1      16.474   0.640  16.321  1.00  0.00     0.212 C 
HETATM    4  C5  UNL     1      17.252   0.005  15.183  1.00  0.00     0.283 C 
ENDROOT
BRANCH   1   5
HETATM    5  C2  UNL     1      16.458   1.246  13.315  1.00  0.00     0.384 C 
BRANCH   5   6
HETATM    6  S1  UNL     1      17.180   2.179  11.965  1.00  0.00     0.039 S 
HETATM    7  C1  UNL     1      15.984   3.210  11.189  1.00  0.00     0.129 C 
HETATM    8  O1  UNL     1      18.350   3.191  12.664  1.00  0.00    -0.257 OA
ENDBRANCH   5   6
ENDBRANCH   1   5
BRANCH   2   9
HETATM    9  O2  UNL     1      15.810   2.833  15.469  1.00  0.00    -0.366 OA
ATOM     10  H2  UNL     1      14.939   2.555  15.729  1.00  0.00     0.212 HD
ENDBRANCH   2   9
BRANCH   4  11
HETATM   11  C6  UNL     1      18.643  -0.455  15.564  1.00  0.00     0.203 C 
BRANCH  11  12
HETATM   12  O4  UNL     1      18.816  -1.794  15.176  1.00  0.00    -0.399 OA
ATOM     13  H4  UNL     1      18.007  -2.124  14.803  1.00  0.00     0.209 HD
ENDBRANCH  11  12
ENDBRANCH   4  11
BRANCH   3  14
HETATM   14  O3  UNL     1      15.099   0.360  16.283  1.00  0.00    -0.389 OA
ATOM     15  H3  UNL     1      14.574   1.003  16.743  1.00  0.00     0.210 HD
ENDBRANCH   3  14
TORSDOF 6
ENDMDL
