MODEL 1
REMARK VINA RESULT: -5.615194535      0.000      0.000
REMARK  5 active torsions:
REMARK  status: ('A' for Active; 'I' for Inactive)
REMARK    1  A    between atoms: N2_6  and  C5_7 
REMARK    2  A    between atoms: C5_7  and  O1_8 
REMARK    3  A    between atoms: C5_7  and  C6_10 
REMARK    4  A    between atoms: C6_10  and  N3_11 
REMARK    5  A    between atoms: C6_10  and  N4_15 
ROOT
HETATM    1  C5  UNL     1      17.283   3.132  13.540  1.00  0.00     0.415 C 
ENDROOT
BRANCH   1   2
HETATM    2  N2  UNL     1      17.017   2.340  14.682  1.00  0.00     0.128 N 
HETATM    3  C4  UNL     1      17.529   0.993  14.716  1.00  0.00     0.285 C 
HETATM    4  C3  UNL     1      16.212   0.582  15.360  1.00  0.00     0.077 C 
HETATM    5  C2  UNL     1      16.215   0.533  16.855  1.00  0.00     0.280 C 
HETATM    6  C7  UNL     1      15.683   1.940  14.989  1.00  0.00     0.262 C 
HETATM    7  N1  UNL     1      15.631   1.731  17.360  1.00  0.00     0.086 N 
HETATM    8  C1  UNL     1      14.494   1.535  18.221  1.00  0.00     0.310 C 
HETATM    9  C8  UNL     1      15.224   2.567  16.271  1.00  0.00     0.308 C 
ENDBRANCH   1   2
BRANCH   1  10
HETATM   10  O1  UNL     1      18.618   3.555  13.561  1.00  0.00    -0.365 OA
ATOM     11  H1  UNL     1      19.086   3.173  12.829  1.00  0.00     0.212 HD
ENDBRANCH   1  10
BRANCH   1  12
HETATM   12  C6  UNL     1      17.045   2.504  12.209  1.00  0.00     0.436 C 
BRANCH  12  13
HETATM   13  N3  UNL     1      18.017   3.101  11.290  1.00  0.00    -0.046 N 
ATOM     14  H33 UNL     1      17.644   3.257  10.354  1.00  0.00     0.277 HD
ATOM     15  H32 UNL     1      18.232   4.075  11.504  1.00  0.00     0.277 HD
ATOM     16  H31 UNL     1      18.836   2.494  11.302  1.00  0.00     0.277 HD
ENDBRANCH  12  13
BRANCH  12  17
HETATM   17  N4  UNL     1      15.745   2.862  11.633  1.00  0.00    -0.046 N 
ATOM     18  H43 UNL     1      15.008   2.807  12.335  1.00  0.00     0.277 HD
ATOM     19  H42 UNL     1      15.701   3.860  11.423  1.00  0.00     0.277 HD
ATOM     20  H41 UNL     1      15.508   2.307  10.811  1.00  0.00     0.277 HD
ENDBRANCH  12  17
ENDBRANCH   1  12
TORSDOF 5
ENDMDL
MODEL 2
REMARK VINA RESULT: -5.528474412      1.920      4.856
REMARK  5 active torsions:
REMARK  status: ('A' for Active; 'I' for Inactive)
REMARK    1  A    between atoms: N2_6  and  C5_7 
REMARK    2  A    between atoms: C5_7  and  O1_8 
REMARK    3  A    between atoms: C5_7  and  C6_10 
REMARK    4  A    between atoms: C6_10  and  N3_11 
REMARK    5  A    between atoms: C6_10  and  N4_15 
ROOT
HETATM    1  C5  UNL     1      15.500   0.911  15.832  1.00  0.00     0.415 C 
ENDROOT
BRANCH   1   2
HETATM    2  N2  UNL     1      16.357   1.450  14.844  1.00  0.00     0.128 N 
HETATM    3  C4  UNL     1      17.664   1.907  15.246  1.00  0.00     0.285 C 
HETATM    4  C3  UNL     1      17.472   3.077  14.291  1.00  0.00     0.077 C 
HETATM    5  C2  UNL     1      18.049   2.891  12.923  1.00  0.00     0.280 C 
HETATM    6  C7  UNL     1      16.027   2.674  14.191  1.00  0.00     0.262 C 
HETATM    7  N1  UNL     1      17.008   2.506  12.028  1.00  0.00     0.086 N 
HETATM    8  C1  UNL     1      16.835   3.372  10.892  1.00  0.00     0.310 C 
HETATM    9  C8  UNL     1      15.764   2.443  12.734  1.00  0.00     0.308 C 
ENDBRANCH   1   2
BRANCH   1  10
HETATM   10  O1  UNL     1      16.013  -0.311  16.285  1.00  0.00    -0.365 OA
ATOM     11  H1  UNL     1      15.740  -0.459  17.182  1.00  0.00     0.212 HD
ENDBRANCH   1  10
BRANCH   1  12
HETATM   12  C6  UNL     1      15.241   1.749  17.037  1.00  0.00     0.436 C 
BRANCH  12  13
HETATM   13  N3  UNL     1      15.305   0.848  18.190  1.00  0.00    -0.046 N 
ATOM     14  H33 UNL     1      16.209   0.861  18.663  1.00  0.00     0.277 HD
ATOM     15  H32 UNL     1      14.744   1.164  18.982  1.00  0.00     0.277 HD
ATOM     16  H31 UNL     1      15.040  -0.075  17.850  1.00  0.00     0.277 HD
ENDBRANCH  12  13
BRANCH  12  17
HETATM   17  N4  UNL     1      13.876   2.284  17.079  1.00  0.00    -0.046 N 
ATOM     18  H43 UNL     1      13.664   2.807  16.231  1.00  0.00     0.277 HD
ATOM     19  H42 UNL     1      13.189   1.535  16.989  1.00  0.00     0.277 HD
ATOM     20  H41 UNL     1      13.695   2.847  17.910  1.00  0.00     0.277 HD
ENDBRANCH  12  17
ENDBRANCH   1  12
TORSDOF 5
ENDMDL
MODEL 3
REMARK VINA RESULT: -5.419433307      1.804      4.895
REMARK  5 active torsions:
REMARK  status: ('A' for Active; 'I' for Inactive)
REMARK    1  A    between atoms: N2_6  and  C5_7 
REMARK    2  A    between atoms: C5_7  and  O1_8 
REMARK    3  A    between atoms: C5_7  and  C6_10 
REMARK    4  A    between atoms: C6_10  and  N3_11 
REMARK    5  A    between atoms: C6_10  and  N4_15 
ROOT
HETATM    1  C5  UNL     1      15.362   2.368  16.420  1.00  0.00     0.415 C 
ENDROOT
BRANCH   1   2
HETATM    2  N2  UNL     1      15.788   1.868  15.167  1.00  0.00     0.128 N 
HETATM    3  C4  UNL     1      16.119   0.469  15.065  1.00  0.00     0.285 C 
HETATM    4  C3  UNL     1      17.279   0.880  14.168  1.00  0.00     0.077 C 
HETATM    5  C2  UNL     1      17.002   0.837  12.699  1.00  0.00     0.280 C 
HETATM    6  C7  UNL     1      17.023   2.298  14.599  1.00  0.00     0.262 C 
HETATM    7  N1  UNL     1      16.703   2.155  12.244  1.00  0.00     0.086 N 
HETATM    8  C1  UNL     1      17.555   2.639  11.189  1.00  0.00     0.310 C 
HETATM    9  C8  UNL     1      16.785   3.074  13.339  1.00  0.00     0.308 C 
ENDBRANCH   1   2
BRANCH   1  10
HETATM   10  O1  UNL     1      14.442   3.406  16.225  1.00  0.00    -0.365 OA
ATOM     11  H1  UNL     1      14.372   3.924  17.018  1.00  0.00     0.212 HD
ENDBRANCH   1  10
BRANCH   1  12
HETATM   12  C6  UNL     1      14.733   1.398  17.360  1.00  0.00     0.436 C 
BRANCH  12  13
HETATM   13  N3  UNL     1      13.717   2.143  18.107  1.00  0.00    -0.046 N 
ATOM     14  H33 UNL     1      13.895   2.174  19.110  1.00  0.00     0.277 HD
ATOM     15  H32 UNL     1      13.749   3.149  17.941  1.00  0.00     0.277 HD
ATOM     16  H31 UNL     1      12.818   1.723  17.868  1.00  0.00     0.277 HD
ENDBRANCH  12  13
BRANCH  12  17
HETATM   17  N4  UNL     1      15.657   0.923  18.395  1.00  0.00    -0.046 N 
ATOM     18  H43 UNL     1      15.937  -0.041  18.220  1.00  0.00     0.277 HD
ATOM     19  H42 UNL     1      16.566   1.379  18.309  1.00  0.00     0.277 HD
ATOM     20  H41 UNL     1      15.285   1.029  19.339  1.00  0.00     0.277 HD
ENDBRANCH  12  17
ENDBRANCH   1  12
TORSDOF 5
ENDMDL
MODEL 4
REMARK VINA RESULT: -5.124709737      1.899      2.410
REMARK  5 active torsions:
REMARK  status: ('A' for Active; 'I' for Inactive)
REMARK    1  A    between atoms: N2_6  and  C5_7 
REMARK    2  A    between atoms: C5_7  and  O1_8 
REMARK    3  A    between atoms: C5_7  and  C6_10 
REMARK    4  A    between atoms: C6_10  and  N3_11 
REMARK    5  A    between atoms: C6_10  and  N4_15 
ROOT
HETATM    1  C5  UNL     1      17.472   0.592  13.887  1.00  0.00     0.415 C 
ENDROOT
BRANCH   1   2
HETATM    2  N2  UNL     1      16.462   1.163  14.696  1.00  0.00     0.128 N 
HETATM    3  C4  UNL     1      15.846   2.391  14.256  1.00  0.00     0.285 C 
HETATM    4  C3  UNL     1      15.867   2.841  15.711  1.00  0.00     0.077 C 
HETATM    5  C2  UNL     1      14.612   2.584  16.482  1.00  0.00     0.280 C 
HETATM    6  C7  UNL     1      16.774   1.674  15.990  1.00  0.00     0.262 C 
HETATM    7  N1  UNL     1      14.779   1.401  17.260  1.00  0.00     0.086 N 
HETATM    8  C1  UNL     1      14.582   1.575  18.675  1.00  0.00     0.310 C 
HETATM    9  C8  UNL     1      16.092   0.869  17.055  1.00  0.00     0.308 C 
ENDBRANCH   1   2
BRANCH   1  10
HETATM   10  O1  UNL     1      17.705  -0.730  14.290  1.00  0.00    -0.365 OA
ATOM     11  H1  UNL     1      16.878  -1.191  14.366  1.00  0.00     0.212 HD
ENDBRANCH   1  10
BRANCH   1  12
HETATM   12  C6  UNL     1      17.231   0.564  12.417  1.00  0.00     0.436 C 
BRANCH  12  13
HETATM   13  N3  UNL     1      18.040  -0.535  11.884  1.00  0.00    -0.046 N 
ATOM     14  H33 UNL     1      17.994  -1.381  12.451  1.00  0.00     0.277 HD
ATOM     15  H32 UNL     1      17.662  -0.936  11.026  1.00  0.00     0.277 HD
ATOM     16  H31 UNL     1      18.986  -0.170  11.777  1.00  0.00     0.277 HD
ENDBRANCH  12  13
BRANCH  12  17
HETATM   17  N4  UNL     1      17.749   1.752  11.731  1.00  0.00    -0.046 N 
ATOM     18  H43 UNL     1      18.763   1.814  11.824  1.00  0.00     0.277 HD
ATOM     19  H42 UNL     1      17.682   1.647  10.718  1.00  0.00     0.277 HD
ATOM     20  H41 UNL     1      17.302   2.615  12.038  1.00  0.00     0.277 HD
ENDBRANCH  12  17
ENDBRANCH   1  12
TORSDOF 5
ENDMDL
MODEL 5
REMARK VINA RESULT: -5.109482467      2.107      4.720
REMARK  5 active torsions:
REMARK  status: ('A' for Active; 'I' for Inactive)
REMARK    1  A    between atoms: N2_6  and  C5_7 
REMARK    2  A    between atoms: C5_7  and  O1_8 
REMARK    3  A    between atoms: C5_7  and  C6_10 
REMARK    4  A    between atoms: C6_10  and  N3_11 
REMARK    5  A    between atoms: C6_10  and  N4_15 
ROOT
HETATM    1  C5  UNL     1      15.306   1.022  17.131  1.00  0.00     0.415 C 
ENDROOT
BRANCH   1   2
HETATM    2  N2  UNL     1      15.768   0.953  15.796  1.00  0.00     0.128 N 
HETATM    3  C4  UNL     1      16.651  -0.127  15.433  1.00  0.00     0.285 C 
HETATM    4  C3  UNL     1      17.424   0.880  14.591  1.00  0.00     0.077 C 
HETATM    5  C2  UNL     1      17.038   0.940  13.147  1.00  0.00     0.280 C 
HETATM    6  C7  UNL     1      16.635   1.960  15.278  1.00  0.00     0.262 C 
HETATM    7  N1  UNL     1      16.160   2.045  12.947  1.00  0.00     0.086 N 
HETATM    8  C1  UNL     1      16.607   3.005  11.972  1.00  0.00     0.310 C 
HETATM    9  C8  UNL     1      15.957   2.732  14.187  1.00  0.00     0.308 C 
ENDBRANCH   1   2
BRANCH   1  10
HETATM   10  O1  UNL     1      16.382   0.852  18.012  1.00  0.00    -0.365 OA
ATOM     11  H1  UNL     1      16.922   1.634  18.010  1.00  0.00     0.212 HD
ENDBRANCH   1  10
BRANCH   1  12
HETATM   12  C6  UNL     1      14.599   2.269  17.541  1.00  0.00     0.436 C 
BRANCH  12  13
HETATM   13  N3  UNL     1      14.107   2.039  18.901  1.00  0.00    -0.046 N 
ATOM     14  H33 UNL     1      14.843   2.058  19.606  1.00  0.00     0.277 HD
ATOM     15  H32 UNL     1      13.559   2.817  19.270  1.00  0.00     0.277 HD
ATOM     16  H31 UNL     1      13.593   1.159  18.876  1.00  0.00     0.277 HD
ENDBRANCH  12  13
BRANCH  12  17
HETATM   17  N4  UNL     1      13.383   2.519  16.760  1.00  0.00    -0.046 N 
ATOM     18  H43 UNL     1      13.470   3.376  16.215  1.00  0.00     0.277 HD
ATOM     19  H42 UNL     1      13.294   1.846  15.999  1.00  0.00     0.277 HD
ATOM     20  H41 UNL     1      12.540   2.535  17.333  1.00  0.00     0.277 HD
ENDBRANCH  12  17
ENDBRANCH   1  12
TORSDOF 5
ENDMDL
