MODEL 1
REMARK VINA RESULT: -7.280671866      0.000      0.000
REMARK  2 active torsions:
REMARK  status: ('A' for Active; 'I' for Inactive)
REMARK    1  A    between atoms: C1_4  and  N2_5 
REMARK    2  A    between atoms: N3_10  and  N4_12 
ROOT
HETATM    1  N2  UNL     1      46.211  25.297  40.078  1.00  0.00    -0.322 N 
HETATM    2  C2  UNL     1      46.141  25.121  38.640  1.00  0.00     0.142 C 
HETATM    3  C3  UNL     1      44.819  25.723  38.179  1.00  0.00     0.103 C 
HETATM    4  S1  UNL     1      44.984  27.326  39.077  1.00  0.00    -0.091 SA
HETATM    5  C4  UNL     1      46.005  26.663  40.420  1.00  0.00     0.162 C 
HETATM    6  N3  UNL     1      46.441  27.280  41.446  1.00  0.00    -0.278 N 
ATOM      7  H3  UNL     1      46.202  28.266  41.544  1.00  0.00     0.189 HD
ENDROOT
BRANCH   1   8
HETATM    8  C1  UNL     1      46.466  24.222  41.007  1.00  0.00     0.178 C 
HETATM    9  N1  UNL     1      47.587  23.598  41.020  1.00  0.00    -0.395 N 
ATOM     10  H12 UNL     1      48.304  23.881  40.352  1.00  0.00     0.156 HD
ATOM     11  H11 UNL     1      47.767  22.838  41.676  1.00  0.00     0.156 HD
ENDBRANCH   1   8
BRANCH   6  12
HETATM   12  N4  UNL     1      47.214  26.707  42.429  1.00  0.00    -0.274 N 
HETATM   13  C5  UNL     1      46.998  26.712  43.673  1.00  0.00     0.215 C 
HETATM   14  N5  UNL     1      47.892  26.076  44.556  1.00  0.00    -0.065 NA
HETATM   15  N6  UNL     1      45.854  27.356  44.191  1.00  0.00    -0.065 NA
ATOM     16  H4  UNL     1      48.056  26.225  42.118  1.00  0.00     0.189 HD
ENDBRANCH   6  12
TORSDOF 2
ENDMDL
MODEL 2
REMARK VINA RESULT: -6.349542619      1.312      1.596
REMARK  2 active torsions:
REMARK  status: ('A' for Active; 'I' for Inactive)
REMARK    1  A    between atoms: C1_4  and  N2_5 
REMARK    2  A    between atoms: N3_10  and  N4_12 
ROOT
HETATM    1  N2  UNL     1      45.913  25.284  40.080  1.00  0.00    -0.322 N 
HETATM    2  C2  UNL     1      46.488  25.322  38.749  1.00  0.00     0.142 C 
HETATM    3  C3  UNL     1      45.382  24.939  37.772  1.00  0.00     0.103 C 
HETATM    4  S1  UNL     1      44.096  26.082  38.440  1.00  0.00    -0.091 SA
HETATM    5  C4  UNL     1      44.739  26.088  40.135  1.00  0.00     0.162 C 
HETATM    6  N3  UNL     1      44.250  26.677  41.153  1.00  0.00    -0.278 N 
ATOM      7  H3  UNL     1      43.395  27.218  41.024  1.00  0.00     0.189 HD
ENDROOT
BRANCH   1   8
HETATM    8  C1  UNL     1      46.479  24.538  41.177  1.00  0.00     0.178 C 
HETATM    9  N1  UNL     1      47.416  23.680  40.993  1.00  0.00    -0.395 N 
ATOM     10  H12 UNL     1      47.757  23.535  40.043  1.00  0.00     0.156 HD
ATOM     11  H11 UNL     1      47.816  23.152  41.769  1.00  0.00     0.156 HD
ENDBRANCH   1   8
BRANCH   6  12
HETATM   12  N4  UNL     1      44.796  26.635  42.414  1.00  0.00    -0.274 N 
HETATM   13  C5  UNL     1      45.646  27.427  42.908  1.00  0.00     0.215 C 
HETATM   14  N5  UNL     1      46.110  27.247  44.226  1.00  0.00    -0.065 NA
HETATM   15  N6  UNL     1      46.141  28.504  42.142  1.00  0.00    -0.065 NA
ATOM     16  H4  UNL     1      44.478  25.878  43.019  1.00  0.00     0.189 HD
ENDBRANCH   6  12
TORSDOF 2
ENDMDL
MODEL 3
REMARK VINA RESULT: -6.285249388      1.642      2.640
REMARK  2 active torsions:
REMARK  status: ('A' for Active; 'I' for Inactive)
REMARK    1  A    between atoms: C1_4  and  N2_5 
REMARK    2  A    between atoms: N3_10  and  N4_12 
ROOT
HETATM    1  N2  UNL     1      44.503  26.451  40.701  1.00  0.00    -0.322 N 
HETATM    2  C2  UNL     1      43.824  25.505  39.836  1.00  0.00     0.142 C 
HETATM    3  C3  UNL     1      44.205  25.854  38.402  1.00  0.00     0.103 C 
HETATM    4  S1  UNL     1      46.025  25.969  38.683  1.00  0.00    -0.091 SA
HETATM    5  C4  UNL     1      45.898  26.464  40.421  1.00  0.00     0.162 C 
HETATM    6  N3  UNL     1      46.846  26.761  41.220  1.00  0.00    -0.278 N 
ATOM      7  H3  UNL     1      47.799  26.722  40.860  1.00  0.00     0.189 HD
ENDROOT
BRANCH   1   8
HETATM    8  C1  UNL     1      43.833  27.247  41.702  1.00  0.00     0.178 C 
HETATM    9  N1  UNL     1      43.634  28.504  41.537  1.00  0.00    -0.395 N 
ATOM     10  H12 UNL     1      43.963  28.935  40.673  1.00  0.00     0.156 HD
ATOM     11  H11 UNL     1      43.161  29.066  42.244  1.00  0.00     0.156 HD
ENDBRANCH   1   8
BRANCH   6  12
HETATM   12  N4  UNL     1      46.671  27.131  42.532  1.00  0.00    -0.274 N 
HETATM   13  C5  UNL     1      47.167  26.582  43.556  1.00  0.00     0.215 C 
HETATM   14  N5  UNL     1      46.890  27.085  44.842  1.00  0.00    -0.065 NA
HETATM   15  N6  UNL     1      48.005  25.455  43.419  1.00  0.00    -0.065 NA
ATOM     16  H4  UNL     1      46.075  27.941  42.698  1.00  0.00     0.189 HD
ENDBRANCH   6  12
TORSDOF 2
ENDMDL
MODEL 4
REMARK VINA RESULT: -6.031482413      2.409      5.076
REMARK  2 active torsions:
REMARK  status: ('A' for Active; 'I' for Inactive)
REMARK    1  A    between atoms: C1_4  and  N2_5 
REMARK    2  A    between atoms: N3_10  and  N4_12 
ROOT
HETATM    1  N2  UNL     1      45.098  26.660  42.053  1.00  0.00    -0.322 N 
HETATM    2  C2  UNL     1      45.891  27.595  42.828  1.00  0.00     0.142 C 
HETATM    3  C3  UNL     1      46.514  26.811  43.977  1.00  0.00     0.103 C 
HETATM    4  S1  UNL     1      47.157  25.411  42.962  1.00  0.00    -0.091 SA
HETATM    5  C4  UNL     1      45.887  25.537  41.675  1.00  0.00     0.162 C 
HETATM    6  N3  UNL     1      45.730  24.787  40.657  1.00  0.00    -0.278 N 
ATOM      7  H3  UNL     1      46.386  24.018  40.529  1.00  0.00     0.189 HD
ENDROOT
BRANCH   1   8
HETATM    8  C1  UNL     1      43.710  26.869  41.720  1.00  0.00     0.178 C 
HETATM    9  N1  UNL     1      42.909  27.466  42.526  1.00  0.00    -0.395 N 
ATOM     10  H12 UNL     1      43.277  27.793  43.418  1.00  0.00     0.156 HD
ATOM     11  H11 UNL     1      41.927  27.614  42.290  1.00  0.00     0.156 HD
ENDBRANCH   1   8
BRANCH   6  12
HETATM   12  N4  UNL     1      44.737  24.944  39.720  1.00  0.00    -0.274 N 
HETATM   13  C5  UNL     1      44.848  25.429  38.559  1.00  0.00     0.215 C 
HETATM   14  N5  UNL     1      43.726  25.522  37.713  1.00  0.00    -0.065 NA
HETATM   15  N6  UNL     1      46.102  25.882  38.098  1.00  0.00    -0.065 NA
ATOM     16  H4  UNL     1      43.804  24.635  39.993  1.00  0.00     0.189 HD
ENDBRANCH   6  12
TORSDOF 2
ENDMDL
MODEL 5
REMARK VINA RESULT: -5.339583012      1.640      2.507
REMARK  2 active torsions:
REMARK  status: ('A' for Active; 'I' for Inactive)
REMARK    1  A    between atoms: C1_4  and  N2_5 
REMARK    2  A    between atoms: N3_10  and  N4_12 
ROOT
HETATM    1  N2  UNL     1      44.835  25.951  41.053  1.00  0.00    -0.322 N 
HETATM    2  C2  UNL     1      43.836  25.690  40.035  1.00  0.00     0.142 C 
HETATM    3  C3  UNL     1      44.449  26.080  38.695  1.00  0.00     0.103 C 
HETATM    4  S1  UNL     1      46.046  25.183  38.916  1.00  0.00    -0.091 SA
HETATM    5  C4  UNL     1      46.059  25.302  40.724  1.00  0.00     0.162 C 
HETATM    6  N3  UNL     1      46.962  24.899  41.527  1.00  0.00    -0.278 N 
ATOM      7  H3  UNL     1      47.786  24.450  41.127  1.00  0.00     0.189 HD
ENDROOT
BRANCH   1   8
HETATM    8  C1  UNL     1      44.592  26.751  42.229  1.00  0.00     0.178 C 
HETATM    9  N1  UNL     1      44.775  28.022  42.226  1.00  0.00    -0.395 N 
ATOM     10  H12 UNL     1      45.100  28.460  41.365  1.00  0.00     0.156 HD
ATOM     11  H11 UNL     1      44.602  28.587  43.057  1.00  0.00     0.156 HD
ENDBRANCH   1   8
BRANCH   6  12
HETATM   12  N4  UNL     1      46.903  25.026  42.894  1.00  0.00    -0.274 N 
HETATM   13  C5  UNL     1      47.294  26.004  43.591  1.00  0.00     0.215 C 
HETATM   14  N5  UNL     1      47.162  25.981  44.993  1.00  0.00    -0.065 NA
HETATM   15  N6  UNL     1      47.867  27.133  42.968  1.00  0.00    -0.065 NA
ATOM     16  H4  UNL     1      46.497  24.241  43.404  1.00  0.00     0.189 HD
ENDBRANCH   6  12
TORSDOF 2
ENDMDL
