MODEL 1
REMARK VINA RESULT: -6.195381374      0.000      0.000
REMARK  4 active torsions:
REMARK  status: ('A' for Active; 'I' for Inactive)
REMARK    1  A    between atoms: N1_2  and  N2_3 
REMARK    2  A    between atoms: N2_3  and  C2_5 
REMARK    3  A    between atoms: C2_5  and  N3_7 
REMARK       I    between atoms: N3_7  and  C3_9 
REMARK       I    between atoms: C3_9  and  N5_13 
REMARK    4  A    between atoms: N5_13  and  C4_15 
ROOT
HETATM    1  C2  UNL     1      15.987  -5.148  26.127  1.00  0.00     0.210 C 
HETATM    2  S1  UNL     1      15.067  -4.004  25.436  1.00  0.00    -0.039 SA
ENDROOT
BRANCH   1   3
HETATM    3  N2  UNL     1      16.898  -4.837  27.136  1.00  0.00    -0.191 N 
ATOM      4  H2  UNL     1      17.828  -4.507  26.880  1.00  0.00     0.196 HD
BRANCH   3   5
HETATM    5  N1  UNL     1      16.570  -4.965  28.485  1.00  0.00     0.010 N 
HETATM    6  C1  UNL     1      15.103  -5.022  28.544  1.00  0.00     0.302 C 
HETATM    7  C5  UNL     1      17.001  -3.834  29.225  1.00  0.00     0.264 C 
HETATM    8  C6  UNL     1      17.727  -4.141  30.501  1.00  0.00     0.030 C 
HETATM    9  C7  UNL     1      19.138  -4.602  30.321  1.00  0.00     0.002 C 
HETATM   10  C8  UNL     1      19.355  -5.336  29.019  1.00  0.00     0.002 C 
HETATM   11  C9  UNL     1      18.459  -6.527  28.889  1.00  0.00     0.030 C 
HETATM   12  C10 UNL     1      17.011  -6.249  28.983  1.00  0.00     0.264 C 
ENDBRANCH   3   5
ENDBRANCH   1   3
BRANCH   1  13
HETATM   13  N3  UNL     1      15.842  -6.487  25.674  1.00  0.00    -0.165 N 
HETATM   14  C3  UNL     1      16.550  -6.999  24.553  1.00  0.00     0.680 C 
HETATM   15  N4  UNL     1      17.811  -7.275  24.631  1.00  0.00    -0.234 N 
HETATM   16  N5  UNL     1      15.833  -7.199  23.341  1.00  0.00    -0.168 N 
ATOM     17  H42 UNL     1      18.326  -7.131  25.500  1.00  0.00     0.174 HD
ATOM     18  H41 UNL     1      18.320  -7.642  23.827  1.00  0.00     0.174 HD
ATOM     19  H5  UNL     1      16.327  -7.566  22.527  1.00  0.00     0.186 HD
ATOM     20  H3  UNL     1      15.203  -7.106  26.174  1.00  0.00     0.186 HD
BRANCH  16  21
HETATM   21  C4  UNL     1      14.447  -6.901  23.232  1.00  0.00     0.368 C 
HETATM   22  O1  UNL     1      13.886  -6.941  22.107  1.00  0.00    -0.283 OA
ENDBRANCH  16  21
ENDBRANCH   1  13
TORSDOF 4
ENDMDL
MODEL 2
REMARK VINA RESULT: -6.052682796      0.888      2.178
REMARK  4 active torsions:
REMARK  status: ('A' for Active; 'I' for Inactive)
REMARK    1  A    between atoms: N1_2  and  N2_3 
REMARK    2  A    between atoms: N2_3  and  C2_5 
REMARK    3  A    between atoms: C2_5  and  N3_7 
REMARK       I    between atoms: N3_7  and  C3_9 
REMARK       I    between atoms: C3_9  and  N5_13 
REMARK    4  A    between atoms: N5_13  and  C4_15 
ROOT
HETATM    1  C2  UNL     1      16.177  -5.269  26.268  1.00  0.00     0.210 C 
HETATM    2  S1  UNL     1      15.130  -4.124  25.791  1.00  0.00    -0.039 SA
ENDROOT
BRANCH   1   3
HETATM    3  N2  UNL     1      17.210  -4.983  27.160  1.00  0.00    -0.191 N 
ATOM      4  H2  UNL     1      17.921  -4.302  26.894  1.00  0.00     0.196 HD
BRANCH   3   5
HETATM    5  N1  UNL     1      17.295  -5.603  28.406  1.00  0.00     0.010 N 
HETATM    6  C1  UNL     1      18.346  -6.622  28.282  1.00  0.00     0.302 C 
HETATM    7  C5  UNL     1      16.080  -6.255  28.737  1.00  0.00     0.264 C 
HETATM    8  C6  UNL     1      15.570  -5.995  30.123  1.00  0.00     0.030 C 
HETATM    9  C7  UNL     1      14.940  -4.653  30.316  1.00  0.00     0.002 C 
HETATM   10  C8  UNL     1      15.524  -3.595  29.410  1.00  0.00     0.002 C 
HETATM   11  C9  UNL     1      17.000  -3.445  29.600  1.00  0.00     0.030 C 
HETATM   12  C10 UNL     1      17.798  -4.670  29.391  1.00  0.00     0.264 C 
ENDBRANCH   3   5
ENDBRANCH   1   3
BRANCH   1  13
HETATM   13  N3  UNL     1      16.015  -6.582  25.749  1.00  0.00    -0.165 N 
HETATM   14  C3  UNL     1      16.689  -7.034  24.582  1.00  0.00     0.680 C 
HETATM   15  N4  UNL     1      17.951  -7.315  24.608  1.00  0.00    -0.234 N 
HETATM   16  N5  UNL     1      15.937  -7.168  23.383  1.00  0.00    -0.168 N 
ATOM     17  H42 UNL     1      18.491  -7.219  25.468  1.00  0.00     0.174 HD
ATOM     18  H41 UNL     1      18.435  -7.640  23.771  1.00  0.00     0.174 HD
ATOM     19  H5  UNL     1      16.406  -7.492  22.536  1.00  0.00     0.186 HD
ATOM     20  H3  UNL     1      15.390  -7.226  26.234  1.00  0.00     0.186 HD
BRANCH  16  21
HETATM   21  C4  UNL     1      14.548  -6.864  23.330  1.00  0.00     0.368 C 
HETATM   22  O1  UNL     1      13.937  -6.921  22.233  1.00  0.00    -0.283 OA
ENDBRANCH  16  21
ENDBRANCH   1  13
TORSDOF 4
ENDMDL
MODEL 3
REMARK VINA RESULT: -5.977308287      2.267      2.967
REMARK  4 active torsions:
REMARK  status: ('A' for Active; 'I' for Inactive)
REMARK    1  A    between atoms: N1_2  and  N2_3 
REMARK    2  A    between atoms: N2_3  and  C2_5 
REMARK    3  A    between atoms: C2_5  and  N3_7 
REMARK       I    between atoms: N3_7  and  C3_9 
REMARK       I    between atoms: C3_9  and  N5_13 
REMARK    4  A    between atoms: N5_13  and  C4_15 
ROOT
HETATM    1  C2  UNL     1      15.570  -5.326  28.693  1.00  0.00     0.210 C 
HETATM    2  S1  UNL     1      14.376  -4.640  29.552  1.00  0.00    -0.039 SA
ENDROOT
BRANCH   1   3
HETATM    3  N2  UNL     1      16.203  -6.489  29.130  1.00  0.00    -0.191 N 
ATOM      4  H2  UNL     1      16.153  -7.328  28.553  1.00  0.00     0.196 HD
BRANCH   3   5
HETATM    5  N1  UNL     1      16.903  -6.535  30.335  1.00  0.00     0.010 N 
HETATM    6  C1  UNL     1      16.055  -7.286  31.270  1.00  0.00     0.302 C 
HETATM    7  C5  UNL     1      17.100  -5.233  30.862  1.00  0.00     0.264 C 
HETATM    8  C6  UNL     1      18.494  -4.934  31.327  1.00  0.00     0.030 C 
HETATM    9  C7  UNL     1      19.477  -4.674  30.230  1.00  0.00     0.002 C 
HETATM   10  C8  UNL     1      19.144  -5.414  28.956  1.00  0.00     0.002 C 
HETATM   11  C9  UNL     1      19.067  -6.893  29.169  1.00  0.00     0.030 C 
HETATM   12  C10 UNL     1      18.095  -7.342  30.187  1.00  0.00     0.264 C 
ENDBRANCH   3   5
ENDBRANCH   1   3
BRANCH   1  13
HETATM   13  N3  UNL     1      15.958  -4.707  27.475  1.00  0.00    -0.165 N 
HETATM   14  C3  UNL     1      15.239  -4.882  26.262  1.00  0.00     0.680 C 
HETATM   15  N4  UNL     1      14.101  -4.297  26.072  1.00  0.00    -0.234 N 
HETATM   16  N5  UNL     1      15.805  -5.719  25.261  1.00  0.00    -0.168 N 
ATOM     17  H42 UNL     1      13.694  -3.696  26.789  1.00  0.00     0.174 HD
ATOM     18  H41 UNL     1      13.584  -4.422  25.201  1.00  0.00     0.174 HD
ATOM     19  H5  UNL     1      15.300  -5.855  24.385  1.00  0.00     0.186 HD
ATOM     20  H3  UNL     1      16.788  -4.112  27.471  1.00  0.00     0.186 HD
BRANCH  16  21
HETATM   21  C4  UNL     1      17.054  -6.373  25.449  1.00  0.00     0.368 C 
HETATM   22  O1  UNL     1      17.184  -7.221  26.368  1.00  0.00    -0.283 OA
ENDBRANCH  16  21
ENDBRANCH   1  13
TORSDOF 4
ENDMDL
MODEL 4
REMARK VINA RESULT: -5.896351911      2.574      3.704
REMARK  4 active torsions:
REMARK  status: ('A' for Active; 'I' for Inactive)
REMARK    1  A    between atoms: N1_2  and  N2_3 
REMARK    2  A    between atoms: N2_3  and  C2_5 
REMARK    3  A    between atoms: C2_5  and  N3_7 
REMARK       I    between atoms: N3_7  and  C3_9 
REMARK       I    between atoms: C3_9  and  N5_13 
REMARK    4  A    between atoms: N5_13  and  C4_15 
ROOT
HETATM    1  C2  UNL     1      17.667  -5.842  28.440  1.00  0.00     0.210 C 
HETATM    2  S1  UNL     1      19.036  -6.681  28.674  1.00  0.00    -0.039 SA
ENDROOT
BRANCH   1   3
HETATM    3  N2  UNL     1      17.463  -4.602  29.046  1.00  0.00    -0.191 N 
ATOM      4  H2  UNL     1      17.475  -3.761  28.470  1.00  0.00     0.196 HD
BRANCH   3   5
HETATM    5  N1  UNL     1      17.242  -4.483  30.417  1.00  0.00     0.010 N 
HETATM    6  C1  UNL     1      18.552  -4.198  31.017  1.00  0.00     0.302 C 
HETATM    7  C5  UNL     1      16.758  -5.699  30.964  1.00  0.00     0.264 C 
HETATM    8  C6  UNL     1      15.571  -5.566  31.872  1.00  0.00     0.030 C 
HETATM    9  C7  UNL     1      14.272  -5.326  31.170  1.00  0.00     0.002 C 
HETATM   10  C8  UNL     1      14.437  -4.580  29.868  1.00  0.00     0.002 C 
HETATM   11  C9  UNL     1      15.111  -3.258  30.059  1.00  0.00     0.030 C 
HETATM   12  C10 UNL     1      16.445  -3.307  30.692  1.00  0.00     0.264 C 
ENDBRANCH   3   5
ENDBRANCH   1   3
BRANCH   1  13
HETATM   13  N3  UNL     1      16.672  -6.405  27.597  1.00  0.00    -0.165 N 
HETATM   14  C3  UNL     1      16.801  -6.450  26.182  1.00  0.00     0.680 C 
HETATM   15  N4  UNL     1      17.606  -7.287  25.612  1.00  0.00    -0.234 N 
HETATM   16  N5  UNL     1      16.021  -5.547  25.409  1.00  0.00    -0.168 N 
ATOM     17  H42 UNL     1      18.167  -7.934  26.167  1.00  0.00     0.174 HD
ATOM     18  H41 UNL     1      17.699  -7.319  24.597  1.00  0.00     0.174 HD
ATOM     19  H5  UNL     1      16.101  -5.567  24.392  1.00  0.00     0.186 HD
ATOM     20  H3  UNL     1      15.831  -6.794  28.024  1.00  0.00     0.186 HD
BRANCH  16  21
HETATM   21  C4  UNL     1      15.130  -4.618  26.013  1.00  0.00     0.368 C 
HETATM   22  O1  UNL     1      15.589  -3.635  26.649  1.00  0.00    -0.283 OA
ENDBRANCH  16  21
ENDBRANCH   1  13
TORSDOF 4
ENDMDL
MODEL 5
REMARK VINA RESULT: -5.820887635      2.331      3.338
REMARK  4 active torsions:
REMARK  status: ('A' for Active; 'I' for Inactive)
REMARK    1  A    between atoms: N1_2  and  N2_3 
REMARK    2  A    between atoms: N2_3  and  C2_5 
REMARK    3  A    between atoms: C2_5  and  N3_7 
REMARK       I    between atoms: N3_7  and  C3_9 
REMARK       I    between atoms: C3_9  and  N5_13 
REMARK    4  A    between atoms: N5_13  and  C4_15 
ROOT
HETATM    1  C2  UNL     1      16.735  -5.512  27.599  1.00  0.00     0.210 C 
HETATM    2  S1  UNL     1      18.194  -6.188  27.816  1.00  0.00    -0.039 SA
ENDROOT
BRANCH   1   3
HETATM    3  N2  UNL     1      15.799  -5.459  28.632  1.00  0.00    -0.191 N 
ATOM      4  H2  UNL     1      15.054  -6.154  28.663  1.00  0.00     0.196 HD
BRANCH   3   5
HETATM    5  N1  UNL     1      15.855  -4.479  29.623  1.00  0.00     0.010 N 
HETATM    6  C1  UNL     1      16.363  -3.266  28.968  1.00  0.00     0.302 C 
HETATM    7  C5  UNL     1      16.762  -4.844  30.650  1.00  0.00     0.264 C 
HETATM    8  C6  UNL     1      16.247  -4.675  32.049  1.00  0.00     0.030 C 
HETATM    9  C7  UNL     1      15.277  -5.725  32.489  1.00  0.00     0.002 C 
HETATM   10  C8  UNL     1      14.470  -6.293  31.347  1.00  0.00     0.002 C 
HETATM   11  C9  UNL     1      13.707  -5.234  30.616  1.00  0.00     0.030 C 
HETATM   12  C10 UNL     1      14.518  -4.134  30.056  1.00  0.00     0.264 C 
ENDBRANCH   3   5
ENDBRANCH   1   3
BRANCH   1  13
HETATM   13  N3  UNL     1      16.431  -4.971  26.321  1.00  0.00    -0.165 N 
HETATM   14  C3  UNL     1      15.139  -5.063  25.737  1.00  0.00     0.680 C 
HETATM   15  N4  UNL     1      14.161  -4.329  26.162  1.00  0.00    -0.234 N 
HETATM   16  N5  UNL     1      14.948  -5.986  24.672  1.00  0.00    -0.168 N 
ATOM     17  H42 UNL     1      14.297  -3.668  26.926  1.00  0.00     0.174 HD
ATOM     18  H41 UNL     1      13.234  -4.395  25.743  1.00  0.00     0.174 HD
ATOM     19  H5  UNL     1      14.026  -6.063  24.241  1.00  0.00     0.186 HD
ATOM     20  H3  UNL     1      17.170  -4.497  25.802  1.00  0.00     0.186 HD
BRANCH  16  21
HETATM   21  C4  UNL     1      16.008  -6.803  24.189  1.00  0.00     0.368 C 
HETATM   22  O1  UNL     1      16.533  -7.657  24.947  1.00  0.00    -0.283 OA
ENDBRANCH  16  21
ENDBRANCH   1  13
TORSDOF 4
ENDMDL
