MODEL 1
REMARK VINA RESULT: -4.235373281      0.000      0.000
REMARK  1 active torsions:
REMARK  status: ('A' for Active; 'I' for Inactive)
REMARK    1  A    between atoms: N2_4  and  N3_6 
ROOT
HETATM    1  N3  UNL     1      24.210  39.141  45.888  1.00  0.00    -0.274 N 
ATOM      2  H3  UNL     1      23.544  38.372  45.825  1.00  0.00     0.190 HD
HETATM    3  C1  UNL     1      25.476  38.892  45.828  1.00  0.00     0.111 A 
HETATM    4  C2  UNL     1      26.886  39.424  45.848  1.00  0.00     0.198 A 
HETATM    5  N4  UNL     1      26.611  38.005  45.705  1.00  0.00    -0.370 N 
ATOM      6  H4  UNL     1      26.967  37.055  45.595  1.00  0.00     0.161 HD
ENDROOT
BRANCH   1   7
HETATM    7  N2  UNL     1      23.743  40.437  46.037  1.00  0.00    -0.248 N 
HETATM    8  N1  UNL     1      22.901  40.951  45.261  1.00  0.00    -0.331 N 
ATOM      9  H12 UNL     1      22.555  40.376  44.493  1.00  0.00     0.178 HD
ATOM     10  H11 UNL     1      22.558  41.905  45.371  1.00  0.00     0.178 HD
ATOM     11  H2  UNL     1      24.099  40.998  46.811  1.00  0.00     0.207 HD
ENDBRANCH   1   7
TORSDOF 1
ENDMDL
MODEL 2
REMARK VINA RESULT: -4.021709673      2.156      2.876
REMARK  1 active torsions:
REMARK  status: ('A' for Active; 'I' for Inactive)
REMARK    1  A    between atoms: N2_4  and  N3_6 
ROOT
HETATM    1  N3  UNL     1      26.780  38.398  46.350  1.00  0.00    -0.274 N 
ATOM      2  H3  UNL     1      26.780  38.873  47.252  1.00  0.00     0.190 HD
HETATM    3  C1  UNL     1      27.800  37.683  46.009  1.00  0.00     0.111 A 
HETATM    4  C2  UNL     1      28.455  36.798  44.979  1.00  0.00     0.198 A 
HETATM    5  N4  UNL     1      29.110  37.115  46.236  1.00  0.00    -0.370 N 
ATOM      6  H4  UNL     1      29.921  37.011  46.847  1.00  0.00     0.161 HD
ENDROOT
BRANCH   1   7
HETATM    7  N2  UNL     1      25.686  38.529  45.509  1.00  0.00    -0.248 N 
HETATM    8  N1  UNL     1      24.515  38.255  45.867  1.00  0.00    -0.331 N 
ATOM      9  H12 UNL     1      24.380  37.922  46.823  1.00  0.00     0.178 HD
ATOM     10  H11 UNL     1      23.710  38.351  45.248  1.00  0.00     0.178 HD
ATOM     11  H2  UNL     1      25.839  38.862  44.558  1.00  0.00     0.207 HD
ENDBRANCH   1   7
TORSDOF 1
ENDMDL
MODEL 3
REMARK VINA RESULT: -4.001412941      2.170      2.801
REMARK  1 active torsions:
REMARK  status: ('A' for Active; 'I' for Inactive)
REMARK    1  A    between atoms: N2_4  and  N3_6 
ROOT
HETATM    1  N3  UNL     1      26.840  37.896  45.208  1.00  0.00    -0.274 N 
ATOM      2  H3  UNL     1      26.810  37.288  44.390  1.00  0.00     0.190 HD
HETATM    3  C1  UNL     1      27.901  37.920  45.943  1.00  0.00     0.111 A 
HETATM    4  C2  UNL     1      28.608  38.481  47.151  1.00  0.00     0.198 A 
HETATM    5  N4  UNL     1      29.243  37.504  46.284  1.00  0.00    -0.370 N 
ATOM      6  H4  UNL     1      30.059  36.931  46.068  1.00  0.00     0.161 HD
ENDROOT
BRANCH   1   7
HETATM    7  N2  UNL     1      25.740  38.681  45.515  1.00  0.00    -0.248 N 
HETATM    8  N1  UNL     1      24.630  38.199  45.849  1.00  0.00    -0.331 N 
ATOM      9  H12 UNL     1      24.552  37.183  45.891  1.00  0.00     0.178 HD
ATOM     10  H11 UNL     1      23.821  38.778  46.074  1.00  0.00     0.178 HD
ATOM     11  H2  UNL     1      25.836  39.695  45.467  1.00  0.00     0.207 HD
ENDBRANCH   1   7
TORSDOF 1
ENDMDL
MODEL 4
REMARK VINA RESULT: -3.824516848      2.028      4.583
REMARK  1 active torsions:
REMARK  status: ('A' for Active; 'I' for Inactive)
REMARK    1  A    between atoms: N2_4  and  N3_6 
ROOT
HETATM    1  N3  UNL     1      27.538  37.189  45.094  1.00  0.00    -0.274 N 
ATOM      2  H3  UNL     1      27.014  36.420  44.677  1.00  0.00     0.190 HD
HETATM    3  C1  UNL     1      26.920  38.273  45.424  1.00  0.00     0.111 A 
HETATM    4  C2  UNL     1      26.995  39.660  46.009  1.00  0.00     0.198 A 
HETATM    5  N4  UNL     1      25.739  39.100  45.540  1.00  0.00    -0.370 N 
ATOM      6  H4  UNL     1      24.736  39.211  45.396  1.00  0.00     0.161 HD
ENDROOT
BRANCH   1   7
HETATM    7  N2  UNL     1      28.902  37.053  45.297  1.00  0.00    -0.248 N 
HETATM    8  N1  UNL     1      29.421  36.012  45.768  1.00  0.00    -0.331 N 
ATOM      9  H12 UNL     1      28.797  35.241  46.006  1.00  0.00     0.178 HD
ATOM     10  H11 UNL     1      30.425  35.913  45.918  1.00  0.00     0.178 HD
ATOM     11  H2  UNL     1      29.511  37.834  45.054  1.00  0.00     0.207 HD
ENDBRANCH   1   7
TORSDOF 1
ENDMDL
MODEL 5
REMARK VINA RESULT: -3.758396084      1.393      4.082
REMARK  1 active torsions:
REMARK  status: ('A' for Active; 'I' for Inactive)
REMARK    1  A    between atoms: N2_4  and  N3_6 
ROOT
HETATM    1  N3  UNL     1      27.128  38.422  45.180  1.00  0.00    -0.274 N 
ATOM      2  H3  UNL     1      27.725  39.141  44.771  1.00  0.00     0.190 HD
HETATM    3  C1  UNL     1      25.962  38.745  45.629  1.00  0.00     0.111 A 
HETATM    4  C2  UNL     1      24.678  38.305  46.286  1.00  0.00     0.198 A 
HETATM    5  N4  UNL     1      24.903  39.689  45.907  1.00  0.00    -0.370 N 
ATOM      6  H4  UNL     1      24.557  40.648  45.865  1.00  0.00     0.161 HD
ENDROOT
BRANCH   1   7
HETATM    7  N2  UNL     1      27.582  37.114  45.243  1.00  0.00    -0.248 N 
HETATM    8  N1  UNL     1      28.731  36.773  44.871  1.00  0.00    -0.331 N 
ATOM      9  H12 UNL     1      29.345  37.503  44.509  1.00  0.00     0.178 HD
ATOM     10  H11 UNL     1      29.064  35.810  44.917  1.00  0.00     0.178 HD
ATOM     11  H2  UNL     1      26.955  36.398  45.608  1.00  0.00     0.207 HD
ENDBRANCH   1   7
TORSDOF 1
ENDMDL
