MODEL 1
REMARK VINA RESULT: -5.075991435      0.000      0.000
REMARK  3 active torsions:
REMARK  status: ('A' for Active; 'I' for Inactive)
REMARK    1  A    between atoms: N1_2  and  C2_5 
REMARK    2  A    between atoms: C2_5  and  C3_6 
REMARK    3  A    between atoms: C3_6  and  C4_7 
ROOT
HETATM    1  C4  UNL     1      30.066  71.325  11.883  1.00  0.00     0.150 A 
HETATM    2  N2  UNL     1      28.985  71.619  10.996  1.00  0.00    -0.353 N 
ATOM      3  H2  UNL     1      28.727  72.559  10.696  1.00  0.00     0.163 HD
HETATM    4  C5  UNL     1      28.375  70.545  10.621  1.00  0.00     0.190 A 
HETATM    5  N3  UNL     1      27.253  70.515   9.735  1.00  0.00    -0.063 NA
HETATM    6  N4  UNL     1      29.028  69.471  11.250  1.00  0.00    -0.321 N 
ATOM      7  H4  UNL     1      28.753  68.496  11.131  1.00  0.00     0.169 HD
HETATM    8  C6  UNL     1      30.010  69.848  11.989  1.00  0.00     0.118 A 
HETATM    9  N5  UNL     1      30.897  69.043  12.775  1.00  0.00    -0.085 NA
ENDROOT
BRANCH   1  10
HETATM   10  C3  UNL     1      29.889  71.888  13.269  1.00  0.00     0.060 C 
BRANCH  10  11
HETATM   11  C2  UNL     1      29.530  73.341  13.269  1.00  0.00     0.234 C 
BRANCH  11  12
HETATM   12  N1  UNL     1      29.045  73.789  14.558  1.00  0.00    -0.079 N 
HETATM   13  C1  UNL     1      29.195  75.238  14.580  1.00  0.00     0.266 C 
ATOM     14  H12 UNL     1      29.499  73.324  15.343  1.00  0.00     0.276 HD
ATOM     15  H11 UNL     1      28.094  73.478  14.760  1.00  0.00     0.276 HD
ENDBRANCH  11  12
ENDBRANCH  10  11
ENDBRANCH   1  10
TORSDOF 3
ENDMDL
MODEL 2
REMARK VINA RESULT: -4.912033942      1.464      1.660
REMARK  3 active torsions:
REMARK  status: ('A' for Active; 'I' for Inactive)
REMARK    1  A    between atoms: N1_2  and  C2_5 
REMARK    2  A    between atoms: C2_5  and  C3_6 
REMARK    3  A    between atoms: C3_6  and  C4_7 
ROOT
HETATM    1  C4  UNL     1      30.594  71.377  12.794  1.00  0.00     0.150 A 
HETATM    2  N2  UNL     1      29.596  71.949  11.946  1.00  0.00    -0.353 N 
ATOM      3  H2  UNL     1      29.357  72.941  11.929  1.00  0.00     0.163 HD
HETATM    4  C5  UNL     1      29.033  71.054  11.207  1.00  0.00     0.190 A 
HETATM    5  N3  UNL     1      27.997  71.319  10.257  1.00  0.00    -0.063 NA
HETATM    6  N4  UNL     1      29.637  69.827  11.530  1.00  0.00    -0.321 N 
ATOM      7  H4  UNL     1      29.383  68.940  11.093  1.00  0.00     0.169 HD
HETATM    8  C6  UNL     1      30.543  69.940  12.435  1.00  0.00     0.118 A 
HETATM    9  N5  UNL     1      31.363  68.916  13.011  1.00  0.00    -0.085 NA
ENDROOT
BRANCH   1  10
HETATM   10  C3  UNL     1      30.286  71.490  14.263  1.00  0.00     0.060 C 
BRANCH  10  11
HETATM   11  C2  UNL     1      29.672  72.804  14.634  1.00  0.00     0.234 C 
BRANCH  11  12
HETATM   12  N1  UNL     1      28.815  72.703  15.796  1.00  0.00    -0.079 N 
HETATM   13  C1  UNL     1      29.224  71.501  16.512  1.00  0.00     0.266 C 
ATOM     14  H12 UNL     1      27.821  72.718  15.568  1.00  0.00     0.276 HD
ATOM     15  H11 UNL     1      28.824  73.542  16.377  1.00  0.00     0.276 HD
ENDBRANCH  11  12
ENDBRANCH  10  11
ENDBRANCH   1  10
TORSDOF 3
ENDMDL
MODEL 3
REMARK VINA RESULT: -4.901794993      1.726      4.565
REMARK  3 active torsions:
REMARK  status: ('A' for Active; 'I' for Inactive)
REMARK    1  A    between atoms: N1_2  and  C2_5 
REMARK    2  A    between atoms: C2_5  and  C3_6 
REMARK    3  A    between atoms: C3_6  and  C4_7 
ROOT
HETATM    1  C4  UNL     1      29.970  72.225  13.521  1.00  0.00     0.150 A 
HETATM    2  N2  UNL     1      28.960  73.198  13.796  1.00  0.00    -0.353 N 
ATOM      3  H2  UNL     1      27.961  72.997  13.819  1.00  0.00     0.163 HD
HETATM    4  C5  UNL     1      29.471  74.363  14.012  1.00  0.00     0.190 A 
HETATM    5  N3  UNL     1      28.716  75.538  14.314  1.00  0.00    -0.063 NA
HETATM    6  N4  UNL     1      30.865  74.221  13.889  1.00  0.00    -0.321 N 
ATOM      7  H4  UNL     1      31.523  74.990  14.010  1.00  0.00     0.169 HD
HETATM    8  C6  UNL     1      31.220  73.017  13.608  1.00  0.00     0.118 A 
HETATM    9  N5  UNL     1      32.541  72.499  13.410  1.00  0.00    -0.085 NA
ENDROOT
BRANCH   1  10
HETATM   10  C3  UNL     1      29.896  71.643  12.134  1.00  0.00     0.060 C 
BRANCH  10  11
HETATM   11  C2  UNL     1      28.759  72.190  11.329  1.00  0.00     0.234 C 
BRANCH  11  12
HETATM   12  N1  UNL     1      28.639  71.549  10.037  1.00  0.00    -0.079 N 
HETATM   13  C1  UNL     1      28.713  70.113  10.276  1.00  0.00     0.266 C 
ATOM     14  H12 UNL     1      29.323  71.880   9.357  1.00  0.00     0.276 HD
ATOM     15  H11 UNL     1      27.803  71.829   9.524  1.00  0.00     0.276 HD
ENDBRANCH  11  12
ENDBRANCH  10  11
ENDBRANCH   1  10
TORSDOF 3
ENDMDL
MODEL 4
REMARK VINA RESULT: -4.865457554      1.753      3.083
REMARK  3 active torsions:
REMARK  status: ('A' for Active; 'I' for Inactive)
REMARK    1  A    between atoms: N1_2  and  C2_5 
REMARK    2  A    between atoms: C2_5  and  C3_6 
REMARK    3  A    between atoms: C3_6  and  C4_7 
ROOT
HETATM    1  C4  UNL     1      30.640  71.574  13.791  1.00  0.00     0.150 A 
HETATM    2  N2  UNL     1      31.320  70.362  14.123  1.00  0.00    -0.353 N 
ATOM      3  H2  UNL     1      31.782  70.190  15.016  1.00  0.00     0.163 HD
HETATM    4  C5  UNL     1      31.278  69.513  13.153  1.00  0.00     0.190 A 
HETATM    5  N3  UNL     1      31.869  68.212  13.185  1.00  0.00    -0.063 NA
HETATM    6  N4  UNL     1      30.558  70.126  12.113  1.00  0.00    -0.321 N 
ATOM      7  H4  UNL     1      30.370  69.678  11.216  1.00  0.00     0.169 HD
HETATM    8  C6  UNL     1      30.161  71.312  12.413  1.00  0.00     0.118 A 
HETATM    9  N5  UNL     1      29.408  72.232  11.613  1.00  0.00    -0.085 NA
ENDROOT
BRANCH   1  10
HETATM   10  C3  UNL     1      31.535  72.783  13.739  1.00  0.00     0.060 C 
BRANCH  10  11
HETATM   11  C2  UNL     1      30.956  73.970  14.444  1.00  0.00     0.234 C 
BRANCH  11  12
HETATM   12  N1  UNL     1      29.888  74.592  13.690  1.00  0.00    -0.079 N 
HETATM   13  C1  UNL     1      29.124  75.396  14.635  1.00  0.00     0.266 C 
ATOM     14  H12 UNL     1      29.316  73.924  13.175  1.00  0.00     0.276 HD
ATOM     15  H11 UNL     1      30.220  75.123  12.885  1.00  0.00     0.276 HD
ENDBRANCH  11  12
ENDBRANCH  10  11
ENDBRANCH   1  10
TORSDOF 3
ENDMDL
MODEL 5
REMARK VINA RESULT: -4.856730908      1.205      1.346
REMARK  3 active torsions:
REMARK  status: ('A' for Active; 'I' for Inactive)
REMARK    1  A    between atoms: N1_2  and  C2_5 
REMARK    2  A    between atoms: C2_5  and  C3_6 
REMARK    3  A    between atoms: C3_6  and  C4_7 
ROOT
HETATM    1  C4  UNL     1      29.560  72.644  12.118  1.00  0.00     0.150 A 
HETATM    2  N2  UNL     1      28.389  72.461  11.319  1.00  0.00    -0.353 N 
ATOM      3  H2  UNL     1      27.684  73.181  11.162  1.00  0.00     0.163 HD
HETATM    4  C5  UNL     1      28.335  71.271  10.823  1.00  0.00     0.190 A 
HETATM    5  N3  UNL     1      27.284  70.788   9.983  1.00  0.00    -0.063 NA
HETATM    6  N4  UNL     1      29.483  70.595  11.273  1.00  0.00    -0.321 N 
ATOM      7  H4  UNL     1      29.699  69.628  11.031  1.00  0.00     0.169 HD
HETATM    8  C6  UNL     1      30.231  71.326  12.021  1.00  0.00     0.118 A 
HETATM    9  N5  UNL     1      31.468  70.981  12.656  1.00  0.00    -0.085 NA
ENDROOT
BRANCH   1  10
HETATM   10  C3  UNL     1      29.273  72.903  13.573  1.00  0.00     0.060 C 
BRANCH  10  11
HETATM   11  C2  UNL     1      29.331  74.355  13.932  1.00  0.00     0.234 C 
BRANCH  11  12
HETATM   12  N1  UNL     1      29.068  74.587  15.337  1.00  0.00    -0.079 N 
HETATM   13  C1  UNL     1      30.354  74.512  16.019  1.00  0.00     0.266 C 
ATOM     14  H12 UNL     1      28.369  73.955  15.726  1.00  0.00     0.276 HD
ATOM     15  H11 UNL     1      28.567  75.457  15.515  1.00  0.00     0.276 HD
ENDBRANCH  11  12
ENDBRANCH  10  11
ENDBRANCH   1  10
TORSDOF 3
ENDMDL
