MODEL 1
REMARK VINA RESULT: -6.258468386      0.000      0.000
REMARK  11 active torsions:
REMARK  status: ('A' for Active; 'I' for Inactive)
REMARK    1  A    between atoms: C2_2  and  C3_3 
REMARK    2  A    between atoms: C2_2  and  N2_8 
REMARK    3  A    between atoms: C3_3  and  N1_4 
REMARK    4  A    between atoms: N2_8  and  C4_10 
REMARK    5  A    between atoms: C5_14  and  C6_15 
REMARK    6  A    between atoms: C6_15  and  C7_16 
REMARK    7  A    between atoms: C7_16  and  N4_17 
REMARK    8  A    between atoms: N4_17  and  N5_18 
REMARK    9  A    between atoms: C9_22  and  O1_23 
REMARK   10  A    between atoms: C10_25  and  O2_26 
REMARK   11  A    between atoms: C11_28  and  N7_29 
ROOT
HETATM    1  N5  UNL     1      24.748  30.607  38.939  1.00  0.00    -0.240 N 
ATOM      2  H5  UNL     1      25.103  30.954  38.049  1.00  0.00     0.195 HD
HETATM    3  C8  UNL     1      25.578  30.485  40.042  1.00  0.00     0.194 C 
HETATM    4  N6  UNL     1      26.308  30.338  40.955  1.00  0.00    -0.171 NA
ENDROOT
BRANCH   1   5
HETATM    5  N4  UNL     1      23.378  30.232  39.090  1.00  0.00    -0.132 NA
BRANCH   5   6
HETATM    6  C7  UNL     1      22.769  30.934  40.222  1.00  0.00     0.138 C 
BRANCH   6   7
HETATM    7  C6  UNL     1      21.256  30.842  40.056  1.00  0.00     0.053 C 
BRANCH   7   8
HETATM    8  C5  UNL     1      20.883  29.410  39.823  1.00  0.00     0.220 C 
HETATM    9  N3  UNL     1      21.513  28.576  40.874  1.00  0.00    -0.046 N 
HETATM   10  C4  UNL     1      21.497  27.215  40.303  1.00  0.00     0.314 C 
ATOM     11  H32 UNL     1      21.073  28.651  41.791  1.00  0.00     0.280 HD
ATOM     12  H31 UNL     1      22.435  28.897  41.169  1.00  0.00     0.280 HD
HETATM   13  C11 UNL     1      20.127  26.947  39.845  1.00  0.00     0.264 C 
HETATM   14  C10 UNL     1      19.184  27.884  40.686  1.00  0.00     0.183 C 
HETATM   15  C9  UNL     1      19.363  29.274  40.167  1.00  0.00     0.179 C 
BRANCH  10  16
HETATM   16  N2  UNL     1      22.592  27.131  39.431  1.00  0.00    -0.388 N 
ATOM     17  H2  UNL     1      22.414  27.325  38.446  1.00  0.00     0.155 HD
BRANCH  16  18
HETATM   18  C2  UNL     1      23.908  26.805  39.788  1.00  0.00     0.100 C 
HETATM   19  C1  UNL     1      24.191  25.482  40.416  1.00  0.00     0.033 C 
BRANCH  18  20
HETATM   20  C3  UNL     1      24.745  26.813  38.454  1.00  0.00     0.254 C 
BRANCH  20  21
HETATM   21  N1  UNL     1      26.110  27.194  38.751  1.00  0.00    -0.077 N 
ATOM     22  H13 UNL     1      26.242  27.427  39.736  1.00  0.00     0.274 HD
ATOM     23  H12 UNL     1      26.751  26.403  38.703  1.00  0.00     0.274 HD
ATOM     24  H11 UNL     1      26.387  27.956  38.133  1.00  0.00     0.274 HD
ENDBRANCH  20  21
ENDBRANCH  18  20
ENDBRANCH  16  18
ENDBRANCH  10  16
BRANCH  13  25
HETATM   25  N7  UNL     1      19.574  25.649  40.082  1.00  0.00    -0.069 N 
ATOM     26  H73 UNL     1      19.763  25.055  39.274  1.00  0.00     0.275 HD
ATOM     27  H72 UNL     1      20.123  25.180  40.802  1.00  0.00     0.275 HD
ATOM     28  H71 UNL     1      18.585  25.581  40.321  1.00  0.00     0.275 HD
ENDBRANCH  13  25
BRANCH  14  29
HETATM   29  O2  UNL     1      17.900  27.425  40.562  1.00  0.00    -0.391 OA
ATOM     30  H2  UNL     1      17.844  26.477  40.525  1.00  0.00     0.210 HD
ENDBRANCH  14  29
BRANCH  15  31
HETATM   31  O1  UNL     1      19.202  30.178  41.216  1.00  0.00    -0.391 OA
ATOM     32  H1  UNL     1      18.345  30.550  41.043  1.00  0.00     0.210 HD
ENDBRANCH  15  31
ENDBRANCH   7   8
ENDBRANCH   6   7
ENDBRANCH   5   6
ENDBRANCH   1   5
TORSDOF 11
ENDMDL
MODEL 2
REMARK VINA RESULT: -6.082455778      1.258      1.470
REMARK  11 active torsions:
REMARK  status: ('A' for Active; 'I' for Inactive)
REMARK    1  A    between atoms: C2_2  and  C3_3 
REMARK    2  A    between atoms: C2_2  and  N2_8 
REMARK    3  A    between atoms: C3_3  and  N1_4 
REMARK    4  A    between atoms: N2_8  and  C4_10 
REMARK    5  A    between atoms: C5_14  and  C6_15 
REMARK    6  A    between atoms: C6_15  and  C7_16 
REMARK    7  A    between atoms: C7_16  and  N4_17 
REMARK    8  A    between atoms: N4_17  and  N5_18 
REMARK    9  A    between atoms: C9_22  and  O1_23 
REMARK   10  A    between atoms: C10_25  and  O2_26 
REMARK   11  A    between atoms: C11_28  and  N7_29 
ROOT
HETATM    1  N5  UNL     1      26.068  30.138  38.365  1.00  0.00    -0.240 N 
ATOM      2  H5  UNL     1      25.993  30.393  37.381  1.00  0.00     0.195 HD
HETATM    3  C8  UNL     1      27.238  30.356  39.074  1.00  0.00     0.194 C 
HETATM    4  N6  UNL     1      28.257  30.500  39.647  1.00  0.00    -0.171 NA
ENDROOT
BRANCH   1   5
HETATM    5  N4  UNL     1      24.968  29.545  39.058  1.00  0.00    -0.132 NA
BRANCH   5   6
HETATM    6  C7  UNL     1      24.608  30.339  40.234  1.00  0.00     0.138 C 
BRANCH   6   7
HETATM    7  C6  UNL     1      23.144  30.740  40.084  1.00  0.00     0.053 C 
BRANCH   7   8
HETATM    8  C5  UNL     1      22.328  29.505  39.856  1.00  0.00     0.220 C 
HETATM    9  N3  UNL     1      22.511  28.592  41.010  1.00  0.00    -0.046 N 
HETATM   10  C4  UNL     1      22.088  27.276  40.491  1.00  0.00     0.314 C 
ATOM     11  H32 UNL     1      22.026  28.884  41.859  1.00  0.00     0.280 HD
ATOM     12  H31 UNL     1      23.449  28.605  41.411  1.00  0.00     0.280 HD
HETATM   13  C11 UNL     1      20.769  27.453  39.868  1.00  0.00     0.264 C 
HETATM   14  C10 UNL     1      20.121  28.717  40.544  1.00  0.00     0.183 C 
HETATM   15  C9  UNL     1      20.826  29.919  40.003  1.00  0.00     0.179 C 
BRANCH  10  16
HETATM   16  N2  UNL     1      23.175  26.759  39.773  1.00  0.00    -0.388 N 
ATOM     17  H2  UNL     1      23.216  26.974  38.777  1.00  0.00     0.155 HD
BRANCH  16  18
HETATM   18  C2  UNL     1      24.212  25.973  40.296  1.00  0.00     0.100 C 
HETATM   19  C1  UNL     1      23.924  24.575  40.730  1.00  0.00     0.033 C 
BRANCH  18  20
HETATM   20  C3  UNL     1      25.286  25.835  39.154  1.00  0.00     0.254 C 
BRANCH  20  21
HETATM   21  N1  UNL     1      24.930  26.714  38.059  1.00  0.00    -0.077 N 
ATOM     22  H13 UNL     1      25.638  27.429  37.891  1.00  0.00     0.274 HD
ATOM     23  H12 UNL     1      24.981  26.245  37.155  1.00  0.00     0.274 HD
ATOM     24  H11 UNL     1      24.009  27.114  38.237  1.00  0.00     0.274 HD
ENDBRANCH  20  21
ENDBRANCH  18  20
ENDBRANCH  16  18
ENDBRANCH  10  16
BRANCH  13  25
HETATM   25  N7  UNL     1      19.780  26.442  40.077  1.00  0.00    -0.069 N 
ATOM     26  H73 UNL     1      19.724  26.232  41.074  1.00  0.00     0.275 HD
ATOM     27  H72 UNL     1      18.856  26.840  39.910  1.00  0.00     0.275 HD
ATOM     28  H71 UNL     1      19.864  25.569  39.557  1.00  0.00     0.275 HD
ENDBRANCH  13  25
BRANCH  14  29
HETATM   29  O2  UNL     1      18.780  28.712  40.271  1.00  0.00    -0.391 OA
ATOM     30  H2  UNL     1      18.392  29.579  40.290  1.00  0.00     0.210 HD
ENDBRANCH  14  29
BRANCH  15  31
HETATM   31  O1  UNL     1      20.873  30.904  40.989  1.00  0.00    -0.391 OA
ATOM     32  H1  UNL     1      20.562  30.445  41.760  1.00  0.00     0.210 HD
ENDBRANCH  15  31
ENDBRANCH   7   8
ENDBRANCH   6   7
ENDBRANCH   5   6
ENDBRANCH   1   5
TORSDOF 11
ENDMDL
MODEL 3
REMARK VINA RESULT: -6.042433898      2.631      3.839
REMARK  11 active torsions:
REMARK  status: ('A' for Active; 'I' for Inactive)
REMARK    1  A    between atoms: C2_2  and  C3_3 
REMARK    2  A    between atoms: C2_2  and  N2_8 
REMARK    3  A    between atoms: C3_3  and  N1_4 
REMARK    4  A    between atoms: N2_8  and  C4_10 
REMARK    5  A    between atoms: C5_14  and  C6_15 
REMARK    6  A    between atoms: C6_15  and  C7_16 
REMARK    7  A    between atoms: C7_16  and  N4_17 
REMARK    8  A    between atoms: N4_17  and  N5_18 
REMARK    9  A    between atoms: C9_22  and  O1_23 
REMARK   10  A    between atoms: C10_25  and  O2_26 
REMARK   11  A    between atoms: C11_28  and  N7_29 
ROOT
HETATM    1  N5  UNL     1      26.783  29.208  38.652  1.00  0.00    -0.240 N 
ATOM      2  H5  UNL     1      27.141  28.335  38.264  1.00  0.00     0.195 HD
HETATM    3  C8  UNL     1      27.644  30.179  39.139  1.00  0.00     0.194 C 
HETATM    4  N6  UNL     1      28.386  30.971  39.597  1.00  0.00    -0.171 NA
ENDROOT
BRANCH   1   5
HETATM    5  N4  UNL     1      25.380  29.469  38.709  1.00  0.00    -0.132 NA
BRANCH   5   6
HETATM    6  C7  UNL     1      24.913  29.485  40.096  1.00  0.00     0.138 C 
BRANCH   6   7
HETATM    7  C6  UNL     1      23.735  30.452  40.170  1.00  0.00     0.053 C 
BRANCH   7   8
HETATM    8  C5  UNL     1      22.481  29.668  40.408  1.00  0.00     0.220 C 
HETATM    9  N3  UNL     1      21.482  30.550  41.057  1.00  0.00    -0.046 N 
HETATM   10  C4  UNL     1      20.520  29.609  41.664  1.00  0.00     0.314 C 
ATOM     11  H32 UNL     1      21.060  31.238  40.434  1.00  0.00     0.280 HD
ATOM     12  H31 UNL     1      21.880  31.225  41.711  1.00  0.00     0.280 HD
HETATM   13  C11 UNL     1      20.122  28.654  40.620  1.00  0.00     0.264 C 
HETATM   14  C10 UNL     1      20.355  29.376  39.242  1.00  0.00     0.183 C 
HETATM   15  C9  UNL     1      21.831  29.415  39.007  1.00  0.00     0.179 C 
BRANCH  10  16
HETATM   16  N2  UNL     1      21.085  29.180  42.874  1.00  0.00    -0.388 N 
ATOM     17  H2  UNL     1      21.567  29.883  43.434  1.00  0.00     0.155 HD
BRANCH  16  18
HETATM   18  C2  UNL     1      21.048  27.875  43.385  1.00  0.00     0.100 C 
HETATM   19  C1  UNL     1      22.327  27.157  43.654  1.00  0.00     0.033 C 
BRANCH  18  20
HETATM   20  C3  UNL     1      20.327  27.965  44.782  1.00  0.00     0.254 C 
BRANCH  20  21
HETATM   21  N1  UNL     1      21.259  27.584  45.823  1.00  0.00    -0.077 N 
ATOM     22  H13 UNL     1      21.209  26.589  46.043  1.00  0.00     0.274 HD
ATOM     23  H12 UNL     1      22.227  27.613  45.505  1.00  0.00     0.274 HD
ATOM     24  H11 UNL     1      21.102  28.171  46.643  1.00  0.00     0.274 HD
ENDBRANCH  20  21
ENDBRANCH  18  20
ENDBRANCH  16  18
ENDBRANCH  10  16
BRANCH  13  25
HETATM   25  N7  UNL     1      18.747  28.268  40.544  1.00  0.00    -0.069 N 
ATOM     26  H73 UNL     1      18.427  27.991  41.473  1.00  0.00     0.275 HD
ATOM     27  H72 UNL     1      18.177  29.097  40.382  1.00  0.00     0.275 HD
ATOM     28  H71 UNL     1      18.484  27.547  39.873  1.00  0.00     0.275 HD
ENDBRANCH  13  25
BRANCH  14  29
HETATM   29  O2  UNL     1      19.675  28.687  38.275  1.00  0.00    -0.391 OA
ATOM     30  H2  UNL     1      19.116  28.004  38.626  1.00  0.00     0.210 HD
ENDBRANCH  14  29
BRANCH  15  31
HETATM   31  O1  UNL     1      22.152  30.576  38.304  1.00  0.00    -0.391 OA
ATOM     32  H1  UNL     1      21.860  30.375  37.423  1.00  0.00     0.210 HD
ENDBRANCH  15  31
ENDBRANCH   7   8
ENDBRANCH   6   7
ENDBRANCH   5   6
ENDBRANCH   1   5
TORSDOF 11
ENDMDL
MODEL 4
REMARK VINA RESULT: -5.893101444      1.897      2.479
REMARK  11 active torsions:
REMARK  status: ('A' for Active; 'I' for Inactive)
REMARK    1  A    between atoms: C2_2  and  C3_3 
REMARK    2  A    between atoms: C2_2  and  N2_8 
REMARK    3  A    between atoms: C3_3  and  N1_4 
REMARK    4  A    between atoms: N2_8  and  C4_10 
REMARK    5  A    between atoms: C5_14  and  C6_15 
REMARK    6  A    between atoms: C6_15  and  C7_16 
REMARK    7  A    between atoms: C7_16  and  N4_17 
REMARK    8  A    between atoms: N4_17  and  N5_18 
REMARK    9  A    between atoms: C9_22  and  O1_23 
REMARK   10  A    between atoms: C10_25  and  O2_26 
REMARK   11  A    between atoms: C11_28  and  N7_29 
ROOT
HETATM    1  N5  UNL     1      26.440  30.120  38.288  1.00  0.00    -0.240 N 
ATOM      2  H5  UNL     1      26.201  30.607  37.424  1.00  0.00     0.195 HD
HETATM    3  C8  UNL     1      27.501  30.539  39.074  1.00  0.00     0.194 C 
HETATM    4  N6  UNL     1      28.439  30.875  39.703  1.00  0.00    -0.171 NA
ENDROOT
BRANCH   1   5
HETATM    5  N4  UNL     1      25.691  28.985  38.726  1.00  0.00    -0.132 NA
BRANCH   5   6
HETATM    6  C7  UNL     1      24.934  29.302  39.939  1.00  0.00     0.138 C 
BRANCH   6   7
HETATM    7  C6  UNL     1      23.738  30.151  39.522  1.00  0.00     0.053 C 
BRANCH   7   8
HETATM    8  C5  UNL     1      22.514  29.288  39.511  1.00  0.00     0.220 C 
HETATM    9  N3  UNL     1      22.116  29.006  40.911  1.00  0.00    -0.046 N 
HETATM   10  C4  UNL     1      21.251  27.815  40.800  1.00  0.00     0.314 C 
ATOM     11  H32 UNL     1      21.684  29.795  41.392  1.00  0.00     0.280 HD
ATOM     12  H31 UNL     1      22.898  28.900  41.557  1.00  0.00     0.280 HD
HETATM   13  C11 UNL     1      20.243  28.098  39.769  1.00  0.00     0.264 C 
HETATM   14  C10 UNL     1      20.108  29.663  39.694  1.00  0.00     0.183 C 
HETATM   15  C9  UNL     1      21.331  30.181  39.009  1.00  0.00     0.179 C 
BRANCH  10  16
HETATM   16  N2  UNL     1      22.103  26.706  40.708  1.00  0.00    -0.388 N 
ATOM     17  H2  UNL     1      22.823  26.735  39.986  1.00  0.00     0.155 HD
BRANCH  16  18
HETATM   18  C2  UNL     1      22.059  25.560  41.516  1.00  0.00     0.100 C 
HETATM   19  C1  UNL     1      20.860  24.675  41.467  1.00  0.00     0.033 C 
BRANCH  18  20
HETATM   20  C3  UNL     1      23.260  24.649  41.062  1.00  0.00     0.254 C 
BRANCH  20  21
HETATM   21  N1  UNL     1      24.163  25.428  40.240  1.00  0.00    -0.077 N 
ATOM     22  H13 UNL     1      24.002  25.281  39.243  1.00  0.00     0.274 HD
ATOM     23  H12 UNL     1      23.954  26.425  40.274  1.00  0.00     0.274 HD
ATOM     24  H11 UNL     1      25.124  25.223  40.511  1.00  0.00     0.274 HD
ENDBRANCH  20  21
ENDBRANCH  18  20
ENDBRANCH  16  18
ENDBRANCH  10  16
BRANCH  13  25
HETATM   25  N7  UNL     1      18.897  27.676  40.004  1.00  0.00    -0.069 N 
ATOM     26  H73 UNL     1      18.291  28.081  39.289  1.00  0.00     0.275 HD
ATOM     27  H72 UNL     1      18.816  26.683  39.787  1.00  0.00     0.275 HD
ATOM     28  H71 UNL     1      18.489  27.850  40.922  1.00  0.00     0.275 HD
ENDBRANCH  13  25
BRANCH  14  29
HETATM   29  O2  UNL     1      18.950  29.964  39.028  1.00  0.00    -0.391 OA
ATOM     30  H2  UNL     1      18.391  29.208  38.893  1.00  0.00     0.210 HD
ENDBRANCH  14  29
BRANCH  15  31
HETATM   31  O1  UNL     1      21.650  31.435  39.528  1.00  0.00    -0.391 OA
ATOM     32  H1  UNL     1      20.922  31.612  40.112  1.00  0.00     0.210 HD
ENDBRANCH  15  31
ENDBRANCH   7   8
ENDBRANCH   6   7
ENDBRANCH   5   6
ENDBRANCH   1   5
TORSDOF 11
ENDMDL
MODEL 5
REMARK VINA RESULT: -5.805377339      1.859      2.325
REMARK  11 active torsions:
REMARK  status: ('A' for Active; 'I' for Inactive)
REMARK    1  A    between atoms: C2_2  and  C3_3 
REMARK    2  A    between atoms: C2_2  and  N2_8 
REMARK    3  A    between atoms: C3_3  and  N1_4 
REMARK    4  A    between atoms: N2_8  and  C4_10 
REMARK    5  A    between atoms: C5_14  and  C6_15 
REMARK    6  A    between atoms: C6_15  and  C7_16 
REMARK    7  A    between atoms: C7_16  and  N4_17 
REMARK    8  A    between atoms: N4_17  and  N5_18 
REMARK    9  A    between atoms: C9_22  and  O1_23 
REMARK   10  A    between atoms: C10_25  and  O2_26 
REMARK   11  A    between atoms: C11_28  and  N7_29 
ROOT
HETATM    1  N5  UNL     1      26.558  29.357  38.759  1.00  0.00    -0.240 N 
ATOM      2  H5  UNL     1      26.625  28.880  37.861  1.00  0.00     0.195 HD
HETATM    3  C8  UNL     1      27.548  30.231  39.181  1.00  0.00     0.194 C 
HETATM    4  N6  UNL     1      28.423  30.929  39.548  1.00  0.00    -0.171 NA
ENDROOT
BRANCH   1   5
HETATM    5  N4  UNL     1      25.440  29.147  39.623  1.00  0.00    -0.132 NA
BRANCH   5   6
HETATM    6  C7  UNL     1      24.933  30.423  40.132  1.00  0.00     0.138 C 
BRANCH   6   7
HETATM    7  C6  UNL     1      23.570  30.662  39.489  1.00  0.00     0.053 C 
BRANCH   7   8
HETATM    8  C5  UNL     1      22.804  29.375  39.492  1.00  0.00     0.220 C 
HETATM    9  N3  UNL     1      22.384  29.073  40.882  1.00  0.00    -0.046 N 
HETATM   10  C4  UNL     1      22.087  27.627  40.856  1.00  0.00     0.314 C 
ATOM     11  H32 UNL     1      21.618  29.653  41.226  1.00  0.00     0.280 HD
ATOM     12  H31 UNL     1      23.059  29.351  41.594  1.00  0.00     0.280 HD
HETATM   13  C11 UNL     1      21.183  27.385  39.722  1.00  0.00     0.264 C 
HETATM   14  C10 UNL     1      20.445  28.746  39.441  1.00  0.00     0.183 C 
HETATM   15  C9  UNL     1      21.433  29.660  38.792  1.00  0.00     0.179 C 
BRANCH  10  16
HETATM   16  N2  UNL     1      23.315  26.962  40.969  1.00  0.00    -0.388 N 
ATOM     17  H2  UNL     1      23.988  27.343  41.634  1.00  0.00     0.155 HD
BRANCH  16  18
HETATM   18  C2  UNL     1      23.705  25.820  40.254  1.00  0.00     0.100 C 
HETATM   19  C1  UNL     1      25.135  25.652  39.865  1.00  0.00     0.033 C 
BRANCH  18  20
HETATM   20  C3  UNL     1      23.384  24.586  41.177  1.00  0.00     0.254 C 
BRANCH  20  21
HETATM   21  N1  UNL     1      24.052  23.413  40.653  1.00  0.00    -0.077 N 
ATOM     22  H13 UNL     1      25.051  23.410  40.864  1.00  0.00     0.274 HD
ATOM     23  H12 UNL     1      23.796  22.564  41.157  1.00  0.00     0.274 HD
ATOM     24  H11 UNL     1      23.868  23.342  39.653  1.00  0.00     0.274 HD
ENDBRANCH  20  21
ENDBRANCH  18  20
ENDBRANCH  16  18
ENDBRANCH  10  16
BRANCH  13  25
HETATM   25  N7  UNL     1      20.099  26.470  39.904  1.00  0.00    -0.069 N 
ATOM     26  H73 UNL     1      19.980  25.922  39.052  1.00  0.00     0.275 HD
ATOM     27  H72 UNL     1      20.381  25.746  40.564  1.00  0.00     0.275 HD
ATOM     28  H71 UNL     1      19.193  26.844  40.188  1.00  0.00     0.275 HD
ENDBRANCH  13  25
BRANCH  14  29
HETATM   29  O2  UNL     1      19.354  28.489  38.656  1.00  0.00    -0.391 OA
ATOM     30  H2  UNL     1      18.633  28.097  39.135  1.00  0.00     0.210 HD
ENDBRANCH  14  29
BRANCH  15  31
HETATM   31  O1  UNL     1      21.160  30.973  39.173  1.00  0.00    -0.391 OA
ATOM     32  H1  UNL     1      21.664  31.482  38.550  1.00  0.00     0.210 HD
ENDBRANCH  15  31
ENDBRANCH   7   8
ENDBRANCH   6   7
ENDBRANCH   5   6
ENDBRANCH   1   5
TORSDOF 11
ENDMDL
