MODEL 1
REMARK VINA RESULT: -6.626874966      0.000      0.000
REMARK  5 active torsions:
REMARK  status: ('A' for Active; 'I' for Inactive)
REMARK    1  A    between atoms: N1_1  and  N2_4 
REMARK       I    between atoms: N2_4  and  C1_6 
REMARK    2  A    between atoms: C1_6  and  C2_8 
REMARK    3  A    between atoms: C4_12  and  C5_13 
REMARK    4  A    between atoms: N4_14  and  N5_16 
REMARK    5  A    between atoms: N5_16  and  C6_18 
ROOT
HETATM    1  C2  UNL     1     -13.014 -29.344 -28.631  1.00  0.00     0.145 A 
HETATM    2  N3  UNL     1     -14.339 -29.323 -28.665  1.00  0.00    -0.354 N 
ATOM      3  H3  UNL     1     -14.832 -29.625 -29.504  1.00  0.00     0.166 HD
HETATM    4  C3  UNL     1     -15.004 -28.919 -27.636  1.00  0.00     0.109 A 
HETATM    5  C4  UNL     1     -14.298 -28.520 -26.529  1.00  0.00     0.039 A 
HETATM    6  S2  UNL     1     -12.682 -28.760 -27.056  1.00  0.00    -0.064 SA
ENDROOT
BRANCH   5   7
HETATM    7  C5  UNL     1     -14.804 -28.023 -25.243  1.00  0.00     0.127 C 
HETATM    8  N4  UNL     1     -14.002 -27.471 -24.428  1.00  0.00    -0.309 N 
ATOM      9  H4  UNL     1     -13.013 -27.369 -24.656  1.00  0.00     0.186 HD
BRANCH   8  10
HETATM   10  N5  UNL     1     -14.508 -27.007 -23.214  1.00  0.00    -0.279 N 
ATOM     11  H5  UNL     1     -15.358 -27.412 -22.824  1.00  0.00     0.189 HD
BRANCH  10  12
HETATM   12  C6  UNL     1     -13.836 -25.975 -22.529  1.00  0.00     0.199 C 
HETATM   13  N6  UNL     1     -13.967 -24.639 -22.972  1.00  0.00    -0.068 NA
HETATM   14  S1  UNL     1     -12.902 -26.311 -21.224  1.00  0.00    -0.043 SA
ENDBRANCH  10  12
ENDBRANCH   8  10
ENDBRANCH   5   7
BRANCH   1  15
HETATM   15  C1  UNL     1     -12.081 -29.764 -29.683  1.00  0.00     0.293 C 
HETATM   16  N2  UNL     1     -12.450 -30.841 -30.506  1.00  0.00    -0.271 N 
ATOM     17  H2  UNL     1     -13.344 -31.312 -30.369  1.00  0.00     0.189 HD
HETATM   18  O1  UNL     1     -11.002 -29.176 -29.828  1.00  0.00    -0.264 OA
BRANCH  16  19
HETATM   19  N1  UNL     1     -11.582 -31.255 -31.509  1.00  0.00    -0.342 N 
ATOM     20  H12 UNL     1     -10.686 -30.782 -31.625  1.00  0.00     0.176 HD
ATOM     21  H11 UNL     1     -11.855 -32.029 -32.115  1.00  0.00     0.176 HD
ENDBRANCH  16  19
ENDBRANCH   1  15
TORSDOF 5
ENDMDL
MODEL 2
REMARK VINA RESULT: -6.589069413      1.792      1.881
REMARK  5 active torsions:
REMARK  status: ('A' for Active; 'I' for Inactive)
REMARK    1  A    between atoms: N1_1  and  N2_4 
REMARK       I    between atoms: N2_4  and  C1_6 
REMARK    2  A    between atoms: C1_6  and  C2_8 
REMARK    3  A    between atoms: C4_12  and  C5_13 
REMARK    4  A    between atoms: N4_14  and  N5_16 
REMARK    5  A    between atoms: N5_16  and  C6_18 
ROOT
HETATM    1  C2  UNL     1     -11.965 -29.086 -28.679  1.00  0.00     0.145 A 
HETATM    2  N3  UNL     1     -11.366 -28.216 -27.878  1.00  0.00    -0.354 N 
ATOM      3  H3  UNL     1     -10.388 -27.970 -28.032  1.00  0.00     0.166 HD
HETATM    4  C3  UNL     1     -12.020 -27.680 -26.903  1.00  0.00     0.109 A 
HETATM    5  C4  UNL     1     -13.333 -28.041 -26.733  1.00  0.00     0.039 A 
HETATM    6  S2  UNL     1     -13.544 -29.155 -28.021  1.00  0.00    -0.064 SA
ENDROOT
BRANCH   5   7
HETATM    7  C5  UNL     1     -14.288 -27.586 -25.715  1.00  0.00     0.127 C 
HETATM    8  N4  UNL     1     -13.862 -27.228 -24.574  1.00  0.00    -0.309 N 
ATOM      9  H4  UNL     1     -12.866 -27.252 -24.358  1.00  0.00     0.186 HD
BRANCH   8  10
HETATM   10  N5  UNL     1     -14.790 -26.800 -23.626  1.00  0.00    -0.279 N 
ATOM     11  H5  UNL     1     -15.312 -27.481 -23.075  1.00  0.00     0.189 HD
BRANCH  10  12
HETATM   12  C6  UNL     1     -15.003 -25.420 -23.433  1.00  0.00     0.199 C 
HETATM   13  N6  UNL     1     -14.020 -24.645 -22.776  1.00  0.00    -0.068 NA
HETATM   14  S1  UNL     1     -16.381 -24.708 -23.963  1.00  0.00    -0.043 SA
ENDBRANCH  10  12
ENDBRANCH   8  10
ENDBRANCH   5   7
BRANCH   1  15
HETATM   15  C1  UNL     1     -11.406 -29.799 -29.833  1.00  0.00     0.293 C 
HETATM   16  N2  UNL     1     -12.220 -30.735 -30.492  1.00  0.00    -0.271 N 
ATOM     17  H2  UNL     1     -13.173 -30.907 -30.171  1.00  0.00     0.189 HD
HETATM   18  O1  UNL     1     -10.247 -29.571 -30.202  1.00  0.00    -0.264 OA
BRANCH  16  19
HETATM   19  N1  UNL     1     -11.712 -31.422 -31.588  1.00  0.00    -0.342 N 
ATOM     20  H12 UNL     1     -11.120 -30.930 -32.258  1.00  0.00     0.176 HD
ATOM     21  H11 UNL     1     -11.938 -32.410 -31.705  1.00  0.00     0.176 HD
ENDBRANCH  16  19
ENDBRANCH   1  15
TORSDOF 5
ENDMDL
MODEL 3
REMARK VINA RESULT: -6.569824637      0.749      1.063
REMARK  5 active torsions:
REMARK  status: ('A' for Active; 'I' for Inactive)
REMARK    1  A    between atoms: N1_1  and  N2_4 
REMARK       I    between atoms: N2_4  and  C1_6 
REMARK    2  A    between atoms: C1_6  and  C2_8 
REMARK    3  A    between atoms: C4_12  and  C5_13 
REMARK    4  A    between atoms: N4_14  and  N5_16 
REMARK    5  A    between atoms: N5_16  and  C6_18 
ROOT
HETATM    1  C2  UNL     1     -12.641 -29.221 -28.718  1.00  0.00     0.145 A 
HETATM    2  N3  UNL     1     -13.954 -29.354 -28.600  1.00  0.00    -0.354 N 
ATOM      3  H3  UNL     1     -14.471 -29.924 -29.269  1.00  0.00     0.166 HD
HETATM    4  C3  UNL     1     -14.579 -28.763 -27.638  1.00  0.00     0.109 A 
HETATM    5  C4  UNL     1     -13.843 -28.006 -26.762  1.00  0.00     0.039 A 
HETATM    6  S2  UNL     1     -12.260 -28.201 -27.396  1.00  0.00    -0.064 SA
ENDROOT
BRANCH   5   7
HETATM    7  C5  UNL     1     -14.301 -27.239 -25.597  1.00  0.00     0.127 C 
HETATM    8  N4  UNL     1     -13.458 -26.859 -24.727  1.00  0.00    -0.309 N 
ATOM      9  H4  UNL     1     -12.467 -27.081 -24.830  1.00  0.00     0.186 HD
BRANCH   8  10
HETATM   10  N5  UNL     1     -13.918 -26.133 -23.631  1.00  0.00    -0.279 N 
ATOM     11  H5  UNL     1     -14.214 -25.164 -23.745  1.00  0.00     0.189 HD
BRANCH  10  12
HETATM   12  C6  UNL     1     -13.972 -26.746 -22.362  1.00  0.00     0.199 C 
HETATM   13  N6  UNL     1     -14.970 -27.709 -22.091  1.00  0.00    -0.068 NA
HETATM   14  S1  UNL     1     -12.885 -26.349 -21.200  1.00  0.00    -0.043 SA
ENDBRANCH  10  12
ENDBRANCH   8  10
ENDBRANCH   5   7
BRANCH   1  15
HETATM   15  C1  UNL     1     -11.752 -29.805 -29.729  1.00  0.00     0.293 C 
HETATM   16  N2  UNL     1     -12.266 -30.810 -30.564  1.00  0.00    -0.271 N 
ATOM     17  H2  UNL     1     -13.233 -31.120 -30.464  1.00  0.00     0.189 HD
HETATM   18  O1  UNL     1     -10.583 -29.411 -29.830  1.00  0.00    -0.264 OA
BRANCH  16  19
HETATM   19  N1  UNL     1     -11.442 -31.376 -31.530  1.00  0.00    -0.342 N 
ATOM     20  H12 UNL     1     -11.306 -30.894 -32.418  1.00  0.00     0.176 HD
ATOM     21  H11 UNL     1     -10.986 -32.267 -31.334  1.00  0.00     0.176 HD
ENDBRANCH  16  19
ENDBRANCH   1  15
TORSDOF 5
ENDMDL
MODEL 4
REMARK VINA RESULT: -6.547977744      1.161      1.161
REMARK  5 active torsions:
REMARK  status: ('A' for Active; 'I' for Inactive)
REMARK    1  A    between atoms: N1_1  and  N2_4 
REMARK       I    between atoms: N2_4  and  C1_6 
REMARK    2  A    between atoms: C1_6  and  C2_8 
REMARK    3  A    between atoms: C4_12  and  C5_13 
REMARK    4  A    between atoms: N4_14  and  N5_16 
REMARK    5  A    between atoms: N5_16  and  C6_18 
ROOT
HETATM    1  C2  UNL     1     -12.861 -29.401 -28.710  1.00  0.00     0.145 A 
HETATM    2  N3  UNL     1     -14.185 -29.346 -28.705  1.00  0.00    -0.354 N 
ATOM      3  H3  UNL     1     -14.711 -29.645 -29.525  1.00  0.00     0.166 HD
HETATM    4  C3  UNL     1     -14.809 -28.912 -27.661  1.00  0.00     0.109 A 
HETATM    5  C4  UNL     1     -14.060 -28.518 -26.581  1.00  0.00     0.039 A 
HETATM    6  S2  UNL     1     -12.468 -28.807 -27.153  1.00  0.00    -0.064 SA
ENDROOT
BRANCH   5   7
HETATM    7  C5  UNL     1     -14.515 -27.992 -25.288  1.00  0.00     0.127 C 
HETATM    8  N4  UNL     1     -13.718 -27.304 -24.578  1.00  0.00    -0.309 N 
ATOM      9  H4  UNL     1     -12.768 -27.113 -24.896  1.00  0.00     0.186 HD
BRANCH   8  10
HETATM   10  N5  UNL     1     -14.173 -26.816 -23.355  1.00  0.00    -0.279 N 
ATOM     11  H5  UNL     1     -14.282 -27.445 -22.559  1.00  0.00     0.189 HD
BRANCH  10  12
HETATM   12  C6  UNL     1     -14.484 -25.447 -23.223  1.00  0.00     0.199 C 
HETATM   13  N6  UNL     1     -13.606 -24.595 -22.516  1.00  0.00    -0.068 NA
HETATM   14  S1  UNL     1     -15.855 -24.838 -23.883  1.00  0.00    -0.043 SA
ENDBRANCH  10  12
ENDBRANCH   8  10
ENDBRANCH   5   7
BRANCH   1  15
HETATM   15  C1  UNL     1     -11.971 -29.859 -29.783  1.00  0.00     0.293 C 
HETATM   16  N2  UNL     1     -12.405 -30.915 -30.600  1.00  0.00    -0.271 N 
ATOM     17  H2  UNL     1     -13.316 -31.347 -30.444  1.00  0.00     0.189 HD
HETATM   18  O1  UNL     1     -10.871 -29.318 -29.950  1.00  0.00    -0.264 OA
BRANCH  16  19
HETATM   19  N1  UNL     1     -11.579 -31.365 -31.623  1.00  0.00    -0.342 N 
ATOM     20  H12 UNL     1     -11.503 -30.820 -32.482  1.00  0.00     0.176 HD
ATOM     21  H11 UNL     1     -11.061 -32.234 -31.499  1.00  0.00     0.176 HD
ENDBRANCH  16  19
ENDBRANCH   1  15
TORSDOF 5
ENDMDL
MODEL 5
REMARK VINA RESULT: -6.349865322      2.111      2.492
REMARK  5 active torsions:
REMARK  status: ('A' for Active; 'I' for Inactive)
REMARK    1  A    between atoms: N1_1  and  N2_4 
REMARK       I    between atoms: N2_4  and  C1_6 
REMARK    2  A    between atoms: C1_6  and  C2_8 
REMARK    3  A    between atoms: C4_12  and  C5_13 
REMARK    4  A    between atoms: N4_14  and  N5_16 
REMARK    5  A    between atoms: N5_16  and  C6_18 
ROOT
HETATM    1  C2  UNL     1     -12.019 -28.996 -28.594  1.00  0.00     0.145 A 
HETATM    2  N3  UNL     1     -11.447 -28.106 -27.795  1.00  0.00    -0.354 N 
ATOM      3  H3  UNL     1     -10.473 -27.843 -27.940  1.00  0.00     0.166 HD
HETATM    4  C3  UNL     1     -12.123 -27.574 -26.833  1.00  0.00     0.109 A 
HETATM    5  C4  UNL     1     -13.431 -27.959 -26.675  1.00  0.00     0.039 A 
HETATM    6  S2  UNL     1     -13.605 -29.089 -27.955  1.00  0.00    -0.064 SA
ENDROOT
BRANCH   5   7
HETATM    7  C5  UNL     1     -14.407 -27.513 -25.674  1.00  0.00     0.127 C 
HETATM    8  N4  UNL     1     -14.100 -27.548 -24.443  1.00  0.00    -0.309 N 
ATOM      9  H4  UNL     1     -13.185 -27.882 -24.143  1.00  0.00     0.186 HD
BRANCH   8  10
HETATM   10  N5  UNL     1     -15.045 -27.119 -23.512  1.00  0.00    -0.279 N 
ATOM     11  H5  UNL     1     -14.789 -26.439 -22.797  1.00  0.00     0.189 HD
BRANCH  10  12
HETATM   12  C6  UNL     1     -16.357 -27.631 -23.566  1.00  0.00     0.199 C 
HETATM   13  N6  UNL     1     -16.576 -29.017 -23.392  1.00  0.00    -0.068 NA
HETATM   14  S1  UNL     1     -17.631 -26.633 -23.828  1.00  0.00    -0.043 SA
ENDBRANCH  10  12
ENDBRANCH   8  10
ENDBRANCH   5   7
BRANCH   1  15
HETATM   15  C1  UNL     1     -11.432 -29.710 -29.734  1.00  0.00     0.293 C 
HETATM   16  N2  UNL     1     -12.232 -30.640 -30.417  1.00  0.00    -0.271 N 
ATOM     17  H2  UNL     1     -13.194 -30.809 -30.122  1.00  0.00     0.189 HD
HETATM   18  O1  UNL     1     -10.263 -29.487 -30.070  1.00  0.00    -0.264 OA
BRANCH  16  19
HETATM   19  N1  UNL     1     -11.697 -31.328 -31.500  1.00  0.00    -0.342 N 
ATOM     20  H12 UNL     1     -11.281 -32.248 -31.353  1.00  0.00     0.176 HD
ATOM     21  H11 UNL     1     -11.730 -30.902 -32.426  1.00  0.00     0.176 HD
ENDBRANCH  16  19
ENDBRANCH   1  15
TORSDOF 5
ENDMDL
