MODEL 1
REMARK VINA RESULT: -8.117205802      0.000      0.000
REMARK  4 active torsions:
REMARK  status: ('A' for Active; 'I' for Inactive)
REMARK    1  A    between atoms: C5_6  and  N2_7 
REMARK    2  A    between atoms: C8_15  and  N5_16 
REMARK    3  A    between atoms: N5_16  and  C9_18 
REMARK    4  A    between atoms: C14_23  and  S1_24 
ROOT
HETATM    1  C1  UNL     1       3.834   6.995  28.522  1.00  0.00     0.051 C 
HETATM    2  C2  UNL     1       2.843   7.394  27.484  1.00  0.00    -0.019 A 
HETATM    3  C3  UNL     1       3.133   8.399  26.607  1.00  0.00     0.081 A 
HETATM    4  C4  UNL     1       4.396   9.086  26.675  1.00  0.00     0.102 C 
HETATM    5  N1  UNL     1       5.416   9.623  26.749  1.00  0.00    -0.191 NA
HETATM    6  C5  UNL     1       2.181   8.723  25.669  1.00  0.00     0.091 A 
HETATM    7  C6  UNL     1       0.976   8.063  25.608  1.00  0.00     0.102 A 
HETATM    8  C7  UNL     1       0.016   8.434  24.635  1.00  0.00     0.104 C 
HETATM    9  N4  UNL     1      -0.788   8.753  23.848  1.00  0.00    -0.191 NA
HETATM   10  C8  UNL     1       0.673   7.024  26.513  1.00  0.00     0.070 A 
HETATM   11  C14 UNL     1       1.612   6.712  27.431  1.00  0.00     0.051 A 
ENDROOT
BRANCH   6  12
HETATM   12  N2  UNL     1       2.525   9.780  24.771  1.00  0.00    -0.304 N 
HETATM   13  N3  UNL     1       2.230  10.983  25.041  1.00  0.00    -0.345 N 
ATOM     14  H32 UNL     1       1.741  11.183  25.914  1.00  0.00     0.176 HD
ATOM     15  H31 UNL     1       2.476  11.738  24.400  1.00  0.00     0.176 HD
ATOM     16  H2  UNL     1       3.014   9.564  23.902  1.00  0.00     0.186 HD
ENDBRANCH   6  12
BRANCH  11  17
HETATM   17  S1  UNL     1       1.338   5.496  28.690  1.00  0.00    -0.008 SA
HETATM   18  C15 UNL     1       1.637   3.879  28.143  1.00  0.00     0.139 C 
HETATM   19  N6  UNL     1       1.849   2.793  27.795  1.00  0.00    -0.184 NA
ENDBRANCH  11  17
BRANCH  10  20
HETATM   20  N5  UNL     1      -0.591   6.433  26.449  1.00  0.00    -0.383 N 
ATOM     21  H5  UNL     1      -1.292   6.839  27.070  1.00  0.00     0.160 HD
BRANCH  20  22
HETATM   22  C9  UNL     1      -1.048   5.353  25.650  1.00  0.00     0.082 C 
HETATM   23  C10 UNL     1      -0.843   3.970  26.133  1.00  0.00     0.025 C 
HETATM   24  C11 UNL     1      -1.831   3.153  25.316  1.00  0.00     0.002 C 
HETATM   25  C12 UNL     1      -2.723   4.125  24.607  1.00  0.00     0.002 C 
HETATM   26  C13 UNL     1      -2.564   5.397  25.444  1.00  0.00     0.025 C 
ENDBRANCH  20  22
ENDBRANCH  10  20
TORSDOF 4
ENDMDL
MODEL 2
REMARK VINA RESULT: -8.079367219      1.811      3.752
REMARK  4 active torsions:
REMARK  status: ('A' for Active; 'I' for Inactive)
REMARK    1  A    between atoms: C5_6  and  N2_7 
REMARK    2  A    between atoms: C8_15  and  N5_16 
REMARK    3  A    between atoms: N5_16  and  C9_18 
REMARK    4  A    between atoms: C14_23  and  S1_24 
ROOT
HETATM    1  C1  UNL     1       2.380   9.695  25.473  1.00  0.00     0.051 C 
HETATM    2  C2  UNL     1       2.262   8.452  26.286  1.00  0.00    -0.019 A 
HETATM    3  C3  UNL     1       3.333   7.992  26.997  1.00  0.00     0.081 A 
HETATM    4  C4  UNL     1       4.586   8.699  26.970  1.00  0.00     0.102 C 
HETATM    5  N1  UNL     1       5.582   9.284  26.933  1.00  0.00    -0.191 NA
HETATM    6  C5  UNL     1       3.166   6.841  27.731  1.00  0.00     0.091 A 
HETATM    7  C6  UNL     1       1.967   6.169  27.753  1.00  0.00     0.102 A 
HETATM    8  C7  UNL     1       1.837   4.980  28.511  1.00  0.00     0.104 C 
HETATM    9  N4  UNL     1       1.734   3.984  29.117  1.00  0.00    -0.191 NA
HETATM   10  C8  UNL     1       0.859   6.641  27.019  1.00  0.00     0.070 A 
HETATM   11  C14 UNL     1       1.030   7.772  26.301  1.00  0.00     0.051 A 
ENDROOT
BRANCH   6  12
HETATM   12  N2  UNL     1       4.311   6.395  28.460  1.00  0.00    -0.304 N 
HETATM   13  N3  UNL     1       4.598   6.896  29.589  1.00  0.00    -0.345 N 
ATOM     14  H32 UNL     1       3.995   7.627  29.967  1.00  0.00     0.176 HD
ATOM     15  H31 UNL     1       5.416   6.578  30.109  1.00  0.00     0.176 HD
ATOM     16  H2  UNL     1       4.904   5.664  28.069  1.00  0.00     0.186 HD
ENDBRANCH   6  12
BRANCH  11  17
HETATM   17  S1  UNL     1      -0.240   8.432  25.257  1.00  0.00    -0.008 SA
HETATM   18  C15 UNL     1      -0.518   7.471  23.842  1.00  0.00     0.139 C 
HETATM   19  N6  UNL     1      -0.725   6.830  22.898  1.00  0.00    -0.184 NA
ENDBRANCH  11  17
BRANCH  10  20
HETATM   20  N5  UNL     1      -0.316   5.884  27.024  1.00  0.00    -0.383 N 
ATOM     21  H5  UNL     1      -0.908   6.007  27.846  1.00  0.00     0.160 HD
BRANCH  20  22
HETATM   22  C9  UNL     1      -0.809   4.969  26.058  1.00  0.00     0.082 C 
HETATM   23  C10 UNL     1      -0.626   3.519  26.288  1.00  0.00     0.025 C 
HETATM   24  C11 UNL     1      -1.646   2.877  25.360  1.00  0.00     0.002 C 
HETATM   25  C12 UNL     1      -2.527   3.975  24.849  1.00  0.00     0.002 C 
HETATM   26  C13 UNL     1      -2.327   5.078  25.893  1.00  0.00     0.025 C 
ENDBRANCH  20  22
ENDBRANCH  10  20
TORSDOF 4
ENDMDL
MODEL 3
REMARK VINA RESULT: -7.792046896      3.238      5.629
REMARK  4 active torsions:
REMARK  status: ('A' for Active; 'I' for Inactive)
REMARK    1  A    between atoms: C5_6  and  N2_7 
REMARK    2  A    between atoms: C8_15  and  N5_16 
REMARK    3  A    between atoms: N5_16  and  C9_18 
REMARK    4  A    between atoms: C14_23  and  S1_24 
ROOT
HETATM    1  C1  UNL     1      -1.480  11.312  21.262  1.00  0.00     0.051 C 
HETATM    2  C2  UNL     1      -0.912  10.508  22.379  1.00  0.00    -0.019 A 
HETATM    3  C3  UNL     1       0.057  11.037  23.183  1.00  0.00     0.081 A 
HETATM    4  C4  UNL     1       0.541  12.373  22.961  1.00  0.00     0.102 C 
HETATM    5  N1  UNL     1       0.914  13.449  22.763  1.00  0.00    -0.191 NA
HETATM    6  C5  UNL     1       0.543  10.248  24.200  1.00  0.00     0.091 A 
HETATM    7  C6  UNL     1       0.077   8.972  24.408  1.00  0.00     0.102 A 
HETATM    8  C7  UNL     1       0.612   8.187  25.458  1.00  0.00     0.104 C 
HETATM    9  N4  UNL     1       1.067   7.527  26.310  1.00  0.00    -0.191 NA
HETATM   10  C8  UNL     1      -0.924   8.423  23.579  1.00  0.00     0.070 A 
HETATM   11  C14 UNL     1      -1.396   9.202  22.582  1.00  0.00     0.051 A 
ENDROOT
BRANCH   6  12
HETATM   12  N2  UNL     1       1.555  10.840  25.017  1.00  0.00    -0.304 N 
HETATM   13  N3  UNL     1       2.783  10.598  24.809  1.00  0.00    -0.345 N 
ATOM     14  H32 UNL     1       3.034   9.970  24.044  1.00  0.00     0.176 HD
ATOM     15  H31 UNL     1       3.505  11.020  25.392  1.00  0.00     0.176 HD
ATOM     16  H2  UNL     1       1.288  11.465  25.777  1.00  0.00     0.186 HD
ENDBRANCH   6  12
BRANCH  11  17
HETATM   17  S1  UNL     1      -2.584   8.617  21.405  1.00  0.00    -0.008 SA
HETATM   18  C15 UNL     1      -4.176   9.245  21.683  1.00  0.00     0.139 C 
HETATM   19  N6  UNL     1      -5.242   9.670  21.848  1.00  0.00    -0.184 NA
ENDBRANCH  11  17
BRANCH  10  20
HETATM   20  N5  UNL     1      -1.313   7.098  23.793  1.00  0.00    -0.383 N 
ATOM     21  H5  UNL     1      -1.193   6.476  22.994  1.00  0.00     0.160 HD
BRANCH  20  22
HETATM   22  C9  UNL     1      -1.851   6.488  24.956  1.00  0.00     0.082 C 
HETATM   23  C10 UNL     1      -3.320   6.386  25.095  1.00  0.00     0.025 C 
HETATM   24  C11 UNL     1      -3.508   5.309  26.151  1.00  0.00     0.002 C 
HETATM   25  C12 UNL     1      -2.170   4.672  26.370  1.00  0.00     0.002 C 
HETATM   26  C13 UNL     1      -1.416   5.026  25.085  1.00  0.00     0.025 C 
ENDBRANCH  20  22
ENDBRANCH  10  20
TORSDOF 4
ENDMDL
MODEL 4
REMARK VINA RESULT: -7.463799927      2.926      4.287
REMARK  4 active torsions:
REMARK  status: ('A' for Active; 'I' for Inactive)
REMARK    1  A    between atoms: C5_6  and  N2_7 
REMARK    2  A    between atoms: C8_15  and  N5_16 
REMARK    3  A    between atoms: N5_16  and  C9_18 
REMARK    4  A    between atoms: C14_23  and  S1_24 
ROOT
HETATM    1  C1  UNL     1       0.859   5.771  26.480  1.00  0.00     0.051 C 
HETATM    2  C2  UNL     1       0.455   6.996  25.736  1.00  0.00    -0.019 A 
HETATM    3  C3  UNL     1       1.245   8.109  25.764  1.00  0.00     0.081 A 
HETATM    4  C4  UNL     1       2.473   8.114  26.513  1.00  0.00     0.102 C 
HETATM    5  N1  UNL     1       3.455   8.094  27.122  1.00  0.00    -0.191 NA
HETATM    6  C5  UNL     1       0.822   9.210  25.057  1.00  0.00     0.091 A 
HETATM    7  C6  UNL     1      -0.353   9.200  24.343  1.00  0.00     0.102 A 
HETATM    8  C7  UNL     1      -0.760  10.358  23.637  1.00  0.00     0.104 C 
HETATM    9  N4  UNL     1      -1.111  11.320  23.071  1.00  0.00    -0.191 NA
HETATM   10  C8  UNL     1      -1.171   8.052  24.311  1.00  0.00     0.070 A 
HETATM   11  C14 UNL     1      -0.750   6.975  25.008  1.00  0.00     0.051 A 
ENDROOT
BRANCH   6  12
HETATM   12  N2  UNL     1       1.678  10.353  25.113  1.00  0.00    -0.304 N 
HETATM   13  N3  UNL     1       2.504  10.594  24.182  1.00  0.00    -0.345 N 
ATOM     14  H32 UNL     1       2.546   9.953  23.389  1.00  0.00     0.176 HD
ATOM     15  H31 UNL     1       3.115  11.410  24.223  1.00  0.00     0.176 HD
ATOM     16  H2  UNL     1       1.623  10.985  25.913  1.00  0.00     0.186 HD
ENDBRANCH   6  12
BRANCH  11  17
HETATM   17  S1  UNL     1      -1.716   5.495  25.139  1.00  0.00    -0.008 SA
HETATM   18  C15 UNL     1      -3.158   5.711  26.076  1.00  0.00     0.139 C 
HETATM   19  N6  UNL     1      -4.134   5.845  26.687  1.00  0.00    -0.184 NA
ENDBRANCH  11  17
BRANCH  10  20
HETATM   20  N5  UNL     1      -2.386   8.118  23.624  1.00  0.00    -0.383 N 
ATOM     21  H5  UNL     1      -3.134   7.542  24.010  1.00  0.00     0.160 HD
BRANCH  20  22
HETATM   22  C9  UNL     1      -2.736   8.867  22.471  1.00  0.00     0.082 C 
HETATM   23  C10 UNL     1      -2.497   8.276  21.136  1.00  0.00     0.025 C 
HETATM   24  C11 UNL     1      -3.389   9.095  20.216  1.00  0.00     0.002 C 
HETATM   25  C12 UNL     1      -4.277   9.926  21.090  1.00  0.00     0.002 C 
HETATM   26  C13 UNL     1      -4.235   9.171  22.422  1.00  0.00     0.025 C 
ENDBRANCH  20  22
ENDBRANCH  10  20
TORSDOF 4
ENDMDL
MODEL 5
REMARK VINA RESULT: -7.436958251      2.567      4.918
REMARK  4 active torsions:
REMARK  status: ('A' for Active; 'I' for Inactive)
REMARK    1  A    between atoms: C5_6  and  N2_7 
REMARK    2  A    between atoms: C8_15  and  N5_16 
REMARK    3  A    between atoms: N5_16  and  C9_18 
REMARK    4  A    between atoms: C14_23  and  S1_24 
ROOT
HETATM    1  C1  UNL     1      -1.244   3.997  26.841  1.00  0.00     0.051 C 
HETATM    2  C2  UNL     1      -0.514   5.244  26.482  1.00  0.00    -0.019 A 
HETATM    3  C3  UNL     1       0.760   5.449  26.930  1.00  0.00     0.081 A 
HETATM    4  C4  UNL     1       1.410   4.466  27.755  1.00  0.00     0.102 C 
HETATM    5  N1  UNL     1       1.912   3.662  28.416  1.00  0.00    -0.191 NA
HETATM    6  C5  UNL     1       1.386   6.618  26.565  1.00  0.00     0.091 A 
HETATM    7  C6  UNL     1       0.760   7.554  25.776  1.00  0.00     0.102 A 
HETATM    8  C7  UNL     1       1.433   8.751  25.432  1.00  0.00     0.104 C 
HETATM    9  N4  UNL     1       1.978   9.751  25.164  1.00  0.00    -0.191 NA
HETATM   10  C8  UNL     1      -0.556   7.346  25.311  1.00  0.00     0.070 A 
HETATM   11  C14 UNL     1      -1.164   6.197  25.674  1.00  0.00     0.051 A 
ENDROOT
BRANCH   6  12
HETATM   12  N2  UNL     1       2.717   6.792  27.055  1.00  0.00    -0.304 N 
HETATM   13  N3  UNL     1       2.941   6.911  28.297  1.00  0.00    -0.345 N 
ATOM     14  H32 UNL     1       2.150   6.880  28.942  1.00  0.00     0.176 HD
ATOM     15  H31 UNL     1       3.891   7.035  28.647  1.00  0.00     0.176 HD
ATOM     16  H2  UNL     1       3.496   6.820  26.398  1.00  0.00     0.186 HD
ENDBRANCH   6  12
BRANCH  11  17
HETATM   17  S1  UNL     1      -2.846   5.839  25.246  1.00  0.00    -0.008 SA
HETATM   18  C15 UNL     1      -3.913   5.875  26.612  1.00  0.00     0.139 C 
HETATM   19  N6  UNL     1      -4.640   5.911  27.514  1.00  0.00    -0.184 NA
ENDBRANCH  11  17
BRANCH  10  20
HETATM   20  N5  UNL     1      -1.168   8.359  24.569  1.00  0.00    -0.383 N 
ATOM     21  H5  UNL     1      -1.549   9.130  25.118  1.00  0.00     0.160 HD
BRANCH  20  22
HETATM   22  C9  UNL     1      -1.340   8.477  23.165  1.00  0.00     0.082 C 
HETATM   23  C10 UNL     1      -2.711   8.480  22.610  1.00  0.00     0.025 C 
HETATM   24  C11 UNL     1      -2.537   9.081  21.225  1.00  0.00     0.002 C 
HETATM   25  C12 UNL     1      -1.143   9.626  21.155  1.00  0.00     0.002 C 
HETATM   26  C13 UNL     1      -0.776   9.797  22.632  1.00  0.00     0.025 C 
ENDBRANCH  20  22
ENDBRANCH  10  20
TORSDOF 4
ENDMDL
