MODEL 1
REMARK VINA RESULT: -10.400487901      0.000      0.000
REMARK  13 active torsions:
REMARK  status: ('A' for Active; 'I' for Inactive)
REMARK    1  A    between atoms: C2_5  and  N3_6 
REMARK    2  A    between atoms: C2_5  and  C21_50 
REMARK    3  A    between atoms: N3_6  and  C3_8 
REMARK    4  A    between atoms: C3_8  and  C4_9 
REMARK    5  A    between atoms: C7_12  and  O1_13 
REMARK    6  A    between atoms: O1_13  and  C8_14 
REMARK    7  A    between atoms: C8_14  and  C9_15 
REMARK    8  A    between atoms: N4_17  and  C11_18 
REMARK    9  A    between atoms: N5_20  and  C13_21 
REMARK   10  A    between atoms: C13_21  and  C14_22 
REMARK       I    between atoms: C14_22  and  N6_24 
REMARK   11  A    between atoms: N6_24  and  N7_26 
REMARK   12  A    between atoms: N7_26  and  C15_28 
REMARK   13  A    between atoms: C17_31  and  N8_32 
ROOT
HETATM    1  N1  UNL     1       5.041  20.768  81.229  1.00  0.00    -0.172 NA
HETATM    2  C1  UNL     1       3.949  21.144  81.204  1.00  0.00     0.183 C 
HETATM    3  N2  UNL     1       2.637  21.593  81.153  1.00  0.00    -0.279 N 
ATOM      4  H2  UNL     1       2.455  22.596  81.176  1.00  0.00     0.179 HD
HETATM    5  C2  UNL     1       1.655  20.785  81.079  1.00  0.00     0.127 C 
ENDROOT
BRANCH   5   6
HETATM    6  N3  UNL     1       1.828  19.383  81.044  1.00  0.00    -0.371 N 
ATOM      7  H3  UNL     1       2.237  18.964  80.210  1.00  0.00     0.161 HD
BRANCH   6   8
HETATM    8  C3  UNL     1       1.451  18.515  82.138  1.00  0.00     0.161 C 
BRANCH   8   9
HETATM    9  C4  UNL     1       2.581  17.626  82.517  1.00  0.00    -0.025 A 
HETATM   10  C5  UNL     1       2.552  16.270  82.267  1.00  0.00     0.014 A 
HETATM   11  C6  UNL     1       3.646  15.498  82.651  1.00  0.00     0.057 A 
HETATM   12  C7  UNL     1       4.741  16.058  83.267  1.00  0.00     0.142 A 
HETATM   13  N13 UNL     1       4.740  17.381  83.496  1.00  0.00    -0.346 N 
HETATM   14  C20 UNL     1       3.711  18.164  83.145  1.00  0.00     0.099 A 
ATOM     15  H13 UNL     1       5.549  17.804  83.951  1.00  0.00     0.167 HD
BRANCH  12  16
HETATM   16  O1  UNL     1       5.828  15.253  83.643  1.00  0.00    -0.330 OA
BRANCH  16  17
HETATM   17  C8  UNL     1       6.585  15.528  84.795  1.00  0.00     0.237 C 
BRANCH  17  18
HETATM   18  C9  UNL     1       7.995  15.742  84.391  1.00  0.00     0.069 A 
HETATM   19  C10 UNL     1       8.893  16.670  84.916  1.00  0.00     0.147 A 
HETATM   20  N4  UNL     1      10.073  16.552  84.294  1.00  0.00    -0.244 N 
HETATM   21  N11 UNL     1       9.925  15.580  83.400  1.00  0.00    -0.236 N 
HETATM   22  N12 UNL     1       8.714  15.088  83.437  1.00  0.00    -0.286 N 
ATOM     23  H11 UNL     1      10.659  15.260  82.769  1.00  0.00     0.209 HD
ATOM     24  H12 UNL     1       8.364  14.334  82.845  1.00  0.00     0.188 HD
BRANCH  20  25
HETATM   25  C11 UNL     1      11.296  17.257  84.469  1.00  0.00     0.141 A 
HETATM   26  C12 UNL     1      11.515  18.041  85.603  1.00  0.00     0.133 A 
HETATM   27  N5  UNL     1      12.657  18.725  85.789  1.00  0.00    -0.298 N 
HETATM   28  C18 UNL     1      13.617  18.654  84.859  1.00  0.00     0.329 A 
HETATM   29  O3  UNL     1      14.705  19.270  84.978  1.00  0.00    -0.246 OA
HETATM   30  N10 UNL     1      13.429  17.909  83.764  1.00  0.00    -0.273 N 
HETATM   31  C19 UNL     1      12.305  17.207  83.533  1.00  0.00     0.279 A 
ATOM     32  H10 UNL     1      14.175  17.872  83.069  1.00  0.00     0.173 HD
HETATM   33  O4  UNL     1      12.177  16.521  82.489  1.00  0.00    -0.265 OA
BRANCH  27  34
HETATM   34  C13 UNL     1      12.795  19.516  86.979  1.00  0.00     0.237 C 
BRANCH  34  35
HETATM   35  C14 UNL     1      12.329  20.895  86.815  1.00  0.00     0.254 C 
HETATM   36  O2  UNL     1      11.180  21.206  87.207  1.00  0.00    -0.270 OA
HETATM   37  N6  UNL     1      13.130  21.899  86.226  1.00  0.00    -0.267 N 
ATOM     38  H6  UNL     1      14.065  21.652  85.904  1.00  0.00     0.190 HD
BRANCH  37  39
HETATM   39  N7  UNL     1      12.693  23.210  86.067  1.00  0.00    -0.282 N 
ATOM     40  H7  UNL     1      11.818  23.376  85.570  1.00  0.00     0.188 HD
BRANCH  39  41
HETATM   41  C15 UNL     1      13.430  24.353  86.580  1.00  0.00     0.128 A 
HETATM   42  C16 UNL     1      13.688  24.472  87.924  1.00  0.00     0.103 A 
HETATM   43  S1  UNL     1      14.553  25.941  88.005  1.00  0.00    -0.062 SA
HETATM   44  C17 UNL     1      14.543  26.324  86.346  1.00  0.00     0.143 A 
HETATM   45  N9  UNL     1      13.877  25.310  85.804  1.00  0.00    -0.322 N 
ATOM     46  H9  UNL     1      13.716  25.276  84.797  1.00  0.00     0.169 HD
BRANCH  44  47
HETATM   47  N8  UNL     1      15.062  27.367  85.723  1.00  0.00    -0.380 N 
ATOM     48  H82 UNL     1      14.563  28.170  85.339  1.00  0.00     0.158 HD
ATOM     49  H81 UNL     1      16.037  27.573  85.506  1.00  0.00     0.158 HD
ENDBRANCH  44  47
ENDBRANCH  39  41
ENDBRANCH  37  39
ENDBRANCH  34  35
ENDBRANCH  27  34
ENDBRANCH  20  25
ENDBRANCH  17  18
ENDBRANCH  16  17
ENDBRANCH  12  16
ENDBRANCH   8   9
ENDBRANCH   6   8
ENDBRANCH   5   6
BRANCH   5  50
HETATM   50  C21 UNL     1       0.286  21.310  81.024  1.00  0.00     0.092 A 
HETATM   51  C22 UNL     1      -0.613  20.924  80.057  1.00  0.00     0.115 A 
HETATM   52  N14 UNL     1      -1.871  21.394  79.990  1.00  0.00    -0.320 N 
HETATM   53  C23 UNL     1      -2.284  22.286  80.906  1.00  0.00     0.228 A 
HETATM   54  C26 UNL     1      -2.968  21.134  79.080  1.00  0.00     0.158 C 
HETATM   55  N15 UNL     1      -1.412  22.679  81.864  1.00  0.00    -0.288 N 
HETATM   56  O6  UNL     1      -3.612  22.642  80.654  1.00  0.00    -0.320 OA
HETATM   57  C24 UNL     1      -0.162  22.235  81.960  1.00  0.00     0.263 A 
ATOM     58  H15 UNL     1      -1.734  23.357  82.555  1.00  0.00     0.172 HD
HETATM   59  O5  UNL     1       0.652  22.597  82.848  1.00  0.00    -0.267 OA
HETATM   60  C25 UNL     1      -4.167  21.636  79.826  1.00  0.00     0.199 C 
ENDBRANCH   5  50
TORSDOF 13
ENDMDL
MODEL 2
REMARK VINA RESULT: -10.302857588      3.683      4.119
REMARK  13 active torsions:
REMARK  status: ('A' for Active; 'I' for Inactive)
REMARK    1  A    between atoms: C2_5  and  N3_6 
REMARK    2  A    between atoms: C2_5  and  C21_50 
REMARK    3  A    between atoms: N3_6  and  C3_8 
REMARK    4  A    between atoms: C3_8  and  C4_9 
REMARK    5  A    between atoms: C7_12  and  O1_13 
REMARK    6  A    between atoms: O1_13  and  C8_14 
REMARK    7  A    between atoms: C8_14  and  C9_15 
REMARK    8  A    between atoms: N4_17  and  C11_18 
REMARK    9  A    between atoms: N5_20  and  C13_21 
REMARK   10  A    between atoms: C13_21  and  C14_22 
REMARK       I    between atoms: C14_22  and  N6_24 
REMARK   11  A    between atoms: N6_24  and  N7_26 
REMARK   12  A    between atoms: N7_26  and  C15_28 
REMARK   13  A    between atoms: C17_31  and  N8_32 
ROOT
HETATM    1  N1  UNL     1       5.047  20.761  81.181  1.00  0.00    -0.172 NA
HETATM    2  C1  UNL     1       3.952  21.128  81.171  1.00  0.00     0.183 C 
HETATM    3  N2  UNL     1       2.636  21.568  81.137  1.00  0.00    -0.279 N 
ATOM      4  H2  UNL     1       2.446  22.569  81.179  1.00  0.00     0.179 HD
HETATM    5  C2  UNL     1       1.659  20.754  81.056  1.00  0.00     0.127 C 
ENDROOT
BRANCH   5   6
HETATM    6  N3  UNL     1       1.843  19.354  80.995  1.00  0.00    -0.371 N 
ATOM      7  H3  UNL     1       2.268  18.955  80.159  1.00  0.00     0.161 HD
BRANCH   6   8
HETATM    8  C3  UNL     1       1.455  18.461  82.065  1.00  0.00     0.161 C 
BRANCH   8   9
HETATM    9  C4  UNL     1       2.600  17.607  82.478  1.00  0.00    -0.025 A 
HETATM   10  C5  UNL     1       2.600  16.244  82.269  1.00  0.00     0.014 A 
HETATM   11  C6  UNL     1       3.706  15.506  82.683  1.00  0.00     0.057 A 
HETATM   12  C7  UNL     1       4.785  16.106  83.289  1.00  0.00     0.142 A 
HETATM   13  N13 UNL     1       4.756  17.435  83.478  1.00  0.00    -0.346 N 
HETATM   14  C20 UNL     1       3.714  18.187  83.097  1.00  0.00     0.099 A 
ATOM     15  H13 UNL     1       5.553  17.887  83.926  1.00  0.00     0.167 HD
BRANCH  12  16
HETATM   16  O1  UNL     1       5.886  15.335  83.696  1.00  0.00    -0.330 OA
BRANCH  16  17
HETATM   17  C8  UNL     1       6.462  15.488  84.969  1.00  0.00     0.237 C 
BRANCH  17  18
HETATM   18  C9  UNL     1       7.937  15.484  84.819  1.00  0.00     0.069 A 
HETATM   19  C10 UNL     1       8.668  15.635  83.641  1.00  0.00     0.147 A 
HETATM   20  N4  UNL     1       9.977  15.581  83.917  1.00  0.00    -0.244 N 
HETATM   21  N11 UNL     1      10.072  15.400  85.231  1.00  0.00    -0.236 N 
HETATM   22  N12 UNL     1       8.889  15.340  85.784  1.00  0.00    -0.286 N 
ATOM     23  H11 UNL     1      10.952  15.319  85.740  1.00  0.00     0.209 HD
ATOM     24  H12 UNL     1       8.706  15.206  86.779  1.00  0.00     0.188 HD
BRANCH  20  25
HETATM   25  C11 UNL     1      11.115  15.688  83.072  1.00  0.00     0.141 A 
HETATM   26  C12 UNL     1      11.989  16.771  83.179  1.00  0.00     0.133 A 
HETATM   27  N5  UNL     1      13.066  16.902  82.386  1.00  0.00    -0.298 N 
HETATM   28  C18 UNL     1      13.313  15.965  81.463  1.00  0.00     0.329 A 
HETATM   29  O3  UNL     1      14.304  16.033  80.695  1.00  0.00    -0.246 OA
HETATM   30  N10 UNL     1      12.490  14.918  81.343  1.00  0.00    -0.273 N 
HETATM   31  C19 UNL     1      11.400  14.742  82.112  1.00  0.00     0.279 A 
ATOM     32  H10 UNL     1      12.698  14.217  80.631  1.00  0.00     0.173 HD
HETATM   33  O4  UNL     1      10.658  13.741  81.959  1.00  0.00    -0.265 OA
BRANCH  27  34
HETATM   34  C13 UNL     1      13.905  18.055  82.556  1.00  0.00     0.237 C 
BRANCH  34  35
HETATM   35  C14 UNL     1      15.206  17.742  83.151  1.00  0.00     0.254 C 
HETATM   36  O2  UNL     1      15.354  17.841  84.392  1.00  0.00    -0.270 OA
HETATM   37  N6  UNL     1      16.313  17.330  82.376  1.00  0.00    -0.267 N 
ATOM     38  H6  UNL     1      16.199  17.247  81.366  1.00  0.00     0.190 HD
BRANCH  37  39
HETATM   39  N7  UNL     1      17.551  17.031  82.936  1.00  0.00    -0.282 N 
ATOM     40  H7  UNL     1      17.740  16.069  83.216  1.00  0.00     0.188 HD
BRANCH  39  41
HETATM   41  C15 UNL     1      18.585  18.033  83.138  1.00  0.00     0.128 A 
HETATM   42  C16 UNL     1      19.789  17.689  83.703  1.00  0.00     0.103 A 
HETATM   43  S1  UNL     1      20.626  19.177  83.720  1.00  0.00    -0.062 SA
HETATM   44  C17 UNL     1      19.417  20.147  83.016  1.00  0.00     0.143 A 
HETATM   45  N9  UNL     1      18.426  19.289  82.799  1.00  0.00    -0.322 N 
ATOM     46  H9  UNL     1      17.553  19.604  82.375  1.00  0.00     0.169 HD
BRANCH  44  47
HETATM   47  N8  UNL     1      19.434  21.439  82.741  1.00  0.00    -0.380 N 
ATOM     48  H82 UNL     1      20.168  22.111  82.965  1.00  0.00     0.158 HD
ATOM     49  H81 UNL     1      18.736  22.008  82.261  1.00  0.00     0.158 HD
ENDBRANCH  44  47
ENDBRANCH  39  41
ENDBRANCH  37  39
ENDBRANCH  34  35
ENDBRANCH  27  34
ENDBRANCH  20  25
ENDBRANCH  17  18
ENDBRANCH  16  17
ENDBRANCH  12  16
ENDBRANCH   8   9
ENDBRANCH   6   8
ENDBRANCH   5   6
BRANCH   5  50
HETATM   50  C21 UNL     1       0.287  21.270  81.020  1.00  0.00     0.092 A 
HETATM   51  C22 UNL     1      -0.625  20.875  80.067  1.00  0.00     0.115 A 
HETATM   52  N14 UNL     1      -1.886  21.336  80.019  1.00  0.00    -0.320 N 
HETATM   53  C23 UNL     1      -2.292  22.227  80.938  1.00  0.00     0.228 A 
HETATM   54  C26 UNL     1      -2.995  21.066  79.125  1.00  0.00     0.158 C 
HETATM   55  N15 UNL     1      -1.409  22.628  81.882  1.00  0.00    -0.288 N 
HETATM   56  O6  UNL     1      -3.626  22.573  80.705  1.00  0.00    -0.320 OA
HETATM   57  C24 UNL     1      -0.154  22.193  81.961  1.00  0.00     0.263 A 
ATOM     58  H15 UNL     1      -1.725  23.306  82.576  1.00  0.00     0.172 HD
HETATM   59  O5  UNL     1       0.670  22.563  82.836  1.00  0.00    -0.267 OA
HETATM   60  C25 UNL     1      -4.186  21.561  79.887  1.00  0.00     0.199 C 
ENDBRANCH   5  50
TORSDOF 13
ENDMDL
MODEL 3
REMARK VINA RESULT: -10.005413961      5.515      7.742
REMARK  13 active torsions:
REMARK  status: ('A' for Active; 'I' for Inactive)
REMARK    1  A    between atoms: C2_5  and  N3_6 
REMARK    2  A    between atoms: C2_5  and  C21_50 
REMARK    3  A    between atoms: N3_6  and  C3_8 
REMARK    4  A    between atoms: C3_8  and  C4_9 
REMARK    5  A    between atoms: C7_12  and  O1_13 
REMARK    6  A    between atoms: O1_13  and  C8_14 
REMARK    7  A    between atoms: C8_14  and  C9_15 
REMARK    8  A    between atoms: N4_17  and  C11_18 
REMARK    9  A    between atoms: N5_20  and  C13_21 
REMARK   10  A    between atoms: C13_21  and  C14_22 
REMARK       I    between atoms: C14_22  and  N6_24 
REMARK   11  A    between atoms: N6_24  and  N7_26 
REMARK   12  A    between atoms: N7_26  and  C15_28 
REMARK   13  A    between atoms: C17_31  and  N8_32 
ROOT
HETATM    1  N1  UNL     1       4.923  20.769  81.215  1.00  0.00    -0.172 NA
HETATM    2  C1  UNL     1       3.834  21.156  81.190  1.00  0.00     0.183 C 
HETATM    3  N2  UNL     1       2.527  21.617  81.137  1.00  0.00    -0.279 N 
ATOM      4  H2  UNL     1       2.356  22.622  81.110  1.00  0.00     0.179 HD
HETATM    5  C2  UNL     1       1.534  20.818  81.122  1.00  0.00     0.127 C 
ENDROOT
BRANCH   5   6
HETATM    6  N3  UNL     1       1.691  19.415  81.157  1.00  0.00    -0.371 N 
ATOM      7  H3  UNL     1       2.011  18.940  80.314  1.00  0.00     0.161 HD
BRANCH   6   8
HETATM    8  C3  UNL     1       1.418  18.621  82.335  1.00  0.00     0.161 C 
BRANCH   8   9
HETATM    9  C4  UNL     1       2.526  17.663  82.592  1.00  0.00    -0.025 A 
HETATM   10  C5  UNL     1       2.411  16.323  82.289  1.00  0.00     0.014 A 
HETATM   11  C6  UNL     1       3.489  15.484  82.559  1.00  0.00     0.057 A 
HETATM   12  C7  UNL     1       4.652  15.963  83.116  1.00  0.00     0.142 A 
HETATM   13  N13 UNL     1       4.734  17.272  83.399  1.00  0.00    -0.346 N 
HETATM   14  C20 UNL     1       3.723  18.119  83.158  1.00  0.00     0.099 A 
ATOM     15  H13 UNL     1       5.594  17.635  83.812  1.00  0.00     0.167 HD
BRANCH  12  16
HETATM   16  O1  UNL     1       5.722  15.091  83.377  1.00  0.00    -0.330 OA
BRANCH  16  17
HETATM   17  C8  UNL     1       7.058  15.519  83.296  1.00  0.00     0.237 C 
BRANCH  17  18
HETATM   18  C9  UNL     1       7.679  15.375  84.635  1.00  0.00     0.069 A 
HETATM   19  C10 UNL     1       7.030  15.140  85.847  1.00  0.00     0.147 A 
HETATM   20  N4  UNL     1       7.934  15.065  86.831  1.00  0.00    -0.244 N 
HETATM   21  N11 UNL     1       9.120  15.249  86.260  1.00  0.00    -0.236 N 
HETATM   22  N12 UNL     1       8.998  15.433  84.971  1.00  0.00    -0.286 N 
ATOM     23  H11 UNL     1      10.009  15.248  86.760  1.00  0.00     0.209 HD
ATOM     24  H12 UNL     1       9.767  15.595  84.320  1.00  0.00     0.188 HD
BRANCH  20  25
HETATM   25  C11 UNL     1       7.780  14.837  88.226  1.00  0.00     0.141 A 
HETATM   26  C12 UNL     1       6.997  13.782  88.697  1.00  0.00     0.133 A 
HETATM   27  N5  UNL     1       6.826  13.551  90.010  1.00  0.00    -0.298 N 
HETATM   28  C18 UNL     1       7.425  14.353  90.897  1.00  0.00     0.329 A 
HETATM   29  O3  UNL     1       7.303  14.185  92.135  1.00  0.00    -0.246 OA
HETATM   30  N10 UNL     1       8.181  15.370  90.468  1.00  0.00    -0.273 N 
HETATM   31  C19 UNL     1       8.383  15.643  89.167  1.00  0.00     0.279 A 
ATOM     32  H10 UNL     1       8.627  15.969  91.164  1.00  0.00     0.173 HD
HETATM   33  O4  UNL     1       9.102  16.610  88.815  1.00  0.00    -0.265 OA
BRANCH  27  34
HETATM   34  C13 UNL     1       5.993  12.450  90.408  1.00  0.00     0.237 C 
BRANCH  34  35
HETATM   35  C14 UNL     1       4.589  12.620  90.029  1.00  0.00     0.254 C 
HETATM   36  O2  UNL     1       4.045  11.766  89.289  1.00  0.00    -0.270 OA
HETATM   37  N6  UNL     1       3.815  13.718  90.464  1.00  0.00    -0.267 N 
ATOM     38  H6  UNL     1       4.251  14.416  91.065  1.00  0.00     0.190 HD
BRANCH  37  39
HETATM   39  N7  UNL     1       2.481  13.884  90.107  1.00  0.00    -0.282 N 
ATOM     40  H7  UNL     1       1.793  13.222  90.466  1.00  0.00     0.188 HD
BRANCH  39  41
HETATM   41  C15 UNL     1       2.025  14.962  89.245  1.00  0.00     0.128 A 
HETATM   42  C16 UNL     1       1.070  15.848  89.679  1.00  0.00     0.103 A 
HETATM   43  S1  UNL     1       0.891  16.885  88.335  1.00  0.00    -0.062 SA
HETATM   44  C17 UNL     1       2.026  16.148  87.302  1.00  0.00     0.143 A 
HETATM   45  N9  UNL     1       2.492  15.140  88.032  1.00  0.00    -0.322 N 
ATOM     46  H9  UNL     1       3.203  14.513  87.654  1.00  0.00     0.169 HD
BRANCH  44  47
HETATM   47  N8  UNL     1       2.378  16.476  86.072  1.00  0.00    -0.380 N 
ATOM     48  H82 UNL     1       2.119  16.002  85.207  1.00  0.00     0.158 HD
ATOM     49  H81 UNL     1       2.962  17.248  85.749  1.00  0.00     0.158 HD
ENDBRANCH  44  47
ENDBRANCH  39  41
ENDBRANCH  37  39
ENDBRANCH  34  35
ENDBRANCH  27  34
ENDBRANCH  20  25
ENDBRANCH  17  18
ENDBRANCH  16  17
ENDBRANCH  12  16
ENDBRANCH   8   9
ENDBRANCH   6   8
ENDBRANCH   5   6
BRANCH   5  50
HETATM   50  C21 UNL     1       0.171  21.356  81.062  1.00  0.00     0.092 A 
HETATM   51  C22 UNL     1      -0.730  20.976  80.094  1.00  0.00     0.115 A 
HETATM   52  N14 UNL     1      -1.983  21.458  80.024  1.00  0.00    -0.320 N 
HETATM   53  C23 UNL     1      -2.390  22.356  80.936  1.00  0.00     0.228 A 
HETATM   54  C26 UNL     1      -3.081  21.205  79.111  1.00  0.00     0.158 C 
HETATM   55  N15 UNL     1      -1.517  22.743  81.895  1.00  0.00    -0.288 N 
HETATM   56  O6  UNL     1      -3.714  22.723  80.680  1.00  0.00    -0.320 OA
HETATM   57  C24 UNL     1      -0.271  22.287  81.995  1.00  0.00     0.263 A 
ATOM     58  H15 UNL     1      -1.833  23.426  82.584  1.00  0.00     0.172 HD
HETATM   59  O5  UNL     1       0.545  22.644  82.884  1.00  0.00    -0.267 OA
HETATM   60  C25 UNL     1      -4.276  21.720  79.853  1.00  0.00     0.199 C 
ENDBRANCH   5  50
TORSDOF 13
ENDMDL
MODEL 4
REMARK VINA RESULT: -9.986963911      4.651      6.349
REMARK  13 active torsions:
REMARK  status: ('A' for Active; 'I' for Inactive)
REMARK    1  A    between atoms: C2_5  and  N3_6 
REMARK    2  A    between atoms: C2_5  and  C21_50 
REMARK    3  A    between atoms: N3_6  and  C3_8 
REMARK    4  A    between atoms: C3_8  and  C4_9 
REMARK    5  A    between atoms: C7_12  and  O1_13 
REMARK    6  A    between atoms: O1_13  and  C8_14 
REMARK    7  A    between atoms: C8_14  and  C9_15 
REMARK    8  A    between atoms: N4_17  and  C11_18 
REMARK    9  A    between atoms: N5_20  and  C13_21 
REMARK   10  A    between atoms: C13_21  and  C14_22 
REMARK       I    between atoms: C14_22  and  N6_24 
REMARK   11  A    between atoms: N6_24  and  N7_26 
REMARK   12  A    between atoms: N7_26  and  C15_28 
REMARK   13  A    between atoms: C17_31  and  N8_32 
ROOT
HETATM    1  N1  UNL     1       5.024  20.765  81.240  1.00  0.00    -0.172 NA
HETATM    2  C1  UNL     1       3.934  21.146  81.215  1.00  0.00     0.183 C 
HETATM    3  N2  UNL     1       2.624  21.601  81.163  1.00  0.00    -0.279 N 
ATOM      4  H2  UNL     1       2.447  22.606  81.158  1.00  0.00     0.179 HD
HETATM    5  C2  UNL     1       1.636  20.797  81.122  1.00  0.00     0.127 C 
ENDROOT
BRANCH   5   6
HETATM    6  N3  UNL     1       1.801  19.394  81.126  1.00  0.00    -0.371 N 
ATOM      7  H3  UNL     1       2.189  18.947  80.296  1.00  0.00     0.161 HD
BRANCH   6   8
HETATM    8  C3  UNL     1       1.444  18.562  82.254  1.00  0.00     0.161 C 
BRANCH   8   9
HETATM    9  C4  UNL     1       2.564  17.650  82.610  1.00  0.00    -0.025 A 
HETATM   10  C5  UNL     1       2.511  16.298  82.344  1.00  0.00     0.014 A 
HETATM   11  C6  UNL     1       3.596  15.504  82.707  1.00  0.00     0.057 A 
HETATM   12  C7  UNL     1       4.706  16.039  83.319  1.00  0.00     0.142 A 
HETATM   13  N13 UNL     1       4.728  17.359  83.564  1.00  0.00    -0.346 N 
HETATM   14  C20 UNL     1       3.708  18.163  83.234  1.00  0.00     0.099 A 
ATOM     15  H13 UNL     1       5.548  17.762  84.018  1.00  0.00     0.167 HD
BRANCH  12  16
HETATM   16  O1  UNL     1       5.784  15.212  83.674  1.00  0.00    -0.330 OA
BRANCH  16  17
HETATM   17  C8  UNL     1       7.114  15.659  83.590  1.00  0.00     0.237 C 
BRANCH  17  18
HETATM   18  C9  UNL     1       7.664  15.755  84.964  1.00  0.00     0.069 A 
HETATM   19  C10 UNL     1       7.754  16.895  85.761  1.00  0.00     0.147 A 
HETATM   20  N4  UNL     1       8.303  16.575  86.939  1.00  0.00    -0.244 N 
HETATM   21  N11 UNL     1       8.555  15.271  86.889  1.00  0.00    -0.236 N 
HETATM   22  N12 UNL     1       8.189  14.765  85.740  1.00  0.00    -0.286 N 
ATOM     23  H11 UNL     1       8.978  14.734  87.647  1.00  0.00     0.209 HD
ATOM     24  H12 UNL     1       8.282  13.786  85.467  1.00  0.00     0.188 HD
BRANCH  20  25
HETATM   25  C11 UNL     1       8.599  17.371  88.079  1.00  0.00     0.141 A 
HETATM   26  C12 UNL     1       7.603  18.121  88.708  1.00  0.00     0.133 A 
HETATM   27  N5  UNL     1       7.857  18.891  89.780  1.00  0.00    -0.298 N 
HETATM   28  C18 UNL     1       9.103  18.941  90.265  1.00  0.00     0.329 A 
HETATM   29  O3  UNL     1       9.400  19.641  91.265  1.00  0.00    -0.246 OA
HETATM   30  N10 UNL     1      10.073  18.231  89.679  1.00  0.00    -0.273 N 
HETATM   31  C19 UNL     1       9.870  17.447  88.605  1.00  0.00     0.279 A 
ATOM     32  H10 UNL     1      11.016  18.287  90.066  1.00  0.00     0.173 HD
HETATM   33  O4  UNL     1      10.815  16.800  88.092  1.00  0.00    -0.265 OA
BRANCH  27  34
HETATM   34  C13 UNL     1       6.775  19.638  90.357  1.00  0.00     0.237 C 
BRANCH  34  35
HETATM   35  C14 UNL     1       5.456  19.091  90.036  1.00  0.00     0.254 C 
HETATM   36  O2  UNL     1       5.045  18.078  90.650  1.00  0.00    -0.270 OA
HETATM   37  N6  UNL     1       4.620  19.661  89.051  1.00  0.00    -0.267 N 
ATOM     38  H6  UNL     1       4.948  20.485  88.547  1.00  0.00     0.190 HD
BRANCH  37  39
HETATM   39  N7  UNL     1       3.366  19.145  88.741  1.00  0.00    -0.282 N 
ATOM     40  H7  UNL     1       2.539  19.616  89.111  1.00  0.00     0.188 HD
BRANCH  39  41
HETATM   41  C15 UNL     1       3.183  17.965  87.913  1.00  0.00     0.128 A 
HETATM   42  C16 UNL     1       1.986  17.734  87.279  1.00  0.00     0.103 A 
HETATM   43  S1  UNL     1       2.279  16.265  86.461  1.00  0.00    -0.062 SA
HETATM   44  C17 UNL     1       3.888  16.022  86.960  1.00  0.00     0.143 A 
HETATM   45  N9  UNL     1       4.130  17.077  87.732  1.00  0.00    -0.322 N 
ATOM     46  H9  UNL     1       5.041  17.194  88.177  1.00  0.00     0.169 HD
BRANCH  44  47
HETATM   47  N8  UNL     1       4.717  15.036  86.668  1.00  0.00    -0.380 N 
ATOM     48  H82 UNL     1       4.519  14.035  86.683  1.00  0.00     0.158 HD
ATOM     49  H81 UNL     1       5.694  15.075  86.376  1.00  0.00     0.158 HD
ENDBRANCH  44  47
ENDBRANCH  39  41
ENDBRANCH  37  39
ENDBRANCH  34  35
ENDBRANCH  27  34
ENDBRANCH  20  25
ENDBRANCH  17  18
ENDBRANCH  16  17
ENDBRANCH  12  16
ENDBRANCH   8   9
ENDBRANCH   6   8
ENDBRANCH   5   6
BRANCH   5  50
HETATM   50  C21 UNL     1       0.270  21.329  81.065  1.00  0.00     0.092 A 
HETATM   51  C22 UNL     1      -0.635  20.933  80.108  1.00  0.00     0.115 A 
HETATM   52  N14 UNL     1      -1.891  21.408  80.040  1.00  0.00    -0.320 N 
HETATM   53  C23 UNL     1      -2.295  22.316  80.943  1.00  0.00     0.228 A 
HETATM   54  C26 UNL     1      -2.994  21.140  79.138  1.00  0.00     0.158 C 
HETATM   55  N15 UNL     1      -1.418  22.718  81.892  1.00  0.00    -0.288 N 
HETATM   56  O6  UNL     1      -3.623  22.674  80.692  1.00  0.00    -0.320 OA
HETATM   57  C24 UNL     1      -0.169  22.269  81.990  1.00  0.00     0.263 A 
ATOM     58  H15 UNL     1      -1.732  23.408  82.574  1.00  0.00     0.172 HD
HETATM   59  O5  UNL     1       0.650  22.640  82.869  1.00  0.00    -0.267 OA
HETATM   60  C25 UNL     1      -4.186  21.659  79.881  1.00  0.00     0.199 C 
ENDBRANCH   5  50
TORSDOF 13
ENDMDL
MODEL 5
REMARK VINA RESULT: -9.937427083      2.897      3.871
REMARK  13 active torsions:
REMARK  status: ('A' for Active; 'I' for Inactive)
REMARK    1  A    between atoms: C2_5  and  N3_6 
REMARK    2  A    between atoms: C2_5  and  C21_50 
REMARK    3  A    between atoms: N3_6  and  C3_8 
REMARK    4  A    between atoms: C3_8  and  C4_9 
REMARK    5  A    between atoms: C7_12  and  O1_13 
REMARK    6  A    between atoms: O1_13  and  C8_14 
REMARK    7  A    between atoms: C8_14  and  C9_15 
REMARK    8  A    between atoms: N4_17  and  C11_18 
REMARK    9  A    between atoms: N5_20  and  C13_21 
REMARK   10  A    between atoms: C13_21  and  C14_22 
REMARK       I    between atoms: C14_22  and  N6_24 
REMARK   11  A    between atoms: N6_24  and  N7_26 
REMARK   12  A    between atoms: N7_26  and  C15_28 
REMARK   13  A    between atoms: C17_31  and  N8_32 
ROOT
HETATM    1  N1  UNL     1       5.079  20.774  81.189  1.00  0.00    -0.172 NA
HETATM    2  C1  UNL     1       3.984  21.145  81.170  1.00  0.00     0.183 C 
HETATM    3  N2  UNL     1       2.670  21.587  81.125  1.00  0.00    -0.279 N 
ATOM      4  H2  UNL     1       2.484  22.590  81.135  1.00  0.00     0.179 HD
HETATM    5  C2  UNL     1       1.690  20.775  81.073  1.00  0.00     0.127 C 
ENDROOT
BRANCH   5   6
HETATM    6  N3  UNL     1       1.869  19.373  81.057  1.00  0.00    -0.371 N 
ATOM      7  H3  UNL     1       2.283  18.945  80.230  1.00  0.00     0.161 HD
BRANCH   6   8
HETATM    8  C3  UNL     1       1.491  18.518  82.160  1.00  0.00     0.161 C 
BRANCH   8   9
HETATM    9  C4  UNL     1       2.619  17.628  82.546  1.00  0.00    -0.025 A 
HETATM   10  C5  UNL     1       2.616  16.282  82.246  1.00  0.00     0.014 A 
HETATM   11  C6  UNL     1       3.705  15.509  82.640  1.00  0.00     0.057 A 
HETATM   12  C7  UNL     1       4.771  16.059  83.314  1.00  0.00     0.142 A 
HETATM   13  N13 UNL     1       4.745  17.372  83.592  1.00  0.00    -0.346 N 
HETATM   14  C20 UNL     1       3.719  18.156  83.233  1.00  0.00     0.099 A 
ATOM     15  H13 UNL     1       5.532  17.786  84.092  1.00  0.00     0.167 HD
BRANCH  12  16
HETATM   16  O1  UNL     1       5.854  15.252  83.699  1.00  0.00    -0.330 OA
BRANCH  16  17
HETATM   17  C8  UNL     1       6.649  15.569  84.815  1.00  0.00     0.237 C 
BRANCH  17  18
HETATM   18  C9  UNL     1       8.046  15.757  84.357  1.00  0.00     0.069 A 
HETATM   19  C10 UNL     1       8.984  16.662  84.853  1.00  0.00     0.147 A 
HETATM   20  N4  UNL     1      10.136  16.523  84.185  1.00  0.00    -0.244 N 
HETATM   21  N11 UNL     1       9.933  15.560  83.292  1.00  0.00    -0.236 N 
HETATM   22  N12 UNL     1       8.714  15.093  83.372  1.00  0.00    -0.286 N 
ATOM     23  H11 UNL     1      10.636  15.229  82.630  1.00  0.00     0.209 HD
ATOM     24  H12 UNL     1       8.325  14.351  82.790  1.00  0.00     0.188 HD
BRANCH  20  25
HETATM   25  C11 UNL     1      11.379  17.201  84.316  1.00  0.00     0.141 A 
HETATM   26  C12 UNL     1      11.635  18.021  85.417  1.00  0.00     0.133 A 
HETATM   27  N5  UNL     1      12.797  18.681  85.561  1.00  0.00    -0.298 N 
HETATM   28  C18 UNL     1      13.742  18.549  84.622  1.00  0.00     0.329 A 
HETATM   29  O3  UNL     1      14.847  19.140  84.703  1.00  0.00    -0.246 OA
HETATM   30  N10 UNL     1      13.518  17.768  83.559  1.00  0.00    -0.273 N 
HETATM   31  C19 UNL     1      12.374  17.088  83.370  1.00  0.00     0.279 A 
ATOM     32  H10 UNL     1      14.253  17.685  82.857  1.00  0.00     0.173 HD
HETATM   33  O4  UNL     1      12.213  16.367  82.355  1.00  0.00    -0.265 OA
BRANCH  27  34
HETATM   34  C13 UNL     1      12.973  19.514  86.718  1.00  0.00     0.237 C 
BRANCH  34  35
HETATM   35  C14 UNL     1      11.835  19.473  87.639  1.00  0.00     0.254 C 
HETATM   36  O2  UNL     1      11.031  20.435  87.664  1.00  0.00    -0.270 OA
HETATM   37  N6  UNL     1      11.605  18.385  88.509  1.00  0.00    -0.267 N 
ATOM     38  H6  UNL     1      12.255  17.600  88.493  1.00  0.00     0.190 HD
BRANCH  37  39
HETATM   39  N7  UNL     1      10.526  18.341  89.386  1.00  0.00    -0.282 N 
ATOM     40  H7  UNL     1      10.666  18.651  90.348  1.00  0.00     0.188 HD
BRANCH  39  41
HETATM   41  C15 UNL     1       9.208  17.872  88.991  1.00  0.00     0.128 A 
HETATM   42  C16 UNL     1       8.702  16.700  89.498  1.00  0.00     0.103 A 
HETATM   43  S1  UNL     1       7.175  16.601  88.742  1.00  0.00    -0.062 SA
HETATM   44  C17 UNL     1       7.257  18.037  87.831  1.00  0.00     0.143 A 
HETATM   45  N9  UNL     1       8.450  18.529  88.146  1.00  0.00    -0.322 N 
ATOM     46  H9  UNL     1       8.773  19.406  87.736  1.00  0.00     0.169 HD
BRANCH  44  47
HETATM   47  N8  UNL     1       6.367  18.559  87.006  1.00  0.00    -0.380 N 
ATOM     48  H82 UNL     1       6.413  18.596  85.988  1.00  0.00     0.158 HD
ATOM     49  H81 UNL     1       5.479  19.016  87.216  1.00  0.00     0.158 HD
ENDBRANCH  44  47
ENDBRANCH  39  41
ENDBRANCH  37  39
ENDBRANCH  34  35
ENDBRANCH  27  34
ENDBRANCH  20  25
ENDBRANCH  17  18
ENDBRANCH  16  17
ENDBRANCH  12  16
ENDBRANCH   8   9
ENDBRANCH   6   8
ENDBRANCH   5   6
BRANCH   5  50
HETATM   50  C21 UNL     1       0.320  21.293  81.024  1.00  0.00     0.092 A 
HETATM   51  C22 UNL     1      -0.583  20.902  80.062  1.00  0.00     0.115 A 
HETATM   52  N14 UNL     1      -1.843  21.366  80.001  1.00  0.00    -0.320 N 
HETATM   53  C23 UNL     1      -2.256  22.257  80.917  1.00  0.00     0.228 A 
HETATM   54  C26 UNL     1      -2.944  21.099  79.096  1.00  0.00     0.158 C 
HETATM   55  N15 UNL     1      -1.382  22.655  81.871  1.00  0.00    -0.288 N 
HETATM   56  O6  UNL     1      -3.587  22.606  80.672  1.00  0.00    -0.320 OA
HETATM   57  C24 UNL     1      -0.129  22.217  81.961  1.00  0.00     0.263 A 
ATOM     58  H15 UNL     1      -1.703  23.332  82.562  1.00  0.00     0.172 HD
HETATM   59  O5  UNL     1       0.688  22.584  82.845  1.00  0.00    -0.267 OA
HETATM   60  C25 UNL     1      -4.141  21.596  79.847  1.00  0.00     0.199 C 
ENDBRANCH   5  50
TORSDOF 13
ENDMDL
