MODEL 1
REMARK VINA RESULT: -9.736632111      0.000      0.000
REMARK  5 active torsions:
REMARK  status: ('A' for Active; 'I' for Inactive)
REMARK    1  A    between atoms: N3_10  and  C5_11 
REMARK    2  A    between atoms: C6_14  and  N5_15 
REMARK    3  A    between atoms: N5_15  and  C7_17 
REMARK    4  A    between atoms: C10_20  and  N6_21 
REMARK    5  A    between atoms: C14_32  and  N9_33 
ROOT
HETATM    1  C5  UNL     1      13.905  40.443  24.394  1.00  0.00     0.750 A 
HETATM    2  N4  UNL     1      13.814  39.889  25.620  1.00  0.00    -0.019 N 
ATOM      3  H4  UNL     1      14.608  39.365  25.988  1.00  0.00     0.203 HD
HETATM    4  C6  UNL     1      12.687  40.011  26.382  1.00  0.00     0.707 A 
HETATM    5  N7  UNL     1      11.690  40.716  25.827  1.00  0.00    -0.019 N 
ATOM      6  H7  UNL     1      10.828  40.836  26.359  1.00  0.00     0.203 HD
HETATM    7  C13 UNL     1      11.767  41.276  24.603  1.00  0.00     0.748 A 
HETATM    8  N8  UNL     1      10.929  42.008  23.843  1.00  0.00    -0.018 N 
ATOM      9  H8  UNL     1       9.988  42.279  24.129  1.00  0.00     0.203 HD
HETATM   10  C14 UNL     1      11.482  42.337  22.664  1.00  0.00     0.710 A 
HETATM   11  N10 UNL     1      12.705  41.780  22.712  1.00  0.00    -0.095 N 
ATOM     12  H10 UNL     1      13.395  41.841  21.963  1.00  0.00     0.207 HD
HETATM   13  N11 UNL     1      12.898  41.145  23.855  1.00  0.00     0.107 N 
ENDROOT
BRANCH   4  14
HETATM   14  N5  UNL     1      12.642  39.465  27.550  1.00  0.00    -0.220 N 
ATOM     15  H5  UNL     1      13.483  39.047  27.950  1.00  0.00     0.178 HD
BRANCH  14  16
HETATM   16  C7  UNL     1      11.415  39.445  28.284  1.00  0.00     0.099 C 
HETATM   17  C8  UNL     1      11.806  39.755  29.740  1.00  0.00     0.027 C 
HETATM   18  C9  UNL     1      12.316  38.528  30.435  1.00  0.00     0.035 C 
HETATM   19  C10 UNL     1      11.295  37.411  30.438  1.00  0.00     0.183 C 
HETATM   20  C11 UNL     1      10.121  37.833  29.587  1.00  0.00     0.035 C 
HETATM   21  C12 UNL     1      10.671  38.148  28.194  1.00  0.00     0.027 C 
BRANCH  19  22
HETATM   22  N6  UNL     1      10.896  37.112  31.796  1.00  0.00    -0.075 N 
ATOM     23  H63 UNL     1      10.584  37.945  32.296  1.00  0.00     0.274 HD
ATOM     24  H62 UNL     1      10.025  36.583  31.831  1.00  0.00     0.274 HD
ATOM     25  H61 UNL     1      11.653  36.633  32.283  1.00  0.00     0.274 HD
ENDBRANCH  19  22
ENDBRANCH  14  16
ENDBRANCH   4  14
BRANCH   1  26
HETATM   26  N3  UNL     1      15.118  40.278  23.636  1.00  0.00    -0.012 N 
HETATM   27  C1  UNL     1      16.193  41.190  23.887  1.00  0.00     0.688 C 
HETATM   28  N1  UNL     1      15.960  42.400  24.295  1.00  0.00    -0.234 N 
HETATM   29  N2  UNL     1      17.519  40.730  23.677  1.00  0.00    -0.226 N 
ATOM     30  H12 UNL     1      16.725  43.049  24.474  1.00  0.00     0.174 HD
ATOM     31  H11 UNL     1      15.006  42.730  24.446  1.00  0.00     0.174 HD
HETATM   32  C2  UNL     1      17.768  39.675  22.747  1.00  0.00     0.139 C 
ATOM     33  H2  UNL     1      18.293  41.153  24.191  1.00  0.00     0.177 HD
HETATM   34  C3  UNL     1      16.583  39.401  21.851  1.00  0.00     0.042 C 
HETATM   35  C4  UNL     1      15.299  39.267  22.644  1.00  0.00     0.168 C 
ENDBRANCH   1  26
BRANCH  10  36
HETATM   36  N9  UNL     1      10.928  43.095  21.594  1.00  0.00    -0.216 N 
HETATM   37  C15 UNL     1      11.318  42.860  20.236  1.00  0.00     0.141 C 
HETATM   38  C16 UNL     1      10.210  43.414  19.356  1.00  0.00     0.020 C 
HETATM   39  C17 UNL     1      10.200  44.902  19.527  1.00  0.00     0.003 C 
HETATM   40  C18 UNL     1      10.077  45.314  20.956  1.00  0.00     0.020 C 
HETATM   41  C19 UNL     1       9.951  44.127  21.875  1.00  0.00     0.141 C 
ENDBRANCH  10  36
TORSDOF 5
ENDMDL
MODEL 2
REMARK VINA RESULT: -9.538592503      1.169      1.797
REMARK  5 active torsions:
REMARK  status: ('A' for Active; 'I' for Inactive)
REMARK    1  A    between atoms: N3_10  and  C5_11 
REMARK    2  A    between atoms: C6_14  and  N5_15 
REMARK    3  A    between atoms: N5_15  and  C7_17 
REMARK    4  A    between atoms: C10_20  and  N6_21 
REMARK    5  A    between atoms: C14_32  and  N9_33 
ROOT
HETATM    1  C5  UNL     1      12.721  40.711  25.029  1.00  0.00     0.750 A 
HETATM    2  N4  UNL     1      12.309  40.120  26.168  1.00  0.00    -0.019 N 
ATOM      3  H4  UNL     1      12.973  39.563  26.707  1.00  0.00     0.203 HD
HETATM    4  C6  UNL     1      11.026  40.246  26.621  1.00  0.00     0.707 A 
HETATM    5  N7  UNL     1      10.217  40.995  25.856  1.00  0.00    -0.019 N 
ATOM      6  H7  UNL     1       9.249  41.120  26.154  1.00  0.00     0.203 HD
HETATM    7  C13 UNL     1      10.616  41.592  24.715  1.00  0.00     0.748 A 
HETATM    8  N8  UNL     1      10.013  42.370  23.794  1.00  0.00    -0.018 N 
ATOM      9  H8  UNL     1       9.035  42.656  23.840  1.00  0.00     0.203 HD
HETATM   10  C14 UNL     1      10.856  42.722  22.809  1.00  0.00     0.710 A 
HETATM   11  N10 UNL     1      12.016  42.132  23.147  1.00  0.00    -0.095 N 
ATOM     12  H10 UNL     1      12.876  42.199  22.602  1.00  0.00     0.207 HD
HETATM   13  N11 UNL     1      11.898  41.455  24.277  1.00  0.00     0.107 N 
ENDROOT
BRANCH   4  14
HETATM   14  N5  UNL     1      10.674  39.664  27.717  1.00  0.00    -0.220 N 
ATOM     15  H5  UNL     1       9.710  39.734  28.044  1.00  0.00     0.178 HD
BRANCH  14  16
HETATM   16  C7  UNL     1      11.634  38.919  28.471  1.00  0.00     0.099 C 
HETATM   17  C8  UNL     1      10.964  37.562  28.755  1.00  0.00     0.027 C 
HETATM   18  C9  UNL     1      10.025  37.656  29.919  1.00  0.00     0.035 C 
HETATM   19  C10 UNL     1      10.726  38.119  31.178  1.00  0.00     0.183 C 
HETATM   20  C11 UNL     1      12.143  38.501  30.824  1.00  0.00     0.035 C 
HETATM   21  C12 UNL     1      12.056  39.583  29.745  1.00  0.00     0.027 C 
BRANCH  19  22
HETATM   22  N6  UNL     1      10.683  37.074  32.179  1.00  0.00    -0.075 N 
ATOM     23  H63 UNL     1       9.775  37.024  32.641  1.00  0.00     0.274 HD
ATOM     24  H62 UNL     1      10.689  36.144  31.761  1.00  0.00     0.274 HD
ATOM     25  H61 UNL     1      11.445  37.199  32.844  1.00  0.00     0.274 HD
ENDBRANCH  19  22
ENDBRANCH  14  16
ENDBRANCH   4  14
BRANCH   1  26
HETATM   26  N3  UNL     1      14.084  40.539  24.600  1.00  0.00    -0.012 N 
HETATM   27  C1  UNL     1      15.120  40.735  25.570  1.00  0.00     0.688 C 
HETATM   28  N1  UNL     1      14.955  41.551  26.565  1.00  0.00    -0.234 N 
HETATM   29  N2  UNL     1      16.329  40.010  25.409  1.00  0.00    -0.226 N 
ATOM     30  H12 UNL     1      15.692  41.691  27.255  1.00  0.00     0.174 HD
ATOM     31  H11 UNL     1      14.085  42.072  26.680  1.00  0.00     0.174 HD
HETATM   32  C2  UNL     1      16.733  39.579  24.108  1.00  0.00     0.139 C 
ATOM     33  H2  UNL     1      16.909  39.798  26.221  1.00  0.00     0.177 HD
HETATM   34  C3  UNL     1      15.948  40.250  23.006  1.00  0.00     0.042 C 
HETATM   35  C4  UNL     1      14.457  40.196  23.264  1.00  0.00     0.168 C 
ENDBRANCH   1  26
BRANCH  10  36
HETATM   36  N9  UNL     1      10.608  43.529  21.663  1.00  0.00    -0.216 N 
HETATM   37  C15 UNL     1       9.770  44.687  21.736  1.00  0.00     0.141 C 
HETATM   38  C16 UNL     1      10.136  45.573  20.557  1.00  0.00     0.020 C 
HETATM   39  C17 UNL     1       9.731  44.853  19.308  1.00  0.00     0.003 C 
HETATM   40  C18 UNL     1      10.318  43.484  19.219  1.00  0.00     0.020 C 
HETATM   41  C19 UNL     1      11.211  43.178  20.393  1.00  0.00     0.141 C 
ENDBRANCH  10  36
TORSDOF 5
ENDMDL
MODEL 3
REMARK VINA RESULT: -9.359434676      1.585      7.815
REMARK  5 active torsions:
REMARK  status: ('A' for Active; 'I' for Inactive)
REMARK    1  A    between atoms: N3_10  and  C5_11 
REMARK    2  A    between atoms: C6_14  and  N5_15 
REMARK    3  A    between atoms: N5_15  and  C7_17 
REMARK    4  A    between atoms: C10_20  and  N6_21 
REMARK    5  A    between atoms: C14_32  and  N9_33 
ROOT
HETATM    1  C5  UNL     1      12.620  41.282  23.775  1.00  0.00     0.750 A 
HETATM    2  N4  UNL     1      12.003  42.057  22.860  1.00  0.00    -0.019 N 
ATOM      3  H4  UNL     1      12.518  42.354  22.031  1.00  0.00     0.203 HD
HETATM    4  C6  UNL     1      10.705  42.456  23.015  1.00  0.00     0.707 A 
HETATM    5  N7  UNL     1      10.098  42.023  24.130  1.00  0.00    -0.019 N 
ATOM      6  H7  UNL     1       9.127  42.293  24.289  1.00  0.00     0.203 HD
HETATM    7  C13 UNL     1      10.704  41.247  25.052  1.00  0.00     0.748 A 
HETATM    8  N8  UNL     1      10.323  40.699  26.223  1.00  0.00    -0.018 N 
ATOM      9  H8  UNL     1       9.395  40.808  26.630  1.00  0.00     0.203 HD
HETATM   10  C14 UNL     1      11.315  39.991  26.788  1.00  0.00     0.710 A 
HETATM   11  N10 UNL     1      12.338  40.116  25.924  1.00  0.00    -0.095 N 
ATOM     12  H10 UNL     1      13.257  39.694  26.054  1.00  0.00     0.207 HD
HETATM   13  N11 UNL     1      11.998  40.859  24.884  1.00  0.00     0.107 N 
ENDROOT
BRANCH   4  14
HETATM   14  N5  UNL     1      10.153  43.198  22.115  1.00  0.00    -0.220 N 
ATOM     15  H5  UNL     1      10.059  44.202  22.270  1.00  0.00     0.178 HD
BRANCH  14  16
HETATM   16  C7  UNL     1       9.672  42.612  20.902  1.00  0.00     0.099 C 
HETATM   17  C8  UNL     1      10.369  43.390  19.771  1.00  0.00     0.027 C 
HETATM   18  C9  UNL     1       9.671  44.688  19.498  1.00  0.00     0.035 C 
HETATM   19  C10 UNL     1       8.221  44.484  19.118  1.00  0.00     0.183 C 
HETATM   20  C11 UNL     1       7.881  43.022  19.291  1.00  0.00     0.035 C 
HETATM   21  C12 UNL     1       8.183  42.665  20.748  1.00  0.00     0.027 C 
BRANCH  19  22
HETATM   22  N6  UNL     1       7.999  44.932  17.760  1.00  0.00    -0.075 N 
ATOM     23  H63 UNL     1       7.959  44.153  17.102  1.00  0.00     0.274 HD
ATOM     24  H62 UNL     1       7.053  45.289  17.625  1.00  0.00     0.274 HD
ATOM     25  H61 UNL     1       8.707  45.618  17.500  1.00  0.00     0.274 HD
ENDBRANCH  19  22
ENDBRANCH  14  16
ENDBRANCH   4  14
BRANCH   1  26
HETATM   26  N3  UNL     1      13.990  40.897  23.559  1.00  0.00    -0.012 N 
HETATM   27  C1  UNL     1      14.990  41.476  24.406  1.00  0.00     0.688 C 
HETATM   28  N1  UNL     1      14.824  42.657  24.919  1.00  0.00    -0.234 N 
HETATM   29  N2  UNL     1      16.162  40.722  24.665  1.00  0.00    -0.226 N 
ATOM     30  H12 UNL     1      15.536  43.070  25.522  1.00  0.00     0.174 HD
ATOM     31  H11 UNL     1      13.981  43.199  24.732  1.00  0.00     0.174 HD
HETATM   32  C2  UNL     1      16.601  39.741  23.724  1.00  0.00     0.139 C 
ATOM     33  H2  UNL     1      16.692  40.880  25.523  1.00  0.00     0.177 HD
HETATM   34  C3  UNL     1      15.907  39.869  22.388  1.00  0.00     0.042 C 
HETATM   35  C4  UNL     1      14.405  39.981  22.544  1.00  0.00     0.168 C 
ENDBRANCH   1  26
BRANCH  10  36
HETATM   36  N9  UNL     1      11.315  39.266  28.013  1.00  0.00    -0.216 N 
HETATM   37  C15 UNL     1      10.238  38.386  28.356  1.00  0.00     0.141 C 
HETATM   38  C16 UNL     1      10.774  37.415  29.394  1.00  0.00     0.020 C 
HETATM   39  C17 UNL     1      11.073  38.199  30.634  1.00  0.00     0.003 C 
HETATM   40  C18 UNL     1      11.987  39.351  30.379  1.00  0.00     0.020 C 
HETATM   41  C19 UNL     1      12.420  39.416  28.938  1.00  0.00     0.141 C 
ENDBRANCH  10  36
TORSDOF 5
ENDMDL
MODEL 4
REMARK VINA RESULT: -9.265165165      1.464      7.885
REMARK  5 active torsions:
REMARK  status: ('A' for Active; 'I' for Inactive)
REMARK    1  A    between atoms: N3_10  and  C5_11 
REMARK    2  A    between atoms: C6_14  and  N5_15 
REMARK    3  A    between atoms: N5_15  and  C7_17 
REMARK    4  A    between atoms: C10_20  and  N6_21 
REMARK    5  A    between atoms: C14_32  and  N9_33 
ROOT
HETATM    1  C5  UNL     1      12.486  41.071  24.243  1.00  0.00     0.750 A 
HETATM    2  N4  UNL     1      11.817  41.776  23.308  1.00  0.00    -0.019 N 
ATOM      3  H4  UNL     1      12.318  42.111  22.485  1.00  0.00     0.203 HD
HETATM    4  C6  UNL     1      10.485  42.053  23.434  1.00  0.00     0.707 A 
HETATM    5  N7  UNL     1       9.899  41.577  24.543  1.00  0.00    -0.019 N 
ATOM      6  H7  UNL     1       8.905  41.758  24.681  1.00  0.00     0.203 HD
HETATM    7  C13 UNL     1      10.557  40.871  25.485  1.00  0.00     0.748 A 
HETATM    8  N8  UNL     1      10.206  40.301  26.655  1.00  0.00    -0.018 N 
ATOM      9  H8  UNL     1       9.264  40.328  27.044  1.00  0.00     0.203 HD
HETATM   10  C14 UNL     1      11.249  39.694  27.246  1.00  0.00     0.710 A 
HETATM   11  N10 UNL     1      12.272  39.906  26.400  1.00  0.00    -0.095 N 
ATOM     12  H10 UNL     1      13.223  39.572  26.552  1.00  0.00     0.207 HD
HETATM   13  N11 UNL     1      11.884  40.602  25.345  1.00  0.00     0.107 N 
ENDROOT
BRANCH   4  14
HETATM   14  N5  UNL     1       9.884  42.732  22.516  1.00  0.00    -0.220 N 
ATOM     15  H5  UNL     1       8.870  42.839  22.543  1.00  0.00     0.178 HD
BRANCH  14  16
HETATM   16  C7  UNL     1      10.639  43.333  21.461  1.00  0.00     0.099 C 
HETATM   17  C8  UNL     1      10.253  44.824  21.483  1.00  0.00     0.027 C 
HETATM   18  C9  UNL     1       8.953  45.056  20.774  1.00  0.00     0.035 C 
HETATM   19  C10 UNL     1       9.002  44.594  19.334  1.00  0.00     0.183 C 
HETATM   20  C11 UNL     1      10.315  43.885  19.102  1.00  0.00     0.035 C 
HETATM   21  C12 UNL     1      10.385  42.736  20.111  1.00  0.00     0.027 C 
BRANCH  19  22
HETATM   22  N6  UNL     1       8.837  45.725  18.447  1.00  0.00    -0.075 N 
ATOM     23  H63 UNL     1       9.707  46.243  18.320  1.00  0.00     0.274 HD
ATOM     24  H62 UNL     1       8.695  45.435  17.479  1.00  0.00     0.274 HD
ATOM     25  H61 UNL     1       8.081  46.322  18.781  1.00  0.00     0.274 HD
ENDBRANCH  19  22
ENDBRANCH  14  16
ENDBRANCH   4  14
BRANCH   1  26
HETATM   26  N3  UNL     1      13.890  40.812  24.057  1.00  0.00    -0.012 N 
HETATM   27  C1  UNL     1      14.804  41.364  25.012  1.00  0.00     0.688 C 
HETATM   28  N1  UNL     1      14.526  42.464  25.641  1.00  0.00    -0.234 N 
HETATM   29  N2  UNL     1      16.020  40.672  25.247  1.00  0.00    -0.226 N 
ATOM     30  H12 UNL     1      15.176  42.857  26.321  1.00  0.00     0.174 HD
ATOM     31  H11 UNL     1      13.651  42.962  25.472  1.00  0.00     0.174 HD
HETATM   32  C2  UNL     1      16.573  39.838  24.228  1.00  0.00     0.139 C 
ATOM     33  H2  UNL     1      16.498  40.770  26.143  1.00  0.00     0.177 HD
HETATM   34  C3  UNL     1      15.929  40.064  22.881  1.00  0.00     0.042 C 
HETATM   35  C4  UNL     1      14.418  40.048  22.971  1.00  0.00     0.168 C 
ENDBRANCH   1  26
BRANCH  10  36
HETATM   36  N9  UNL     1      11.291  38.985  28.480  1.00  0.00    -0.216 N 
HETATM   37  C15 UNL     1      10.241  38.088  28.859  1.00  0.00     0.141 C 
HETATM   38  C16 UNL     1      10.821  37.141  29.896  1.00  0.00     0.020 C 
HETATM   39  C17 UNL     1      11.133  37.946  31.119  1.00  0.00     0.003 C 
HETATM   40  C18 UNL     1      12.018  39.112  30.828  1.00  0.00     0.020 C 
HETATM   41  C19 UNL     1      12.415  39.168  29.376  1.00  0.00     0.141 C 
ENDBRANCH  10  36
TORSDOF 5
ENDMDL
MODEL 5
REMARK VINA RESULT: -9.175212535      1.902      7.174
REMARK  5 active torsions:
REMARK  status: ('A' for Active; 'I' for Inactive)
REMARK    1  A    between atoms: N3_10  and  C5_11 
REMARK    2  A    between atoms: C6_14  and  N5_15 
REMARK    3  A    between atoms: N5_15  and  C7_17 
REMARK    4  A    between atoms: C10_20  and  N6_21 
REMARK    5  A    between atoms: C14_32  and  N9_33 
ROOT
HETATM    1  C5  UNL     1      12.706  41.230  23.755  1.00  0.00     0.750 A 
HETATM    2  N4  UNL     1      12.094  41.975  22.812  1.00  0.00    -0.019 N 
ATOM      3  H4  UNL     1      12.624  42.271  21.992  1.00  0.00     0.203 HD
HETATM    4  C6  UNL     1      10.785  42.346  22.926  1.00  0.00     0.707 A 
HETATM    5  N7  UNL     1      10.158  41.916  24.033  1.00  0.00    -0.019 N 
ATOM      6  H7  UNL     1       9.178  42.167  24.162  1.00  0.00     0.203 HD
HETATM    7  C13 UNL     1      10.757  41.170  24.983  1.00  0.00     0.748 A 
HETATM    8  N8  UNL     1      10.359  40.632  26.153  1.00  0.00    -0.018 N 
ATOM      9  H8  UNL     1       9.418  40.726  26.534  1.00  0.00     0.203 HD
HETATM   10  C14 UNL     1      11.352  39.957  26.755  1.00  0.00     0.710 A 
HETATM   11  N10 UNL     1      12.394  40.092  25.915  1.00  0.00    -0.095 N 
ATOM     12  H10 UNL     1      13.319  39.694  26.076  1.00  0.00     0.207 HD
HETATM   13  N11 UNL     1      12.064  40.810  24.855  1.00  0.00     0.107 N 
ENDROOT
BRANCH   4  14
HETATM   14  N5  UNL     1      10.238  43.060  22.001  1.00  0.00    -0.220 N 
ATOM     15  H5  UNL     1       9.990  44.032  22.187  1.00  0.00     0.178 HD
BRANCH  14  16
HETATM   16  C7  UNL     1       9.982  42.489  20.715  1.00  0.00     0.099 C 
HETATM   17  C8  UNL     1       8.485  42.737  20.452  1.00  0.00     0.027 C 
HETATM   18  C9  UNL     1       7.638  41.714  21.147  1.00  0.00     0.035 C 
HETATM   19  C10 UNL     1       7.976  40.306  20.711  1.00  0.00     0.183 C 
HETATM   20  C11 UNL     1       9.191  40.359  19.816  1.00  0.00     0.035 C 
HETATM   21  C12 UNL     1      10.307  41.030  20.619  1.00  0.00     0.027 C 
BRANCH  19  22
HETATM   22  N6  UNL     1       6.839  39.710  20.043  1.00  0.00    -0.075 N 
ATOM     23  H63 UNL     1       5.970  40.198  20.257  1.00  0.00     0.274 HD
ATOM     24  H62 UNL     1       6.858  39.874  19.037  1.00  0.00     0.274 HD
ATOM     25  H61 UNL     1       6.786  38.716  20.267  1.00  0.00     0.274 HD
ENDBRANCH  19  22
ENDBRANCH  14  16
ENDBRANCH   4  14
BRANCH   1  26
HETATM   26  N3  UNL     1      14.089  40.873  23.581  1.00  0.00    -0.012 N 
HETATM   27  C1  UNL     1      15.052  41.489  24.444  1.00  0.00     0.688 C 
HETATM   28  N1  UNL     1      14.847  42.674  24.933  1.00  0.00    -0.234 N 
HETATM   29  N2  UNL     1      16.235  40.767  24.746  1.00  0.00    -0.226 N 
ATOM     30  H12 UNL     1      15.532  43.113  25.547  1.00  0.00     0.174 HD
ATOM     31  H11 UNL     1      13.996  43.193  24.716  1.00  0.00     0.174 HD
HETATM   32  C2  UNL     1      16.721  39.782  23.832  1.00  0.00     0.139 C 
ATOM     33  H2  UNL     1      16.738  40.950  25.615  1.00  0.00     0.177 HD
HETATM   34  C3  UNL     1      16.059  39.872  22.478  1.00  0.00     0.042 C 
HETATM   35  C4  UNL     1      14.551  39.951  22.593  1.00  0.00     0.168 C 
ENDBRANCH   1  26
BRANCH  10  36
HETATM   36  N9  UNL     1      11.336  39.252  27.991  1.00  0.00    -0.216 N 
HETATM   37  C15 UNL     1      10.249  38.387  28.341  1.00  0.00     0.141 C 
HETATM   38  C16 UNL     1      10.770  37.428  29.398  1.00  0.00     0.020 C 
HETATM   39  C17 UNL     1      11.066  38.230  30.628  1.00  0.00     0.003 C 
HETATM   40  C18 UNL     1      11.993  39.369  30.360  1.00  0.00     0.020 C 
HETATM   41  C19 UNL     1      12.436  39.407  28.922  1.00  0.00     0.141 C 
ENDBRANCH  10  36
TORSDOF 5
ENDMDL
