MODEL 1
REMARK VINA RESULT: -9.687326976      0.000      0.000
REMARK  7 active torsions:
REMARK  status: ('A' for Active; 'I' for Inactive)
REMARK       I    between atoms: N1_2  and  C2_4 
REMARK    1  A    between atoms: C2_4  and  C3_6 
REMARK    2  A    between atoms: C4_9  and  N3_10 
REMARK    3  A    between atoms: N3_10  and  C5_12 
REMARK    4  A    between atoms: C6_15  and  N5_16 
REMARK    5  A    between atoms: N5_16  and  C7_18 
REMARK    6  A    between atoms: C10_28  and  N9_29 
REMARK    7  A    between atoms: N9_29  and  C11_31 
ROOT
HETATM    1  C5  UNL     1      12.887  40.811  26.862  1.00  0.00     0.713 A 
HETATM    2  N4  UNL     1      12.320  39.704  27.363  1.00  0.00    -0.021 N 
ATOM      3  H4  UNL     1      12.812  39.173  28.082  1.00  0.00     0.203 HD
HETATM    4  C6  UNL     1      11.117  39.278  26.936  1.00  0.00     0.713 A 
HETATM    5  N8  UNL     1      10.485  39.980  25.995  1.00  0.00    -0.021 N 
ATOM      6  H8  UNL     1       9.574  39.663  25.666  1.00  0.00     0.203 HD
HETATM    7  C10 UNL     1      11.027  41.114  25.458  1.00  0.00     0.707 A 
HETATM    8  N10 UNL     1      12.224  41.504  25.909  1.00  0.00    -0.021 N 
ATOM      9  H10 UNL     1      12.648  42.347  25.523  1.00  0.00     0.203 HD
ENDROOT
BRANCH   1  10
HETATM   10  N3  UNL     1      14.025  41.233  27.251  1.00  0.00    -0.174 N 
ATOM     11  H3  UNL     1      14.158  42.233  27.402  1.00  0.00     0.186 HD
BRANCH  10  12
HETATM   12  C4  UNL     1      15.114  40.350  27.480  1.00  0.00     0.138 A 
HETATM   13  N2  UNL     1      15.961  39.941  26.536  1.00  0.00    -0.322 N 
HETATM   14  C3  UNL     1      16.901  39.097  27.057  1.00  0.00     0.178 A 
ATOM     15  H2  UNL     1      15.915  40.221  25.556  1.00  0.00     0.169 HD
HETATM   16  N11 UNL     1      16.609  38.996  28.345  1.00  0.00    -0.339 N 
HETATM   17  C15 UNL     1      15.512  39.754  28.643  1.00  0.00     0.141 A 
HETATM   18  C16 UNL     1      17.327  38.202  29.337  1.00  0.00     0.157 C 
BRANCH  14  19
HETATM   19  C2  UNL     1      17.942  38.508  26.252  1.00  0.00     0.285 C 
HETATM   20  N1  UNL     1      19.155  37.988  26.712  1.00  0.00    -0.359 N 
HETATM   21  C1  UNL     1      20.085  37.427  25.706  1.00  0.00     0.149 C 
ATOM     22  H1  UNL     1      19.391  37.994  27.704  1.00  0.00     0.162 HD
HETATM   23  O1  UNL     1      17.734  38.454  24.976  1.00  0.00    -0.264 OA
ENDBRANCH  14  19
ENDBRANCH  10  12
ENDBRANCH   1  10
BRANCH   4  24
HETATM   24  N5  UNL     1      10.564  38.105  27.497  1.00  0.00    -0.168 N 
ATOM     25  H5  UNL     1      10.157  37.394  26.888  1.00  0.00     0.186 HD
BRANCH  24  26
HETATM   26  C7  UNL     1      10.570  37.923  28.799  1.00  0.00     0.180 A 
HETATM   27  N6  UNL     1       9.814  37.082  29.510  1.00  0.00    -0.279 N 
HETATM   28  N7  UNL     1       9.961  37.045  30.769  1.00  0.00    -0.296 N 
ATOM     29  H6  UNL     1       9.132  36.479  29.050  1.00  0.00     0.189 HD
HETATM   30  C8  UNL     1      10.848  37.828  31.365  1.00  0.00     0.066 A 
ATOM     31  H7  UNL     1       9.393  36.408  31.327  1.00  0.00     0.187 HD
HETATM   32  C9  UNL     1      11.183  37.945  32.826  1.00  0.00     0.078 C 
HETATM   33  S1  UNL     1      11.507  38.666  30.018  1.00  0.00    -0.038 SA
ENDBRANCH  24  26
ENDBRANCH   4  24
BRANCH   7  34
HETATM   34  N9  UNL     1      10.412  41.761  24.569  1.00  0.00    -0.217 N 
ATOM     35  H9  UNL     1       9.844  42.532  24.920  1.00  0.00     0.178 HD
BRANCH  34  36
HETATM   36  C11 UNL     1      10.378  41.594  23.159  1.00  0.00     0.036 C 
HETATM   37  C12 UNL     1       9.171  40.805  22.709  1.00  0.00     0.038 C 
HETATM   38  C13 UNL     1      10.249  43.008  22.562  1.00  0.00     0.038 C 
HETATM   39  C14 UNL     1      11.635  40.982  22.575  1.00  0.00     0.038 C 
ENDBRANCH  34  36
ENDBRANCH   7  34
TORSDOF 7
ENDMDL
MODEL 2
REMARK VINA RESULT: -9.502065192      1.208      1.323
REMARK  7 active torsions:
REMARK  status: ('A' for Active; 'I' for Inactive)
REMARK       I    between atoms: N1_2  and  C2_4 
REMARK    1  A    between atoms: C2_4  and  C3_6 
REMARK    2  A    between atoms: C4_9  and  N3_10 
REMARK    3  A    between atoms: N3_10  and  C5_12 
REMARK    4  A    between atoms: C6_15  and  N5_16 
REMARK    5  A    between atoms: N5_16  and  C7_18 
REMARK    6  A    between atoms: C10_28  and  N9_29 
REMARK    7  A    between atoms: N9_29  and  C11_31 
ROOT
HETATM    1  C5  UNL     1      11.832  40.971  26.256  1.00  0.00     0.713 A 
HETATM    2  N4  UNL     1      11.418  39.889  26.931  1.00  0.00    -0.021 N 
ATOM      3  H4  UNL     1      11.940  39.584  27.753  1.00  0.00     0.203 HD
HETATM    4  C6  UNL     1      10.330  39.197  26.547  1.00  0.00     0.713 A 
HETATM    5  N8  UNL     1       9.657  39.606  25.470  1.00  0.00    -0.021 N 
ATOM      6  H8  UNL     1       8.832  39.085  25.173  1.00  0.00     0.203 HD
HETATM    7  C10 UNL     1      10.044  40.703  24.754  1.00  0.00     0.707 A 
HETATM    8  N10 UNL     1      11.130  41.364  25.168  1.00  0.00    -0.021 N 
ATOM      9  H10 UNL     1      11.438  42.185  24.649  1.00  0.00     0.203 HD
ENDROOT
BRANCH   1  10
HETATM   10  N3  UNL     1      12.859  41.643  26.601  1.00  0.00    -0.174 N 
ATOM     11  H3  UNL     1      12.850  42.656  26.487  1.00  0.00     0.186 HD
BRANCH  10  12
HETATM   12  C4  UNL     1      14.016  41.018  27.139  1.00  0.00     0.138 A 
HETATM   13  N2  UNL     1      14.810  40.193  26.457  1.00  0.00    -0.322 N 
HETATM   14  C3  UNL     1      15.840  39.750  27.239  1.00  0.00     0.178 A 
ATOM     15  H2  UNL     1      14.669  39.927  25.482  1.00  0.00     0.169 HD
HETATM   16  N11 UNL     1      15.658  40.323  28.419  1.00  0.00    -0.339 N 
HETATM   17  C15 UNL     1      14.542  41.112  28.396  1.00  0.00     0.141 A 
HETATM   18  C16 UNL     1      16.501  40.163  29.599  1.00  0.00     0.157 C 
BRANCH  14  19
HETATM   19  C2  UNL     1      16.848  38.845  26.748  1.00  0.00     0.285 C 
HETATM   20  N1  UNL     1      18.168  38.747  27.199  1.00  0.00    -0.359 N 
HETATM   21  C1  UNL     1      19.040  37.742  26.551  1.00  0.00     0.149 C 
ATOM     22  H1  UNL     1      18.518  39.347  27.946  1.00  0.00     0.162 HD
HETATM   23  O1  UNL     1      16.499  38.041  25.797  1.00  0.00    -0.264 OA
ENDBRANCH  14  19
ENDBRANCH  10  12
ENDBRANCH   1  10
BRANCH   4  24
HETATM   24  N5  UNL     1       9.936  38.064  27.294  1.00  0.00    -0.168 N 
ATOM     25  H5  UNL     1       9.444  37.299  26.832  1.00  0.00     0.186 HD
BRANCH  24  26
HETATM   26  C7  UNL     1      10.202  37.990  28.579  1.00  0.00     0.180 A 
HETATM   27  N6  UNL     1       9.534  37.308  29.514  1.00  0.00    -0.279 N 
HETATM   28  N7  UNL     1       9.942  37.356  30.713  1.00  0.00    -0.296 N 
ATOM     29  H6  UNL     1       8.711  36.758  29.267  1.00  0.00     0.189 HD
HETATM   30  C8  UNL     1      11.011  38.071  31.031  1.00  0.00     0.066 A 
ATOM     31  H7  UNL     1       9.443  36.841  31.439  1.00  0.00     0.187 HD
HETATM   32  C9  UNL     1      11.660  38.264  32.373  1.00  0.00     0.078 C 
HETATM   33  S1  UNL     1      11.449  38.709  29.498  1.00  0.00    -0.038 SA
ENDBRANCH  24  26
ENDBRANCH   4  24
BRANCH   7  34
HETATM   34  N9  UNL     1       9.393  41.070  23.740  1.00  0.00    -0.217 N 
ATOM     35  H9  UNL     1       8.874  41.940  23.859  1.00  0.00     0.178 HD
BRANCH  34  36
HETATM   36  C11 UNL     1       9.261  40.472  22.458  1.00  0.00     0.036 C 
HETATM   37  C12 UNL     1       8.339  39.277  22.480  1.00  0.00     0.038 C 
HETATM   38  C13 UNL     1       8.611  41.536  21.553  1.00  0.00     0.038 C 
HETATM   39  C14 UNL     1      10.578  40.090  21.812  1.00  0.00     0.038 C 
ENDBRANCH  34  36
ENDBRANCH   7  34
TORSDOF 7
ENDMDL
MODEL 3
REMARK VINA RESULT: -9.350754213      1.463      1.559
REMARK  7 active torsions:
REMARK  status: ('A' for Active; 'I' for Inactive)
REMARK       I    between atoms: N1_2  and  C2_4 
REMARK    1  A    between atoms: C2_4  and  C3_6 
REMARK    2  A    between atoms: C4_9  and  N3_10 
REMARK    3  A    between atoms: N3_10  and  C5_12 
REMARK    4  A    between atoms: C6_15  and  N5_16 
REMARK    5  A    between atoms: N5_16  and  C7_18 
REMARK    6  A    between atoms: C10_28  and  N9_29 
REMARK    7  A    between atoms: N9_29  and  C11_31 
ROOT
HETATM    1  C5  UNL     1      12.478  40.724  25.883  1.00  0.00     0.713 A 
HETATM    2  N4  UNL     1      12.106  39.730  26.703  1.00  0.00    -0.021 N 
ATOM      3  H4  UNL     1      12.752  39.411  27.425  1.00  0.00     0.203 HD
HETATM    4  C6  UNL     1      10.899  39.145  26.593  1.00  0.00     0.713 A 
HETATM    5  N8  UNL     1      10.065  39.571  25.643  1.00  0.00    -0.021 N 
ATOM      6  H8  UNL     1       9.148  39.131  25.553  1.00  0.00     0.203 HD
HETATM    7  C10 UNL     1      10.404  40.581  24.788  1.00  0.00     0.707 A 
HETATM    8  N10 UNL     1      11.611  41.136  24.930  1.00  0.00    -0.021 N 
ATOM      9  H10 UNL     1      11.887  41.891  24.302  1.00  0.00     0.203 HD
ENDROOT
BRANCH   1  10
HETATM   10  N3  UNL     1      13.615  41.293  25.969  1.00  0.00    -0.174 N 
ATOM     11  H3  UNL     1      13.802  42.116  25.396  1.00  0.00     0.186 HD
BRANCH  10  12
HETATM   12  C4  UNL     1      14.629  40.812  26.840  1.00  0.00     0.138 A 
HETATM   13  N2  UNL     1      15.478  39.831  26.535  1.00  0.00    -0.322 N 
HETATM   14  C3  UNL     1      16.337  39.590  27.571  1.00  0.00     0.178 A 
ATOM     15  H2  UNL     1      15.487  39.327  25.648  1.00  0.00     0.169 HD
HETATM   16  N11 UNL     1      15.993  40.447  28.520  1.00  0.00    -0.339 N 
HETATM   17  C15 UNL     1      14.943  41.218  28.106  1.00  0.00     0.141 A 
HETATM   18  C16 UNL     1      16.618  40.584  29.832  1.00  0.00     0.157 C 
BRANCH  14  19
HETATM   19  C2  UNL     1      17.360  38.577  27.506  1.00  0.00     0.285 C 
HETATM   20  N1  UNL     1      18.409  38.512  26.583  1.00  0.00    -0.359 N 
HETATM   21  C1  UNL     1      19.353  37.379  26.699  1.00  0.00     0.149 C 
ATOM     22  H1  UNL     1      18.519  39.220  25.858  1.00  0.00     0.162 HD
HETATM   23  O1  UNL     1      17.305  37.633  28.389  1.00  0.00    -0.264 OA
ENDBRANCH  14  19
ENDBRANCH  10  12
ENDBRANCH   1  10
BRANCH   4  24
HETATM   24  N5  UNL     1      10.556  38.102  27.482  1.00  0.00    -0.168 N 
ATOM     25  H5  UNL     1      10.104  37.260  27.125  1.00  0.00     0.186 HD
BRANCH  24  26
HETATM   26  C7  UNL     1      10.817  38.210  28.766  1.00  0.00     0.180 A 
HETATM   27  N6  UNL     1      11.602  39.107  29.368  1.00  0.00    -0.279 N 
HETATM   28  N7  UNL     1      11.735  39.055  30.627  1.00  0.00    -0.296 N 
ATOM     29  H6  UNL     1      12.086  39.822  28.824  1.00  0.00     0.189 HD
HETATM   30  C8  UNL     1      11.105  38.126  31.331  1.00  0.00     0.066 A 
ATOM     31  H7  UNL     1      12.330  39.733  31.103  1.00  0.00     0.187 HD
HETATM   32  C9  UNL     1      11.120  37.885  32.815  1.00  0.00     0.078 C 
HETATM   33  S1  UNL     1      10.272  37.280  30.090  1.00  0.00    -0.038 SA
ENDBRANCH  24  26
ENDBRANCH   4  24
BRANCH   7  34
HETATM   34  N9  UNL     1       9.599  40.966  23.898  1.00  0.00    -0.217 N 
ATOM     35  H9  UNL     1       9.047  41.787  24.150  1.00  0.00     0.178 HD
BRANCH  34  36
HETATM   36  C11 UNL     1       9.331  40.447  22.603  1.00  0.00     0.036 C 
HETATM   37  C12 UNL     1       8.352  39.298  22.642  1.00  0.00     0.038 C 
HETATM   38  C13 UNL     1       8.667  41.589  21.812  1.00  0.00     0.038 C 
HETATM   39  C14 UNL     1      10.569  40.037  21.831  1.00  0.00     0.038 C 
ENDBRANCH  34  36
ENDBRANCH   7  34
TORSDOF 7
ENDMDL
MODEL 4
REMARK VINA RESULT: -9.288401988      1.124      1.198
REMARK  7 active torsions:
REMARK  status: ('A' for Active; 'I' for Inactive)
REMARK       I    between atoms: N1_2  and  C2_4 
REMARK    1  A    between atoms: C2_4  and  C3_6 
REMARK    2  A    between atoms: C4_9  and  N3_10 
REMARK    3  A    between atoms: N3_10  and  C5_12 
REMARK    4  A    between atoms: C6_15  and  N5_16 
REMARK    5  A    between atoms: N5_16  and  C7_18 
REMARK    6  A    between atoms: C10_28  and  N9_29 
REMARK    7  A    between atoms: N9_29  and  C11_31 
ROOT
HETATM    1  C5  UNL     1      13.589  41.067  26.306  1.00  0.00     0.713 A 
HETATM    2  N4  UNL     1      12.730  40.171  26.813  1.00  0.00    -0.021 N 
ATOM      3  H4  UNL     1      12.957  39.704  27.691  1.00  0.00     0.203 HD
HETATM    4  C6  UNL     1      11.575  39.875  26.189  1.00  0.00     0.713 A 
HETATM    5  N8  UNL     1      11.291  40.493  25.041  1.00  0.00    -0.021 N 
ATOM      6  H8  UNL     1      10.418  40.273  24.561  1.00  0.00     0.203 HD
HETATM    7  C10 UNL     1      12.138  41.412  24.490  1.00  0.00     0.707 A 
HETATM    8  N10 UNL     1      13.275  41.678  25.141  1.00  0.00    -0.021 N 
ATOM      9  H10 UNL     1      13.923  42.360  24.749  1.00  0.00     0.203 HD
ENDROOT
BRANCH   1  10
HETATM   10  N3  UNL     1      14.688  41.363  26.880  1.00  0.00    -0.174 N 
ATOM     11  H3  UNL     1      14.906  42.344  27.059  1.00  0.00     0.186 HD
BRANCH  10  12
HETATM   12  C4  UNL     1      15.618  40.365  27.278  1.00  0.00     0.138 A 
HETATM   13  N2  UNL     1      16.525  39.818  26.468  1.00  0.00    -0.322 N 
HETATM   14  C3  UNL     1      17.275  38.890  27.134  1.00  0.00     0.178 A 
ATOM     15  H2  UNL     1      16.644  40.060  25.484  1.00  0.00     0.169 HD
HETATM   16  N11 UNL     1      16.806  38.879  28.372  1.00  0.00    -0.339 N 
HETATM   17  C15 UNL     1      15.782  39.776  28.499  1.00  0.00     0.141 A 
HETATM   18  C16 UNL     1      17.282  38.048  29.473  1.00  0.00     0.157 C 
BRANCH  14  19
HETATM   19  C2  UNL     1      18.331  38.146  26.493  1.00  0.00     0.285 C 
HETATM   20  N1  UNL     1      19.174  37.209  27.099  1.00  0.00    -0.359 N 
HETATM   21  C1  UNL     1      20.196  36.559  26.249  1.00  0.00     0.149 C 
ATOM     22  H1  UNL     1      19.087  36.982  28.089  1.00  0.00     0.162 HD
HETATM   23  O1  UNL     1      18.518  38.367  25.232  1.00  0.00    -0.264 OA
ENDBRANCH  14  19
ENDBRANCH  10  12
ENDBRANCH   1  10
BRANCH   4  24
HETATM   24  N5  UNL     1      10.705  38.924  26.766  1.00  0.00    -0.168 N 
ATOM     25  H5  UNL     1       9.952  38.521  26.207  1.00  0.00     0.186 HD
BRANCH  24  26
HETATM   26  C7  UNL     1      10.858  38.556  28.018  1.00  0.00     0.180 A 
HETATM   27  N6  UNL     1      10.476  37.409  28.586  1.00  0.00    -0.279 N 
HETATM   28  N7  UNL     1      10.712  37.229  29.819  1.00  0.00    -0.296 N 
ATOM     29  H6  UNL     1      10.004  36.690  28.038  1.00  0.00     0.189 HD
HETATM   30  C8  UNL     1      11.326  38.165  30.528  1.00  0.00     0.066 A 
ATOM     31  H7  UNL     1      10.427  36.359  30.268  1.00  0.00     0.187 HD
HETATM   32  C9  UNL     1      11.700  38.159  31.985  1.00  0.00     0.078 C 
HETATM   33  S1  UNL     1      11.576  39.374  29.335  1.00  0.00    -0.038 SA
ENDBRANCH  24  26
ENDBRANCH   4  24
BRANCH   7  34
HETATM   34  N9  UNL     1      11.849  41.982  23.404  1.00  0.00    -0.217 N 
ATOM     35  H9  UNL     1      11.434  42.908  23.507  1.00  0.00     0.178 HD
BRANCH  34  36
HETATM   36  C11 UNL     1      12.004  41.549  22.060  1.00  0.00     0.036 C 
HETATM   37  C12 UNL     1      10.722  40.991  21.491  1.00  0.00     0.038 C 
HETATM   38  C13 UNL     1      12.360  42.804  21.243  1.00  0.00     0.038 C 
HETATM   39  C14 UNL     1      13.130  40.555  21.854  1.00  0.00     0.038 C 
ENDBRANCH  34  36
ENDBRANCH   7  34
TORSDOF 7
ENDMDL
MODEL 5
REMARK VINA RESULT: -9.245138211      1.051      1.537
REMARK  7 active torsions:
REMARK  status: ('A' for Active; 'I' for Inactive)
REMARK       I    between atoms: N1_2  and  C2_4 
REMARK    1  A    between atoms: C2_4  and  C3_6 
REMARK    2  A    between atoms: C4_9  and  N3_10 
REMARK    3  A    between atoms: N3_10  and  C5_12 
REMARK    4  A    between atoms: C6_15  and  N5_16 
REMARK    5  A    between atoms: N5_16  and  C7_18 
REMARK    6  A    between atoms: C10_28  and  N9_29 
REMARK    7  A    between atoms: N9_29  and  C11_31 
ROOT
HETATM    1  C5  UNL     1      12.882  40.548  26.718  1.00  0.00     0.713 A 
HETATM    2  N4  UNL     1      12.316  39.474  27.287  1.00  0.00    -0.021 N 
ATOM      3  H4  UNL     1      12.841  38.942  27.982  1.00  0.00     0.203 HD
HETATM    4  C6  UNL     1      11.071  39.081  26.960  1.00  0.00     0.713 A 
HETATM    5  N8  UNL     1      10.396  39.785  26.049  1.00  0.00    -0.021 N 
ATOM      6  H8  UNL     1       9.452  39.493  25.796  1.00  0.00     0.203 HD
HETATM    7  C10 UNL     1      10.935  40.886  25.446  1.00  0.00     0.707 A 
HETATM    8  N10 UNL     1      12.174  41.243  25.798  1.00  0.00    -0.021 N 
ATOM      9  H10 UNL     1      12.597  42.061  25.361  1.00  0.00     0.203 HD
ENDROOT
BRANCH   1  10
HETATM   10  N3  UNL     1      14.059  40.939  27.012  1.00  0.00    -0.174 N 
ATOM     11  H3  UNL     1      14.176  41.756  27.611  1.00  0.00     0.186 HD
BRANCH  10  12
HETATM   12  C4  UNL     1      15.214  40.266  26.529  1.00  0.00     0.138 A 
HETATM   13  N2  UNL     1      16.021  39.522  27.285  1.00  0.00    -0.322 N 
HETATM   14  C3  UNL     1      17.045  39.005  26.542  1.00  0.00     0.178 A 
ATOM     15  H2  UNL     1      15.893  39.360  28.284  1.00  0.00     0.169 HD
HETATM   16  N11 UNL     1      16.846  39.451  25.310  1.00  0.00    -0.339 N 
HETATM   17  C15 UNL     1      15.727  40.233  25.263  1.00  0.00     0.141 A 
HETATM   18  C16 UNL     1      17.677  39.172  24.143  1.00  0.00     0.157 C 
BRANCH  14  19
HETATM   19  C2  UNL     1      18.064  38.161  27.112  1.00  0.00     0.285 C 
HETATM   20  N1  UNL     1      18.993  37.387  26.409  1.00  0.00    -0.359 N 
HETATM   21  C1  UNL     1      19.957  36.590  27.199  1.00  0.00     0.149 C 
ATOM     22  H1  UNL     1      19.005  37.372  25.390  1.00  0.00     0.162 HD
HETATM   23  O1  UNL     1      18.128  38.113  28.404  1.00  0.00    -0.264 OA
ENDBRANCH  14  19
ENDBRANCH  10  12
ENDBRANCH   1  10
BRANCH   4  24
HETATM   24  N5  UNL     1      10.521  37.942  27.589  1.00  0.00    -0.168 N 
ATOM     25  H5  UNL     1      10.070  37.221  27.026  1.00  0.00     0.186 HD
BRANCH  24  26
HETATM   26  C7  UNL     1      10.587  37.806  28.895  1.00  0.00     0.180 A 
HETATM   27  N6  UNL     1       9.980  36.890  29.654  1.00  0.00    -0.279 N 
HETATM   28  N7  UNL     1      10.164  36.916  30.908  1.00  0.00    -0.296 N 
ATOM     29  H6  UNL     1       9.380  36.181  29.232  1.00  0.00     0.189 HD
HETATM   30  C8  UNL     1      10.945  37.837  31.453  1.00  0.00     0.066 A 
ATOM     31  H7  UNL     1       9.708  36.223  31.501  1.00  0.00     0.187 HD
HETATM   32  C9  UNL     1      11.298  38.048  32.899  1.00  0.00     0.078 C 
HETATM   33  S1  UNL     1      11.441  38.715  30.062  1.00  0.00    -0.038 SA
ENDBRANCH  24  26
ENDBRANCH   4  24
BRANCH   7  34
HETATM   34  N9  UNL     1      10.278  41.534  24.588  1.00  0.00    -0.217 N 
ATOM     35  H9  UNL     1       9.644  42.232  24.976  1.00  0.00     0.178 HD
BRANCH  34  36
HETATM   36  C11 UNL     1      10.274  41.453  23.170  1.00  0.00     0.036 C 
HETATM   37  C12 UNL     1       9.050  40.741  22.645  1.00  0.00     0.038 C 
HETATM   38  C13 UNL     1      10.216  42.904  22.657  1.00  0.00     0.038 C 
HETATM   39  C14 UNL     1      11.522  40.827  22.580  1.00  0.00     0.038 C 
ENDBRANCH  34  36
ENDBRANCH   7  34
TORSDOF 7
ENDMDL
