MODEL 1
REMARK VINA RESULT: -7.591109845      0.000      0.000
REMARK  6 active torsions:
REMARK  status: ('A' for Active; 'I' for Inactive)
REMARK    1  A    between atoms: N1_2  and  C2_5 
REMARK    2  A    between atoms: N2_10  and  C7_11 
REMARK    3  A    between atoms: C7_11  and  C8_12 
REMARK    4  A    between atoms: C8_12  and  C9_13 
REMARK    5  A    between atoms: C9_13  and  C10_14 
REMARK    6  A    between atoms: C12_19  and  C13_20 
ROOT
HETATM    1  C7  UNL     1      29.682   1.713  55.996  1.00  0.00     0.011 C 
HETATM    2  C17 UNL     1      29.898   0.860  55.010  1.00  0.00    -0.053 C 
HETATM    3  C18 UNL     1      28.761   0.676  54.068  1.00  0.00     0.041 C 
HETATM    4  C19 UNL     1      29.114  -0.011  52.786  1.00  0.00    -0.010 C 
HETATM    5  C20 UNL     1      30.184   0.656  51.993  1.00  0.00     0.009 C 
HETATM    6  C21 UNL     1      31.575   0.228  52.373  1.00  0.00    -0.013 C 
HETATM    7  C22 UNL     1      31.671  -1.266  52.277  1.00  0.00     0.009 C 
HETATM    8  C23 UNL     1      30.707  -1.833  53.279  1.00  0.00    -0.013 C 
HETATM    9  C24 UNL     1      29.279  -1.502  52.916  1.00  0.00     0.009 C 
HETATM   10  C25 UNL     1      30.933  -1.383  54.677  1.00  0.00     0.013 C 
HETATM   11  C26 UNL     1      31.150   0.098  54.866  1.00  0.00     0.017 C 
HETATM   12  C27 UNL     1      31.962   0.656  53.754  1.00  0.00     0.013 C 
ENDROOT
BRANCH   1  13
HETATM   13  N2  UNL     1      30.635   2.057  57.024  1.00  0.00    -0.369 N 
HETATM   14  C5  UNL     1      31.263   3.389  56.908  1.00  0.00     0.081 C 
HETATM   15  C4  UNL     1      31.609   4.079  58.156  1.00  0.00     0.027 C 
HETATM   16  C6  UNL     1      32.397   3.406  55.904  1.00  0.00     0.032 C 
HETATM   17  C3  UNL     1      31.406   3.392  59.438  1.00  0.00     0.037 C 
HETATM   18  C2  UNL     1      30.743   2.071  59.391  1.00  0.00     0.212 C 
HETATM   19  C28 UNL     1      31.054   1.273  58.121  1.00  0.00     0.054 C 
HETATM   20  C29 UNL     1      30.426  -0.067  58.336  1.00  0.00     0.040 C 
HETATM   21  C30 UNL     1      32.571   1.018  58.187  1.00  0.00     0.040 C 
BRANCH  18  22
HETATM   22  N1  UNL     1      31.206   1.265  60.517  1.00  0.00    -0.072 N 
HETATM   23  C1  UNL     1      30.703   1.816  61.776  1.00  0.00     0.267 C 
ATOM     24  H12 UNL     1      32.222   1.167  60.524  1.00  0.00     0.277 HD
ATOM     25  H11 UNL     1      30.961   0.281  60.407  1.00  0.00     0.277 HD
ENDBRANCH  18  22
ENDBRANCH   1  13
BRANCH   1  26
HETATM   26  C8  UNL     1      28.322   2.282  56.113  1.00  0.00     0.059 C 
BRANCH  26  27
HETATM   27  C9  UNL     1      27.544   1.971  57.331  1.00  0.00     0.041 C 
BRANCH  27  28
HETATM   28  C10 UNL     1      26.174   1.434  57.009  1.00  0.00     0.177 C 
HETATM   29  N3  UNL     1      25.498   2.257  56.043  1.00  0.00    -0.346 N 
HETATM   30  C11 UNL     1      24.057   2.303  56.029  1.00  0.00     0.241 C 
ATOM     31  H3  UNL     1      26.036   2.805  55.371  1.00  0.00     0.163 HD
HETATM   32  O1  UNL     1      23.434   3.032  55.236  1.00  0.00    -0.271 OA
HETATM   33  C12 UNL     1      23.316   1.461  56.982  1.00  0.00     0.180 C 
HETATM   34  N4  UNL     1      23.973   1.526  58.274  1.00  0.00    -0.346 N 
HETATM   35  C16 UNL     1      25.393   1.454  58.297  1.00  0.00     0.241 C 
ATOM     36  H4  UNL     1      23.436   1.620  59.136  1.00  0.00     0.163 HD
HETATM   37  O2  UNL     1      25.956   1.408  59.420  1.00  0.00    -0.271 OA
BRANCH  33  38
HETATM   38  C13 UNL     1      21.872   1.832  57.116  1.00  0.00     0.009 C 
HETATM   39  C14 UNL     1      21.074   1.388  55.916  1.00  0.00     0.012 C 
HETATM   40  C15 UNL     1      21.337   1.078  58.340  1.00  0.00     0.012 C 
ENDBRANCH  33  38
ENDBRANCH  27  28
ENDBRANCH  26  27
ENDBRANCH   1  26
TORSDOF 6
ENDMDL
MODEL 2
REMARK VINA RESULT: -7.444917356      2.793      6.931
REMARK  6 active torsions:
REMARK  status: ('A' for Active; 'I' for Inactive)
REMARK    1  A    between atoms: N1_2  and  C2_5 
REMARK    2  A    between atoms: N2_10  and  C7_11 
REMARK    3  A    between atoms: C7_11  and  C8_12 
REMARK    4  A    between atoms: C8_12  and  C9_13 
REMARK    5  A    between atoms: C9_13  and  C10_14 
REMARK    6  A    between atoms: C12_19  and  C13_20 
ROOT
HETATM    1  C7  UNL     1      30.506   0.733  56.931  1.00  0.00     0.011 C 
HETATM    2  C17 UNL     1      30.546   0.346  55.669  1.00  0.00    -0.053 C 
HETATM    3  C18 UNL     1      31.478  -0.777  55.376  1.00  0.00     0.041 C 
HETATM    4  C19 UNL     1      31.275  -1.430  54.045  1.00  0.00    -0.010 C 
HETATM    5  C20 UNL     1      29.908  -1.977  53.819  1.00  0.00     0.009 C 
HETATM    6  C21 UNL     1      28.941  -0.975  53.250  1.00  0.00    -0.013 C 
HETATM    7  C22 UNL     1      29.517  -0.397  51.991  1.00  0.00     0.009 C 
HETATM    8  C23 UNL     1      30.778   0.321  52.374  1.00  0.00    -0.013 C 
HETATM    9  C24 UNL     1      31.825  -0.640  52.886  1.00  0.00     0.009 C 
HETATM   10  C25 UNL     1      30.598   1.381  53.401  1.00  0.00     0.013 C 
HETATM   11  C26 UNL     1      29.768   1.000  54.602  1.00  0.00     0.017 C 
HETATM   12  C27 UNL     1      28.627   0.138  54.200  1.00  0.00     0.013 C 
ENDROOT
BRANCH   1  13
HETATM   13  N2  UNL     1      29.677   1.794  57.451  1.00  0.00    -0.369 N 
HETATM   14  C5  UNL     1      30.259   3.151  57.413  1.00  0.00     0.081 C 
HETATM   15  C4  UNL     1      29.335   4.273  57.210  1.00  0.00     0.027 C 
HETATM   16  C6  UNL     1      31.224   3.396  58.554  1.00  0.00     0.032 C 
HETATM   17  C3  UNL     1      27.891   4.013  57.147  1.00  0.00     0.037 C 
HETATM   18  C2  UNL     1      27.465   2.597  57.175  1.00  0.00     0.212 C 
HETATM   19  C28 UNL     1      28.382   1.696  58.006  1.00  0.00     0.054 C 
HETATM   20  C29 UNL     1      27.705   0.363  58.032  1.00  0.00     0.040 C 
HETATM   21  C30 UNL     1      28.256   2.236  59.442  1.00  0.00     0.040 C 
BRANCH  18  22
HETATM   22  N1  UNL     1      26.136   2.510  57.774  1.00  0.00    -0.072 N 
HETATM   23  C1  UNL     1      25.385   3.741  57.522  1.00  0.00     0.267 C 
ATOM     24  H12 UNL     1      26.180   2.289  58.769  1.00  0.00     0.277 HD
ATOM     25  H11 UNL     1      25.629   1.684  57.458  1.00  0.00     0.277 HD
ENDBRANCH  18  22
ENDBRANCH   1  13
BRANCH   1  26
HETATM   26  C8  UNL     1      31.461   0.097  57.864  1.00  0.00     0.059 C 
BRANCH  26  27
HETATM   27  C9  UNL     1      31.066  -0.026  59.283  1.00  0.00     0.041 C 
BRANCH  27  28
HETATM   28  C10 UNL     1      32.229   0.178  60.218  1.00  0.00     0.177 C 
HETATM   29  N3  UNL     1      32.833  -1.072  60.589  1.00  0.00    -0.346 N 
HETATM   30  C11 UNL     1      33.517  -1.186  61.853  1.00  0.00     0.241 C 
ATOM     31  H3  UNL     1      32.778  -1.874  59.961  1.00  0.00     0.163 HD
HETATM   32  O1  UNL     1      34.018  -2.261  62.231  1.00  0.00    -0.271 OA
HETATM   33  C12 UNL     1      33.616   0.007  62.711  1.00  0.00     0.180 C 
HETATM   34  N4  UNL     1      32.341   0.698  62.701  1.00  0.00    -0.346 N 
HETATM   35  C16 UNL     1      31.674   0.838  61.454  1.00  0.00     0.241 C 
ATOM     36  H4  UNL     1      31.937   1.071  63.560  1.00  0.00     0.163 HD
HETATM   37  O2  UNL     1      30.621   1.524  61.429  1.00  0.00    -0.271 OA
BRANCH  33  38
HETATM   38  C13 UNL     1      34.032  -0.296  64.116  1.00  0.00     0.009 C 
HETATM   39  C14 UNL     1      35.499  -0.022  64.330  1.00  0.00     0.012 C 
HETATM   40  C15 UNL     1      33.241   0.656  65.023  1.00  0.00     0.012 C 
ENDBRANCH  33  38
ENDBRANCH  27  28
ENDBRANCH  26  27
ENDBRANCH   1  26
TORSDOF 6
ENDMDL
MODEL 3
REMARK VINA RESULT: -7.442142928      1.203      2.236
REMARK  6 active torsions:
REMARK  status: ('A' for Active; 'I' for Inactive)
REMARK    1  A    between atoms: N1_2  and  C2_5 
REMARK    2  A    between atoms: N2_10  and  C7_11 
REMARK    3  A    between atoms: C7_11  and  C8_12 
REMARK    4  A    between atoms: C8_12  and  C9_13 
REMARK    5  A    between atoms: C9_13  and  C10_14 
REMARK    6  A    between atoms: C12_19  and  C13_20 
ROOT
HETATM    1  C7  UNL     1      29.957   1.033  55.513  1.00  0.00     0.011 C 
HETATM    2  C17 UNL     1      30.107   0.217  54.485  1.00  0.00    -0.053 C 
HETATM    3  C18 UNL     1      29.032   0.280  53.458  1.00  0.00     0.041 C 
HETATM    4  C19 UNL     1      29.367  -0.378  52.157  1.00  0.00    -0.010 C 
HETATM    5  C20 UNL     1      30.589   0.148  51.487  1.00  0.00     0.009 C 
HETATM    6  C21 UNL     1      31.859  -0.528  51.927  1.00  0.00    -0.013 C 
HETATM    7  C22 UNL     1      31.719  -2.009  51.732  1.00  0.00     0.009 C 
HETATM    8  C23 UNL     1      30.602  -2.466  52.623  1.00  0.00    -0.013 C 
HETATM    9  C24 UNL     1      29.278  -1.881  52.191  1.00  0.00     0.009 C 
HETATM   10  C25 UNL     1      30.788  -2.144  54.063  1.00  0.00     0.013 C 
HETATM   11  C26 UNL     1      31.227  -0.734  54.370  1.00  0.00     0.017 C 
HETATM   12  C27 UNL     1      32.202  -0.254  53.358  1.00  0.00     0.013 C 
ENDROOT
BRANCH   1  13
HETATM   13  N2  UNL     1      30.870   1.151  56.624  1.00  0.00    -0.369 N 
HETATM   14  C5  UNL     1      30.947  -0.014  57.529  1.00  0.00     0.081 C 
HETATM   15  C4  UNL     1      32.243  -0.293  58.157  1.00  0.00     0.027 C 
HETATM   16  C6  UNL     1      29.803  -0.048  58.521  1.00  0.00     0.032 C 
HETATM   17  C3  UNL     1      33.362   0.633  57.937  1.00  0.00     0.037 C 
HETATM   18  C2  UNL     1      33.137   1.740  56.984  1.00  0.00     0.212 C 
HETATM   19  C28 UNL     1      31.692   2.248  56.963  1.00  0.00     0.054 C 
HETATM   20  C29 UNL     1      31.709   3.445  56.066  1.00  0.00     0.040 C 
HETATM   21  C30 UNL     1      31.459   2.812  58.377  1.00  0.00     0.040 C 
BRANCH  18  22
HETATM   22  N1  UNL     1      33.974   2.875  57.365  1.00  0.00    -0.072 N 
HETATM   23  C1  UNL     1      35.256   2.405  57.890  1.00  0.00     0.267 C 
ATOM     24  H12 UNL     1      33.500   3.496  58.020  1.00  0.00     0.277 HD
ATOM     25  H11 UNL     1      34.097   3.533  56.595  1.00  0.00     0.277 HD
ENDBRANCH  18  22
ENDBRANCH   1  13
BRANCH   1  26
HETATM   26  C8  UNL     1      28.701   1.813  55.580  1.00  0.00     0.059 C 
BRANCH  26  27
HETATM   27  C9  UNL     1      27.957   1.820  56.857  1.00  0.00     0.041 C 
BRANCH  27  28
HETATM   28  C10 UNL     1      26.535   1.354  56.689  1.00  0.00     0.177 C 
HETATM   29  N3  UNL     1      25.778   2.256  55.864  1.00  0.00    -0.346 N 
HETATM   30  C11 UNL     1      24.350   2.357  56.042  1.00  0.00     0.241 C 
ATOM     31  H3  UNL     1      26.249   2.822  55.158  1.00  0.00     0.163 HD
HETATM   32  O1  UNL     1      23.663   3.153  55.378  1.00  0.00    -0.271 OA
HETATM   33  C12 UNL     1      23.701   1.488  57.038  1.00  0.00     0.180 C 
HETATM   34  N4  UNL     1      24.522   1.453  58.234  1.00  0.00    -0.346 N 
HETATM   35  C16 UNL     1      25.928   1.327  58.067  1.00  0.00     0.241 C 
ATOM     36  H4  UNL     1      24.104   1.517  59.163  1.00  0.00     0.163 HD
HETATM   37  O2  UNL     1      26.628   1.195  59.103  1.00  0.00    -0.271 OA
BRANCH  33  38
HETATM   38  C13 UNL     1      22.305   1.904  57.379  1.00  0.00     0.009 C 
HETATM   39  C14 UNL     1      21.301   1.302  56.429  1.00  0.00     0.012 C 
HETATM   40  C15 UNL     1      22.012   1.353  58.781  1.00  0.00     0.012 C 
ENDBRANCH  33  38
ENDBRANCH  27  28
ENDBRANCH  26  27
ENDBRANCH   1  26
TORSDOF 6
ENDMDL
MODEL 4
REMARK VINA RESULT: -7.413845950      1.122      2.271
REMARK  6 active torsions:
REMARK  status: ('A' for Active; 'I' for Inactive)
REMARK    1  A    between atoms: N1_2  and  C2_5 
REMARK    2  A    between atoms: N2_10  and  C7_11 
REMARK    3  A    between atoms: C7_11  and  C8_12 
REMARK    4  A    between atoms: C8_12  and  C9_13 
REMARK    5  A    between atoms: C9_13  and  C10_14 
REMARK    6  A    between atoms: C12_19  and  C13_20 
ROOT
HETATM    1  C7  UNL     1      29.939   0.900  56.902  1.00  0.00     0.011 C 
HETATM    2  C17 UNL     1      30.044   0.325  55.718  1.00  0.00    -0.053 C 
HETATM    3  C18 UNL     1      28.788  -0.267  55.182  1.00  0.00     0.041 C 
HETATM    4  C19 UNL     1      28.826  -0.606  53.725  1.00  0.00    -0.010 C 
HETATM    5  C20 UNL     1      29.144   0.537  52.825  1.00  0.00     0.009 C 
HETATM    6  C21 UNL     1      30.617   0.748  52.609  1.00  0.00    -0.013 C 
HETATM    7  C22 UNL     1      31.227  -0.530  52.112  1.00  0.00     0.009 C 
HETATM    8  C23 UNL     1      31.044  -1.554  53.193  1.00  0.00    -0.013 C 
HETATM    9  C24 UNL     1      29.584  -1.869  53.411  1.00  0.00     0.009 C 
HETATM   10  C25 UNL     1      31.625  -1.175  54.508  1.00  0.00     0.013 C 
HETATM   11  C26 UNL     1      31.319   0.222  54.985  1.00  0.00     0.017 C 
HETATM   12  C27 UNL     1      31.333   1.180  53.850  1.00  0.00     0.013 C 
ENDROOT
BRANCH   1  13
HETATM   13  N2  UNL     1      31.015   1.543  57.616  1.00  0.00    -0.369 N 
HETATM   14  C5  UNL     1      31.802   0.680  58.520  1.00  0.00     0.081 C 
HETATM   15  C4  UNL     1      33.226   0.994  58.679  1.00  0.00     0.027 C 
HETATM   16  C6  UNL     1      31.108   0.453  59.847  1.00  0.00     0.032 C 
HETATM   17  C3  UNL     1      33.778   2.185  58.018  1.00  0.00     0.037 C 
HETATM   18  C2  UNL     1      32.870   2.934  57.125  1.00  0.00     0.212 C 
HETATM   19  C28 UNL     1      31.404   2.900  57.569  1.00  0.00     0.054 C 
HETATM   20  C29 UNL     1      30.690   3.826  56.637  1.00  0.00     0.040 C 
HETATM   21  C30 UNL     1      31.396   3.618  58.930  1.00  0.00     0.040 C 
BRANCH  18  22
HETATM   22  N1  UNL     1      33.270   4.339  57.107  1.00  0.00    -0.072 N 
HETATM   23  C1  UNL     1      34.726   4.452  57.191  1.00  0.00     0.267 C 
ATOM     24  H12 UNL     1      32.804   4.877  57.838  1.00  0.00     0.277 HD
ATOM     25  H11 UNL     1      32.896   4.831  56.296  1.00  0.00     0.277 HD
ENDBRANCH  18  22
ENDBRANCH   1  13
BRANCH   1  26
HETATM   26  C8  UNL     1      28.637   0.785  57.596  1.00  0.00     0.059 C 
BRANCH  26  27
HETATM   27  C9  UNL     1      27.687   1.912  57.479  1.00  0.00     0.041 C 
BRANCH  27  28
HETATM   28  C10 UNL     1      26.314   1.457  57.059  1.00  0.00     0.177 C 
HETATM   29  N3  UNL     1      25.756   2.321  56.054  1.00  0.00    -0.346 N 
HETATM   30  C11 UNL     1      24.325   2.451  55.941  1.00  0.00     0.241 C 
ATOM     31  H3  UNL     1      26.370   2.839  55.426  1.00  0.00     0.163 HD
HETATM   32  O1  UNL     1      23.801   3.219  55.113  1.00  0.00    -0.271 OA
HETATM   33  C12 UNL     1      23.472   1.651  56.835  1.00  0.00     0.180 C 
HETATM   34  N4  UNL     1      24.040   1.672  58.169  1.00  0.00    -0.346 N 
HETATM   35  C16 UNL     1      25.448   1.517  58.290  1.00  0.00     0.241 C 
ATOM     36  H4  UNL     1      23.451   1.795  58.992  1.00  0.00     0.163 HD
HETATM   37  O2  UNL     1      25.929   1.434  59.449  1.00  0.00    -0.271 OA
BRANCH  33  38
HETATM   38  C13 UNL     1      22.046   2.105  56.871  1.00  0.00     0.009 C 
HETATM   39  C14 UNL     1      21.352   1.853  55.557  1.00  0.00     0.012 C 
HETATM   40  C15 UNL     1      21.343   1.259  57.942  1.00  0.00     0.012 C 
ENDBRANCH  33  38
ENDBRANCH  27  28
ENDBRANCH  26  27
ENDBRANCH   1  26
TORSDOF 6
ENDMDL
MODEL 5
REMARK VINA RESULT: -7.402290831      2.958      5.716
REMARK  6 active torsions:
REMARK  status: ('A' for Active; 'I' for Inactive)
REMARK    1  A    between atoms: N1_2  and  C2_5 
REMARK    2  A    between atoms: N2_10  and  C7_11 
REMARK    3  A    between atoms: C7_11  and  C8_12 
REMARK    4  A    between atoms: C8_12  and  C9_13 
REMARK    5  A    between atoms: C9_13  and  C10_14 
REMARK    6  A    between atoms: C12_19  and  C13_20 
ROOT
HETATM    1  C7  UNL     1      28.095   2.284  56.661  1.00  0.00     0.011 C 
HETATM    2  C17 UNL     1      28.772   1.786  55.641  1.00  0.00    -0.053 C 
HETATM    3  C18 UNL     1      30.102   1.212  55.980  1.00  0.00     0.041 C 
HETATM    4  C19 UNL     1      30.707   0.358  54.910  1.00  0.00    -0.010 C 
HETATM    5  C20 UNL     1      29.871  -0.798  54.485  1.00  0.00     0.009 C 
HETATM    6  C21 UNL     1      28.893  -0.469  53.390  1.00  0.00    -0.013 C 
HETATM    7  C22 UNL     1      29.638   0.127  52.231  1.00  0.00     0.009 C 
HETATM    8  C23 UNL     1      30.258   1.404  52.717  1.00  0.00    -0.013 C 
HETATM    9  C24 UNL     1      31.308   1.139  53.770  1.00  0.00     0.009 C 
HETATM   10  C25 UNL     1      29.293   2.385  53.278  1.00  0.00     0.013 C 
HETATM   11  C26 UNL     1      28.283   1.832  54.252  1.00  0.00     0.017 C 
HETATM   12  C27 UNL     1      27.826   0.485  53.827  1.00  0.00     0.013 C 
ENDROOT
BRANCH   1  13
HETATM   13  N2  UNL     1      26.786   2.886  56.578  1.00  0.00    -0.369 N 
HETATM   14  C5  UNL     1      26.654   4.029  55.651  1.00  0.00     0.081 C 
HETATM   15  C4  UNL     1      25.363   4.201  54.976  1.00  0.00     0.027 C 
HETATM   16  C6  UNL     1      27.168   5.320  56.254  1.00  0.00     0.032 C 
HETATM   17  C3  UNL     1      24.250   3.303  55.311  1.00  0.00     0.037 C 
HETATM   18  C2  UNL     1      24.546   2.190  56.239  1.00  0.00     0.212 C 
HETATM   19  C28 UNL     1      25.616   2.527  57.282  1.00  0.00     0.054 C 
HETATM   20  C29 UNL     1      25.656   1.347  58.199  1.00  0.00     0.040 C 
HETATM   21  C30 UNL     1      24.996   3.662  58.118  1.00  0.00     0.040 C 
BRANCH  18  22
HETATM   22  N1  UNL     1      23.333   1.849  56.977  1.00  0.00    -0.072 N 
HETATM   23  C1  UNL     1      22.148   2.175  56.183  1.00  0.00     0.267 C 
ATOM     24  H12 UNL     1      23.309   2.291  57.896  1.00  0.00     0.277 HD
ATOM     25  H11 UNL     1      23.332   0.874  57.279  1.00  0.00     0.277 HD
ENDBRANCH  18  22
ENDBRANCH   1  13
BRANCH   1  26
HETATM   26  C8  UNL     1      28.777   2.319  57.973  1.00  0.00     0.059 C 
BRANCH  26  27
HETATM   27  C9  UNL     1      29.261   3.625  58.468  1.00  0.00     0.041 C 
BRANCH  27  28
HETATM   28  C10 UNL     1      28.877   3.868  59.903  1.00  0.00     0.177 C 
HETATM   29  N3  UNL     1      27.823   2.985  60.324  1.00  0.00    -0.346 N 
HETATM   30  C11 UNL     1      26.925   3.396  61.375  1.00  0.00     0.241 C 
ATOM     31  H3  UNL     1      27.711   2.073  59.881  1.00  0.00     0.163 HD
HETATM   32  O1  UNL     1      25.976   2.681  61.742  1.00  0.00    -0.271 OA
HETATM   33  C12 UNL     1      27.149   4.700  62.023  1.00  0.00     0.180 C 
HETATM   34  N4  UNL     1      27.477   5.679  61.004  1.00  0.00    -0.346 N 
HETATM   35  C16 UNL     1      28.383   5.289  59.980  1.00  0.00     0.241 C 
ATOM     36  H4  UNL     1      27.073   6.615  61.022  1.00  0.00     0.163 HD
HETATM   37  O2  UNL     1      28.745   6.167  59.157  1.00  0.00    -0.271 OA
BRANCH  33  38
HETATM   38  C13 UNL     1      25.988   5.171  62.841  1.00  0.00     0.009 C 
HETATM   39  C14 UNL     1      26.308   5.156  64.314  1.00  0.00     0.012 C 
HETATM   40  C15 UNL     1      25.727   6.628  62.434  1.00  0.00     0.012 C 
ENDBRANCH  33  38
ENDBRANCH  27  28
ENDBRANCH  26  27
ENDBRANCH   1  26
TORSDOF 6
ENDMDL
