MODEL 1
REMARK VINA RESULT: -6.759030873      0.000      0.000
REMARK  12 active torsions:
REMARK  status: ('A' for Active; 'I' for Inactive)
REMARK    1  A    between atoms: C3_3  and  C4_4 
REMARK    2  A    between atoms: C4_4  and  C5_6 
REMARK    3  A    between atoms: C5_6  and  C6_7 
REMARK    4  A    between atoms: C6_7  and  C7_8 
REMARK    5  A    between atoms: C7_8  and  C8_9 
REMARK    6  A    between atoms: C8_9  and  C9_10 
REMARK    7  A    between atoms: C9_10  and  C10_11 
REMARK    8  A    between atoms: C15_16  and  O2_17 
REMARK    9  A    between atoms: C19_22  and  O3_23 
REMARK   10  A    between atoms: C20_25  and  O4_26 
REMARK   11  A    between atoms: C21_28  and  O5_29 
REMARK   12  A    between atoms: C24_33  and  O6_34 
ROOT
HETATM    1  C1  UNL     1      15.460  26.534  22.293  1.00  0.00     0.015 C 
HETATM    2  C2  UNL     1      14.595  27.022  21.401  1.00  0.00    -0.072 C 
HETATM    3  C3  UNL     1      14.893  27.736  20.104  1.00  0.00     0.092 C 
HETATM    4  C12 UNL     1      13.460  27.558  19.727  1.00  0.00    -0.020 C 
HETATM    5  C13 UNL     1      12.723  28.856  19.363  1.00  0.00     0.017 C 
HETATM    6  C14 UNL     1      13.173  26.532  18.678  1.00  0.00     0.043 C 
HETATM    7  C15 UNL     1      11.890  25.777  18.951  1.00  0.00     0.126 C 
HETATM    8  C16 UNL     1      12.158  25.024  20.253  1.00  0.00     0.057 C 
HETATM    9  C17 UNL     1      12.240  26.054  21.339  1.00  0.00     0.006 C 
HETATM   10  C18 UNL     1      12.466  25.281  22.630  1.00  0.00     0.041 C 
HETATM   11  C19 UNL     1      11.232  24.459  22.946  1.00  0.00     0.158 C 
HETATM   12  C20 UNL     1      10.937  23.476  21.825  1.00  0.00     0.140 C 
HETATM   13  C21 UNL     1       9.527  22.973  21.927  1.00  0.00     0.158 C 
HETATM   14  C22 UNL     1       8.747  23.581  20.782  1.00  0.00     0.038 C 
HETATM   15  C23 UNL     1       9.666  24.703  20.281  1.00  0.00     0.044 C 
HETATM   16  C24 UNL     1      11.011  24.086  20.471  1.00  0.00     0.100 C 
HETATM   17  C25 UNL     1      13.168  27.172  21.131  1.00  0.00     0.028 C 
ENDROOT
BRANCH   3  18
HETATM   18  C4  UNL     1      15.919  27.026  19.336  1.00  0.00     0.135 C 
HETATM   19  O1  UNL     1      17.056  27.531  19.303  1.00  0.00    -0.297 OA
BRANCH  18  20
HETATM   20  C5  UNL     1      15.757  25.768  18.591  1.00  0.00     0.079 C 
BRANCH  20  21
HETATM   21  C6  UNL     1      16.737  25.553  17.475  1.00  0.00     0.007 C 
BRANCH  21  22
HETATM   22  C7  UNL     1      15.880  25.243  16.230  1.00  0.00     0.000 C 
BRANCH  22  23
HETATM   23  C8  UNL     1      16.713  24.689  15.124  1.00  0.00     0.000 C 
BRANCH  23  24
HETATM   24  C9  UNL     1      17.932  24.018  15.701  1.00  0.00    -0.000 C 
BRANCH  24  25
HETATM   25  C10 UNL     1      19.133  24.123  14.803  1.00  0.00    -0.005 C 
HETATM   26  C11 UNL     1      19.539  25.582  14.695  1.00  0.00     0.005 C 
ENDBRANCH  24  25
ENDBRANCH  23  24
ENDBRANCH  22  23
ENDBRANCH  21  22
ENDBRANCH  20  21
ENDBRANCH  18  20
ENDBRANCH   3  18
BRANCH   7  27
HETATM   27  O2  UNL     1      11.761  24.832  17.920  1.00  0.00    -0.395 OA
ATOM     28  H2  UNL     1      11.116  24.201  18.216  1.00  0.00     0.210 HD
ENDBRANCH   7  27
BRANCH  16  29
HETATM   29  O6  UNL     1      11.124  23.040  19.543  1.00  0.00    -0.386 OA
ATOM     30  H6  UNL     1      10.319  22.536  19.570  1.00  0.00     0.210 HD
ENDBRANCH  16  29
BRANCH  11  31
HETATM   31  O3  UNL     1      11.525  23.700  24.082  1.00  0.00    -0.392 OA
ATOM     32  H3  UNL     1      11.438  24.276  24.832  1.00  0.00     0.210 HD
ENDBRANCH  11  31
BRANCH  12  33
HETATM   33  O4  UNL     1      11.808  22.376  21.874  1.00  0.00    -0.381 OA
ATOM     34  H4  UNL     1      11.543  21.759  22.546  1.00  0.00     0.211 HD
ENDBRANCH  12  33
BRANCH  13  35
HETATM   35  O5  UNL     1       8.899  23.302  23.111  1.00  0.00    -0.392 OA
ATOM     36  H5  UNL     1       8.027  23.660  22.999  1.00  0.00     0.210 HD
ENDBRANCH  13  35
TORSDOF 12
ENDMDL
MODEL 2
REMARK VINA RESULT: -6.675142060      0.647      1.051
REMARK  12 active torsions:
REMARK  status: ('A' for Active; 'I' for Inactive)
REMARK    1  A    between atoms: C3_3  and  C4_4 
REMARK    2  A    between atoms: C4_4  and  C5_6 
REMARK    3  A    between atoms: C5_6  and  C6_7 
REMARK    4  A    between atoms: C6_7  and  C7_8 
REMARK    5  A    between atoms: C7_8  and  C8_9 
REMARK    6  A    between atoms: C8_9  and  C9_10 
REMARK    7  A    between atoms: C9_10  and  C10_11 
REMARK    8  A    between atoms: C15_16  and  O2_17 
REMARK    9  A    between atoms: C19_22  and  O3_23 
REMARK   10  A    between atoms: C20_25  and  O4_26 
REMARK   11  A    between atoms: C21_28  and  O5_29 
REMARK   12  A    between atoms: C24_33  and  O6_34 
ROOT
HETATM    1  C1  UNL     1      15.495  26.639  22.407  1.00  0.00     0.015 C 
HETATM    2  C2  UNL     1      14.634  27.164  21.533  1.00  0.00    -0.072 C 
HETATM    3  C3  UNL     1      14.939  27.953  20.280  1.00  0.00     0.092 C 
HETATM    4  C12 UNL     1      13.514  27.778  19.876  1.00  0.00    -0.020 C 
HETATM    5  C13 UNL     1      12.764  29.085  19.575  1.00  0.00     0.017 C 
HETATM    6  C14 UNL     1      13.253  26.809  18.768  1.00  0.00     0.043 C 
HETATM    7  C15 UNL     1      11.976  26.024  18.983  1.00  0.00     0.126 C 
HETATM    8  C16 UNL     1      12.238  25.203  20.244  1.00  0.00     0.057 C 
HETATM    9  C17 UNL     1      12.294  26.173  21.386  1.00  0.00     0.006 C 
HETATM   10  C18 UNL     1      12.514  25.332  22.636  1.00  0.00     0.041 C 
HETATM   11  C19 UNL     1      11.287  24.480  22.891  1.00  0.00     0.158 C 
HETATM   12  C20 UNL     1      11.018  23.556  21.713  1.00  0.00     0.140 C 
HETATM   13  C21 UNL     1       9.613  23.031  21.770  1.00  0.00     0.158 C 
HETATM   14  C22 UNL     1       8.840  23.692  20.650  1.00  0.00     0.038 C 
HETATM   15  C23 UNL     1       9.750  24.851  20.223  1.00  0.00     0.044 C 
HETATM   16  C24 UNL     1      11.101  24.241  20.396  1.00  0.00     0.100 C 
HETATM   17  C25 UNL     1      13.209  27.312  21.252  1.00  0.00     0.028 C 
ENDROOT
BRANCH   3  18
HETATM   18  C4  UNL     1      15.983  27.299  19.488  1.00  0.00     0.135 C 
HETATM   19  O1  UNL     1      17.129  27.784  19.545  1.00  0.00    -0.297 OA
BRANCH  18  20
HETATM   20  C5  UNL     1      15.832  26.119  18.621  1.00  0.00     0.079 C 
BRANCH  20  21
HETATM   21  C6  UNL     1      17.017  25.801  17.758  1.00  0.00     0.007 C 
BRANCH  21  22
HETATM   22  C7  UNL     1      16.737  24.400  17.176  1.00  0.00     0.000 C 
BRANCH  22  23
HETATM   23  C8  UNL     1      17.751  24.029  16.147  1.00  0.00     0.000 C 
BRANCH  23  24
HETATM   24  C9  UNL     1      17.467  24.774  14.869  1.00  0.00    -0.000 C 
BRANCH  24  25
HETATM   25  C10 UNL     1      16.000  24.845  14.552  1.00  0.00    -0.005 C 
HETATM   26  C11 UNL     1      15.659  26.260  14.121  1.00  0.00     0.005 C 
ENDBRANCH  24  25
ENDBRANCH  23  24
ENDBRANCH  22  23
ENDBRANCH  21  22
ENDBRANCH  20  21
ENDBRANCH  18  20
ENDBRANCH   3  18
BRANCH   7  27
HETATM   27  O2  UNL     1      11.872  25.136  17.900  1.00  0.00    -0.395 OA
ATOM     28  H2  UNL     1      10.944  25.047  17.716  1.00  0.00     0.210 HD
ENDBRANCH   7  27
BRANCH  16  29
HETATM   29  O6  UNL     1      11.238  23.249  19.413  1.00  0.00    -0.386 OA
ATOM     30  H6  UNL     1      10.803  23.554  18.626  1.00  0.00     0.210 HD
ENDBRANCH  16  29
BRANCH  11  31
HETATM   31  O3  UNL     1      11.576  23.662  23.987  1.00  0.00    -0.392 OA
ATOM     32  H3  UNL     1      10.769  23.223  24.226  1.00  0.00     0.210 HD
ENDBRANCH  11  31
BRANCH  12  33
HETATM   33  O4  UNL     1      11.903  22.466  21.713  1.00  0.00    -0.381 OA
ATOM     34  H4  UNL     1      12.370  22.404  20.888  1.00  0.00     0.211 HD
ENDBRANCH  12  33
BRANCH  13  35
HETATM   35  O5  UNL     1       8.967  23.286  22.962  1.00  0.00    -0.392 OA
ATOM     36  H5  UNL     1       8.427  22.568  23.269  1.00  0.00     0.210 HD
ENDBRANCH  13  35
TORSDOF 12
ENDMDL
MODEL 3
REMARK VINA RESULT: -6.658237366      1.304      1.761
REMARK  12 active torsions:
REMARK  status: ('A' for Active; 'I' for Inactive)
REMARK    1  A    between atoms: C3_3  and  C4_4 
REMARK    2  A    between atoms: C4_4  and  C5_6 
REMARK    3  A    between atoms: C5_6  and  C6_7 
REMARK    4  A    between atoms: C6_7  and  C7_8 
REMARK    5  A    between atoms: C7_8  and  C8_9 
REMARK    6  A    between atoms: C8_9  and  C9_10 
REMARK    7  A    between atoms: C9_10  and  C10_11 
REMARK    8  A    between atoms: C15_16  and  O2_17 
REMARK    9  A    between atoms: C19_22  and  O3_23 
REMARK   10  A    between atoms: C20_25  and  O4_26 
REMARK   11  A    between atoms: C21_28  and  O5_29 
REMARK   12  A    between atoms: C24_33  and  O6_34 
ROOT
HETATM    1  C1  UNL     1      13.784  27.778  22.900  1.00  0.00     0.015 C 
HETATM    2  C2  UNL     1      12.811  27.841  21.989  1.00  0.00    -0.072 C 
HETATM    3  C3  UNL     1      12.822  28.557  20.659  1.00  0.00     0.092 C 
HETATM    4  C12 UNL     1      11.584  27.808  20.294  1.00  0.00    -0.020 C 
HETATM    5  C13 UNL     1      10.397  28.689  19.872  1.00  0.00     0.017 C 
HETATM    6  C14 UNL     1      11.745  26.708  19.295  1.00  0.00     0.043 C 
HETATM    7  C15 UNL     1      10.862  25.518  19.607  1.00  0.00     0.126 C 
HETATM    8  C16 UNL     1      11.387  24.991  20.942  1.00  0.00     0.057 C 
HETATM    9  C17 UNL     1      11.036  26.016  21.978  1.00  0.00     0.006 C 
HETATM   10  C18 UNL     1      11.529  25.454  23.304  1.00  0.00     0.041 C 
HETATM   11  C19 UNL     1      10.718  24.224  23.662  1.00  0.00     0.158 C 
HETATM   12  C20 UNL     1      10.855  23.156  22.588  1.00  0.00     0.140 C 
HETATM   13  C21 UNL     1       9.760  22.139  22.718  1.00  0.00     0.158 C 
HETATM   14  C22 UNL     1       8.821  22.336  21.548  1.00  0.00     0.038 C 
HETATM   15  C23 UNL     1       9.227  23.708  20.992  1.00  0.00     0.044 C 
HETATM   16  C24 UNL     1      10.703  23.686  21.207  1.00  0.00     0.100 C 
HETATM   17  C25 UNL     1      11.446  27.400  21.716  1.00  0.00     0.028 C 
ENDROOT
BRANCH   3  18
HETATM   18  C4  UNL     1      14.057  28.280  19.922  1.00  0.00     0.135 C 
HETATM   19  O1  UNL     1      14.451  29.151  19.123  1.00  0.00    -0.297 OA
BRANCH  18  20
HETATM   20  C5  UNL     1      14.897  27.076  20.019  1.00  0.00     0.079 C 
BRANCH  20  21
HETATM   21  C6  UNL     1      15.609  26.686  18.757  1.00  0.00     0.007 C 
BRANCH  21  22
HETATM   22  C7  UNL     1      14.991  25.337  18.337  1.00  0.00     0.000 C 
BRANCH  22  23
HETATM   23  C8  UNL     1      15.576  24.850  17.054  1.00  0.00     0.000 C 
BRANCH  23  24
HETATM   24  C9  UNL     1      17.041  24.558  17.248  1.00  0.00    -0.000 C 
BRANCH  24  25
HETATM   25  C10 UNL     1      17.714  24.098  15.986  1.00  0.00    -0.005 C 
HETATM   26  C11 UNL     1      16.948  24.644  14.794  1.00  0.00     0.005 C 
ENDBRANCH  24  25
ENDBRANCH  23  24
ENDBRANCH  22  23
ENDBRANCH  21  22
ENDBRANCH  20  21
ENDBRANCH  18  20
ENDBRANCH   3  18
BRANCH   7  27
HETATM   27  O2  UNL     1      11.136  24.555  18.622  1.00  0.00    -0.395 OA
ATOM     28  H2  UNL     1      10.294  24.229  18.326  1.00  0.00     0.210 HD
ENDBRANCH   7  27
BRANCH  16  29
HETATM   29  O6  UNL     1      11.237  22.731  20.329  1.00  0.00    -0.386 OA
ATOM     30  H6  UNL     1      10.519  22.208  19.991  1.00  0.00     0.210 HD
ENDBRANCH  16  29
BRANCH  11  31
HETATM   31  O3  UNL     1      11.271  23.695  24.831  1.00  0.00    -0.392 OA
ATOM     32  H3  UNL     1      11.466  22.782  24.657  1.00  0.00     0.210 HD
ENDBRANCH  11  31
BRANCH  12  33
HETATM   33  O4  UNL     1      12.092  22.496  22.687  1.00  0.00    -0.381 OA
ATOM     34  H4  UNL     1      12.208  21.880  21.974  1.00  0.00     0.211 HD
ENDBRANCH  12  33
BRANCH  13  35
HETATM   35  O5  UNL     1       9.034  22.243  23.887  1.00  0.00    -0.392 OA
ATOM     36  H5  UNL     1       9.161  21.517  24.486  1.00  0.00     0.210 HD
ENDBRANCH  13  35
TORSDOF 12
ENDMDL
MODEL 4
REMARK VINA RESULT: -6.639403577      2.774      5.176
REMARK  12 active torsions:
REMARK  status: ('A' for Active; 'I' for Inactive)
REMARK    1  A    between atoms: C3_3  and  C4_4 
REMARK    2  A    between atoms: C4_4  and  C5_6 
REMARK    3  A    between atoms: C5_6  and  C6_7 
REMARK    4  A    between atoms: C6_7  and  C7_8 
REMARK    5  A    between atoms: C7_8  and  C8_9 
REMARK    6  A    between atoms: C8_9  and  C9_10 
REMARK    7  A    between atoms: C9_10  and  C10_11 
REMARK    8  A    between atoms: C15_16  and  O2_17 
REMARK    9  A    between atoms: C19_22  and  O3_23 
REMARK   10  A    between atoms: C20_25  and  O4_26 
REMARK   11  A    between atoms: C21_28  and  O5_29 
REMARK   12  A    between atoms: C24_33  and  O6_34 
ROOT
HETATM    1  C1  UNL     1       9.538  22.725  21.603  1.00  0.00     0.015 C 
HETATM    2  C2  UNL     1      10.702  23.314  21.887  1.00  0.00    -0.072 C 
HETATM    3  C3  UNL     1      11.729  23.866  20.926  1.00  0.00     0.092 C 
HETATM    4  C12 UNL     1      12.382  24.546  22.082  1.00  0.00    -0.020 C 
HETATM    5  C13 UNL     1      13.873  24.222  22.263  1.00  0.00     0.017 C 
HETATM    6  C14 UNL     1      12.198  26.027  22.171  1.00  0.00     0.043 C 
HETATM    7  C15 UNL     1      12.038  26.500  23.600  1.00  0.00     0.126 C 
HETATM    8  C16 UNL     1      10.735  25.857  24.073  1.00  0.00     0.057 C 
HETATM    9  C17 UNL     1      10.994  24.384  24.179  1.00  0.00     0.006 C 
HETATM   10  C18 UNL     1       9.698  23.770  24.690  1.00  0.00     0.041 C 
HETATM   11  C19 UNL     1       9.446  24.238  26.110  1.00  0.00     0.158 C 
HETATM   12  C20 UNL     1       9.332  25.753  26.166  1.00  0.00     0.140 C 
HETATM   13  C21 UNL     1       9.500  26.239  27.575  1.00  0.00     0.158 C 
HETATM   14  C22 UNL     1      10.838  26.942  27.652  1.00  0.00     0.038 C 
HETATM   15  C23 UNL     1      11.545  26.507  26.361  1.00  0.00     0.044 C 
HETATM   16  C24 UNL     1      10.401  26.453  25.406  1.00  0.00     0.100 C 
HETATM   17  C25 UNL     1      11.557  23.718  22.999  1.00  0.00     0.028 C 
ENDROOT
BRANCH   3  18
HETATM   18  C4  UNL     1      11.094  24.686  19.891  1.00  0.00     0.135 C 
HETATM   19  O1  UNL     1       9.914  25.034  20.085  1.00  0.00    -0.297 OA
BRANCH  18  20
HETATM   20  C5  UNL     1      11.698  25.151  18.633  1.00  0.00     0.079 C 
BRANCH  20  21
HETATM   21  C6  UNL     1      13.139  24.783  18.438  1.00  0.00     0.007 C 
BRANCH  21  22
HETATM   22  C7  UNL     1      13.942  26.033  18.853  1.00  0.00     0.000 C 
BRANCH  22  23
HETATM   23  C8  UNL     1      15.377  25.907  18.468  1.00  0.00     0.000 C 
BRANCH  23  24
HETATM   24  C9  UNL     1      15.536  24.779  17.482  1.00  0.00    -0.000 C 
BRANCH  24  25
HETATM   25  C10 UNL     1      16.974  24.411  17.247  1.00  0.00    -0.005 C 
HETATM   26  C11 UNL     1      17.226  24.349  15.751  1.00  0.00     0.005 C 
ENDBRANCH  24  25
ENDBRANCH  23  24
ENDBRANCH  22  23
ENDBRANCH  21  22
ENDBRANCH  20  21
ENDBRANCH  18  20
ENDBRANCH   3  18
BRANCH   7  27
HETATM   27  O2  UNL     1      11.839  27.889  23.536  1.00  0.00    -0.395 OA
ATOM     28  H2  UNL     1      12.099  28.235  24.382  1.00  0.00     0.210 HD
ENDBRANCH   7  27
BRANCH  16  29
HETATM   29  O6  UNL     1       9.972  27.773  25.195  1.00  0.00    -0.386 OA
ATOM     30  H6  UNL     1      10.730  28.342  25.262  1.00  0.00     0.210 HD
ENDBRANCH  16  29
BRANCH  11  31
HETATM   31  O3  UNL     1       8.204  23.725  26.495  1.00  0.00    -0.392 OA
ATOM     32  H3  UNL     1       7.909  24.241  27.236  1.00  0.00     0.210 HD
ENDBRANCH  11  31
BRANCH  12  33
HETATM   33  O4  UNL     1       8.082  26.184  25.691  1.00  0.00    -0.381 OA
ATOM     34  H4  UNL     1       8.182  26.809  24.983  1.00  0.00     0.211 HD
ENDBRANCH  12  33
BRANCH  13  35
HETATM   35  O5  UNL     1       9.476  25.234  28.521  1.00  0.00    -0.392 OA
ATOM     36  H5  UNL     1       8.749  25.296  29.130  1.00  0.00     0.210 HD
ENDBRANCH  13  35
TORSDOF 12
ENDMDL
MODEL 5
REMARK VINA RESULT: -6.629386764      3.869      5.803
REMARK  12 active torsions:
REMARK  status: ('A' for Active; 'I' for Inactive)
REMARK    1  A    between atoms: C3_3  and  C4_4 
REMARK    2  A    between atoms: C4_4  and  C5_6 
REMARK    3  A    between atoms: C5_6  and  C6_7 
REMARK    4  A    between atoms: C6_7  and  C7_8 
REMARK    5  A    between atoms: C7_8  and  C8_9 
REMARK    6  A    between atoms: C8_9  and  C9_10 
REMARK    7  A    between atoms: C9_10  and  C10_11 
REMARK    8  A    between atoms: C15_16  and  O2_17 
REMARK    9  A    between atoms: C19_22  and  O3_23 
REMARK   10  A    between atoms: C20_25  and  O4_26 
REMARK   11  A    between atoms: C21_28  and  O5_29 
REMARK   12  A    between atoms: C24_33  and  O6_34 
ROOT
HETATM    1  C1  UNL     1      10.259  26.916  19.580  1.00  0.00     0.015 C 
HETATM    2  C2  UNL     1      11.179  26.329  20.347  1.00  0.00    -0.072 C 
HETATM    3  C3  UNL     1      12.016  26.947  21.442  1.00  0.00     0.092 C 
HETATM    4  C12 UNL     1      12.399  25.570  21.869  1.00  0.00    -0.020 C 
HETATM    5  C13 UNL     1      13.912  25.312  21.935  1.00  0.00     0.017 C 
HETATM    6  C14 UNL     1      11.770  25.068  23.129  1.00  0.00     0.043 C 
HETATM    7  C15 UNL     1      11.434  23.594  23.053  1.00  0.00     0.126 C 
HETATM    8  C16 UNL     1      10.376  23.498  21.955  1.00  0.00     0.057 C 
HETATM    9  C17 UNL     1      11.068  23.804  20.661  1.00  0.00     0.006 C 
HETATM   10  C18 UNL     1      10.007  23.663  19.578  1.00  0.00     0.041 C 
HETATM   11  C19 UNL     1       9.585  22.211  19.476  1.00  0.00     0.158 C 
HETATM   12  C20 UNL     1       9.013  21.720  20.796  1.00  0.00     0.140 C 
HETATM   13  C21 UNL     1       8.987  20.220  20.831  1.00  0.00     0.158 C 
HETATM   14  C22 UNL     1      10.044  19.774  21.816  1.00  0.00     0.038 C 
HETATM   15  C23 UNL     1      10.886  21.038  22.035  1.00  0.00     0.044 C 
HETATM   16  C24 UNL     1       9.839  22.100  21.973  1.00  0.00     0.100 C 
HETATM   17  C25 UNL     1      11.840  25.050  20.595  1.00  0.00     0.028 C 
ENDROOT
BRANCH   3  18
HETATM   18  C4  UNL     1      11.191  27.761  22.338  1.00  0.00     0.135 C 
HETATM   19  O1  UNL     1       9.983  27.469  22.421  1.00  0.00    -0.297 OA
BRANCH  18  20
HETATM   20  C5  UNL     1      11.631  28.898  23.162  1.00  0.00     0.079 C 
BRANCH  20  21
HETATM   21  C6  UNL     1      13.098  28.934  23.475  1.00  0.00     0.007 C 
BRANCH  21  22
HETATM   22  C7  UNL     1      13.266  28.098  24.760  1.00  0.00     0.000 C 
BRANCH  22  23
HETATM   23  C8  UNL     1      14.639  27.525  24.857  1.00  0.00     0.000 C 
BRANCH  23  24
HETATM   24  C9  UNL     1      15.584  28.338  24.011  1.00  0.00    -0.000 C 
BRANCH  24  25
HETATM   25  C10 UNL     1      16.585  27.489  23.278  1.00  0.00    -0.005 C 
HETATM   26  C11 UNL     1      16.520  27.823  21.798  1.00  0.00     0.005 C 
ENDBRANCH  24  25
ENDBRANCH  23  24
ENDBRANCH  22  23
ENDBRANCH  21  22
ENDBRANCH  20  21
ENDBRANCH  18  20
ENDBRANCH   3  18
BRANCH   7  27
HETATM   27  O2  UNL     1      10.824  23.265  24.275  1.00  0.00    -0.395 OA
ATOM     28  H2  UNL     1      10.952  22.331  24.394  1.00  0.00     0.210 HD
ENDBRANCH   7  27
BRANCH  16  29
HETATM   29  O6  UNL     1       9.036  21.959  23.115  1.00  0.00    -0.386 OA
ATOM     30  H6  UNL     1       9.130  21.068  23.432  1.00  0.00     0.210 HD
ENDBRANCH  16  29
BRANCH  11  31
HETATM   31  O3  UNL     1       8.548  22.151  18.540  1.00  0.00    -0.392 OA
ATOM     32  H3  UNL     1       8.622  21.314  18.096  1.00  0.00     0.210 HD
ENDBRANCH  11  31
BRANCH  12  33
HETATM   33  O4  UNL     1       7.705  22.195  20.989  1.00  0.00    -0.381 OA
ATOM     34  H4  UNL     1       7.233  22.238  20.167  1.00  0.00     0.211 HD
ENDBRANCH  12  33
BRANCH  13  35
HETATM   35  O5  UNL     1       9.242  19.627  19.611  1.00  0.00    -0.392 OA
ATOM     36  H5  UNL     1       9.870  20.099  19.077  1.00  0.00     0.210 HD
ENDBRANCH  13  35
TORSDOF 12
ENDMDL
