MODEL 1
REMARK VINA RESULT: -7.233043627      0.000      0.000
REMARK  10 active torsions:
REMARK  status: ('A' for Active; 'I' for Inactive)
REMARK    1  A    between atoms: C2_2  and  C4_4 
REMARK    2  A    between atoms: C4_4  and  N1_5 
REMARK    3  A    between atoms: C4_4  and  C21_31 
REMARK    4  A    between atoms: C10_13  and  O2_14 
REMARK    5  A    between atoms: C13_18  and  C14_19 
REMARK    6  A    between atoms: C14_19  and  C15_20 
REMARK    7  A    between atoms: C15_20  and  C16_21 
REMARK    8  A    between atoms: C16_21  and  C17_22 
REMARK    9  A    between atoms: C17_22  and  O3_23 
REMARK   10  A    between atoms: C21_31  and  O5_34 
ROOT
HETATM    1  N1  UNL     1      10.550  23.891  18.972  1.00  0.00    -0.358 N 
ATOM      2  H1  UNL     1      10.445  23.274  18.167  1.00  0.00     0.162 HD
HETATM    3  C5  UNL     1      11.594  24.762  18.878  1.00  0.00     0.210 C 
HETATM    4  O1  UNL     1      12.723  24.656  19.647  1.00  0.00    -0.299 OA
HETATM    5  C6  UNL     1      13.499  25.793  19.468  1.00  0.00     0.149 C 
HETATM    6  C7  UNL     1      14.013  26.186  20.857  1.00  0.00     0.062 C 
HETATM    7  C8  UNL     1      14.525  27.600  20.915  1.00  0.00     0.007 C 
HETATM    8  C9  UNL     1      16.012  27.720  20.771  1.00  0.00     0.032 C 
HETATM    9  C10 UNL     1      16.530  27.010  19.542  1.00  0.00     0.122 C 
HETATM   10  C11 UNL     1      15.480  26.866  18.479  1.00  0.00     0.023 C 
HETATM   11  C12 UNL     1      16.117  26.750  17.096  1.00  0.00     0.012 C 
HETATM   12  C13 UNL     1      15.950  25.319  16.677  1.00  0.00    -0.014 C 
HETATM   13  C18 UNL     1      14.584  25.009  17.308  1.00  0.00     0.014 C 
HETATM   14  C19 UNL     1      14.729  25.584  18.660  1.00  0.00     0.049 C 
HETATM   15  N2  UNL     1      12.601  26.815  18.957  1.00  0.00    -0.321 N 
ATOM     16  H2  UNL     1      12.845  27.774  18.710  1.00  0.00     0.166 HD
HETATM   17  C20 UNL     1      11.326  26.222  18.870  1.00  0.00     0.294 C 
HETATM   18  O4  UNL     1      10.231  26.769  18.802  1.00  0.00    -0.264 OA
ENDROOT
BRANCH   1  19
HETATM   19  C4  UNL     1       9.614  23.696  19.959  1.00  0.00     0.120 C 
BRANCH  19  20
HETATM   20  C2  UNL     1      10.097  23.283  21.292  1.00  0.00     0.003 C 
HETATM   21  C1  UNL     1      11.149  22.207  21.269  1.00  0.00     0.011 C 
HETATM   22  C3  UNL     1      10.484  24.384  22.216  1.00  0.00     0.011 C 
ENDBRANCH  19  20
BRANCH  19  23
HETATM   23  C21 UNL     1       8.470  22.807  19.454  1.00  0.00     0.071 C 
HETATM   24  C22 UNL     1       7.492  23.650  18.634  1.00  0.00     0.047 C 
HETATM   25  C23 UNL     1       7.698  22.192  20.566  1.00  0.00     0.047 C 
BRANCH  23  26
HETATM   26  O5  UNL     1       8.927  21.792  18.620  1.00  0.00    -0.389 OA
ATOM     27  H5  UNL     1       8.256  21.142  18.449  1.00  0.00     0.210 HD
ENDBRANCH  23  26
ENDBRANCH  19  23
ENDBRANCH   1  19
BRANCH   9  28
HETATM   28  O2  UNL     1      17.588  27.723  18.982  1.00  0.00    -0.395 OA
ATOM     29  H2  UNL     1      18.385  27.207  19.010  1.00  0.00     0.210 HD
ENDBRANCH   9  28
BRANCH  12  30
HETATM   30  C14 UNL     1      17.011  24.389  17.158  1.00  0.00     0.005 C 
BRANCH  30  31
HETATM   31  C15 UNL     1      17.879  23.936  16.025  1.00  0.00     0.002 C 
BRANCH  31  32
HETATM   32  C16 UNL     1      18.714  25.043  15.428  1.00  0.00     0.026 C 
BRANCH  32  33
HETATM   33  C17 UNL     1      19.828  24.576  14.554  1.00  0.00     0.164 C 
BRANCH  33  34
HETATM   34  O3  UNL     1      20.124  23.254  14.962  1.00  0.00    -0.401 OA
ATOM     35  H3  UNL     1      20.179  22.737  14.168  1.00  0.00     0.209 HD
ENDBRANCH  33  34
ENDBRANCH  32  33
ENDBRANCH  31  32
ENDBRANCH  30  31
ENDBRANCH  12  30
TORSDOF 10
ENDMDL
MODEL 2
REMARK VINA RESULT: -7.060563876      2.196      8.080
REMARK  10 active torsions:
REMARK  status: ('A' for Active; 'I' for Inactive)
REMARK    1  A    between atoms: C2_2  and  C4_4 
REMARK    2  A    between atoms: C4_4  and  N1_5 
REMARK    3  A    between atoms: C4_4  and  C21_31 
REMARK    4  A    between atoms: C10_13  and  O2_14 
REMARK    5  A    between atoms: C13_18  and  C14_19 
REMARK    6  A    between atoms: C14_19  and  C15_20 
REMARK    7  A    between atoms: C15_20  and  C16_21 
REMARK    8  A    between atoms: C16_21  and  C17_22 
REMARK    9  A    between atoms: C17_22  and  O3_23 
REMARK   10  A    between atoms: C21_31  and  O5_34 
ROOT
HETATM    1  N1  UNL     1      14.546  26.005  19.809  1.00  0.00    -0.358 N 
ATOM      2  H1  UNL     1      15.141  25.481  20.450  1.00  0.00     0.162 HD
HETATM    3  C5  UNL     1      13.212  25.767  19.962  1.00  0.00     0.210 C 
HETATM    4  O1  UNL     1      12.469  25.079  19.040  1.00  0.00    -0.299 OA
HETATM    5  C6  UNL     1      11.126  25.182  19.375  1.00  0.00     0.149 C 
HETATM    6  C7  UNL     1      10.371  25.421  18.063  1.00  0.00     0.062 C 
HETATM    7  C8  UNL     1       8.981  25.954  18.274  1.00  0.00     0.007 C 
HETATM    8  C9  UNL     1       7.909  24.907  18.233  1.00  0.00     0.032 C 
HETATM    9  C10 UNL     1       8.193  23.757  19.171  1.00  0.00     0.122 C 
HETATM   10  C11 UNL     1       9.094  24.153  20.305  1.00  0.00     0.023 C 
HETATM   11  C12 UNL     1       8.872  23.250  21.517  1.00  0.00     0.012 C 
HETATM   12  C13 UNL     1      10.077  22.359  21.600  1.00  0.00    -0.014 C 
HETATM   13  C18 UNL     1      11.165  23.327  21.111  1.00  0.00     0.014 C 
HETATM   14  C19 UNL     1      10.527  23.940  19.930  1.00  0.00     0.049 C 
HETATM   15  N2  UNL     1      11.016  26.348  20.237  1.00  0.00    -0.321 N 
ATOM     16  H2  UNL     1      10.165  26.710  20.669  1.00  0.00     0.166 HD
HETATM   17  C20 UNL     1      12.314  26.881  20.357  1.00  0.00     0.294 C 
HETATM   18  O4  UNL     1      12.648  28.008  20.706  1.00  0.00    -0.264 OA
ENDROOT
BRANCH   1  19
HETATM   19  C4  UNL     1      15.230  26.825  18.946  1.00  0.00     0.120 C 
BRANCH  19  20
HETATM   20  C2  UNL     1      15.761  26.226  17.705  1.00  0.00     0.003 C 
HETATM   21  C1  UNL     1      15.771  24.721  17.694  1.00  0.00     0.011 C 
HETATM   22  C3  UNL     1      15.210  26.765  16.432  1.00  0.00     0.011 C 
ENDBRANCH  19  20
BRANCH  19  23
HETATM   23  C21 UNL     1      16.290  27.641  19.698  1.00  0.00     0.071 C 
HETATM   24  C22 UNL     1      16.224  27.311  21.190  1.00  0.00     0.047 C 
HETATM   25  C23 UNL     1      16.079  29.107  19.561  1.00  0.00     0.047 C 
BRANCH  23  26
HETATM   26  O5  UNL     1      17.579  27.339  19.273  1.00  0.00    -0.389 OA
ATOM     27  H5  UNL     1      17.836  26.457  19.514  1.00  0.00     0.210 HD
ENDBRANCH  23  26
ENDBRANCH  19  23
ENDBRANCH   1  19
BRANCH   9  28
HETATM   28  O2  UNL     1       7.007  23.287  19.732  1.00  0.00    -0.395 OA
ATOM     29  H2  UNL     1       6.720  22.499  19.284  1.00  0.00     0.210 HD
ENDBRANCH   9  28
BRANCH  12  30
HETATM   30  C14 UNL     1      10.012  21.125  20.767  1.00  0.00     0.005 C 
BRANCH  30  31
HETATM   31  C15 UNL     1       9.560  19.952  21.582  1.00  0.00     0.002 C 
BRANCH  31  32
HETATM   32  C16 UNL     1       9.892  18.621  20.953  1.00  0.00     0.026 C 
BRANCH  32  33
HETATM   33  C17 UNL     1       9.222  18.368  19.646  1.00  0.00     0.164 C 
BRANCH  33  34
HETATM   34  O3  UNL     1       9.194  16.964  19.480  1.00  0.00    -0.401 OA
ATOM     35  H3  UNL     1       8.820  16.805  18.621  1.00  0.00     0.209 HD
ENDBRANCH  33  34
ENDBRANCH  32  33
ENDBRANCH  31  32
ENDBRANCH  30  31
ENDBRANCH  12  30
TORSDOF 10
ENDMDL
MODEL 3
REMARK VINA RESULT: -6.980710628      6.079      9.229
REMARK  10 active torsions:
REMARK  status: ('A' for Active; 'I' for Inactive)
REMARK    1  A    between atoms: C2_2  and  C4_4 
REMARK    2  A    between atoms: C4_4  and  N1_5 
REMARK    3  A    between atoms: C4_4  and  C21_31 
REMARK    4  A    between atoms: C10_13  and  O2_14 
REMARK    5  A    between atoms: C13_18  and  C14_19 
REMARK    6  A    between atoms: C14_19  and  C15_20 
REMARK    7  A    between atoms: C15_20  and  C16_21 
REMARK    8  A    between atoms: C16_21  and  C17_22 
REMARK    9  A    between atoms: C17_22  and  O3_23 
REMARK   10  A    between atoms: C21_31  and  O5_34 
ROOT
HETATM    1  N1  UNL     1      10.157  25.342  24.423  1.00  0.00    -0.358 N 
ATOM      2  H1  UNL     1       9.803  26.267  24.180  1.00  0.00     0.162 HD
HETATM    3  C5  UNL     1      10.146  24.450  23.391  1.00  0.00     0.210 C 
HETATM    4  O1  UNL     1       9.289  23.383  23.339  1.00  0.00    -0.299 OA
HETATM    5  C6  UNL     1       9.660  22.558  22.286  1.00  0.00     0.149 C 
HETATM    6  C7  UNL     1       9.544  21.120  22.804  1.00  0.00     0.062 C 
HETATM    7  C8  UNL     1      10.282  20.127  21.948  1.00  0.00     0.007 C 
HETATM    8  C9  UNL     1       9.418  19.413  20.953  1.00  0.00     0.032 C 
HETATM    9  C10 UNL     1       8.615  20.367  20.099  1.00  0.00     0.122 C 
HETATM   10  C11 UNL     1       9.248  21.725  20.008  1.00  0.00     0.023 C 
HETATM   11  C12 UNL     1       8.828  22.436  18.724  1.00  0.00     0.012 C 
HETATM   12  C13 UNL     1       7.874  23.518  19.137  1.00  0.00    -0.014 C 
HETATM   13  C18 UNL     1       8.487  23.918  20.488  1.00  0.00     0.014 C 
HETATM   14  C19 UNL     1       8.751  22.606  21.110  1.00  0.00     0.049 C 
HETATM   15  N2  UNL     1      11.048  22.877  21.996  1.00  0.00    -0.321 N 
ATOM     16  H2  UNL     1      11.632  22.458  21.272  1.00  0.00     0.166 HD
HETATM   17  C20 UNL     1      11.429  23.878  22.911  1.00  0.00     0.294 C 
HETATM   18  O4  UNL     1      12.559  24.216  23.248  1.00  0.00    -0.264 OA
ENDROOT
BRANCH   1  19
HETATM   19  C4  UNL     1      10.558  25.215  25.730  1.00  0.00     0.120 C 
BRANCH  19  20
HETATM   20  C2  UNL     1       9.525  24.905  26.738  1.00  0.00     0.003 C 
HETATM   21  C1  UNL     1       8.126  25.290  26.338  1.00  0.00     0.011 C 
HETATM   22  C3  UNL     1       9.556  23.528  27.302  1.00  0.00     0.011 C 
ENDBRANCH  19  20
BRANCH  19  23
HETATM   23  C21 UNL     1      11.438  26.402  26.145  1.00  0.00     0.071 C 
HETATM   24  C22 UNL     1      12.006  26.151  27.543  1.00  0.00     0.047 C 
HETATM   25  C23 UNL     1      10.677  27.678  26.202  1.00  0.00     0.047 C 
BRANCH  23  26
HETATM   26  O5  UNL     1      12.522  26.571  25.292  1.00  0.00    -0.389 OA
ATOM     27  H5  UNL     1      13.240  27.026  25.715  1.00  0.00     0.210 HD
ENDBRANCH  23  26
ENDBRANCH  19  23
ENDBRANCH   1  19
BRANCH   9  28
HETATM   28  O2  UNL     1       8.503  19.876  18.800  1.00  0.00    -0.395 OA
ATOM     29  H2  UNL     1       8.825  20.516  18.177  1.00  0.00     0.210 HD
ENDBRANCH   9  28
BRANCH  12  30
HETATM   30  C14 UNL     1       6.453  23.092  19.274  1.00  0.00     0.005 C 
BRANCH  30  31
HETATM   31  C15 UNL     1       5.561  23.916  18.398  1.00  0.00     0.002 C 
BRANCH  31  32
HETATM   32  C16 UNL     1       4.099  23.809  18.759  1.00  0.00     0.026 C 
BRANCH  32  33
HETATM   33  C17 UNL     1       3.167  23.875  17.597  1.00  0.00     0.164 C 
BRANCH  33  34
HETATM   34  O3  UNL     1       2.882  22.536  17.242  1.00  0.00    -0.401 OA
ATOM     35  H3  UNL     1       3.106  22.006  17.999  1.00  0.00     0.209 HD
ENDBRANCH  33  34
ENDBRANCH  32  33
ENDBRANCH  31  32
ENDBRANCH  30  31
ENDBRANCH  12  30
TORSDOF 10
ENDMDL
MODEL 4
REMARK VINA RESULT: -6.702220018      4.554      8.136
REMARK  10 active torsions:
REMARK  status: ('A' for Active; 'I' for Inactive)
REMARK    1  A    between atoms: C2_2  and  C4_4 
REMARK    2  A    between atoms: C4_4  and  N1_5 
REMARK    3  A    between atoms: C4_4  and  C21_31 
REMARK    4  A    between atoms: C10_13  and  O2_14 
REMARK    5  A    between atoms: C13_18  and  C14_19 
REMARK    6  A    between atoms: C14_19  and  C15_20 
REMARK    7  A    between atoms: C15_20  and  C16_21 
REMARK    8  A    between atoms: C16_21  and  C17_22 
REMARK    9  A    between atoms: C17_22  and  O3_23 
REMARK   10  A    between atoms: C21_31  and  O5_34 
ROOT
HETATM    1  N1  UNL     1      12.463  26.199  23.851  1.00  0.00    -0.358 N 
ATOM      2  H1  UNL     1      12.597  25.576  24.647  1.00  0.00     0.162 HD
HETATM    3  C5  UNL     1      11.465  25.820  23.004  1.00  0.00     0.210 C 
HETATM    4  O1  UNL     1      11.701  25.339  21.744  1.00  0.00    -0.299 OA
HETATM    5  C6  UNL     1      10.495  25.239  21.065  1.00  0.00     0.149 C 
HETATM    6  C7  UNL     1      10.756  25.751  19.644  1.00  0.00     0.062 C 
HETATM    7  C8  UNL     1       9.492  26.093  18.903  1.00  0.00     0.007 C 
HETATM    8  C9  UNL     1       9.004  25.008  17.991  1.00  0.00     0.032 C 
HETATM    9  C10 UNL     1       8.869  23.679  18.698  1.00  0.00     0.122 C 
HETATM   10  C11 UNL     1       8.678  23.837  20.179  1.00  0.00     0.023 C 
HETATM   11  C12 UNL     1       7.943  22.632  20.764  1.00  0.00     0.012 C 
HETATM   12  C13 UNL     1       8.966  21.853  21.537  1.00  0.00    -0.014 C 
HETATM   13  C18 UNL     1       9.834  23.002  22.074  1.00  0.00     0.014 C 
HETATM   14  C19 UNL     1      10.002  23.849  20.877  1.00  0.00     0.049 C 
HETATM   15  N2  UNL     1       9.571  26.124  21.756  1.00  0.00    -0.321 N 
ATOM     16  H2  UNL     1       8.592  26.287  21.522  1.00  0.00     0.166 HD
HETATM   17  C20 UNL     1      10.295  26.713  22.812  1.00  0.00     0.294 C 
HETATM   18  O4  UNL     1      10.034  27.732  23.442  1.00  0.00    -0.264 OA
ENDROOT
BRANCH   1  19
HETATM   19  C4  UNL     1      13.321  27.271  23.823  1.00  0.00     0.120 C 
BRANCH  19  20
HETATM   20  C2  UNL     1      14.580  27.124  23.065  1.00  0.00     0.003 C 
HETATM   21  C1  UNL     1      14.996  25.699  22.818  1.00  0.00     0.011 C 
HETATM   22  C3  UNL     1      14.691  27.934  21.821  1.00  0.00     0.011 C 
ENDBRANCH  19  20
BRANCH  19  23
HETATM   23  C21 UNL     1      13.556  27.816  25.239  1.00  0.00     0.071 C 
HETATM   24  C22 UNL     1      12.583  27.147  26.211  1.00  0.00     0.047 C 
HETATM   25  C23 UNL     1      13.326  29.283  25.326  1.00  0.00     0.047 C 
BRANCH  23  26
HETATM   26  O5  UNL     1      14.839  27.542  25.697  1.00  0.00    -0.389 OA
ATOM     27  H5  UNL     1      15.138  28.187  26.327  1.00  0.00     0.210 HD
ENDBRANCH  23  26
ENDBRANCH  19  23
ENDBRANCH   1  19
BRANCH   9  28
HETATM   28  O2  UNL     1       7.766  22.982  18.212  1.00  0.00    -0.395 OA
ATOM     29  H2  UNL     1       7.058  23.002  18.844  1.00  0.00     0.210 HD
ENDBRANCH   9  28
BRANCH  12  30
HETATM   30  C14 UNL     1       9.762  20.881  20.736  1.00  0.00     0.005 C 
BRANCH  30  31
HETATM   31  C15 UNL     1      10.220  19.735  21.586  1.00  0.00     0.002 C 
BRANCH  31  32
HETATM   32  C16 UNL     1       9.665  18.402  21.146  1.00  0.00     0.026 C 
BRANCH  32  33
HETATM   33  C17 UNL     1       9.220  18.355  19.724  1.00  0.00     0.164 C 
BRANCH  33  34
HETATM   34  O3  UNL     1       9.154  16.986  19.375  1.00  0.00    -0.401 OA
ATOM     35  H3  UNL     1       8.270  16.834  19.061  1.00  0.00     0.209 HD
ENDBRANCH  33  34
ENDBRANCH  32  33
ENDBRANCH  31  32
ENDBRANCH  30  31
ENDBRANCH  12  30
TORSDOF 10
ENDMDL
MODEL 5
REMARK VINA RESULT: -6.593059420      1.012      1.176
REMARK  10 active torsions:
REMARK  status: ('A' for Active; 'I' for Inactive)
REMARK    1  A    between atoms: C2_2  and  C4_4 
REMARK    2  A    between atoms: C4_4  and  N1_5 
REMARK    3  A    between atoms: C4_4  and  C21_31 
REMARK    4  A    between atoms: C10_13  and  O2_14 
REMARK    5  A    between atoms: C13_18  and  C14_19 
REMARK    6  A    between atoms: C14_19  and  C15_20 
REMARK    7  A    between atoms: C15_20  and  C16_21 
REMARK    8  A    between atoms: C16_21  and  C17_22 
REMARK    9  A    between atoms: C17_22  and  O3_23 
REMARK   10  A    between atoms: C21_31  and  O5_34 
ROOT
HETATM    1  N1  UNL     1      10.431  24.960  18.014  1.00  0.00    -0.358 N 
ATOM      2  H1  UNL     1      10.359  24.444  17.138  1.00  0.00     0.162 HD
HETATM    3  C5  UNL     1      11.588  25.668  18.154  1.00  0.00     0.210 C 
HETATM    4  O1  UNL     1      12.569  25.321  19.045  1.00  0.00    -0.299 OA
HETATM    5  C6  UNL     1      13.512  26.338  19.097  1.00  0.00     0.149 C 
HETATM    6  C7  UNL     1      13.870  26.518  20.576  1.00  0.00     0.062 C 
HETATM    7  C8  UNL     1      14.558  27.826  20.859  1.00  0.00     0.007 C 
HETATM    8  C9  UNL     1      16.053  27.732  20.922  1.00  0.00     0.032 C 
HETATM    9  C10 UNL     1      16.640  27.069  19.697  1.00  0.00     0.122 C 
HETATM   10  C11 UNL     1      15.743  27.185  18.499  1.00  0.00     0.023 C 
HETATM   11  C12 UNL     1      16.551  27.104  17.205  1.00  0.00     0.012 C 
HETATM   12  C13 UNL     1      16.250  25.760  16.609  1.00  0.00    -0.014 C 
HETATM   13  C18 UNL     1      14.778  25.603  17.020  1.00  0.00     0.014 C 
HETATM   14  C19 UNL     1      14.805  26.021  18.435  1.00  0.00     0.049 C 
HETATM   15  N2  UNL     1      12.846  27.528  18.593  1.00  0.00    -0.321 N 
ATOM     16  H2  UNL     1      13.253  28.458  18.490  1.00  0.00     0.166 HD
HETATM   17  C20 UNL     1      11.528  27.146  18.277  1.00  0.00     0.294 C 
HETATM   18  O4  UNL     1      10.540  27.858  18.131  1.00  0.00    -0.264 OA
ENDROOT
BRANCH   1  19
HETATM   19  C4  UNL     1       9.346  24.819  18.843  1.00  0.00     0.120 C 
BRANCH  19  20
HETATM   20  C2  UNL     1       9.537  24.075  20.104  1.00  0.00     0.003 C 
HETATM   21  C1  UNL     1      10.456  22.888  19.995  1.00  0.00     0.011 C 
HETATM   22  C3  UNL     1       9.868  24.894  21.302  1.00  0.00     0.011 C 
ENDBRANCH  19  20
BRANCH  19  23
HETATM   23  C21 UNL     1       8.123  24.327  18.058  1.00  0.00     0.071 C 
HETATM   24  C22 UNL     1       7.951  25.176  16.797  1.00  0.00     0.047 C 
HETATM   25  C23 UNL     1       6.864  24.442  18.840  1.00  0.00     0.047 C 
BRANCH  23  26
HETATM   26  O5  UNL     1       8.266  23.009  17.642  1.00  0.00    -0.389 OA
ATOM     27  H5  UNL     1       7.496  22.694  17.183  1.00  0.00     0.210 HD
ENDBRANCH  23  26
ENDBRANCH  19  23
ENDBRANCH   1  19
BRANCH   9  28
HETATM   28  O2  UNL     1      17.855  27.662  19.362  1.00  0.00    -0.395 OA
ATOM     29  H2  UNL     1      17.823  27.999  18.474  1.00  0.00     0.210 HD
ENDBRANCH   9  28
BRANCH  12  30
HETATM   30  C14 UNL     1      17.093  24.639  17.114  1.00  0.00     0.005 C 
BRANCH  30  31
HETATM   31  C15 UNL     1      17.850  23.993  15.996  1.00  0.00     0.002 C 
BRANCH  31  32
HETATM   32  C16 UNL     1      18.603  24.977  15.133  1.00  0.00     0.026 C 
BRANCH  32  33
HETATM   33  C17 UNL     1      19.875  24.452  14.560  1.00  0.00     0.164 C 
BRANCH  33  34
HETATM   34  O3  UNL     1      19.998  23.120  15.021  1.00  0.00    -0.401 OA
ATOM     35  H3  UNL     1      19.113  22.778  15.083  1.00  0.00     0.209 HD
ENDBRANCH  33  34
ENDBRANCH  32  33
ENDBRANCH  31  32
ENDBRANCH  30  31
ENDBRANCH  12  30
TORSDOF 10
ENDMDL
