MODEL 1
REMARK VINA RESULT: -8.565411039      0.000      0.000
REMARK  10 active torsions:
REMARK  status: ('A' for Active; 'I' for Inactive)
REMARK    1  A    between atoms: C2_2  and  C3_3 
REMARK    2  A    between atoms: C3_3  and  C4_4 
REMARK       I    between atoms: C4_4  and  N1_6 
REMARK    3  A    between atoms: N1_6  and  C5_8 
REMARK       I    between atoms: N2_20  and  C17_21 
REMARK       I    between atoms: C17_21  and  N3_23 
REMARK    4  A    between atoms: N3_23  and  C18_25 
REMARK    5  A    between atoms: C18_25  and  C19_26 
REMARK    6  A    between atoms: C18_25  and  C22_30 
REMARK    7  A    between atoms: C19_26  and  C20_27 
REMARK    8  A    between atoms: C20_27  and  S1_28 
REMARK       I    between atoms: C22_30  and  N4_32 
REMARK    9  A    between atoms: N4_32  and  C23_34 
REMARK   10  A    between atoms: C23_34  and  C24_35 
ROOT
HETATM    1  C5  UNL     1      -8.733  18.041  28.651  1.00  0.00     0.178 C 
HETATM    2  C6  UNL     1      -7.607  18.790  27.893  1.00  0.00     0.035 C 
HETATM    3  C7  UNL     1      -7.240  18.136  26.610  1.00  0.00     0.002 C 
HETATM    4  C8  UNL     1      -6.690  19.224  25.671  1.00  0.00     0.000 C 
HETATM    5  C9  UNL     1      -7.094  18.789  24.252  1.00  0.00     0.000 C 
HETATM    6  C10 UNL     1      -6.211  17.638  23.884  1.00  0.00     0.000 C 
HETATM    7  C11 UNL     1      -6.754  16.713  22.852  1.00  0.00     0.000 C 
HETATM    8  C12 UNL     1      -8.102  17.075  22.324  1.00  0.00     0.000 C 
HETATM    9  C13 UNL     1      -9.252  16.340  22.928  1.00  0.00     0.000 C 
HETATM   10  C14 UNL     1      -8.935  15.430  24.061  1.00  0.00     0.002 C 
HETATM   11  C15 UNL     1     -10.170  15.366  24.966  1.00  0.00     0.022 C 
HETATM   12  C16 UNL     1      -9.797  15.055  26.402  1.00  0.00     0.154 C 
HETATM   13  N2  UNL     1     -10.770  15.618  27.335  1.00  0.00    -0.240 N 
HETATM   14  C17 UNL     1     -11.681  14.729  27.984  1.00  0.00     0.337 C 
HETATM   15  O2  UNL     1     -11.593  13.507  27.721  1.00  0.00    -0.245 OA
HETATM   16  N3  UNL     1     -12.682  15.125  28.902  1.00  0.00    -0.328 N 
ATOM     17  H3  UNL     1     -12.770  16.113  29.138  1.00  0.00     0.165 HD
HETATM   18  N5  UNL     1     -10.892  16.978  27.625  1.00  0.00    -0.262 N 
ATOM     19  H5  UNL     1     -11.848  17.312  27.747  1.00  0.00     0.190 HD
HETATM   20  C29 UNL     1      -9.897  17.951  27.775  1.00  0.00     0.259 C 
HETATM   21  O4  UNL     1     -10.028  18.976  26.991  1.00  0.00    -0.269 OA
ENDROOT
BRANCH  16  22
HETATM   22  C18 UNL     1     -13.588  14.174  29.519  1.00  0.00     0.179 C 
BRANCH  22  23
HETATM   23  C19 UNL     1     -12.946  12.826  29.772  1.00  0.00     0.045 C 
BRANCH  23  24
HETATM   24  C20 UNL     1     -14.038  11.781  29.954  1.00  0.00     0.076 C 
BRANCH  24  25
HETATM   25  S1  UNL     1     -13.763  11.023  31.580  1.00  0.00    -0.173 SA
HETATM   26  C21 UNL     1     -14.994  11.600  32.769  1.00  0.00     0.089 C 
ENDBRANCH  24  25
ENDBRANCH  23  24
ENDBRANCH  22  23
BRANCH  22  27
HETATM   27  C22 UNL     1     -13.964  14.714  30.877  1.00  0.00     0.240 C 
HETATM   28  O3  UNL     1     -15.188  15.020  31.072  1.00  0.00    -0.271 OA
HETATM   29  N4  UNL     1     -13.051  14.892  31.926  1.00  0.00    -0.359 N 
ATOM     30  H4  UNL     1     -12.070  14.651  31.789  1.00  0.00     0.162 HD
BRANCH  29  31
HETATM   31  C23 UNL     1     -13.487  15.412  33.187  1.00  0.00     0.127 C 
BRANCH  31  32
HETATM   32  C24 UNL     1     -13.150  14.519  34.369  1.00  0.00     0.003 C 
HETATM   33  C25 UNL     1     -12.518  15.321  35.488  1.00  0.00     0.006 C 
HETATM   34  C26 UNL     1     -11.112  14.757  35.680  1.00  0.00     0.000 C 
HETATM   35  C27 UNL     1     -11.187  13.357  35.097  1.00  0.00     0.000 C 
HETATM   36  C28 UNL     1     -12.057  13.592  33.895  1.00  0.00     0.006 C 
ENDBRANCH  31  32
ENDBRANCH  29  31
ENDBRANCH  22  27
ENDBRANCH  16  22
BRANCH   1  37
HETATM   37  N1  UNL     1      -8.242  16.865  29.263  1.00  0.00    -0.348 N 
HETATM   38  C4  UNL     1      -9.043  16.169  30.235  1.00  0.00     0.218 C 
HETATM   39  O1  UNL     1     -10.186  16.652  30.507  1.00  0.00    -0.274 OA
ATOM     40  H1  UNL     1      -7.318  16.509  29.016  1.00  0.00     0.163 HD
BRANCH  38  41
HETATM   41  C3  UNL     1      -8.642  14.952  30.937  1.00  0.00     0.102 C 
BRANCH  41  42
HETATM   42  C2  UNL     1      -9.074  14.902  32.365  1.00  0.00     0.005 C 
HETATM   43  C1  UNL     1      -8.848  16.141  33.156  1.00  0.00     0.005 C 
ENDBRANCH  41  42
ENDBRANCH  38  41
ENDBRANCH   1  37
TORSDOF 10
ENDMDL
MODEL 2
REMARK VINA RESULT: -8.009130807      3.257     10.014
REMARK  10 active torsions:
REMARK  status: ('A' for Active; 'I' for Inactive)
REMARK    1  A    between atoms: C2_2  and  C3_3 
REMARK    2  A    between atoms: C3_3  and  C4_4 
REMARK       I    between atoms: C4_4  and  N1_6 
REMARK    3  A    between atoms: N1_6  and  C5_8 
REMARK       I    between atoms: N2_20  and  C17_21 
REMARK       I    between atoms: C17_21  and  N3_23 
REMARK    4  A    between atoms: N3_23  and  C18_25 
REMARK    5  A    between atoms: C18_25  and  C19_26 
REMARK    6  A    between atoms: C18_25  and  C22_30 
REMARK    7  A    between atoms: C19_26  and  C20_27 
REMARK    8  A    between atoms: C20_27  and  S1_28 
REMARK       I    between atoms: C22_30  and  N4_32 
REMARK    9  A    between atoms: N4_32  and  C23_34 
REMARK   10  A    between atoms: C23_34  and  C24_35 
ROOT
HETATM    1  C5  UNL     1     -11.477  16.614  27.404  1.00  0.00     0.178 C 
HETATM    2  C6  UNL     1     -12.674  16.031  28.198  1.00  0.00     0.035 C 
HETATM    3  C7  UNL     1     -12.256  15.316  29.432  1.00  0.00     0.002 C 
HETATM    4  C8  UNL     1     -13.421  15.394  30.434  1.00  0.00     0.000 C 
HETATM    5  C9  UNL     1     -12.768  15.442  31.825  1.00  0.00     0.000 C 
HETATM    6  C10 UNL     1     -12.252  14.065  32.110  1.00  0.00     0.000 C 
HETATM    7  C11 UNL     1     -11.130  13.984  33.085  1.00  0.00     0.000 C 
HETATM    8  C12 UNL     1     -10.687  15.293  33.648  1.00  0.00     0.000 C 
HETATM    9  C13 UNL     1      -9.481  15.896  33.008  1.00  0.00     0.000 C 
HETATM   10  C14 UNL     1      -8.940  15.191  31.816  1.00  0.00     0.002 C 
HETATM   11  C15 UNL     1      -8.269  16.238  30.921  1.00  0.00     0.022 C 
HETATM   12  C16 UNL     1      -8.279  15.818  29.464  1.00  0.00     0.154 C 
HETATM   13  N2  UNL     1      -8.277  16.980  28.579  1.00  0.00    -0.240 N 
HETATM   14  C17 UNL     1      -7.072  17.302  27.882  1.00  0.00     0.337 C 
HETATM   15  O2  UNL     1      -6.076  16.563  28.064  1.00  0.00    -0.245 OA
HETATM   16  N3  UNL     1      -6.914  18.398  27.002  1.00  0.00    -0.328 N 
ATOM     17  H3  UNL     1      -7.711  19.011  26.831  1.00  0.00     0.165 HD
HETATM   18  N5  UNL     1      -9.372  17.823  28.379  1.00  0.00    -0.262 N 
ATOM     19  H5  UNL     1      -9.147  18.814  28.288  1.00  0.00     0.190 HD
HETATM   20  C29 UNL     1     -10.733  17.510  28.283  1.00  0.00     0.259 C 
HETATM   21  O4  UNL     1     -11.487  18.135  29.133  1.00  0.00    -0.269 OA
ENDROOT
BRANCH  16  22
HETATM   22  C18 UNL     1      -5.658  18.680  26.333  1.00  0.00     0.179 C 
BRANCH  22  23
HETATM   23  C19 UNL     1      -4.843  17.434  26.055  1.00  0.00     0.045 C 
BRANCH  23  24
HETATM   24  C20 UNL     1      -3.378  17.818  25.915  1.00  0.00     0.076 C 
BRANCH  24  25
HETATM   25  S1  UNL     1      -2.886  17.376  24.224  1.00  0.00    -0.173 SA
HETATM   26  C21 UNL     1      -2.828  18.842  23.173  1.00  0.00     0.089 C 
ENDBRANCH  24  25
ENDBRANCH  23  24
ENDBRANCH  22  23
BRANCH  22  27
HETATM   27  C22 UNL     1      -5.980  19.273  24.983  1.00  0.00     0.240 C 
HETATM   28  O3  UNL     1      -5.573  20.459  24.747  1.00  0.00    -0.271 OA
HETATM   29  N4  UNL     1      -6.692  18.595  23.984  1.00  0.00    -0.359 N 
ATOM     30  H4  UNL     1      -7.023  17.645  24.153  1.00  0.00     0.162 HD
BRANCH  29  31
HETATM   31  C23 UNL     1      -6.959  19.228  22.727  1.00  0.00     0.127 C 
BRANCH  31  32
HETATM   32  C24 UNL     1      -6.279  18.558  21.545  1.00  0.00     0.003 C 
HETATM   33  C25 UNL     1      -7.250  18.377  20.396  1.00  0.00     0.006 C 
HETATM   34  C26 UNL     1      -7.365  16.872  20.163  1.00  0.00     0.000 C 
HETATM   35  C27 UNL     1      -6.093  16.302  20.766  1.00  0.00     0.000 C 
HETATM   36  C28 UNL     1      -5.948  17.155  21.993  1.00  0.00     0.006 C 
ENDBRANCH  31  32
ENDBRANCH  29  31
ENDBRANCH  22  27
ENDBRANCH  16  22
BRANCH   1  37
HETATM   37  N1  UNL     1     -10.780  15.596  26.711  1.00  0.00    -0.348 N 
HETATM   38  C4  UNL     1      -9.818  15.942  25.699  1.00  0.00     0.218 C 
HETATM   39  O1  UNL     1      -9.629  17.177  25.466  1.00  0.00    -0.274 OA
ATOM     40  H1  UNL     1     -10.959  14.616  26.930  1.00  0.00     0.163 HD
BRANCH  38  41
HETATM   41  C3  UNL     1      -9.043  14.983  24.915  1.00  0.00     0.102 C 
BRANCH  41  42
HETATM   42  C2  UNL     1      -8.653  15.477  23.561  1.00  0.00     0.005 C 
HETATM   43  C1  UNL     1      -9.757  15.596  22.571  1.00  0.00     0.005 C 
ENDBRANCH  41  42
ENDBRANCH  38  41
ENDBRANCH   1  37
TORSDOF 10
ENDMDL
MODEL 3
REMARK VINA RESULT: -8.006171238      2.406      9.604
REMARK  10 active torsions:
REMARK  status: ('A' for Active; 'I' for Inactive)
REMARK    1  A    between atoms: C2_2  and  C3_3 
REMARK    2  A    between atoms: C3_3  and  C4_4 
REMARK       I    between atoms: C4_4  and  N1_6 
REMARK    3  A    between atoms: N1_6  and  C5_8 
REMARK       I    between atoms: N2_20  and  C17_21 
REMARK       I    between atoms: C17_21  and  N3_23 
REMARK    4  A    between atoms: N3_23  and  C18_25 
REMARK    5  A    between atoms: C18_25  and  C19_26 
REMARK    6  A    between atoms: C18_25  and  C22_30 
REMARK    7  A    between atoms: C19_26  and  C20_27 
REMARK    8  A    between atoms: C20_27  and  S1_28 
REMARK       I    between atoms: C22_30  and  N4_32 
REMARK    9  A    between atoms: N4_32  and  C23_34 
REMARK   10  A    between atoms: C23_34  and  C24_35 
ROOT
HETATM    1  C5  UNL     1     -14.376  13.550  31.672  1.00  0.00     0.178 C 
HETATM    2  C6  UNL     1     -14.996  12.649  32.771  1.00  0.00     0.035 C 
HETATM    3  C7  UNL     1     -14.080  12.427  33.920  1.00  0.00     0.002 C 
HETATM    4  C8  UNL     1     -14.947  12.157  35.163  1.00  0.00     0.000 C 
HETATM    5  C9  UNL     1     -14.160  12.737  36.350  1.00  0.00     0.000 C 
HETATM    6  C10 UNL     1     -13.016  11.807  36.607  1.00  0.00     0.000 C 
HETATM    7  C11 UNL     1     -11.837  12.408  37.290  1.00  0.00     0.000 C 
HETATM    8  C12 UNL     1     -11.972  13.855  37.629  1.00  0.00     0.000 C 
HETATM    9  C13 UNL     1     -11.328  14.805  36.676  1.00  0.00     0.000 C 
HETATM   10  C14 UNL     1     -10.738  14.213  35.446  1.00  0.00     0.002 C 
HETATM   11  C15 UNL     1     -10.809  15.270  34.340  1.00  0.00     0.022 C 
HETATM   12  C16 UNL     1     -10.875  14.637  32.963  1.00  0.00     0.154 C 
HETATM   13  N2  UNL     1     -11.578  15.501  32.017  1.00  0.00    -0.240 N 
HETATM   14  C17 UNL     1     -10.811  16.193  31.031  1.00  0.00     0.337 C 
HETATM   15  O2  UNL     1      -9.570  16.018  31.025  1.00  0.00    -0.245 OA
HETATM   16  N3  UNL     1     -11.347  17.068  30.057  1.00  0.00    -0.328 N 
ATOM     17  H3  UNL     1     -12.355  17.223  30.036  1.00  0.00     0.165 HD
HETATM   18  N5  UNL     1     -12.957  15.719  32.021  1.00  0.00    -0.262 N 
ATOM     19  H5  UNL     1     -13.246  16.673  31.804  1.00  0.00     0.190 HD
HETATM   20  C29 UNL     1     -14.002  14.823  32.277  1.00  0.00     0.259 C 
HETATM   21  O4  UNL     1     -14.799  15.189  33.232  1.00  0.00    -0.269 OA
ENDROOT
BRANCH  16  22
HETATM   22  C18 UNL     1     -10.513  17.754  29.088  1.00  0.00     0.179 C 
BRANCH  22  23
HETATM   23  C19 UNL     1      -9.063  17.319  29.144  1.00  0.00     0.045 C 
BRANCH  23  24
HETATM   24  C20 UNL     1      -8.184  18.451  28.633  1.00  0.00     0.076 C 
BRANCH  24  25
HETATM   25  S1  UNL     1      -6.753  17.672  27.830  1.00  0.00    -0.173 SA
HETATM   26  C21 UNL     1      -6.396  18.471  26.251  1.00  0.00     0.089 C 
ENDBRANCH  24  25
ENDBRANCH  23  24
ENDBRANCH  22  23
BRANCH  22  27
HETATM   27  C22 UNL     1     -11.004  17.378  27.712  1.00  0.00     0.240 C 
HETATM   28  O3  UNL     1     -12.145  16.813  27.627  1.00  0.00    -0.271 OA
HETATM   29  N4  UNL     1     -10.283  17.617  26.534  1.00  0.00    -0.359 N 
ATOM     30  H4  UNL     1      -9.370  18.070  26.582  1.00  0.00     0.162 HD
BRANCH  29  31
HETATM   31  C23 UNL     1     -10.818  17.229  25.264  1.00  0.00     0.127 C 
BRANCH  31  32
HETATM   32  C24 UNL     1     -10.245  15.929  24.727  1.00  0.00     0.003 C 
HETATM   33  C25 UNL     1      -8.771  15.811  25.056  1.00  0.00     0.006 C 
HETATM   34  C26 UNL     1      -8.034  15.761  23.719  1.00  0.00     0.000 C 
HETATM   35  C27 UNL     1      -9.087  15.296  22.729  1.00  0.00     0.000 C 
HETATM   36  C28 UNL     1     -10.296  16.039  23.222  1.00  0.00     0.006 C 
ENDBRANCH  31  32
ENDBRANCH  29  31
ENDBRANCH  22  27
ENDBRANCH  16  22
BRANCH   1  37
HETATM   37  N1  UNL     1     -13.415  12.841  30.913  1.00  0.00    -0.348 N 
HETATM   38  C4  UNL     1     -13.085  13.277  29.581  1.00  0.00     0.218 C 
HETATM   39  O1  UNL     1     -13.684  14.304  29.135  1.00  0.00    -0.274 OA
ATOM     40  H1  UNL     1     -12.956  12.021  31.309  1.00  0.00     0.163 HD
BRANCH  38  41
HETATM   41  C3  UNL     1     -12.117  12.625  28.702  1.00  0.00     0.102 C 
BRANCH  41  42
HETATM   42  C2  UNL     1     -11.532  13.527  27.666  1.00  0.00     0.005 C 
HETATM   43  C1  UNL     1     -10.169  14.051  27.956  1.00  0.00     0.005 C 
ENDBRANCH  41  42
ENDBRANCH  38  41
ENDBRANCH   1  37
TORSDOF 10
ENDMDL
MODEL 4
REMARK VINA RESULT: -7.965063754      3.916     10.449
REMARK  10 active torsions:
REMARK  status: ('A' for Active; 'I' for Inactive)
REMARK    1  A    between atoms: C2_2  and  C3_3 
REMARK    2  A    between atoms: C3_3  and  C4_4 
REMARK       I    between atoms: C4_4  and  N1_6 
REMARK    3  A    between atoms: N1_6  and  C5_8 
REMARK       I    between atoms: N2_20  and  C17_21 
REMARK       I    between atoms: C17_21  and  N3_23 
REMARK    4  A    between atoms: N3_23  and  C18_25 
REMARK    5  A    between atoms: C18_25  and  C19_26 
REMARK    6  A    between atoms: C18_25  and  C22_30 
REMARK    7  A    between atoms: C19_26  and  C20_27 
REMARK    8  A    between atoms: C20_27  and  S1_28 
REMARK       I    between atoms: C22_30  and  N4_32 
REMARK    9  A    between atoms: N4_32  and  C23_34 
REMARK   10  A    between atoms: C23_34  and  C24_35 
ROOT
HETATM    1  C5  UNL     1     -10.376  17.128  25.913  1.00  0.00     0.178 C 
HETATM    2  C6  UNL     1     -11.678  16.596  26.564  1.00  0.00     0.035 C 
HETATM    3  C7  UNL     1     -11.433  15.866  27.835  1.00  0.00     0.002 C 
HETATM    4  C8  UNL     1     -12.700  15.992  28.699  1.00  0.00     0.000 C 
HETATM    5  C9  UNL     1     -12.207  16.015  30.156  1.00  0.00     0.000 C 
HETATM    6  C10 UNL     1     -11.784  14.619  30.492  1.00  0.00     0.000 C 
HETATM    7  C11 UNL     1     -10.784  14.494  31.588  1.00  0.00     0.000 C 
HETATM    8  C12 UNL     1     -10.355  15.784  32.203  1.00  0.00     0.000 C 
HETATM    9  C13 UNL     1      -9.061  16.337  31.706  1.00  0.00     0.000 C 
HETATM   10  C14 UNL     1      -8.417  15.609  30.580  1.00  0.00     0.002 C 
HETATM   11  C15 UNL     1      -7.606  16.626  29.771  1.00  0.00     0.022 C 
HETATM   12  C16 UNL     1      -7.467  16.205  28.320  1.00  0.00     0.154 C 
HETATM   13  N2  UNL     1      -7.318  17.365  27.445  1.00  0.00    -0.240 N 
HETATM   14  C17 UNL     1      -6.029  17.637  26.891  1.00  0.00     0.337 C 
HETATM   15  O2  UNL     1      -5.091  16.858  27.182  1.00  0.00    -0.245 OA
HETATM   16  N3  UNL     1      -5.728  18.724  26.038  1.00  0.00    -0.328 N 
ATOM     17  H3  UNL     1      -6.475  19.369  25.780  1.00  0.00     0.165 HD
HETATM   18  N5  UNL     1      -8.348  18.252  27.125  1.00  0.00    -0.262 N 
ATOM     19  H5  UNL     1      -8.074  19.232  27.064  1.00  0.00     0.190 HD
HETATM   20  C29 UNL     1      -9.701  17.994  26.874  1.00  0.00     0.259 C 
HETATM   21  O4  UNL     1     -10.521  18.650  27.635  1.00  0.00    -0.269 OA
ENDROOT
BRANCH  16  22
HETATM   22  C18 UNL     1      -4.394  18.954  25.517  1.00  0.00     0.179 C 
BRANCH  22  23
HETATM   23  C19 UNL     1      -3.455  17.792  25.763  1.00  0.00     0.045 C 
BRANCH  23  24
HETATM   24  C20 UNL     1      -2.132  18.064  25.063  1.00  0.00     0.076 C 
BRANCH  24  25
HETATM   25  S1  UNL     1      -1.727  16.565  24.121  1.00  0.00    -0.173 SA
HETATM   26  C21 UNL     1      -1.946  16.847  22.351  1.00  0.00     0.089 C 
ENDBRANCH  24  25
ENDBRANCH  23  24
ENDBRANCH  22  23
BRANCH  22  27
HETATM   27  C22 UNL     1      -4.503  19.087  24.017  1.00  0.00     0.240 C 
HETATM   28  O3  UNL     1      -3.819  20.006  23.455  1.00  0.00    -0.271 OA
HETATM   29  N4  UNL     1      -5.306  18.261  23.218  1.00  0.00    -0.359 N 
ATOM     30  H4  UNL     1      -5.857  17.520  23.650  1.00  0.00     0.162 HD
BRANCH  29  31
HETATM   31  C23 UNL     1      -5.356  18.452  21.800  1.00  0.00     0.127 C 
BRANCH  31  32
HETATM   32  C24 UNL     1      -6.125  17.370  21.061  1.00  0.00     0.003 C 
HETATM   33  C25 UNL     1      -5.420  16.991  19.774  1.00  0.00     0.006 C 
HETATM   34  C26 UNL     1      -6.383  17.335  18.640  1.00  0.00     0.000 C 
HETATM   35  C27 UNL     1      -7.749  17.359  19.303  1.00  0.00     0.000 C 
HETATM   36  C28 UNL     1      -7.421  18.004  20.618  1.00  0.00     0.006 C 
ENDBRANCH  31  32
ENDBRANCH  29  31
ENDBRANCH  22  27
ENDBRANCH  16  22
BRANCH   1  37
HETATM   37  N1  UNL     1      -9.647  16.082  25.301  1.00  0.00    -0.348 N 
HETATM   38  C4  UNL     1      -8.569  16.387  24.398  1.00  0.00     0.218 C 
HETATM   39  O1  UNL     1      -8.311  17.613  24.185  1.00  0.00    -0.274 OA
ATOM     40  H1  UNL     1      -9.885  15.110  25.500  1.00  0.00     0.163 HD
BRANCH  38  41
HETATM   41  C3  UNL     1      -7.750  15.396  23.703  1.00  0.00     0.102 C 
BRANCH  41  42
HETATM   42  C2  UNL     1      -8.389  14.828  22.480  1.00  0.00     0.005 C 
HETATM   43  C1  UNL     1      -9.652  15.482  22.043  1.00  0.00     0.005 C 
ENDBRANCH  41  42
ENDBRANCH  38  41
ENDBRANCH   1  37
TORSDOF 10
ENDMDL
MODEL 5
REMARK VINA RESULT: -7.886126440      2.694      4.398
REMARK  10 active torsions:
REMARK  status: ('A' for Active; 'I' for Inactive)
REMARK    1  A    between atoms: C2_2  and  C3_3 
REMARK    2  A    between atoms: C3_3  and  C4_4 
REMARK       I    between atoms: C4_4  and  N1_6 
REMARK    3  A    between atoms: N1_6  and  C5_8 
REMARK       I    between atoms: N2_20  and  C17_21 
REMARK       I    between atoms: C17_21  and  N3_23 
REMARK    4  A    between atoms: N3_23  and  C18_25 
REMARK    5  A    between atoms: C18_25  and  C19_26 
REMARK    6  A    between atoms: C18_25  and  C22_30 
REMARK    7  A    between atoms: C19_26  and  C20_27 
REMARK    8  A    between atoms: C20_27  and  S1_28 
REMARK       I    between atoms: C22_30  and  N4_32 
REMARK    9  A    between atoms: N4_32  and  C23_34 
REMARK   10  A    between atoms: C23_34  and  C24_35 
ROOT
HETATM    1  C5  UNL     1      -5.289  18.795  25.605  1.00  0.00     0.178 C 
HETATM    2  C6  UNL     1      -4.035  18.925  24.702  1.00  0.00     0.035 C 
HETATM    3  C7  UNL     1      -4.100  18.061  23.495  1.00  0.00     0.002 C 
HETATM    4  C8  UNL     1      -3.246  18.724  22.400  1.00  0.00     0.000 C 
HETATM    5  C9  UNL     1      -3.931  18.371  21.070  1.00  0.00     0.000 C 
HETATM    6  C10 UNL     1      -3.645  16.926  20.804  1.00  0.00     0.000 C 
HETATM    7  C11 UNL     1      -4.621  16.225  19.925  1.00  0.00     0.000 C 
HETATM    8  C12 UNL     1      -5.743  17.073  19.425  1.00  0.00     0.000 C 
HETATM    9  C13 UNL     1      -7.028  16.951  20.175  1.00  0.00     0.000 C 
HETATM   10  C14 UNL     1      -7.006  16.101  21.395  1.00  0.00     0.002 C 
HETATM   11  C15 UNL     1      -8.060  16.648  22.362  1.00  0.00     0.022 C 
HETATM   12  C16 UNL     1      -7.709  16.343  23.806  1.00  0.00     0.154 C 
HETATM   13  N2  UNL     1      -8.265  17.347  24.709  1.00  0.00    -0.240 N 
HETATM   14  C17 UNL     1      -9.393  16.990  25.510  1.00  0.00     0.337 C 
HETATM   15  O2  UNL     1      -9.845  15.826  25.398  1.00  0.00    -0.245 OA
HETATM   16  N3  UNL     1     -10.045  17.854  26.421  1.00  0.00    -0.328 N 
ATOM     17  H3  UNL     1      -9.693  18.805  26.535  1.00  0.00     0.165 HD
HETATM   18  N5  UNL     1      -7.785  18.652  24.832  1.00  0.00    -0.262 N 
ATOM     19  H5  UNL     1      -8.500  19.368  24.959  1.00  0.00     0.190 HD
HETATM   20  C29 UNL     1      -6.466  19.124  24.808  1.00  0.00     0.259 C 
HETATM   21  O4  UNL     1      -6.239  20.030  23.909  1.00  0.00    -0.269 OA
ENDROOT
BRANCH  16  22
HETATM   22  C18 UNL     1     -11.196  17.436  27.197  1.00  0.00     0.179 C 
BRANCH  22  23
HETATM   23  C19 UNL     1     -11.410  15.937  27.178  1.00  0.00     0.045 C 
BRANCH  23  24
HETATM   24  C20 UNL     1     -12.550  15.584  28.120  1.00  0.00     0.076 C 
BRANCH  24  25
HETATM   25  S1  UNL     1     -12.149  13.962  28.833  1.00  0.00    -0.173 SA
HETATM   26  C21 UNL     1     -12.260  12.670  27.577  1.00  0.00     0.089 C 
ENDBRANCH  24  25
ENDBRANCH  23  24
ENDBRANCH  22  23
BRANCH  22  27
HETATM   27  C22 UNL     1     -10.933  17.797  28.639  1.00  0.00     0.240 C 
HETATM   28  O3  UNL     1     -11.860  18.402  29.274  1.00  0.00    -0.271 OA
HETATM   29  N4  UNL     1      -9.738  17.503  29.311  1.00  0.00    -0.359 N 
ATOM     30  H4  UNL     1      -8.988  17.017  28.820  1.00  0.00     0.162 HD
BRANCH  29  31
HETATM   31  C23 UNL     1      -9.565  17.880  30.681  1.00  0.00     0.127 C 
BRANCH  31  32
HETATM   32  C24 UNL     1      -9.281  16.711  31.609  1.00  0.00     0.003 C 
HETATM   33  C25 UNL     1     -10.509  15.838  31.770  1.00  0.00     0.006 C 
HETATM   34  C26 UNL     1     -10.883  15.890  33.249  1.00  0.00     0.000 C 
HETATM   35  C27 UNL     1      -9.597  16.299  33.946  1.00  0.00     0.000 C 
HETATM   36  C28 UNL     1      -9.051  17.308  32.976  1.00  0.00     0.006 C 
ENDBRANCH  31  32
ENDBRANCH  29  31
ENDBRANCH  22  27
ENDBRANCH  16  22
BRANCH   1  37
HETATM   37  N1  UNL     1      -5.270  17.583  26.334  1.00  0.00    -0.348 N 
HETATM   38  C4  UNL     1      -6.194  17.380  27.419  1.00  0.00     0.218 C 
HETATM   39  O1  UNL     1      -7.009  18.319  27.679  1.00  0.00    -0.274 OA
ATOM     40  H1  UNL     1      -4.601  16.853  26.091  1.00  0.00     0.163 HD
BRANCH  38  41
HETATM   41  C3  UNL     1      -6.266  16.177  28.246  1.00  0.00     0.102 C 
BRANCH  41  42
HETATM   42  C2  UNL     1      -7.388  15.260  27.891  1.00  0.00     0.005 C 
HETATM   43  C1  UNL     1      -8.132  14.670  29.037  1.00  0.00     0.005 C 
ENDBRANCH  41  42
ENDBRANCH  38  41
ENDBRANCH   1  37
TORSDOF 10
ENDMDL
