MODEL 1
REMARK VINA RESULT: -3.414581968      0.000      0.000
REMARK  3 active torsions:
REMARK  status: ('A' for Active; 'I' for Inactive)
REMARK    1  A    between atoms: N1_2  and  N2_4 
REMARK    2  A    between atoms: N1_2  and  C3_8 
REMARK    3  A    between atoms: N2_4  and  N3_5 
ROOT
HETATM    1  C1  UNL     1      71.580  45.743  24.713  1.00  0.00     0.299 C 
HETATM    2  N1  UNL     1      72.799  45.650  25.468  1.00  0.00     0.025 N 
HETATM    3  C2  UNL     1      72.405  45.247  26.828  1.00  0.00     0.299 C 
ENDROOT
BRANCH   2   4
HETATM    4  N2  UNL     1      73.335  46.925  25.582  1.00  0.00     0.065 NA
BRANCH   4   5
HETATM    5  N3  UNL     1      72.842  47.667  26.630  1.00  0.00    -0.323 N 
ATOM      6  H32 UNL     1      71.873  47.986  26.652  1.00  0.00     0.174 HD
ATOM      7  H31 UNL     1      73.517  47.865  27.368  1.00  0.00     0.174 HD
ENDBRANCH   4   5
ENDBRANCH   2   4
BRANCH   2   8
HETATM    8  C3  UNL     1      73.717  44.662  24.994  1.00  0.00     0.212 A 
HETATM    9  C4  UNL     1      74.494  43.787  25.905  1.00  0.00     0.037 A 
HETATM   10  C5  UNL     1      73.425  43.218  24.988  1.00  0.00     0.037 A 
ENDBRANCH   2   8
TORSDOF 3
ENDMDL
MODEL 2
REMARK VINA RESULT: -3.348462866      8.109      9.386
REMARK  3 active torsions:
REMARK  status: ('A' for Active; 'I' for Inactive)
REMARK    1  A    between atoms: N1_2  and  N2_4 
REMARK    2  A    between atoms: N1_2  and  C3_8 
REMARK    3  A    between atoms: N2_4  and  N3_5 
ROOT
HETATM    1  C1  UNL     1      69.853  43.493  18.629  1.00  0.00     0.299 C 
HETATM    2  N1  UNL     1      68.438  43.636  18.837  1.00  0.00     0.025 N 
HETATM    3  C2  UNL     1      68.285  44.585  19.952  1.00  0.00     0.299 C 
ENDROOT
BRANCH   2   4
HETATM    4  N2  UNL     1      67.944  42.421  19.291  1.00  0.00     0.065 NA
BRANCH   4   5
HETATM    5  N3  UNL     1      68.671  41.321  18.902  1.00  0.00    -0.323 N 
ATOM      6  H32 UNL     1      69.691  41.337  18.867  1.00  0.00     0.174 HD
ATOM      7  H31 UNL     1      68.112  40.504  18.657  1.00  0.00     0.174 HD
ENDBRANCH   4   5
ENDBRANCH   2   4
BRANCH   2   8
HETATM    8  C3  UNL     1      67.727  44.187  17.726  1.00  0.00     0.212 A 
HETATM    9  C4  UNL     1      66.253  44.342  17.715  1.00  0.00     0.037 A 
HETATM   10  C5  UNL     1      67.172  45.552  17.712  1.00  0.00     0.037 A 
ENDBRANCH   2   8
TORSDOF 3
ENDMDL
MODEL 3
REMARK VINA RESULT: -3.141834014     10.877     11.589
REMARK  3 active torsions:
REMARK  status: ('A' for Active; 'I' for Inactive)
REMARK    1  A    between atoms: N1_2  and  N2_4 
REMARK    2  A    between atoms: N1_2  and  C3_8 
REMARK    3  A    between atoms: N2_4  and  N3_5 
ROOT
HETATM    1  C1  UNL     1      81.416  36.483  23.277  1.00  0.00     0.299 C 
HETATM    2  N1  UNL     1      80.282  36.596  24.153  1.00  0.00     0.025 N 
HETATM    3  C2  UNL     1      80.550  35.692  25.283  1.00  0.00     0.299 C 
ENDROOT
BRANCH   2   4
HETATM    4  N2  UNL     1      79.175  36.078  23.495  1.00  0.00     0.065 NA
BRANCH   4   5
HETATM    5  N3  UNL     1      79.368  35.818  22.159  1.00  0.00    -0.323 N 
ATOM      6  H32 UNL     1      80.242  35.424  21.809  1.00  0.00     0.174 HD
ATOM      7  H31 UNL     1      78.576  36.049  21.559  1.00  0.00     0.174 HD
ENDBRANCH   4   5
ENDBRANCH   2   4
BRANCH   2   8
HETATM    8  C3  UNL     1      80.086  37.900  24.706  1.00  0.00     0.212 A 
HETATM    9  C4  UNL     1      80.294  38.202  26.142  1.00  0.00     0.037 A 
HETATM   10  C5  UNL     1      81.192  38.802  25.072  1.00  0.00     0.037 A 
ENDBRANCH   2   8
TORSDOF 3
ENDMDL
MODEL 4
REMARK VINA RESULT: -3.094074022      1.021      1.023
REMARK  3 active torsions:
REMARK  status: ('A' for Active; 'I' for Inactive)
REMARK    1  A    between atoms: N1_2  and  N2_4 
REMARK    2  A    between atoms: N1_2  and  C3_8 
REMARK    3  A    between atoms: N2_4  and  N3_5 
ROOT
HETATM    1  C1  UNL     1      71.779  44.320  26.085  1.00  0.00     0.299 C 
HETATM    2  N1  UNL     1      72.983  45.049  25.796  1.00  0.00     0.025 N 
HETATM    3  C2  UNL     1      73.604  45.342  27.098  1.00  0.00     0.299 C 
ENDROOT
BRANCH   2   4
HETATM    4  N2  UNL     1      72.625  46.275  25.253  1.00  0.00     0.065 NA
BRANCH   4   5
HETATM    5  N3  UNL     1      72.560  47.309  26.157  1.00  0.00    -0.323 N 
ATOM      6  H32 UNL     1      73.368  47.586  26.715  1.00  0.00     0.174 HD
ATOM      7  H31 UNL     1      71.650  47.766  26.220  1.00  0.00     0.174 HD
ENDBRANCH   4   5
ENDBRANCH   2   4
BRANCH   2   8
HETATM    8  C3  UNL     1      73.949  44.322  25.032  1.00  0.00     0.212 A 
HETATM    9  C4  UNL     1      74.984  43.465  25.657  1.00  0.00     0.037 A 
HETATM   10  C5  UNL     1      73.878  42.869  24.803  1.00  0.00     0.037 A 
ENDBRANCH   2   8
TORSDOF 3
ENDMDL
MODEL 5
REMARK VINA RESULT: -3.062824607      9.999     10.984
REMARK  3 active torsions:
REMARK  status: ('A' for Active; 'I' for Inactive)
REMARK    1  A    between atoms: N1_2  and  N2_4 
REMARK    2  A    between atoms: N1_2  and  C3_8 
REMARK    3  A    between atoms: N2_4  and  N3_5 
ROOT
HETATM    1  C1  UNL     1      81.734  37.373  23.993  1.00  0.00     0.299 C 
HETATM    2  N1  UNL     1      80.479  37.237  24.682  1.00  0.00     0.025 N 
HETATM    3  C2  UNL     1      80.555  35.964  25.417  1.00  0.00     0.299 C 
ENDROOT
BRANCH   2   4
HETATM    4  N2  UNL     1      79.480  37.078  23.732  1.00  0.00     0.065 NA
BRANCH   4   5
HETATM    5  N3  UNL     1      78.748  38.212  23.470  1.00  0.00    -0.323 N 
ATOM      6  H32 UNL     1      78.937  38.796  22.654  1.00  0.00     0.174 HD
ATOM      7  H31 UNL     1      78.013  38.414  24.148  1.00  0.00     0.174 HD
ENDBRANCH   4   5
ENDBRANCH   2   4
BRANCH   2   8
HETATM    8  C3  UNL     1      80.220  38.257  25.649  1.00  0.00     0.212 A 
HETATM    9  C4  UNL     1      80.366  38.035  27.108  1.00  0.00     0.037 A 
HETATM   10  C5  UNL     1      81.280  38.992  26.361  1.00  0.00     0.037 A 
ENDBRANCH   2   8
TORSDOF 3
ENDMDL
