MODEL 1
REMARK VINA RESULT: -7.063834579      0.000      0.000
REMARK  9 active torsions:
REMARK  status: ('A' for Active; 'I' for Inactive)
REMARK       I    between atoms: C2_2  and  N1_4 
REMARK    1  A    between atoms: N1_4  and  C3_6 
REMARK    2  A    between atoms: C5_10  and  C6_11 
REMARK    3  A    between atoms: C6_11  and  N3_12 
REMARK    4  A    between atoms: C7_19  and  C8_20 
REMARK    5  A    between atoms: N5_22  and  C10_23 
REMARK    6  A    between atoms: C10_23  and  C11_24 
REMARK    7  A    between atoms: C11_24  and  C12_25 
REMARK    8  A    between atoms: C12_25  and  C13_26 
REMARK    9  A    between atoms: C13_26  and  N6_27 
REMARK       I    between atoms: N6_27  and  C14_29 
ROOT
HETATM    1  C3  UNL     1      -3.703  78.094  31.875  1.00  0.00     0.118 C 
HETATM    2  C4  UNL     1      -3.293  76.885  31.197  1.00  0.00     0.059 C 
HETATM    3  N2  UNL     1      -2.812  75.812  32.037  1.00  0.00    -0.361 N 
ATOM      4  H2  UNL     1      -2.152  75.896  32.811  1.00  0.00     0.161 HD
HETATM    5  C5  UNL     1      -3.437  74.605  31.578  1.00  0.00     0.311 C 
HETATM    6  N4  UNL     1      -3.595  74.877  30.152  1.00  0.00    -0.037 N 
ATOM      7  H41 UNL     1      -4.204  74.219  29.666  1.00  0.00     0.281 HD
ATOM      8  H42 UNL     1      -2.761  74.688  29.597  1.00  0.00     0.281 HD
HETATM    9  C7  UNL     1      -4.053  76.282  30.097  1.00  0.00     0.291 C 
ENDROOT
BRANCH   9  10
HETATM   10  C8  UNL     1      -3.615  76.750  28.742  1.00  0.00     0.081 A 
HETATM   11  C9  UNL     1      -4.134  77.722  27.938  1.00  0.00     0.140 A 
HETATM   12  N5  UNL     1      -3.399  77.774  26.819  1.00  0.00    -0.287 N 
HETATM   13  N9  UNL     1      -2.453  76.850  26.948  1.00  0.00    -0.241 N 
HETATM   14  N10 UNL     1      -2.569  76.225  28.097  1.00  0.00    -0.286 N 
ATOM     15  H9  UNL     1      -1.736  76.654  26.250  1.00  0.00     0.208 HD
ATOM     16  H10 UNL     1      -1.968  75.473  28.437  1.00  0.00     0.188 HD
BRANCH  12  17
HETATM   17  C10 UNL     1      -3.601  78.647  25.705  1.00  0.00     0.150 C 
BRANCH  17  18
HETATM   18  C11 UNL     1      -4.888  79.403  25.776  1.00  0.00     0.023 C 
BRANCH  18  19
HETATM   19  C12 UNL     1      -5.036  80.431  24.705  1.00  0.00     0.021 C 
BRANCH  19  20
HETATM   20  C13 UNL     1      -6.216  81.351  24.919  1.00  0.00     0.122 C 
BRANCH  20  21
HETATM   21  N6  UNL     1      -6.529  82.109  23.726  1.00  0.00    -0.365 N 
HETATM   22  C14 UNL     1      -6.532  81.469  22.457  1.00  0.00     0.181 C 
HETATM   23  N7  UNL     1      -7.611  80.923  22.023  1.00  0.00    -0.374 N 
HETATM   24  N8  UNL     1      -5.336  81.456  21.708  1.00  0.00    -0.064 NA
ATOM     25  H72 UNL     1      -8.476  80.933  22.565  1.00  0.00     0.158 HD
ATOM     26  H71 UNL     1      -7.614  80.464  21.112  1.00  0.00     0.158 HD
ATOM     27  H6  UNL     1      -6.748  83.103  23.797  1.00  0.00     0.162 HD
ENDBRANCH  20  21
ENDBRANCH  19  20
ENDBRANCH  18  19
ENDBRANCH  17  18
ENDBRANCH  12  17
ENDBRANCH   9  10
BRANCH   1  28
HETATM   28  N1  UNL     1      -4.703  78.163  32.849  1.00  0.00    -0.336 N 
HETATM   29  C2  UNL     1      -6.065  77.987  32.893  1.00  0.00     0.217 C 
HETATM   30  C1  UNL     1      -6.824  78.144  34.161  1.00  0.00     0.117 C 
HETATM   31  O1  UNL     1      -6.750  77.692  31.908  1.00  0.00    -0.274 OA
ATOM     32  H1  UNL     1      -4.324  78.408  33.764  1.00  0.00     0.168 HD
ENDBRANCH   1  28
BRANCH   5  33
HETATM   33  C6  UNL     1      -2.542  73.406  31.806  1.00  0.00     0.283 C 
BRANCH  33  34
HETATM   34  N3  UNL     1      -1.600  73.224  30.726  1.00  0.00    -0.076 N 
ATOM     35  H33 UNL     1      -2.030  73.416  29.821  1.00  0.00     0.274 HD
ATOM     36  H32 UNL     1      -0.890  73.957  30.725  1.00  0.00     0.274 HD
ATOM     37  H31 UNL     1      -1.175  72.297  30.743  1.00  0.00     0.274 HD
ENDBRANCH  33  34
ENDBRANCH   5  33
TORSDOF 9
ENDMDL
MODEL 2
REMARK VINA RESULT: -7.063695309      1.235      1.406
REMARK  9 active torsions:
REMARK  status: ('A' for Active; 'I' for Inactive)
REMARK       I    between atoms: C2_2  and  N1_4 
REMARK    1  A    between atoms: N1_4  and  C3_6 
REMARK    2  A    between atoms: C5_10  and  C6_11 
REMARK    3  A    between atoms: C6_11  and  N3_12 
REMARK    4  A    between atoms: C7_19  and  C8_20 
REMARK    5  A    between atoms: N5_22  and  C10_23 
REMARK    6  A    between atoms: C10_23  and  C11_24 
REMARK    7  A    between atoms: C11_24  and  C12_25 
REMARK    8  A    between atoms: C12_25  and  C13_26 
REMARK    9  A    between atoms: C13_26  and  N6_27 
REMARK       I    between atoms: N6_27  and  C14_29 
ROOT
HETATM    1  C3  UNL     1      -3.398  77.906  32.302  1.00  0.00     0.118 C 
HETATM    2  C4  UNL     1      -3.161  76.728  31.498  1.00  0.00     0.059 C 
HETATM    3  N2  UNL     1      -2.588  75.591  32.183  1.00  0.00    -0.361 N 
ATOM      4  H2  UNL     1      -1.802  75.608  32.834  1.00  0.00     0.161 HD
HETATM    5  C5  UNL     1      -3.332  74.435  31.775  1.00  0.00     0.311 C 
HETATM    6  N4  UNL     1      -3.721  74.798  30.415  1.00  0.00    -0.037 N 
ATOM      7  H41 UNL     1      -4.432  74.190  30.007  1.00  0.00     0.281 HD
ATOM      8  H42 UNL     1      -3.004  74.617  29.713  1.00  0.00     0.281 HD
HETATM    9  C7  UNL     1      -4.124  76.217  30.516  1.00  0.00     0.291 C 
ENDROOT
BRANCH   9  10
HETATM   10  C8  UNL     1      -3.906  76.752  29.133  1.00  0.00     0.081 A 
HETATM   11  C9  UNL     1      -4.622  77.671  28.424  1.00  0.00     0.140 A 
HETATM   12  N5  UNL     1      -4.037  77.823  27.228  1.00  0.00    -0.287 N 
HETATM   13  N9  UNL     1      -2.986  77.011  27.219  1.00  0.00    -0.241 N 
HETATM   14  N10 UNL     1      -2.893  76.359  28.356  1.00  0.00    -0.286 N 
ATOM     15  H9  UNL     1      -2.340  76.907  26.436  1.00  0.00     0.208 HD
ATOM     16  H10 UNL     1      -2.177  75.675  28.600  1.00  0.00     0.188 HD
BRANCH  12  17
HETATM   17  C10 UNL     1      -4.467  78.684  26.171  1.00  0.00     0.150 C 
BRANCH  17  18
HETATM   18  C11 UNL     1      -5.667  79.499  26.528  1.00  0.00     0.023 C 
BRANCH  18  19
HETATM   19  C12 UNL     1      -5.733  80.808  25.815  1.00  0.00     0.021 C 
BRANCH  19  20
HETATM   20  C13 UNL     1      -5.721  80.671  24.310  1.00  0.00     0.122 C 
BRANCH  20  21
HETATM   21  N6  UNL     1      -4.554  81.294  23.723  1.00  0.00    -0.365 N 
HETATM   22  C14 UNL     1      -4.678  82.535  23.042  1.00  0.00     0.181 C 
HETATM   23  N7  UNL     1      -4.556  83.634  23.696  1.00  0.00    -0.374 N 
HETATM   24  N8  UNL     1      -4.931  82.518  21.653  1.00  0.00    -0.064 NA
ATOM     25  H72 UNL     1      -4.373  83.647  24.700  1.00  0.00     0.158 HD
ATOM     26  H71 UNL     1      -4.644  84.525  23.207  1.00  0.00     0.158 HD
ATOM     27  H6  UNL     1      -3.643  80.842  23.798  1.00  0.00     0.162 HD
ENDBRANCH  20  21
ENDBRANCH  19  20
ENDBRANCH  18  19
ENDBRANCH  17  18
ENDBRANCH  12  17
ENDBRANCH   9  10
BRANCH   1  28
HETATM   28  N1  UNL     1      -4.212  77.948  33.438  1.00  0.00    -0.336 N 
HETATM   29  C2  UNL     1      -5.233  77.191  33.961  1.00  0.00     0.217 C 
HETATM   30  C1  UNL     1      -5.883  77.553  35.247  1.00  0.00     0.117 C 
HETATM   31  O1  UNL     1      -5.681  76.176  33.416  1.00  0.00    -0.274 OA
ATOM     32  H1  UNL     1      -3.991  78.747  34.032  1.00  0.00     0.168 HD
ENDBRANCH   1  28
BRANCH   5  33
HETATM   33  C6  UNL     1      -2.463  73.197  31.778  1.00  0.00     0.283 C 
BRANCH  33  34
HETATM   34  N3  UNL     1      -1.556  73.171  30.653  1.00  0.00    -0.076 N 
ATOM     35  H33 UNL     1      -1.724  73.957  30.024  1.00  0.00     0.274 HD
ATOM     36  H32 UNL     1      -0.603  73.396  30.940  1.00  0.00     0.274 HD
ATOM     37  H31 UNL     1      -1.593  72.283  30.154  1.00  0.00     0.274 HD
ENDBRANCH  33  34
ENDBRANCH   5  33
TORSDOF 9
ENDMDL
MODEL 3
REMARK VINA RESULT: -6.934635791      4.889      9.725
REMARK  9 active torsions:
REMARK  status: ('A' for Active; 'I' for Inactive)
REMARK       I    between atoms: C2_2  and  N1_4 
REMARK    1  A    between atoms: N1_4  and  C3_6 
REMARK    2  A    between atoms: C5_10  and  C6_11 
REMARK    3  A    between atoms: C6_11  and  N3_12 
REMARK    4  A    between atoms: C7_19  and  C8_20 
REMARK    5  A    between atoms: N5_22  and  C10_23 
REMARK    6  A    between atoms: C10_23  and  C11_24 
REMARK    7  A    between atoms: C11_24  and  C12_25 
REMARK    8  A    between atoms: C12_25  and  C13_26 
REMARK    9  A    between atoms: C13_26  and  N6_27 
REMARK       I    between atoms: N6_27  and  C14_29 
ROOT
HETATM    1  C3  UNL     1      -3.722  75.003  31.753  1.00  0.00     0.118 C 
HETATM    2  C4  UNL     1      -3.016  75.778  32.749  1.00  0.00     0.059 C 
HETATM    3  N2  UNL     1      -1.577  75.833  32.614  1.00  0.00    -0.361 N 
ATOM      4  H2  UNL     1      -0.955  75.047  32.426  1.00  0.00     0.161 HD
HETATM    5  C5  UNL     1      -1.191  77.203  32.796  1.00  0.00     0.311 C 
HETATM    6  N4  UNL     1      -2.211  77.678  33.726  1.00  0.00    -0.037 N 
ATOM      7  H41 UNL     1      -2.238  78.692  33.835  1.00  0.00     0.281 HD
ATOM      8  H42 UNL     1      -2.016  77.465  34.704  1.00  0.00     0.281 HD
HETATM    9  C7  UNL     1      -3.470  77.091  33.218  1.00  0.00     0.291 C 
ENDROOT
BRANCH   9  10
HETATM   10  C8  UNL     1      -4.348  77.020  34.430  1.00  0.00     0.081 A 
HETATM   11  C9  UNL     1      -4.050  77.235  35.745  1.00  0.00     0.140 A 
HETATM   12  N5  UNL     1      -5.167  77.052  36.461  1.00  0.00    -0.287 N 
HETATM   13  N9  UNL     1      -6.121  76.734  35.593  1.00  0.00    -0.241 N 
HETATM   14  N10 UNL     1      -5.646  76.709  34.368  1.00  0.00    -0.286 N 
ATOM     15  H9  UNL     1      -7.090  76.536  35.843  1.00  0.00     0.208 HD
ATOM     16  H10 UNL     1      -6.173  76.492  33.522  1.00  0.00     0.188 HD
BRANCH  12  17
HETATM   17  C10 UNL     1      -5.301  77.169  37.879  1.00  0.00     0.150 C 
BRANCH  17  18
HETATM   18  C11 UNL     1      -4.018  76.942  38.611  1.00  0.00     0.023 C 
BRANCH  18  19
HETATM   19  C12 UNL     1      -3.465  78.175  39.242  1.00  0.00     0.021 C 
BRANCH  19  20
HETATM   20  C13 UNL     1      -2.015  78.426  38.896  1.00  0.00     0.122 C 
BRANCH  20  21
HETATM   21  N6  UNL     1      -1.768  78.279  37.478  1.00  0.00    -0.365 N 
HETATM   22  C14 UNL     1      -0.548  77.708  37.024  1.00  0.00     0.181 C 
HETATM   23  N7  UNL     1      -0.464  76.437  36.859  1.00  0.00    -0.374 N 
HETATM   24  N8  UNL     1       0.541  78.568  36.766  1.00  0.00    -0.064 NA
ATOM     25  H72 UNL     1      -1.251  75.815  37.045  1.00  0.00     0.158 HD
ATOM     26  H71 UNL     1       0.412  76.027  36.532  1.00  0.00     0.158 HD
ATOM     27  H6  UNL     1      -2.470  78.585  36.803  1.00  0.00     0.162 HD
ENDBRANCH  20  21
ENDBRANCH  19  20
ENDBRANCH  18  19
ENDBRANCH  17  18
ENDBRANCH  12  17
ENDBRANCH   9  10
BRANCH   1  28
HETATM   28  N1  UNL     1      -3.677  75.242  30.376  1.00  0.00    -0.336 N 
HETATM   29  C2  UNL     1      -4.179  76.184  29.511  1.00  0.00     0.217 C 
HETATM   30  C1  UNL     1      -3.908  76.116  28.051  1.00  0.00     0.117 C 
HETATM   31  O1  UNL     1      -4.879  77.138  29.868  1.00  0.00    -0.274 OA
ATOM     32  H1  UNL     1      -3.129  74.534  29.887  1.00  0.00     0.168 HD
ENDBRANCH   1  28
BRANCH   5  33
HETATM   33  C6  UNL     1       0.189  77.303  33.408  1.00  0.00     0.283 C 
BRANCH  33  34
HETATM   34  N3  UNL     1       0.578  78.676  33.640  1.00  0.00    -0.076 N 
ATOM     35  H33 UNL     1       0.581  79.212  32.772  1.00  0.00     0.274 HD
ATOM     36  H32 UNL     1      -0.149  79.186  34.142  1.00  0.00     0.274 HD
ATOM     37  H31 UNL     1       1.475  78.742  34.119  1.00  0.00     0.274 HD
ENDBRANCH  33  34
ENDBRANCH   5  33
TORSDOF 9
ENDMDL
MODEL 4
REMARK VINA RESULT: -6.929990133      2.802      4.194
REMARK  9 active torsions:
REMARK  status: ('A' for Active; 'I' for Inactive)
REMARK       I    between atoms: C2_2  and  N1_4 
REMARK    1  A    between atoms: N1_4  and  C3_6 
REMARK    2  A    between atoms: C5_10  and  C6_11 
REMARK    3  A    between atoms: C6_11  and  N3_12 
REMARK    4  A    between atoms: C7_19  and  C8_20 
REMARK    5  A    between atoms: N5_22  and  C10_23 
REMARK    6  A    between atoms: C10_23  and  C11_24 
REMARK    7  A    between atoms: C11_24  and  C12_25 
REMARK    8  A    between atoms: C12_25  and  C13_26 
REMARK    9  A    between atoms: C13_26  and  N6_27 
REMARK       I    between atoms: N6_27  and  C14_29 
ROOT
HETATM    1  C3  UNL     1      -1.870  76.219  33.925  1.00  0.00     0.118 C 
HETATM    2  C4  UNL     1      -3.225  76.493  33.501  1.00  0.00     0.059 C 
HETATM    3  N2  UNL     1      -4.215  76.595  34.550  1.00  0.00    -0.361 N 
ATOM      4  H2  UNL     1      -4.327  75.961  35.342  1.00  0.00     0.161 HD
HETATM    5  C5  UNL     1      -5.009  77.756  34.268  1.00  0.00     0.311 C 
HETATM    6  N4  UNL     1      -4.968  77.795  32.809  1.00  0.00    -0.037 N 
ATOM      7  H41 UNL     1      -5.311  78.667  32.404  1.00  0.00     0.281 HD
ATOM      8  H42 UNL     1      -5.648  77.186  32.355  1.00  0.00     0.281 HD
HETATM    9  C7  UNL     1      -3.561  77.485  32.474  1.00  0.00     0.291 C 
ENDROOT
BRANCH   9  10
HETATM   10  C8  UNL     1      -3.639  76.910  31.093  1.00  0.00     0.081 A 
HETATM   11  C9  UNL     1      -4.009  77.495  29.917  1.00  0.00     0.140 A 
HETATM   12  N5  UNL     1      -3.920  76.575  28.947  1.00  0.00    -0.287 N 
HETATM   13  N9  UNL     1      -3.502  75.456  29.529  1.00  0.00    -0.241 N 
HETATM   14  N10 UNL     1      -3.329  75.639  30.818  1.00  0.00    -0.286 N 
ATOM     15  H9  UNL     1      -3.337  74.575  29.041  1.00  0.00     0.208 HD
ATOM     16  H10 UNL     1      -3.015  74.938  31.489  1.00  0.00     0.188 HD
BRANCH  12  17
HETATM   17  C10 UNL     1      -4.222  76.762  27.563  1.00  0.00     0.150 C 
BRANCH  17  18
HETATM   18  C11 UNL     1      -4.590  78.170  27.226  1.00  0.00     0.023 C 
BRANCH  18  19
HETATM   19  C12 UNL     1      -4.062  78.627  25.908  1.00  0.00     0.021 C 
BRANCH  19  20
HETATM   20  C13 UNL     1      -4.846  79.774  25.314  1.00  0.00     0.122 C 
BRANCH  20  21
HETATM   21  N6  UNL     1      -4.200  80.314  24.137  1.00  0.00    -0.365 N 
HETATM   22  C14 UNL     1      -4.790  81.402  23.438  1.00  0.00     0.181 C 
HETATM   23  N7  UNL     1      -4.499  82.607  23.775  1.00  0.00    -0.374 N 
HETATM   24  N8  UNL     1      -5.685  81.118  22.384  1.00  0.00    -0.064 NA
ATOM     25  H72 UNL     1      -3.852  82.813  24.537  1.00  0.00     0.158 HD
ATOM     26  H71 UNL     1      -4.922  83.388  23.273  1.00  0.00     0.158 HD
ATOM     27  H6  UNL     1      -3.321  79.914  23.809  1.00  0.00     0.162 HD
ENDBRANCH  20  21
ENDBRANCH  19  20
ENDBRANCH  18  19
ENDBRANCH  17  18
ENDBRANCH  12  17
ENDBRANCH   9  10
BRANCH   1  28
HETATM   28  N1  UNL     1      -1.128  77.020  34.799  1.00  0.00    -0.336 N 
HETATM   29  C2  UNL     1       0.078  77.678  34.767  1.00  0.00     0.217 C 
HETATM   30  C1  UNL     1       0.557  78.469  35.929  1.00  0.00     0.117 C 
HETATM   31  O1  UNL     1       0.840  77.664  33.794  1.00  0.00    -0.274 OA
ATOM     32  H1  UNL     1      -1.606  77.148  35.691  1.00  0.00     0.168 HD
ENDBRANCH   1  28
BRANCH   5  33
HETATM   33  C6  UNL     1      -6.427  77.581  34.766  1.00  0.00     0.283 C 
BRANCH  33  34
HETATM   34  N3  UNL     1      -6.467  76.968  36.074  1.00  0.00    -0.076 N 
ATOM     35  H33 UNL     1      -7.256  76.327  36.159  1.00  0.00     0.274 HD
ATOM     36  H32 UNL     1      -5.704  76.302  36.194  1.00  0.00     0.274 HD
ATOM     37  H31 UNL     1      -6.473  77.663  36.820  1.00  0.00     0.274 HD
ENDBRANCH  33  34
ENDBRANCH   5  33
TORSDOF 9
ENDMDL
MODEL 5
REMARK VINA RESULT: -6.815029597      4.163      6.302
REMARK  9 active torsions:
REMARK  status: ('A' for Active; 'I' for Inactive)
REMARK       I    between atoms: C2_2  and  N1_4 
REMARK    1  A    between atoms: N1_4  and  C3_6 
REMARK    2  A    between atoms: C5_10  and  C6_11 
REMARK    3  A    between atoms: C6_11  and  N3_12 
REMARK    4  A    between atoms: C7_19  and  C8_20 
REMARK    5  A    between atoms: N5_22  and  C10_23 
REMARK    6  A    between atoms: C10_23  and  C11_24 
REMARK    7  A    between atoms: C11_24  and  C12_25 
REMARK    8  A    between atoms: C12_25  and  C13_26 
REMARK    9  A    between atoms: C13_26  and  N6_27 
REMARK       I    between atoms: N6_27  and  C14_29 
ROOT
HETATM    1  C3  UNL     1      -1.252  78.371  36.405  1.00  0.00     0.118 C 
HETATM    2  C4  UNL     1      -2.383  77.471  36.437  1.00  0.00     0.059 C 
HETATM    3  N2  UNL     1      -2.956  77.211  37.739  1.00  0.00    -0.361 N 
ATOM      4  H2  UNL     1      -2.444  76.997  38.596  1.00  0.00     0.161 HD
HETATM    5  C5  UNL     1      -4.380  77.312  37.600  1.00  0.00     0.311 C 
HETATM    6  N4  UNL     1      -4.575  76.870  36.222  1.00  0.00    -0.037 N 
ATOM      7  H41 UNL     1      -5.508  77.055  35.852  1.00  0.00     0.281 HD
ATOM      8  H42 UNL     1      -4.609  75.857  36.110  1.00  0.00     0.281 HD
HETATM    9  C7  UNL     1      -3.484  77.526  35.469  1.00  0.00     0.291 C 
ENDROOT
BRANCH   9  10
HETATM   10  C8  UNL     1      -3.279  76.633  34.283  1.00  0.00     0.081 A 
HETATM   11  C9  UNL     1      -3.936  76.596  33.087  1.00  0.00     0.140 A 
HETATM   12  N5  UNL     1      -3.395  75.622  32.344  1.00  0.00    -0.287 N 
HETATM   13  N9  UNL     1      -2.428  75.083  33.078  1.00  0.00    -0.241 N 
HETATM   14  N10 UNL     1      -2.346  75.678  34.247  1.00  0.00    -0.286 N 
ATOM     15  H9  UNL     1      -1.832  74.312  32.776  1.00  0.00     0.208 HD
ATOM     16  H10 UNL     1      -1.688  75.451  34.993  1.00  0.00     0.188 HD
BRANCH  12  17
HETATM   17  C10 UNL     1      -3.788  75.237  31.025  1.00  0.00     0.150 C 
BRANCH  17  18
HETATM   18  C11 UNL     1      -3.837  76.383  30.068  1.00  0.00     0.023 C 
BRANCH  18  19
HETATM   19  C12 UNL     1      -3.854  75.965  28.636  1.00  0.00     0.021 C 
BRANCH  19  20
HETATM   20  C13 UNL     1      -4.717  76.849  27.765  1.00  0.00     0.122 C 
BRANCH  20  21
HETATM   21  N6  UNL     1      -4.016  78.046  27.353  1.00  0.00    -0.365 N 
HETATM   22  C14 UNL     1      -4.374  78.698  26.142  1.00  0.00     0.181 C 
HETATM   23  N7  UNL     1      -5.284  79.605  26.154  1.00  0.00    -0.374 N 
HETATM   24  N8  UNL     1      -3.709  78.325  24.954  1.00  0.00    -0.064 NA
ATOM     25  H72 UNL     1      -5.765  79.875  27.012  1.00  0.00     0.158 HD
ATOM     26  H71 UNL     1      -5.541  80.074  25.285  1.00  0.00     0.158 HD
ATOM     27  H6  UNL     1      -3.264  78.422  27.931  1.00  0.00     0.162 HD
ENDBRANCH  20  21
ENDBRANCH  19  20
ENDBRANCH  18  19
ENDBRANCH  17  18
ENDBRANCH  12  17
ENDBRANCH   9  10
BRANCH   1  28
HETATM   28  N1  UNL     1      -1.269  79.692  36.863  1.00  0.00    -0.336 N 
HETATM   29  C2  UNL     1      -1.549  80.333  38.046  1.00  0.00     0.217 C 
HETATM   30  C1  UNL     1      -1.450  81.811  38.167  1.00  0.00     0.117 C 
HETATM   31  O1  UNL     1      -1.898  79.747  39.077  1.00  0.00    -0.274 OA
ATOM     32  H1  UNL     1      -1.006  80.350  36.130  1.00  0.00     0.168 HD
ENDBRANCH   1  28
BRANCH   5  33
HETATM   33  C6  UNL     1      -5.090  76.394  38.570  1.00  0.00     0.283 C 
BRANCH  33  34
HETATM   34  N3  UNL     1      -6.441  76.105  38.149  1.00  0.00    -0.076 N 
ATOM     35  H33 UNL     1      -6.981  76.961  38.021  1.00  0.00     0.274 HD
ATOM     36  H32 UNL     1      -6.464  75.756  37.190  1.00  0.00     0.274 HD
ATOM     37  H31 UNL     1      -6.910  75.464  38.787  1.00  0.00     0.274 HD
ENDBRANCH  33  34
ENDBRANCH   5  33
TORSDOF 9
ENDMDL
