MODEL 1
REMARK VINA RESULT: -6.750886234      0.000      0.000
REMARK  13 active torsions:
REMARK  status: ('A' for Active; 'I' for Inactive)
REMARK    1  A    between atoms: N1_1  and  C1_4 
REMARK    2  A    between atoms: C2_7  and  N3_8 
REMARK    3  A    between atoms: N4_14  and  C5_15 
REMARK    4  A    between atoms: C5_15  and  C6_16 
REMARK    5  A    between atoms: C6_16  and  N5_17 
REMARK    6  A    between atoms: C6_16  and  C7_21 
REMARK    7  A    between atoms: C7_21  and  C8_22 
REMARK    8  A    between atoms: C8_22  and  C9_23 
REMARK    9  A    between atoms: C9_23  and  N6_24 
REMARK   10  A    between atoms: N6_24  and  C10_26 
REMARK   11  A    between atoms: C10_26  and  C11_27 
REMARK   12  A    between atoms: C11_27  and  C12_28 
REMARK   13  A    between atoms: C12_28  and  N7_29 
ROOT
HETATM    1  C1  UNL     1      -4.575  80.319  24.553  1.00  0.00     0.679 A 
HETATM    2  N2  UNL     1      -5.687  80.308  25.256  1.00  0.00    -0.176 N 
ATOM      3  H2  UNL     1      -6.415  80.970  24.985  1.00  0.00     0.186 HD
HETATM    4  C2  UNL     1      -5.955  79.482  26.325  1.00  0.00     0.134 A 
HETATM    5  C3  UNL     1      -4.963  78.595  26.680  1.00  0.00     0.121 A 
HETATM    6  C4  UNL     1      -5.089  77.713  27.725  1.00  0.00     0.269 A 
HETATM    7  O1  UNL     1      -6.146  77.696  28.401  1.00  0.00    -0.267 OA
HETATM    8  N4  UNL     1      -4.076  76.854  28.039  1.00  0.00    -0.263 N 
HETATM    9  C13 UNL     1      -2.959  76.896  27.298  1.00  0.00     0.331 A 
HETATM   10  O2  UNL     1      -2.004  76.119  27.557  1.00  0.00    -0.246 OA
HETATM   11  N8  UNL     1      -2.816  77.749  26.273  1.00  0.00    -0.293 N 
ATOM     12  H8  UNL     1      -1.945  77.737  25.744  1.00  0.00     0.172 HD
HETATM   13  C14 UNL     1      -3.784  78.624  25.915  1.00  0.00     0.144 A 
HETATM   14  N9  UNL     1      -3.605  79.464  24.885  1.00  0.00    -0.176 N 
ATOM     15  H9  UNL     1      -2.732  79.449  24.358  1.00  0.00     0.186 HD
ENDROOT
BRANCH   8  16
HETATM   16  C5  UNL     1      -4.200  75.935  29.127  1.00  0.00     0.169 C 
BRANCH  16  17
HETATM   17  C6  UNL     1      -3.718  76.443  30.434  1.00  0.00     0.202 C 
BRANCH  17  18
HETATM   18  N5  UNL     1      -4.614  77.354  31.087  1.00  0.00    -0.073 N 
ATOM     19  H53 UNL     1      -4.091  78.027  31.647  1.00  0.00     0.274 HD
ATOM     20  H52 UNL     1      -5.038  77.984  30.405  1.00  0.00     0.274 HD
ATOM     21  H51 UNL     1      -5.335  76.906  31.653  1.00  0.00     0.274 HD
ENDBRANCH  17  18
BRANCH  17  22
HETATM   22  C7  UNL     1      -3.286  75.285  31.297  1.00  0.00     0.036 C 
BRANCH  22  23
HETATM   23  C8  UNL     1      -3.329  75.692  32.726  1.00  0.00     0.022 C 
BRANCH  23  24
HETATM   24  C9  UNL     1      -1.944  76.028  33.288  1.00  0.00     0.118 C 
BRANCH  24  25
HETATM   25  N6  UNL     1      -1.955  75.631  34.641  1.00  0.00    -0.402 N 
ATOM     26  H6  UNL     1      -2.648  74.952  34.954  1.00  0.00     0.158 HD
BRANCH  25  27
HETATM   27  C10 UNL     1      -1.042  76.144  35.563  1.00  0.00     0.057 C 
BRANCH  27  28
HETATM   28  C11 UNL     1      -0.615  77.549  35.511  1.00  0.00     0.071 C 
BRANCH  28  29
HETATM   29  C12 UNL     1       0.768  77.889  35.120  1.00  0.00     0.234 C 
BRANCH  29  30
HETATM   30  N7  UNL     1       0.948  78.160  33.705  1.00  0.00    -0.079 N 
ATOM     31  H73 UNL     1       0.915  77.292  33.171  1.00  0.00     0.274 HD
ATOM     32  H72 UNL     1       0.127  78.632  33.327  1.00  0.00     0.274 HD
ATOM     33  H71 UNL     1       1.794  78.683  33.475  1.00  0.00     0.274 HD
ENDBRANCH  29  30
ENDBRANCH  28  29
ENDBRANCH  27  28
ENDBRANCH  25  27
ENDBRANCH  24  25
ENDBRANCH  23  24
ENDBRANCH  22  23
ENDBRANCH  17  22
ENDBRANCH  16  17
ENDBRANCH   8  16
BRANCH   4  34
HETATM   34  N3  UNL     1      -7.035  79.562  26.912  1.00  0.00    -0.384 N 
ATOM     35  H32 UNL     1      -7.168  80.085  27.777  1.00  0.00     0.157 HD
ATOM     36  H31 UNL     1      -7.857  79.091  26.534  1.00  0.00     0.157 HD
ENDBRANCH   4  34
BRANCH   1  37
HETATM   37  N1  UNL     1      -4.407  81.152  23.539  1.00  0.00    -0.234 N 
ATOM     38  H12 UNL     1      -4.857  80.965  22.643  1.00  0.00     0.174 HD
ATOM     39  H11 UNL     1      -3.832  81.989  23.628  1.00  0.00     0.174 HD
ENDBRANCH   1  37
TORSDOF 13
ENDMDL
MODEL 2
REMARK VINA RESULT: -6.617185998      1.012      1.441
REMARK  13 active torsions:
REMARK  status: ('A' for Active; 'I' for Inactive)
REMARK    1  A    between atoms: N1_1  and  C1_4 
REMARK    2  A    between atoms: C2_7  and  N3_8 
REMARK    3  A    between atoms: N4_14  and  C5_15 
REMARK    4  A    between atoms: C5_15  and  C6_16 
REMARK    5  A    between atoms: C6_16  and  N5_17 
REMARK    6  A    between atoms: C6_16  and  C7_21 
REMARK    7  A    between atoms: C7_21  and  C8_22 
REMARK    8  A    between atoms: C8_22  and  C9_23 
REMARK    9  A    between atoms: C9_23  and  N6_24 
REMARK   10  A    between atoms: N6_24  and  C10_26 
REMARK   11  A    between atoms: C10_26  and  C11_27 
REMARK   12  A    between atoms: C11_27  and  C12_28 
REMARK   13  A    between atoms: C12_28  and  N7_29 
ROOT
HETATM    1  C1  UNL     1      -4.665  80.353  24.342  1.00  0.00     0.679 A 
HETATM    2  N2  UNL     1      -5.775  80.371  25.049  1.00  0.00    -0.176 N 
ATOM      3  H2  UNL     1      -6.518  80.993  24.732  1.00  0.00     0.186 HD
HETATM    4  C2  UNL     1      -6.021  79.622  26.179  1.00  0.00     0.134 A 
HETATM    5  C3  UNL     1      -5.010  78.787  26.595  1.00  0.00     0.121 A 
HETATM    6  C4  UNL     1      -5.112  77.984  27.705  1.00  0.00     0.269 A 
HETATM    7  O1  UNL     1      -6.167  77.995  28.385  1.00  0.00    -0.267 OA
HETATM    8  N4  UNL     1      -4.080  77.174  28.079  1.00  0.00    -0.263 N 
HETATM    9  C13 UNL     1      -2.966  77.185  27.333  1.00  0.00     0.331 A 
HETATM   10  O2  UNL     1      -1.993  76.451  27.646  1.00  0.00    -0.246 OA
HETATM   11  N8  UNL     1      -2.844  77.960  26.245  1.00  0.00    -0.293 N 
ATOM     12  H8  UNL     1      -1.974  77.928  25.714  1.00  0.00     0.172 HD
HETATM   13  C14 UNL     1      -3.833  78.784  25.826  1.00  0.00     0.144 A 
HETATM   14  N9  UNL     1      -3.675  79.547  24.734  1.00  0.00    -0.176 N 
ATOM     15  H9  UNL     1      -2.803  79.511  24.206  1.00  0.00     0.186 HD
ENDROOT
BRANCH   8  16
HETATM   16  C5  UNL     1      -4.180  76.338  29.235  1.00  0.00     0.169 C 
BRANCH  16  17
HETATM   17  C6  UNL     1      -4.035  77.041  30.532  1.00  0.00     0.202 C 
BRANCH  17  18
HETATM   18  N5  UNL     1      -5.236  77.100  31.315  1.00  0.00    -0.073 N 
ATOM     19  H53 UNL     1      -5.604  76.161  31.472  1.00  0.00     0.274 HD
ATOM     20  H52 UNL     1      -5.020  77.366  32.277  1.00  0.00     0.274 HD
ATOM     21  H51 UNL     1      -5.962  77.706  30.934  1.00  0.00     0.274 HD
ENDBRANCH  17  18
BRANCH  17  22
HETATM   22  C7  UNL     1      -2.845  76.490  31.274  1.00  0.00     0.036 C 
BRANCH  22  23
HETATM   23  C8  UNL     1      -2.372  77.494  32.262  1.00  0.00     0.022 C 
BRANCH  23  24
HETATM   24  C9  UNL     1      -1.383  76.908  33.274  1.00  0.00     0.118 C 
BRANCH  24  25
HETATM   25  N6  UNL     1      -0.219  77.702  33.202  1.00  0.00    -0.402 N 
ATOM     26  H6  UNL     1       0.121  78.003  32.289  1.00  0.00     0.158 HD
BRANCH  25  27
HETATM   27  C10 UNL     1       0.478  78.086  34.347  1.00  0.00     0.057 C 
BRANCH  27  28
HETATM   28  C11 UNL     1       0.382  77.313  35.593  1.00  0.00     0.071 C 
BRANCH  28  29
HETATM   29  C12 UNL     1      -0.365  77.856  36.746  1.00  0.00     0.234 C 
BRANCH  29  30
HETATM   30  N7  UNL     1      -0.741  76.871  37.744  1.00  0.00    -0.079 N 
ATOM     31  H73 UNL     1      -0.961  75.981  37.297  1.00  0.00     0.274 HD
ATOM     32  H72 UNL     1       0.072  76.596  38.294  1.00  0.00     0.274 HD
ATOM     33  H71 UNL     1      -1.505  77.156  38.358  1.00  0.00     0.274 HD
ENDBRANCH  29  30
ENDBRANCH  28  29
ENDBRANCH  27  28
ENDBRANCH  25  27
ENDBRANCH  24  25
ENDBRANCH  23  24
ENDBRANCH  22  23
ENDBRANCH  17  22
ENDBRANCH  16  17
ENDBRANCH   8  16
BRANCH   4  34
HETATM   34  N3  UNL     1      -7.102  79.722  26.762  1.00  0.00    -0.384 N 
ATOM     35  H32 UNL     1      -7.913  79.144  26.544  1.00  0.00     0.157 HD
ATOM     36  H31 UNL     1      -7.219  80.410  27.506  1.00  0.00     0.157 HD
ENDBRANCH   4  34
BRANCH   1  37
HETATM   37  N1  UNL     1      -4.518  81.110  23.267  1.00  0.00    -0.234 N 
ATOM     38  H12 UNL     1      -5.119  81.923  23.128  1.00  0.00     0.174 HD
ATOM     39  H11 UNL     1      -3.813  80.901  22.562  1.00  0.00     0.174 HD
ENDBRANCH   1  37
TORSDOF 13
ENDMDL
MODEL 3
REMARK VINA RESULT: -6.553879337      6.258      9.418
REMARK  13 active torsions:
REMARK  status: ('A' for Active; 'I' for Inactive)
REMARK    1  A    between atoms: N1_1  and  C1_4 
REMARK    2  A    between atoms: C2_7  and  N3_8 
REMARK    3  A    between atoms: N4_14  and  C5_15 
REMARK    4  A    between atoms: C5_15  and  C6_16 
REMARK    5  A    between atoms: C6_16  and  N5_17 
REMARK    6  A    between atoms: C6_16  and  C7_21 
REMARK    7  A    between atoms: C7_21  and  C8_22 
REMARK    8  A    between atoms: C8_22  and  C9_23 
REMARK    9  A    between atoms: C9_23  and  N6_24 
REMARK   10  A    between atoms: N6_24  and  C10_26 
REMARK   11  A    between atoms: C10_26  and  C11_27 
REMARK   12  A    between atoms: C11_27  and  C12_28 
REMARK   13  A    between atoms: C12_28  and  N7_29 
ROOT
HETATM    1  C1  UNL     1      -2.403  75.925  33.042  1.00  0.00     0.679 A 
HETATM    2  N2  UNL     1      -3.551  76.143  33.648  1.00  0.00    -0.176 N 
ATOM      3  H2  UNL     1      -4.376  75.690  33.256  1.00  0.00     0.186 HD
HETATM    4  C2  UNL     1      -3.735  76.930  34.764  1.00  0.00     0.134 A 
HETATM    5  C3  UNL     1      -2.612  77.535  35.281  1.00  0.00     0.121 A 
HETATM    6  C4  UNL     1      -2.644  78.348  36.388  1.00  0.00     0.269 A 
HETATM    7  O1  UNL     1      -3.734  78.561  36.972  1.00  0.00    -0.267 OA
HETATM    8  N4  UNL     1      -1.503  78.927  36.861  1.00  0.00    -0.263 N 
HETATM    9  C13 UNL     1      -0.354  78.680  36.217  1.00  0.00     0.331 A 
HETATM   10  O2  UNL     1       0.719  79.197  36.624  1.00  0.00    -0.246 OA
HETATM   11  N8  UNL     1      -0.300  77.890  35.134  1.00  0.00    -0.293 N 
ATOM     12  H8  UNL     1       0.602  77.737  34.683  1.00  0.00     0.172 HD
HETATM   13  C14 UNL     1      -1.397  77.289  34.618  1.00  0.00     0.144 A 
HETATM   14  N9  UNL     1      -1.305  76.506  33.533  1.00  0.00    -0.176 N 
ATOM     15  H9  UNL     1      -0.401  76.355  33.085  1.00  0.00     0.186 HD
ENDROOT
BRANCH   8  16
HETATM   16  C5  UNL     1      -1.530  79.776  38.012  1.00  0.00     0.169 C 
BRANCH  16  17
HETATM   17  C6  UNL     1      -1.901  81.186  37.743  1.00  0.00     0.202 C 
BRANCH  17  18
HETATM   18  N5  UNL     1      -3.157  81.589  38.307  1.00  0.00    -0.073 N 
ATOM     19  H53 UNL     1      -3.799  81.884  37.570  1.00  0.00     0.274 HD
ATOM     20  H52 UNL     1      -3.663  80.778  38.665  1.00  0.00     0.274 HD
ATOM     21  H51 UNL     1      -3.087  82.310  39.025  1.00  0.00     0.274 HD
ENDBRANCH  17  18
BRANCH  17  22
HETATM   22  C7  UNL     1      -0.749  82.088  38.104  1.00  0.00     0.036 C 
BRANCH  22  23
HETATM   23  C8  UNL     1      -1.120  83.499  37.819  1.00  0.00     0.022 C 
BRANCH  23  24
HETATM   24  C9  UNL     1      -0.166  84.505  38.469  1.00  0.00     0.118 C 
BRANCH  24  25
HETATM   25  N6  UNL     1       1.141  84.061  38.180  1.00  0.00    -0.402 N 
ATOM     26  H6  UNL     1       1.349  83.701  37.249  1.00  0.00     0.158 HD
BRANCH  25  27
HETATM   27  C10 UNL     1       2.157  84.102  39.135  1.00  0.00     0.057 C 
BRANCH  27  28
HETATM   28  C11 UNL     1       2.832  85.362  39.477  1.00  0.00     0.071 C 
BRANCH  28  29
HETATM   29  C12 UNL     1       4.286  85.504  39.260  1.00  0.00     0.234 C 
BRANCH  29  30
HETATM   30  N7  UNL     1       4.883  84.459  38.448  1.00  0.00    -0.079 N 
ATOM     31  H73 UNL     1       5.668  84.034  38.940  1.00  0.00     0.274 HD
ATOM     32  H72 UNL     1       4.257  83.657  38.387  1.00  0.00     0.274 HD
ATOM     33  H71 UNL     1       5.170  84.756  37.515  1.00  0.00     0.274 HD
ENDBRANCH  29  30
ENDBRANCH  28  29
ENDBRANCH  27  28
ENDBRANCH  25  27
ENDBRANCH  24  25
ENDBRANCH  23  24
ENDBRANCH  22  23
ENDBRANCH  17  22
ENDBRANCH  16  17
ENDBRANCH   8  16
BRANCH   4  34
HETATM   34  N3  UNL     1      -4.861  77.062  35.246  1.00  0.00    -0.384 N 
ATOM     35  H32 UNL     1      -5.598  76.364  35.152  1.00  0.00     0.157 HD
ATOM     36  H31 UNL     1      -5.095  77.904  35.773  1.00  0.00     0.157 HD
ENDBRANCH   4  34
BRANCH   1  37
HETATM   37  N1  UNL     1      -2.323  75.152  31.971  1.00  0.00    -0.234 N 
ATOM     38  H12 UNL     1      -3.171  74.876  31.475  1.00  0.00     0.174 HD
ATOM     39  H11 UNL     1      -1.425  74.819  31.622  1.00  0.00     0.174 HD
ENDBRANCH   1  37
TORSDOF 13
ENDMDL
MODEL 4
REMARK VINA RESULT: -6.443301735      5.683      9.082
REMARK  13 active torsions:
REMARK  status: ('A' for Active; 'I' for Inactive)
REMARK    1  A    between atoms: N1_1  and  C1_4 
REMARK    2  A    between atoms: C2_7  and  N3_8 
REMARK    3  A    between atoms: N4_14  and  C5_15 
REMARK    4  A    between atoms: C5_15  and  C6_16 
REMARK    5  A    between atoms: C6_16  and  N5_17 
REMARK    6  A    between atoms: C6_16  and  C7_21 
REMARK    7  A    between atoms: C7_21  and  C8_22 
REMARK    8  A    between atoms: C8_22  and  C9_23 
REMARK    9  A    between atoms: C9_23  and  N6_24 
REMARK   10  A    between atoms: N6_24  and  C10_26 
REMARK   11  A    between atoms: C10_26  and  C11_27 
REMARK   12  A    between atoms: C11_27  and  C12_28 
REMARK   13  A    between atoms: C12_28  and  N7_29 
ROOT
HETATM    1  C1  UNL     1      -2.738  75.848  32.222  1.00  0.00     0.679 A 
HETATM    2  N2  UNL     1      -1.569  76.441  32.330  1.00  0.00    -0.176 N 
ATOM      3  H2  UNL     1      -0.928  76.354  31.541  1.00  0.00     0.186 HD
HETATM    4  C2  UNL     1      -1.133  77.169  33.416  1.00  0.00     0.134 A 
HETATM    5  C3  UNL     1      -2.008  77.277  34.473  1.00  0.00     0.121 A 
HETATM    6  C4  UNL     1      -1.709  77.970  35.622  1.00  0.00     0.269 A 
HETATM    7  O1  UNL     1      -0.597  78.539  35.734  1.00  0.00    -0.267 OA
HETATM    8  N4  UNL     1      -2.609  78.047  36.644  1.00  0.00    -0.263 N 
HETATM    9  C13 UNL     1      -3.790  77.429  36.495  1.00  0.00     0.331 A 
HETATM   10  O2  UNL     1      -4.645  77.478  37.417  1.00  0.00    -0.246 OA
HETATM   11  N8  UNL     1      -4.102  76.748  35.383  1.00  0.00    -0.293 N 
ATOM     12  H8  UNL     1      -5.015  76.297  35.323  1.00  0.00     0.172 HD
HETATM   13  C14 UNL     1      -3.251  76.636  34.336  1.00  0.00     0.144 A 
HETATM   14  N9  UNL     1      -3.597  75.945  33.240  1.00  0.00    -0.176 N 
ATOM     15  H9  UNL     1      -4.511  75.496  33.184  1.00  0.00     0.186 HD
ENDROOT
BRANCH   8  16
HETATM   16  C5  UNL     1      -2.304  78.764  37.843  1.00  0.00     0.169 C 
BRANCH  16  17
HETATM   17  C6  UNL     1      -2.732  80.184  37.849  1.00  0.00     0.202 C 
BRANCH  17  18
HETATM   18  N5  UNL     1      -4.071  80.401  38.316  1.00  0.00    -0.073 N 
ATOM     19  H53 UNL     1      -4.412  81.311  38.007  1.00  0.00     0.274 HD
ATOM     20  H52 UNL     1      -4.723  79.792  37.821  1.00  0.00     0.274 HD
ATOM     21  H51 UNL     1      -4.189  80.302  39.325  1.00  0.00     0.274 HD
ENDBRANCH  17  18
BRANCH  17  22
HETATM   22  C7  UNL     1      -1.694  81.021  38.553  1.00  0.00     0.036 C 
BRANCH  22  23
HETATM   23  C8  UNL     1      -0.869  81.735  37.545  1.00  0.00     0.022 C 
BRANCH  23  24
HETATM   24  C9  UNL     1      -0.720  83.228  37.851  1.00  0.00     0.118 C 
BRANCH  24  25
HETATM   25  N6  UNL     1       0.640  83.440  38.160  1.00  0.00    -0.402 N 
ATOM     26  H6  UNL     1       1.335  82.774  37.823  1.00  0.00     0.158 HD
BRANCH  25  27
HETATM   27  C10 UNL     1       1.058  84.535  38.916  1.00  0.00     0.057 C 
BRANCH  27  28
HETATM   28  C11 UNL     1       2.117  84.404  39.925  1.00  0.00     0.071 C 
BRANCH  28  29
HETATM   29  C12 UNL     1       3.238  85.367  39.951  1.00  0.00     0.234 C 
BRANCH  29  30
HETATM   30  N7  UNL     1       4.182  85.169  41.036  1.00  0.00    -0.079 N 
ATOM     31  H73 UNL     1       4.726  86.017  41.192  1.00  0.00     0.274 HD
ATOM     32  H72 UNL     1       3.690  85.109  41.927  1.00  0.00     0.274 HD
ATOM     33  H71 UNL     1       4.803  84.368  40.920  1.00  0.00     0.274 HD
ENDBRANCH  29  30
ENDBRANCH  28  29
ENDBRANCH  27  28
ENDBRANCH  25  27
ENDBRANCH  24  25
ENDBRANCH  23  24
ENDBRANCH  22  23
ENDBRANCH  17  22
ENDBRANCH  16  17
ENDBRANCH   8  16
BRANCH   4  34
HETATM   34  N3  UNL     1      -0.013  77.681  33.406  1.00  0.00    -0.384 N 
ATOM     35  H32 UNL     1       0.830  77.183  33.120  1.00  0.00     0.157 HD
ATOM     36  H31 UNL     1       0.107  78.653  33.693  1.00  0.00     0.157 HD
ENDBRANCH   4  34
BRANCH   1  37
HETATM   37  N1  UNL     1      -3.070  75.167  31.137  1.00  0.00    -0.234 N 
ATOM     38  H12 UNL     1      -2.722  75.460  30.223  1.00  0.00     0.174 HD
ATOM     39  H11 UNL     1      -3.672  74.347  31.187  1.00  0.00     0.174 HD
ENDBRANCH   1  37
TORSDOF 13
ENDMDL
MODEL 5
REMARK VINA RESULT: -6.337203734      2.223      9.019
REMARK  13 active torsions:
REMARK  status: ('A' for Active; 'I' for Inactive)
REMARK    1  A    between atoms: N1_1  and  C1_4 
REMARK    2  A    between atoms: C2_7  and  N3_8 
REMARK    3  A    between atoms: N4_14  and  C5_15 
REMARK    4  A    between atoms: C5_15  and  C6_16 
REMARK    5  A    between atoms: C6_16  and  N5_17 
REMARK    6  A    between atoms: C6_16  and  C7_21 
REMARK    7  A    between atoms: C7_21  and  C8_22 
REMARK    8  A    between atoms: C8_22  and  C9_23 
REMARK    9  A    between atoms: C9_23  and  N6_24 
REMARK   10  A    between atoms: N6_24  and  C10_26 
REMARK   11  A    between atoms: C10_26  and  C11_27 
REMARK   12  A    between atoms: C11_27  and  C12_28 
REMARK   13  A    between atoms: C12_28  and  N7_29 
ROOT
HETATM    1  C1  UNL     1      -1.443  77.307  36.826  1.00  0.00     0.679 A 
HETATM    2  N2  UNL     1      -0.553  77.567  35.892  1.00  0.00    -0.176 N 
ATOM      3  H2  UNL     1       0.392  77.794  36.200  1.00  0.00     0.186 HD
HETATM    4  C2  UNL     1      -0.787  77.559  34.534  1.00  0.00     0.134 A 
HETATM    5  C3  UNL     1      -2.066  77.251  34.132  1.00  0.00     0.121 A 
HETATM    6  C4  UNL     1      -2.446  77.206  32.812  1.00  0.00     0.269 A 
HETATM    7  O1  UNL     1      -1.604  77.453  31.915  1.00  0.00    -0.267 OA
HETATM    8  N4  UNL     1      -3.728  76.898  32.464  1.00  0.00    -0.263 N 
HETATM    9  C13 UNL     1      -4.604  76.639  33.446  1.00  0.00     0.331 A 
HETATM   10  O2  UNL     1      -5.796  76.350  33.164  1.00  0.00    -0.246 OA
HETATM   11  N8  UNL     1      -4.256  76.676  34.740  1.00  0.00    -0.293 N 
ATOM     12  H8  UNL     1      -4.964  76.470  35.445  1.00  0.00     0.172 HD
HETATM   13  C14 UNL     1      -3.000  76.977  35.146  1.00  0.00     0.144 A 
HETATM   14  N9  UNL     1      -2.689  77.006  36.450  1.00  0.00    -0.176 N 
ATOM     15  H9  UNL     1      -3.399  76.799  37.152  1.00  0.00     0.186 HD
ENDROOT
BRANCH   8  16
HETATM   16  C5  UNL     1      -4.129  76.852  31.092  1.00  0.00     0.169 C 
BRANCH  16  17
HETATM   17  C6  UNL     1      -3.756  75.611  30.372  1.00  0.00     0.202 C 
BRANCH  17  18
HETATM   18  N5  UNL     1      -4.303  74.409  30.934  1.00  0.00    -0.073 N 
ATOM     19  H53 UNL     1      -3.556  73.809  31.284  1.00  0.00     0.274 HD
ATOM     20  H52 UNL     1      -4.788  74.614  31.808  1.00  0.00     0.274 HD
ATOM     21  H51 UNL     1      -4.912  73.886  30.305  1.00  0.00     0.274 HD
ENDBRANCH  17  18
BRANCH  17  22
HETATM   22  C7  UNL     1      -4.033  75.779  28.900  1.00  0.00     0.036 C 
BRANCH  22  23
HETATM   23  C8  UNL     1      -4.506  77.165  28.643  1.00  0.00     0.022 C 
BRANCH  23  24
HETATM   24  C9  UNL     1      -4.009  77.722  27.306  1.00  0.00     0.118 C 
BRANCH  24  25
HETATM   25  N6  UNL     1      -4.932  78.716  26.919  1.00  0.00    -0.402 N 
ATOM     26  H6  UNL     1      -5.697  78.956  27.549  1.00  0.00     0.158 HD
BRANCH  25  27
HETATM   27  C10 UNL     1      -4.825  79.378  25.696  1.00  0.00     0.057 C 
BRANCH  27  28
HETATM   28  C11 UNL     1      -5.765  80.444  25.322  1.00  0.00     0.071 C 
BRANCH  28  29
HETATM   29  C12 UNL     1      -5.631  81.126  24.018  1.00  0.00     0.234 C 
BRANCH  29  30
HETATM   30  N7  UNL     1      -4.290  81.108  23.461  1.00  0.00    -0.079 N 
ATOM     31  H73 UNL     1      -3.603  81.310  24.186  1.00  0.00     0.274 HD
ATOM     32  H72 UNL     1      -4.019  80.155  23.221  1.00  0.00     0.274 HD
ATOM     33  H71 UNL     1      -4.153  81.727  22.661  1.00  0.00     0.274 HD
ENDBRANCH  29  30
ENDBRANCH  28  29
ENDBRANCH  27  28
ENDBRANCH  25  27
ENDBRANCH  24  25
ENDBRANCH  23  24
ENDBRANCH  22  23
ENDBRANCH  17  22
ENDBRANCH  16  17
ENDBRANCH   8  16
BRANCH   4  34
HETATM   34  N3  UNL     1       0.127  77.820  33.749  1.00  0.00    -0.384 N 
ATOM     35  H32 UNL     1       1.097  77.944  34.038  1.00  0.00     0.157 HD
ATOM     36  H31 UNL     1      -0.069  77.922  32.753  1.00  0.00     0.157 HD
ENDBRANCH   4  34
BRANCH   1  37
HETATM   37  N1  UNL     1      -1.125  77.339  38.110  1.00  0.00    -0.234 N 
ATOM     38  H12 UNL     1      -1.452  78.106  38.698  1.00  0.00     0.174 HD
ATOM     39  H11 UNL     1      -0.555  76.609  38.535  1.00  0.00     0.174 HD
ENDBRANCH   1  37
TORSDOF 13
ENDMDL
