MODEL 1
REMARK VINA RESULT: -7.122140005      0.000      0.000
REMARK  11 active torsions:
REMARK  status: ('A' for Active; 'I' for Inactive)
REMARK    1  A    between atoms: C2_2  and  C3_3 
REMARK    2  A    between atoms: C3_3  and  O1_5 
REMARK    3  A    between atoms: C3_3  and  C5_7 
REMARK    4  A    between atoms: C5_7  and  C6_8 
REMARK    5  A    between atoms: C6_8  and  C7_9 
REMARK    6  A    between atoms: C7_9  and  C9_11 
REMARK    7  A    between atoms: C15_17  and  O2_18 
REMARK    8  A    between atoms: C16_20  and  O3_21 
REMARK    9  A    between atoms: C16_20  and  C17_23 
REMARK   10  A    between atoms: C17_23  and  O5_25 
REMARK   11  A    between atoms: C27_36  and  O7_37 
ROOT
HETATM    1  C9  UNL     1       7.386  38.421  18.660  1.00  0.00     0.018 C 
HETATM    2  C10 UNL     1       6.810  37.213  19.290  1.00  0.00     0.008 C 
HETATM    3  C11 UNL     1       5.408  37.295  19.774  1.00  0.00     0.006 C 
HETATM    4  C12 UNL     1       4.436  37.875  18.726  1.00  0.00     0.001 C 
HETATM    5  C13 UNL     1       3.512  36.804  18.332  1.00  0.00     0.019 C 
HETATM    6  C14 UNL     1       2.557  36.258  19.334  1.00  0.00     0.013 C 
HETATM    7  C15 UNL     1       2.992  36.863  16.931  1.00  0.00     0.174 C 
HETATM    8  C16 UNL     1       1.604  37.367  16.744  1.00  0.00     0.232 C 
HETATM    9  C19 UNL     1       1.667  38.864  16.939  1.00  0.00     0.174 C 
HETATM   10  O6  UNL     1       1.582  39.502  15.904  1.00  0.00    -0.294 OA
HETATM   11  C20 UNL     1       1.814  39.634  18.197  1.00  0.00     0.091 C 
HETATM   12  C21 UNL     1       3.210  40.120  18.467  1.00  0.00    -0.033 C 
HETATM   13  C22 UNL     1       3.031  41.369  19.354  1.00  0.00     0.016 C 
HETATM   14  C23 UNL     1       3.735  40.657  17.164  1.00  0.00     0.016 C 
HETATM   15  C24 UNL     1       4.087  39.194  19.208  1.00  0.00    -0.030 C 
HETATM   16  C25 UNL     1       3.524  39.136  20.639  1.00  0.00     0.016 C 
HETATM   17  C26 UNL     1       5.440  39.920  19.380  1.00  0.00     0.042 C 
HETATM   18  C27 UNL     1       6.504  39.591  18.428  1.00  0.00     0.123 C 
ENDROOT
BRANCH   1  19
HETATM   19  C7  UNL     1       8.771  38.774  19.209  1.00  0.00    -0.012 C 
HETATM   20  C8  UNL     1       8.845  38.923  20.670  1.00  0.00     0.010 C 
BRANCH  19  21
HETATM   21  C6  UNL     1       9.734  37.692  18.765  1.00  0.00     0.008 C 
BRANCH  21  22
HETATM   22  C5  UNL     1      11.060  38.309  18.356  1.00  0.00     0.042 C 
BRANCH  22  23
HETATM   23  C3  UNL     1      12.056  38.072  19.479  1.00  0.00     0.071 C 
HETATM   24  C4  UNL     1      12.348  39.360  20.195  1.00  0.00     0.050 C 
BRANCH  23  25
HETATM   25  C2  UNL     1      13.314  37.581  18.838  1.00  0.00    -0.000 C 
HETATM   26  C1  UNL     1      14.504  37.930  19.281  1.00  0.00     0.010 C 
ENDBRANCH  23  25
BRANCH  23  27
HETATM   27  O1  UNL     1      11.551  37.094  20.300  1.00  0.00    -0.386 OA
ATOM     28  H1  UNL     1      10.622  36.988  20.130  1.00  0.00     0.211 HD
ENDBRANCH  23  27
ENDBRANCH  22  23
ENDBRANCH  21  22
ENDBRANCH  19  21
ENDBRANCH   1  19
BRANCH  18  29
HETATM   29  O7  UNL     1       7.417  40.694  18.471  1.00  0.00    -0.395 OA
ATOM     30  H7  UNL     1       6.927  41.391  18.051  1.00  0.00     0.210 HD
ENDBRANCH  18  29
BRANCH   7  31
HETATM   31  O2  UNL     1       3.074  35.647  16.235  1.00  0.00    -0.391 OA
ATOM     32  H2  UNL     1       2.666  34.915  16.683  1.00  0.00     0.210 HD
ENDBRANCH   7  31
BRANCH   8  33
HETATM   33  O3  UNL     1       0.664  36.838  17.584  1.00  0.00    -0.371 OA
ATOM     34  H3  UNL     1       0.478  35.914  17.462  1.00  0.00     0.211 HD
ENDBRANCH   8  33
BRANCH   8  35
HETATM   35  C17 UNL     1       1.183  37.143  15.358  1.00  0.00     0.303 C 
HETATM   36  O4  UNL     1      -0.027  36.916  15.112  1.00  0.00    -0.261 OA
BRANCH  35  37
HETATM   37  O5  UNL     1       2.022  37.159  14.257  1.00  0.00    -0.324 OA
HETATM   38  C18 UNL     1       1.561  37.551  12.975  1.00  0.00     0.213 C 
ENDBRANCH  35  37
ENDBRANCH   8  35
TORSDOF 11
ENDMDL
MODEL 2
REMARK VINA RESULT: -7.067417885      4.999      7.308
REMARK  11 active torsions:
REMARK  status: ('A' for Active; 'I' for Inactive)
REMARK    1  A    between atoms: C2_2  and  C3_3 
REMARK    2  A    between atoms: C3_3  and  O1_5 
REMARK    3  A    between atoms: C3_3  and  C5_7 
REMARK    4  A    between atoms: C5_7  and  C6_8 
REMARK    5  A    between atoms: C6_8  and  C7_9 
REMARK    6  A    between atoms: C7_9  and  C9_11 
REMARK    7  A    between atoms: C15_17  and  O2_18 
REMARK    8  A    between atoms: C16_20  and  O3_21 
REMARK    9  A    between atoms: C16_20  and  C17_23 
REMARK   10  A    between atoms: C17_23  and  O5_25 
REMARK   11  A    between atoms: C27_36  and  O7_37 
ROOT
HETATM    1  C9  UNL     1       2.783  44.814  15.913  1.00  0.00     0.018 C 
HETATM    2  C10 UNL     1       3.754  44.580  17.004  1.00  0.00     0.008 C 
HETATM    3  C11 UNL     1       3.242  43.967  18.256  1.00  0.00     0.006 C 
HETATM    4  C12 UNL     1       2.389  42.706  18.011  1.00  0.00     0.001 C 
HETATM    5  C13 UNL     1       3.121  41.557  18.559  1.00  0.00     0.019 C 
HETATM    6  C14 UNL     1       3.346  41.467  20.028  1.00  0.00     0.013 C 
HETATM    7  C15 UNL     1       2.902  40.247  17.873  1.00  0.00     0.174 C 
HETATM    8  C16 UNL     1       1.994  39.275  18.540  1.00  0.00     0.232 C 
HETATM    9  C19 UNL     1       0.590  39.789  18.322  1.00  0.00     0.174 C 
HETATM   10  O6  UNL     1      -0.044  39.161  17.492  1.00  0.00    -0.294 OA
HETATM   11  C20 UNL     1      -0.096  40.930  18.973  1.00  0.00     0.091 C 
HETATM   12  C21 UNL     1      -0.126  42.188  18.150  1.00  0.00    -0.033 C 
HETATM   13  C22 UNL     1      -1.368  42.956  18.645  1.00  0.00     0.016 C 
HETATM   14  C23 UNL     1      -0.475  41.772  16.747  1.00  0.00     0.016 C 
HETATM   15  C24 UNL     1       1.027  43.094  18.309  1.00  0.00    -0.030 C 
HETATM   16  C25 UNL     1       0.909  43.679  19.727  1.00  0.00     0.016 C 
HETATM   17  C26 UNL     1       0.755  44.308  17.392  1.00  0.00     0.042 C 
HETATM   18  C27 UNL     1       1.397  44.310  16.074  1.00  0.00     0.123 C 
ENDROOT
BRANCH   1  19
HETATM   19  C7  UNL     1       2.875  46.226  15.327  1.00  0.00    -0.012 C 
HETATM   20  C8  UNL     1       3.604  47.199  16.155  1.00  0.00     0.010 C 
BRANCH  19  21
HETATM   21  C6  UNL     1       3.544  46.120  13.971  1.00  0.00     0.008 C 
BRANCH  21  22
HETATM   22  C5  UNL     1       3.917  44.677  13.684  1.00  0.00     0.042 C 
BRANCH  22  23
HETATM   23  C3  UNL     1       5.394  44.633  13.331  1.00  0.00     0.071 C 
HETATM   24  C4  UNL     1       6.168  43.940  14.417  1.00  0.00     0.050 C 
BRANCH  23  25
HETATM   25  C2  UNL     1       5.854  46.054  13.244  1.00  0.00    -0.000 C 
HETATM   26  C1  UNL     1       6.775  46.539  14.051  1.00  0.00     0.010 C 
ENDBRANCH  23  25
BRANCH  23  27
HETATM   27  O1  UNL     1       5.524  44.035  12.102  1.00  0.00    -0.386 OA
ATOM     28  H1  UNL     1       5.086  43.192  12.113  1.00  0.00     0.211 HD
ENDBRANCH  23  27
ENDBRANCH  22  23
ENDBRANCH  21  22
ENDBRANCH  19  21
ENDBRANCH   1  19
BRANCH  18  29
HETATM   29  O7  UNL     1       0.631  45.217  15.272  1.00  0.00    -0.395 OA
ATOM     30  H7  UNL     1       0.081  44.634  14.760  1.00  0.00     0.210 HD
ENDBRANCH  18  29
BRANCH   7  31
HETATM   31  O2  UNL     1       4.083  39.549  17.574  1.00  0.00    -0.391 OA
ATOM     32  H2  UNL     1       4.641  39.387  18.326  1.00  0.00     0.210 HD
ENDBRANCH   7  31
BRANCH   8  33
HETATM   33  O3  UNL     1       2.207  39.088  19.878  1.00  0.00    -0.371 OA
ATOM     34  H3  UNL     1       1.457  38.778  20.374  1.00  0.00     0.211 HD
ENDBRANCH   8  33
BRANCH   8  35
HETATM   35  C17 UNL     1       2.075  37.980  17.860  1.00  0.00     0.303 C 
HETATM   36  O4  UNL     1       1.977  36.924  18.534  1.00  0.00    -0.261 OA
BRANCH  35  37
HETATM   37  O5  UNL     1       2.255  37.803  16.499  1.00  0.00    -0.324 OA
HETATM   38  C18 UNL     1       1.897  36.594  15.850  1.00  0.00     0.213 C 
ENDBRANCH  35  37
ENDBRANCH   8  35
TORSDOF 11
ENDMDL
MODEL 3
REMARK VINA RESULT: -6.843260212      4.362      6.550
REMARK  11 active torsions:
REMARK  status: ('A' for Active; 'I' for Inactive)
REMARK    1  A    between atoms: C2_2  and  C3_3 
REMARK    2  A    between atoms: C3_3  and  O1_5 
REMARK    3  A    between atoms: C3_3  and  C5_7 
REMARK    4  A    between atoms: C5_7  and  C6_8 
REMARK    5  A    between atoms: C6_8  and  C7_9 
REMARK    6  A    between atoms: C7_9  and  C9_11 
REMARK    7  A    between atoms: C15_17  and  O2_18 
REMARK    8  A    between atoms: C16_20  and  O3_21 
REMARK    9  A    between atoms: C16_20  and  C17_23 
REMARK   10  A    between atoms: C17_23  and  O5_25 
REMARK   11  A    between atoms: C27_36  and  O7_37 
ROOT
HETATM    1  C9  UNL     1       3.547  42.549  17.162  1.00  0.00     0.018 C 
HETATM    2  C10 UNL     1       3.786  42.215  18.583  1.00  0.00     0.008 C 
HETATM    3  C11 UNL     1       2.874  41.228  19.217  1.00  0.00     0.006 C 
HETATM    4  C12 UNL     1       2.694  39.944  18.382  1.00  0.00     0.001 C 
HETATM    5  C13 UNL     1       3.300  38.835  19.130  1.00  0.00     0.019 C 
HETATM    6  C14 UNL     1       2.703  38.417  20.428  1.00  0.00     0.013 C 
HETATM    7  C15 UNL     1       3.874  37.723  18.312  1.00  0.00     0.174 C 
HETATM    8  C16 UNL     1       3.070  36.475  18.205  1.00  0.00     0.232 C 
HETATM    9  C19 UNL     1       1.934  36.782  17.257  1.00  0.00     0.174 C 
HETATM   10  O6  UNL     1       2.064  36.286  16.151  1.00  0.00    -0.294 OA
HETATM   11  C20 UNL     1       0.714  37.589  17.495  1.00  0.00     0.091 C 
HETATM   12  C21 UNL     1       0.781  38.989  16.953  1.00  0.00    -0.033 C 
HETATM   13  C22 UNL     1      -0.687  39.387  16.698  1.00  0.00     0.016 C 
HETATM   14  C23 UNL     1       1.387  38.888  15.581  1.00  0.00     0.016 C 
HETATM   15  C24 UNL     1       1.347  40.008  17.858  1.00  0.00    -0.030 C 
HETATM   16  C25 UNL     1       0.315  40.188  18.986  1.00  0.00     0.016 C 
HETATM   17  C26 UNL     1       1.285  41.350  17.094  1.00  0.00     0.042 C 
HETATM   18  C27 UNL     1       2.508  41.793  16.419  1.00  0.00     0.123 C 
ENDROOT
BRANCH   1  19
HETATM   19  C7  UNL     1       3.537  44.057  16.899  1.00  0.00    -0.012 C 
HETATM   20  C8  UNL     1       3.224  44.894  18.068  1.00  0.00     0.010 C 
BRANCH  19  21
HETATM   21  C6  UNL     1       4.900  44.440  16.358  1.00  0.00     0.008 C 
BRANCH  21  22
HETATM   22  C5  UNL     1       4.749  45.407  15.197  1.00  0.00     0.042 C 
BRANCH  22  23
HETATM   23  C3  UNL     1       5.139  44.677  13.923  1.00  0.00     0.071 C 
HETATM   24  C4  UNL     1       6.221  43.674  14.208  1.00  0.00     0.050 C 
BRANCH  23  25
HETATM   25  C2  UNL     1       5.675  45.711  12.985  1.00  0.00    -0.000 C 
HETATM   26  C1  UNL     1       5.748  46.983  13.320  1.00  0.00     0.010 C 
ENDBRANCH  23  25
BRANCH  23  27
HETATM   27  O1  UNL     1       4.006  44.118  13.385  1.00  0.00    -0.386 OA
ATOM     28  H1  UNL     1       3.906  43.231  13.711  1.00  0.00     0.211 HD
ENDBRANCH  23  27
ENDBRANCH  22  23
ENDBRANCH  21  22
ENDBRANCH  19  21
ENDBRANCH   1  19
BRANCH  18  29
HETATM   29  O7  UNL     1       2.083  42.729  15.422  1.00  0.00    -0.395 OA
ATOM     30  H7  UNL     1       1.234  42.391  15.162  1.00  0.00     0.210 HD
ENDBRANCH  18  29
BRANCH   7  31
HETATM   31  O2  UNL     1       5.166  37.334  18.695  1.00  0.00    -0.391 OA
ATOM     32  H2  UNL     1       5.201  36.854  19.514  1.00  0.00     0.210 HD
ENDBRANCH   7  31
BRANCH   8  33
HETATM   33  O3  UNL     1       2.563  35.995  19.381  1.00  0.00    -0.371 OA
ATOM     34  H3  UNL     1       1.661  35.697  19.348  1.00  0.00     0.211 HD
ENDBRANCH   8  33
BRANCH   8  35
HETATM   35  C17 UNL     1       3.872  35.426  17.570  1.00  0.00     0.303 C 
HETATM   36  O4  UNL     1       4.626  35.724  16.611  1.00  0.00    -0.261 OA
BRANCH  35  37
HETATM   37  O5  UNL     1       3.878  34.092  17.941  1.00  0.00    -0.324 OA
HETATM   38  C18 UNL     1       2.934  33.170  17.421  1.00  0.00     0.213 C 
ENDBRANCH  35  37
ENDBRANCH   8  35
TORSDOF 11
ENDMDL
MODEL 4
REMARK VINA RESULT: -6.836878147      3.973      6.040
REMARK  11 active torsions:
REMARK  status: ('A' for Active; 'I' for Inactive)
REMARK    1  A    between atoms: C2_2  and  C3_3 
REMARK    2  A    between atoms: C3_3  and  O1_5 
REMARK    3  A    between atoms: C3_3  and  C5_7 
REMARK    4  A    between atoms: C5_7  and  C6_8 
REMARK    5  A    between atoms: C6_8  and  C7_9 
REMARK    6  A    between atoms: C7_9  and  C9_11 
REMARK    7  A    between atoms: C15_17  and  O2_18 
REMARK    8  A    between atoms: C16_20  and  O3_21 
REMARK    9  A    between atoms: C16_20  and  C17_23 
REMARK   10  A    between atoms: C17_23  and  O5_25 
REMARK   11  A    between atoms: C27_36  and  O7_37 
ROOT
HETATM    1  C9  UNL     1       3.794  41.069  17.231  1.00  0.00     0.018 C 
HETATM    2  C10 UNL     1       5.026  40.529  17.847  1.00  0.00     0.008 C 
HETATM    3  C11 UNL     1       4.867  39.527  18.931  1.00  0.00     0.006 C 
HETATM    4  C12 UNL     1       3.899  38.383  18.565  1.00  0.00     0.001 C 
HETATM    5  C13 UNL     1       4.684  37.145  18.473  1.00  0.00     0.019 C 
HETATM    6  C14 UNL     1       5.325  36.594  19.698  1.00  0.00     0.013 C 
HETATM    7  C15 UNL     1       4.188  36.120  17.504  1.00  0.00     0.174 C 
HETATM    8  C16 UNL     1       3.455  34.953  18.067  1.00  0.00     0.232 C 
HETATM    9  C19 UNL     1       2.086  35.461  18.456  1.00  0.00     0.174 C 
HETATM   10  O6  UNL     1       1.196  35.113  17.699  1.00  0.00    -0.294 OA
HETATM   11  C20 UNL     1       1.698  36.306  19.610  1.00  0.00     0.091 C 
HETATM   12  C21 UNL     1       1.509  37.760  19.279  1.00  0.00    -0.033 C 
HETATM   13  C22 UNL     1       0.521  38.284  20.340  1.00  0.00     0.016 C 
HETATM   14  C23 UNL     1       0.736  37.808  17.989  1.00  0.00     0.016 C 
HETATM   15  C24 UNL     1       2.714  38.606  19.364  1.00  0.00    -0.030 C 
HETATM   16  C25 UNL     1       3.058  38.698  20.862  1.00  0.00     0.016 C 
HETATM   17  C26 UNL     1       2.264  40.041  19.008  1.00  0.00     0.042 C 
HETATM   18  C27 UNL     1       2.488  40.491  17.631  1.00  0.00     0.123 C 
ENDROOT
BRANCH   1  19
HETATM   19  C7  UNL     1       3.802  42.596  17.125  1.00  0.00    -0.012 C 
HETATM   20  C8  UNL     1       3.985  43.310  18.399  1.00  0.00     0.010 C 
BRANCH  19  21
HETATM   21  C6  UNL     1       4.909  42.987  16.167  1.00  0.00     0.008 C 
BRANCH  21  22
HETATM   22  C5  UNL     1       4.386  43.976  15.140  1.00  0.00     0.042 C 
BRANCH  22  23
HETATM   23  C3  UNL     1       5.411  44.081  14.023  1.00  0.00     0.071 C 
HETATM   24  C4  UNL     1       6.512  43.080  14.231  1.00  0.00     0.050 C 
BRANCH  23  25
HETATM   25  C2  UNL     1       5.990  45.458  14.104  1.00  0.00    -0.000 C 
HETATM   26  C1  UNL     1       5.605  46.424  13.295  1.00  0.00     0.010 C 
ENDBRANCH  23  25
BRANCH  23  27
HETATM   27  O1  UNL     1       4.756  43.932  12.826  1.00  0.00    -0.386 OA
ATOM     28  H1  UNL     1       4.294  43.102  12.820  1.00  0.00     0.211 HD
ENDBRANCH  23  27
ENDBRANCH  22  23
ENDBRANCH  21  22
ENDBRANCH  19  21
ENDBRANCH   1  19
BRANCH  18  29
HETATM   29  O7  UNL     1       1.580  41.581  17.427  1.00  0.00    -0.395 OA
ATOM     30  H7  UNL     1       1.140  41.341  16.620  1.00  0.00     0.210 HD
ENDBRANCH  18  29
BRANCH   7  31
HETATM   31  O2  UNL     1       5.180  35.599  16.660  1.00  0.00    -0.391 OA
ATOM     32  H2  UNL     1       5.876  35.138  17.115  1.00  0.00     0.210 HD
ENDBRANCH   7  31
BRANCH   8  33
HETATM   33  O3  UNL     1       4.040  34.352  19.147  1.00  0.00    -0.371 OA
ATOM     34  H3  UNL     1       4.571  34.919  19.695  1.00  0.00     0.211 HD
ENDBRANCH   8  33
BRANCH   8  35
HETATM   35  C17 UNL     1       3.247  33.951  17.019  1.00  0.00     0.303 C 
HETATM   36  O4  UNL     1       3.273  32.732  17.321  1.00  0.00    -0.261 OA
BRANCH  35  37
HETATM   37  O5  UNL     1       3.018  34.230  15.683  1.00  0.00    -0.324 OA
HETATM   38  C18 UNL     1       2.282  33.346  14.853  1.00  0.00     0.213 C 
ENDBRANCH  35  37
ENDBRANCH   8  35
TORSDOF 11
ENDMDL
MODEL 5
REMARK VINA RESULT: -6.748740661      4.979      7.333
REMARK  11 active torsions:
REMARK  status: ('A' for Active; 'I' for Inactive)
REMARK    1  A    between atoms: C2_2  and  C3_3 
REMARK    2  A    between atoms: C3_3  and  O1_5 
REMARK    3  A    between atoms: C3_3  and  C5_7 
REMARK    4  A    between atoms: C5_7  and  C6_8 
REMARK    5  A    between atoms: C6_8  and  C7_9 
REMARK    6  A    between atoms: C7_9  and  C9_11 
REMARK    7  A    between atoms: C15_17  and  O2_18 
REMARK    8  A    between atoms: C16_20  and  O3_21 
REMARK    9  A    between atoms: C16_20  and  C17_23 
REMARK   10  A    between atoms: C17_23  and  O5_25 
REMARK   11  A    between atoms: C27_36  and  O7_37 
ROOT
HETATM    1  C9  UNL     1       2.790  44.994  16.079  1.00  0.00     0.018 C 
HETATM    2  C10 UNL     1       3.743  44.766  17.186  1.00  0.00     0.008 C 
HETATM    3  C11 UNL     1       3.228  44.087  18.404  1.00  0.00     0.006 C 
HETATM    4  C12 UNL     1       2.440  42.799  18.094  1.00  0.00     0.001 C 
HETATM    5  C13 UNL     1       3.209  41.665  18.622  1.00  0.00     0.019 C 
HETATM    6  C14 UNL     1       3.401  41.534  20.092  1.00  0.00     0.013 C 
HETATM    7  C15 UNL     1       3.067  40.371  17.887  1.00  0.00     0.174 C 
HETATM    8  C16 UNL     1       2.187  39.337  18.497  1.00  0.00     0.232 C 
HETATM    9  C19 UNL     1       0.767  39.796  18.259  1.00  0.00     0.174 C 
HETATM   10  O6  UNL     1       0.182  39.170  17.392  1.00  0.00    -0.294 OA
HETATM   11  C20 UNL     1       0.014  40.883  18.930  1.00  0.00     0.091 C 
HETATM   12  C21 UNL     1      -0.052  42.165  18.149  1.00  0.00    -0.033 C 
HETATM   13  C22 UNL     1      -1.339  42.861  18.636  1.00  0.00     0.016 C 
HETATM   14  C23 UNL     1      -0.347  41.784  16.725  1.00  0.00     0.016 C 
HETATM   15  C24 UNL     1       1.055  43.116  18.368  1.00  0.00    -0.030 C 
HETATM   16  C25 UNL     1       0.875  43.646  19.802  1.00  0.00     0.016 C 
HETATM   17  C26 UNL     1       0.751  44.347  17.486  1.00  0.00     0.042 C 
HETATM   18  C27 UNL     1       1.424  44.424  16.187  1.00  0.00     0.123 C 
ENDROOT
BRANCH   1  19
HETATM   19  C7  UNL     1       2.833  46.428  15.543  1.00  0.00    -0.012 C 
HETATM   20  C8  UNL     1       3.709  47.347  16.287  1.00  0.00     0.010 C 
BRANCH  19  21
HETATM   21  C6  UNL     1       3.282  46.368  14.097  1.00  0.00     0.008 C 
BRANCH  21  22
HETATM   22  C5  UNL     1       3.960  45.039  13.816  1.00  0.00     0.042 C 
BRANCH  22  23
HETATM   23  C3  UNL     1       5.434  45.307  13.559  1.00  0.00     0.071 C 
HETATM   24  C4  UNL     1       5.617  46.669  12.951  1.00  0.00     0.050 C 
BRANCH  23  25
HETATM   25  C2  UNL     1       5.891  44.275  12.579  1.00  0.00    -0.000 C 
HETATM   26  C1  UNL     1       6.251  43.066  12.957  1.00  0.00     0.010 C 
ENDBRANCH  23  25
BRANCH  23  27
HETATM   27  O1  UNL     1       6.111  45.143  14.743  1.00  0.00    -0.386 OA
ATOM     28  H1  UNL     1       5.615  44.568  15.313  1.00  0.00     0.211 HD
ENDBRANCH  23  27
ENDBRANCH  22  23
ENDBRANCH  21  22
ENDBRANCH  19  21
ENDBRANCH   1  19
BRANCH  18  29
HETATM   29  O7  UNL     1       0.639  45.323  15.395  1.00  0.00    -0.395 OA
ATOM     30  H7  UNL     1      -0.245  44.997  15.519  1.00  0.00     0.210 HD
ENDBRANCH  18  29
BRANCH   7  31
HETATM   31  O2  UNL     1       4.285  39.738  17.596  1.00  0.00    -0.391 OA
ATOM     32  H2  UNL     1       4.361  39.432  16.699  1.00  0.00     0.210 HD
ENDBRANCH   7  31
BRANCH   8  33
HETATM   33  O3  UNL     1       2.374  39.114  19.833  1.00  0.00    -0.371 OA
ATOM     34  H3  UNL     1       1.774  38.496  20.234  1.00  0.00     0.211 HD
ENDBRANCH   8  33
BRANCH   8  35
HETATM   35  C17 UNL     1       2.343  38.071  17.776  1.00  0.00     0.303 C 
HETATM   36  O4  UNL     1       2.656  37.035  18.413  1.00  0.00    -0.261 OA
BRANCH  35  37
HETATM   37  O5  UNL     1       2.172  37.903  16.413  1.00  0.00    -0.324 OA
HETATM   38  C18 UNL     1       1.989  36.620  15.837  1.00  0.00     0.213 C 
ENDBRANCH  35  37
ENDBRANCH   8  35
TORSDOF 11
ENDMDL
