MODEL 1
REMARK VINA RESULT: -7.682406784      0.000      0.000
REMARK  4 active torsions:
REMARK  status: ('A' for Active; 'I' for Inactive)
REMARK    1  A    between atoms: C4_11  and  N4_12 
REMARK       I    between atoms: N4_12  and  C5_14 
REMARK       I    between atoms: C5_14  and  N5_16 
REMARK       I    between atoms: N5_16  and  C6_18 
REMARK    2  A    between atoms: C6_18  and  C7_20 
REMARK    3  A    between atoms: C7_20  and  C8_25 
REMARK    4  A    between atoms: N6_21  and  O5_23 
ROOT
HETATM    1  N4  UNL     1      16.265  16.297  28.532  1.00  0.00    -0.301 N 
ATOM      2  H4  UNL     1      17.089  15.894  28.978  1.00  0.00     0.171 HD
HETATM    3  C5  UNL     1      15.501  15.542  27.638  1.00  0.00     0.327 C 
HETATM    4  O3  UNL     1      14.458  16.086  27.091  1.00  0.00    -0.247 OA
HETATM    5  N5  UNL     1      15.762  14.236  27.274  1.00  0.00    -0.273 N 
ATOM      6  H5  UNL     1      15.115  13.810  26.610  1.00  0.00     0.173 HD
HETATM    7  C6  UNL     1      16.824  13.431  27.723  1.00  0.00     0.281 C 
HETATM    8  O4  UNL     1      17.717  13.773  28.538  1.00  0.00    -0.265 OA
ENDROOT
BRANCH   7   9
HETATM    9  C7  UNL     1      16.961  12.043  27.233  1.00  0.00     0.169 C 
HETATM   10  N6  UNL     1      16.565  11.795  26.049  1.00  0.00    -0.260 N 
ATOM     11  H6  UNL     1      16.177  12.570  25.511  1.00  0.00     0.194 HD
BRANCH  10  12
HETATM   12  O5  UNL     1      16.618  10.583  25.446  1.00  0.00    -0.289 OA
ATOM     13  H5  UNL     1      16.514  10.429  24.514  1.00  0.00     0.244 HD
ENDBRANCH  10  12
BRANCH   9  14
HETATM   14  C8  UNL     1      17.533  11.050  28.113  1.00  0.00     0.172 A 
HETATM   15  N7  UNL     1      18.813  10.838  28.439  1.00  0.00    -0.267 N 
HETATM   16  N8  UNL     1      18.888   9.823  29.279  1.00  0.00    -0.227 N 
ATOM     17  H7  UNL     1      19.608  11.376  28.092  1.00  0.00     0.190 HD
HETATM   18  N9  UNL     1      17.654   9.385  29.492  1.00  0.00    -0.227 N 
ATOM     19  H8  UNL     1      19.740   9.444  29.691  1.00  0.00     0.210 HD
HETATM   20  N10 UNL     1      16.824  10.118  28.794  1.00  0.00    -0.267 N 
ATOM     21  H9  UNL     1      17.396   8.607  30.099  1.00  0.00     0.210 HD
ATOM     22  H10 UNL     1      15.811  10.006  28.767  1.00  0.00     0.190 HD
ENDBRANCH   9  14
ENDBRANCH   7   9
BRANCH   1  23
HETATM   23  C4  UNL     1      15.864  17.660  28.815  1.00  0.00     0.146 A 
HETATM   24  C1  UNL     1      14.925  17.825  29.816  1.00  0.00     0.152 A 
HETATM   25  N1  UNL     1      14.374  16.736  30.539  1.00  0.00    -0.080 NA
HETATM   26  N2  UNL     1      14.556  19.104  30.072  1.00  0.00    -0.295 N 
HETATM   27  C2  UNL     1      15.074  20.144  29.393  1.00  0.00     0.328 A 
ATOM     28  H2  UNL     1      13.867  19.283  30.802  1.00  0.00     0.172 HD
HETATM   29  O1  UNL     1      14.679  21.297  29.692  1.00  0.00    -0.247 OA
HETATM   30  N3  UNL     1      15.986  19.978  28.419  1.00  0.00    -0.273 N 
HETATM   31  C3  UNL     1      16.382  18.728  28.131  1.00  0.00     0.279 A 
ATOM     32  H3  UNL     1      16.367  20.778  27.915  1.00  0.00     0.173 HD
HETATM   33  O2  UNL     1      17.232  18.542  27.228  1.00  0.00    -0.265 OA
ENDBRANCH   1  23
TORSDOF 4
ENDMDL
MODEL 2
REMARK VINA RESULT: -7.596691975      3.530      5.714
REMARK  4 active torsions:
REMARK  status: ('A' for Active; 'I' for Inactive)
REMARK    1  A    between atoms: C4_11  and  N4_12 
REMARK       I    between atoms: N4_12  and  C5_14 
REMARK       I    between atoms: C5_14  and  N5_16 
REMARK       I    between atoms: N5_16  and  C6_18 
REMARK    2  A    between atoms: C6_18  and  C7_20 
REMARK    3  A    between atoms: C7_20  and  C8_25 
REMARK    4  A    between atoms: N6_21  and  O5_23 
ROOT
HETATM    1  N4  UNL     1      14.811  21.025  28.952  1.00  0.00    -0.301 N 
ATOM      2  H4  UNL     1      15.133  20.906  27.991  1.00  0.00     0.171 HD
HETATM    3  C5  UNL     1      14.680  19.921  29.798  1.00  0.00     0.327 C 
HETATM    4  O3  UNL     1      14.269  20.108  31.014  1.00  0.00    -0.247 OA
HETATM    5  N5  UNL     1      14.957  18.614  29.449  1.00  0.00    -0.273 N 
ATOM      6  H5  UNL     1      14.817  17.909  30.174  1.00  0.00     0.173 HD
HETATM    7  C6  UNL     1      15.414  18.151  28.202  1.00  0.00     0.281 C 
HETATM    8  O4  UNL     1      15.647  18.861  27.191  1.00  0.00    -0.265 OA
ENDROOT
BRANCH   7   9
HETATM    9  C7  UNL     1      15.664  16.710  27.991  1.00  0.00     0.169 C 
HETATM   10  N6  UNL     1      16.812  16.259  28.309  1.00  0.00    -0.260 N 
ATOM     11  H6  UNL     1      17.488  16.922  28.689  1.00  0.00     0.194 HD
BRANCH  10  12
HETATM   12  O5  UNL     1      17.207  14.970  28.181  1.00  0.00    -0.289 OA
ATOM     13  H5  UNL     1      17.184  14.319  28.872  1.00  0.00     0.244 HD
ENDBRANCH  10  12
BRANCH   9  14
HETATM   14  C8  UNL     1      14.605  15.895  27.443  1.00  0.00     0.172 A 
HETATM   15  N7  UNL     1      14.447  14.567  27.480  1.00  0.00    -0.267 N 
HETATM   16  N8  UNL     1      13.333  14.242  26.852  1.00  0.00    -0.227 N 
ATOM     17  H7  UNL     1      15.087  13.908  27.924  1.00  0.00     0.190 HD
HETATM   18  N9  UNL     1      12.776  15.363  26.412  1.00  0.00    -0.227 N 
ATOM     19  H8  UNL     1      12.966  13.299  26.728  1.00  0.00     0.210 HD
HETATM   20  N10 UNL     1      13.534  16.371  26.763  1.00  0.00    -0.267 N 
ATOM     21  H9  UNL     1      11.904  15.428  25.888  1.00  0.00     0.210 HD
ATOM     22  H10 UNL     1      13.350  17.352  26.558  1.00  0.00     0.190 HD
ENDBRANCH   9  14
ENDBRANCH   7   9
BRANCH   1  23
HETATM   23  C4  UNL     1      14.480  22.339  29.463  1.00  0.00     0.146 A 
HETATM   24  C1  UNL     1      15.541  23.105  29.909  1.00  0.00     0.152 A 
HETATM   25  N1  UNL     1      16.885  22.650  29.875  1.00  0.00    -0.080 NA
HETATM   26  N2  UNL     1      15.222  24.333  30.386  1.00  0.00    -0.295 N 
HETATM   27  C2  UNL     1      13.951  24.774  30.421  1.00  0.00     0.328 A 
ATOM     28  H2  UNL     1      15.966  24.940  30.727  1.00  0.00     0.172 HD
HETATM   29  O1  UNL     1      13.740  25.924  30.879  1.00  0.00    -0.247 OA
HETATM   30  N3  UNL     1      12.922  24.025  29.987  1.00  0.00    -0.273 N 
HETATM   31  C3  UNL     1      13.191  22.801  29.506  1.00  0.00     0.279 A 
ATOM     32  H3  UNL     1      11.965  24.376  30.023  1.00  0.00     0.173 HD
HETATM   33  O2  UNL     1      12.252  22.079  29.093  1.00  0.00    -0.265 OA
ENDBRANCH   1  23
TORSDOF 4
ENDMDL
MODEL 3
REMARK VINA RESULT: -7.574788545      0.958      1.715
REMARK  4 active torsions:
REMARK  status: ('A' for Active; 'I' for Inactive)
REMARK    1  A    between atoms: C4_11  and  N4_12 
REMARK       I    between atoms: N4_12  and  C5_14 
REMARK       I    between atoms: C5_14  and  N5_16 
REMARK       I    between atoms: N5_16  and  C6_18 
REMARK    2  A    between atoms: C6_18  and  C7_20 
REMARK    3  A    between atoms: C7_20  and  C8_25 
REMARK    4  A    between atoms: N6_21  and  O5_23 
ROOT
HETATM    1  N4  UNL     1      16.156  16.288  28.628  1.00  0.00    -0.301 N 
ATOM      2  H4  UNL     1      17.009  15.906  29.038  1.00  0.00     0.171 HD
HETATM    3  C5  UNL     1      15.386  15.523  27.750  1.00  0.00     0.327 C 
HETATM    4  O3  UNL     1      14.307  16.039  27.249  1.00  0.00    -0.247 OA
HETATM    5  N5  UNL     1      15.675  14.231  27.357  1.00  0.00    -0.273 N 
ATOM      6  H5  UNL     1      15.019  13.794  26.709  1.00  0.00     0.173 HD
HETATM    7  C6  UNL     1      16.778  13.454  27.755  1.00  0.00     0.281 C 
HETATM    8  O4  UNL     1      17.689  13.813  28.543  1.00  0.00    -0.265 OA
ENDROOT
BRANCH   7   9
HETATM    9  C7  UNL     1      16.942  12.079  27.239  1.00  0.00     0.169 C 
HETATM   10  N6  UNL     1      16.533  11.841  26.057  1.00  0.00    -0.260 N 
ATOM     11  H6  UNL     1      16.117  12.615  25.539  1.00  0.00     0.194 HD
BRANCH  10  12
HETATM   12  O5  UNL     1      16.606  10.641  25.432  1.00  0.00    -0.289 OA
ATOM     13  H5  UNL     1      16.153  10.413  24.629  1.00  0.00     0.244 HD
ENDBRANCH  10  12
BRANCH   9  14
HETATM   14  C8  UNL     1      17.554  11.086  28.092  1.00  0.00     0.172 A 
HETATM   15  N7  UNL     1      18.846  10.890  28.378  1.00  0.00    -0.267 N 
HETATM   16  N8  UNL     1      18.959   9.868  29.206  1.00  0.00    -0.227 N 
ATOM     17  H7  UNL     1      19.622  11.443  28.015  1.00  0.00     0.190 HD
HETATM   18  N9  UNL     1      17.739   9.409  29.449  1.00  0.00    -0.227 N 
ATOM     19  H8  UNL     1      19.829   9.498  29.589  1.00  0.00     0.210 HD
HETATM   20  N10 UNL     1      16.879  10.137  28.783  1.00  0.00    -0.267 N 
ATOM     21  H9  UNL     1      17.509   8.621  30.055  1.00  0.00     0.210 HD
ATOM     22  H10 UNL     1      15.867  10.010  28.783  1.00  0.00     0.190 HD
ENDBRANCH   9  14
ENDBRANCH   7   9
BRANCH   1  23
HETATM   23  C4  UNL     1      15.723  17.633  28.947  1.00  0.00     0.146 A 
HETATM   24  C1  UNL     1      16.310  18.652  28.220  1.00  0.00     0.152 A 
HETATM   25  N1  UNL     1      17.283  18.416  27.214  1.00  0.00    -0.080 NA
HETATM   26  N2  UNL     1      15.898  19.906  28.525  1.00  0.00    -0.295 N 
HETATM   27  C2  UNL     1      14.976  20.141  29.477  1.00  0.00     0.328 A 
ATOM     28  H2  UNL     1      16.299  20.696  28.019  1.00  0.00     0.172 HD
HETATM   29  O1  UNL     1      14.649  21.333  29.699  1.00  0.00    -0.247 OA
HETATM   30  N3  UNL     1      14.408  19.147  30.182  1.00  0.00    -0.273 N 
HETATM   31  C3  UNL     1      14.785  17.886  29.913  1.00  0.00     0.279 A 
ATOM     32  H3  UNL     1      13.711  19.344  30.899  1.00  0.00     0.173 HD
HETATM   33  O2  UNL     1      14.272  16.938  30.553  1.00  0.00    -0.265 OA
ENDBRANCH   1  23
TORSDOF 4
ENDMDL
MODEL 4
REMARK VINA RESULT: -7.388251768      3.442      5.443
REMARK  4 active torsions:
REMARK  status: ('A' for Active; 'I' for Inactive)
REMARK    1  A    between atoms: C4_11  and  N4_12 
REMARK       I    between atoms: N4_12  and  C5_14 
REMARK       I    between atoms: C5_14  and  N5_16 
REMARK       I    between atoms: N5_16  and  C6_18 
REMARK    2  A    between atoms: C6_18  and  C7_20 
REMARK    3  A    between atoms: C7_20  and  C8_25 
REMARK    4  A    between atoms: N6_21  and  O5_23 
ROOT
HETATM    1  N4  UNL     1      14.946  20.882  28.958  1.00  0.00    -0.301 N 
ATOM      2  H4  UNL     1      15.216  20.753  27.983  1.00  0.00     0.171 HD
HETATM    3  C5  UNL     1      14.849  19.787  29.820  1.00  0.00     0.327 C 
HETATM    4  O3  UNL     1      14.505  19.988  31.053  1.00  0.00    -0.247 OA
HETATM    5  N5  UNL     1      15.095  18.474  29.468  1.00  0.00    -0.273 N 
ATOM      6  H5  UNL     1      14.986  17.777  30.205  1.00  0.00     0.173 HD
HETATM    7  C6  UNL     1      15.480  17.997  28.202  1.00  0.00     0.281 C 
HETATM    8  O4  UNL     1      15.666  18.696  27.174  1.00  0.00    -0.265 OA
ENDROOT
BRANCH   7   9
HETATM    9  C7  UNL     1      15.705  16.552  27.991  1.00  0.00     0.169 C 
HETATM   10  N6  UNL     1      16.846  16.082  28.304  1.00  0.00    -0.260 N 
ATOM     11  H6  UNL     1      17.534  16.732  28.682  1.00  0.00     0.194 HD
BRANCH  10  12
HETATM   12  O5  UNL     1      17.218  14.785  28.176  1.00  0.00    -0.289 OA
ATOM     13  H5  UNL     1      17.830  14.332  28.743  1.00  0.00     0.244 HD
ENDBRANCH  10  12
BRANCH   9  14
HETATM   14  C8  UNL     1      14.630  15.755  27.446  1.00  0.00     0.172 A 
HETATM   15  N7  UNL     1      14.468  14.427  27.452  1.00  0.00    -0.267 N 
HETATM   16  N8  UNL     1      13.338  14.122  26.843  1.00  0.00    -0.227 N 
ATOM     17  H7  UNL     1      15.116  13.755  27.864  1.00  0.00     0.190 HD
HETATM   18  N9  UNL     1      12.776  15.256  26.445  1.00  0.00    -0.227 N 
ATOM     19  H8  UNL     1      12.964  13.184  26.702  1.00  0.00     0.210 HD
HETATM   20  N10 UNL     1      13.546  16.252  26.804  1.00  0.00    -0.267 N 
ATOM     21  H9  UNL     1      11.891  15.338  25.943  1.00  0.00     0.210 HD
ATOM     22  H10 UNL     1      13.361  17.239  26.629  1.00  0.00     0.190 HD
ENDBRANCH   9  14
ENDBRANCH   7   9
BRANCH   1  23
HETATM   23  C4  UNL     1      14.655  22.204  29.475  1.00  0.00     0.146 A 
HETATM   24  C1  UNL     1      13.324  22.575  29.489  1.00  0.00     0.152 A 
HETATM   25  N1  UNL     1      12.284  21.725  29.030  1.00  0.00    -0.080 NA
HETATM   26  N2  UNL     1      13.062  23.814  29.973  1.00  0.00    -0.295 N 
HETATM   27  C2  UNL     1      14.040  24.627  30.412  1.00  0.00     0.328 A 
ATOM     28  H2  UNL     1      12.096  24.138  30.007  1.00  0.00     0.172 HD
HETATM   29  O1  UNL     1      13.714  25.760  30.845  1.00  0.00    -0.247 OA
HETATM   30  N3  UNL     1      15.335  24.263  30.395  1.00  0.00    -0.273 N 
HETATM   31  C3  UNL     1      15.641  23.043  29.923  1.00  0.00     0.279 A 
ATOM     32  H3  UNL     1      16.062  24.893  30.730  1.00  0.00     0.173 HD
HETATM   33  O2  UNL     1      16.839  22.674  29.896  1.00  0.00    -0.265 OA
ENDBRANCH   1  23
TORSDOF 4
ENDMDL
MODEL 5
REMARK VINA RESULT: -7.354560259      4.063      6.977
REMARK  4 active torsions:
REMARK  status: ('A' for Active; 'I' for Inactive)
REMARK    1  A    between atoms: C4_11  and  N4_12 
REMARK       I    between atoms: N4_12  and  C5_14 
REMARK       I    between atoms: C5_14  and  N5_16 
REMARK       I    between atoms: N5_16  and  C6_18 
REMARK    2  A    between atoms: C6_18  and  C7_20 
REMARK    3  A    between atoms: C7_20  and  C8_25 
REMARK    4  A    between atoms: N6_21  and  O5_23 
ROOT
HETATM    1  N4  UNL     1      14.102  22.490  29.998  1.00  0.00    -0.301 N 
ATOM      2  H4  UNL     1      13.326  21.835  30.090  1.00  0.00     0.171 HD
HETATM    3  C5  UNL     1      15.309  22.086  29.422  1.00  0.00     0.327 C 
HETATM    4  O3  UNL     1      16.273  22.946  29.319  1.00  0.00    -0.247 OA
HETATM    5  N5  UNL     1      15.574  20.820  28.938  1.00  0.00    -0.273 N 
ATOM      6  H5  UNL     1      16.502  20.669  28.542  1.00  0.00     0.173 HD
HETATM    7  C6  UNL     1      14.700  19.718  28.932  1.00  0.00     0.281 C 
HETATM    8  O4  UNL     1      13.523  19.706  29.371  1.00  0.00    -0.265 OA
ENDROOT
BRANCH   7   9
HETATM    9  C7  UNL     1      15.142  18.424  28.372  1.00  0.00     0.169 C 
HETATM   10  N6  UNL     1      15.613  18.423  27.189  1.00  0.00    -0.260 N 
ATOM     11  H6  UNL     1      15.655  19.318  26.701  1.00  0.00     0.194 HD
BRANCH  10  12
HETATM   12  O5  UNL     1      16.061  17.330  26.527  1.00  0.00    -0.289 OA
ATOM     13  H5  UNL     1      15.833  16.431  26.735  1.00  0.00     0.244 HD
ENDBRANCH  10  12
BRANCH   9  14
HETATM   14  C8  UNL     1      15.021  17.237  29.188  1.00  0.00     0.172 A 
HETATM   15  N7  UNL     1      15.149  15.951  28.844  1.00  0.00    -0.267 N 
HETATM   16  N8  UNL     1      14.958  15.193  29.907  1.00  0.00    -0.227 N 
ATOM     17  H7  UNL     1      15.360  15.609  27.906  1.00  0.00     0.190 HD
HETATM   18  N9  UNL     1      14.707  15.995  30.934  1.00  0.00    -0.227 N 
ATOM     19  H8  UNL     1      14.996  14.174  29.935  1.00  0.00     0.210 HD
HETATM   20  N10 UNL     1      14.743  17.234  30.514  1.00  0.00    -0.267 N 
ATOM     21  H9  UNL     1      14.518  15.695  31.890  1.00  0.00     0.210 HD
ATOM     22  H10 UNL     1      14.587  18.061  31.089  1.00  0.00     0.190 HD
ENDBRANCH   9  14
ENDBRANCH   7   9
BRANCH   1  23
HETATM   23  C4  UNL     1      13.973  23.856  30.462  1.00  0.00     0.146 A 
HETATM   24  C1  UNL     1      13.294  24.723  29.627  1.00  0.00     0.152 A 
HETATM   25  N1  UNL     1      12.743  24.318  28.383  1.00  0.00    -0.080 NA
HETATM   26  N2  UNL     1      13.179  25.999  30.070  1.00  0.00    -0.295 N 
HETATM   27  C2  UNL     1      13.696  26.393  31.248  1.00  0.00     0.328 A 
ATOM     28  H2  UNL     1      12.686  26.680  29.493  1.00  0.00     0.172 HD
HETATM   29  O1  UNL     1      13.547  27.593  31.584  1.00  0.00    -0.247 OA
HETATM   30  N3  UNL     1      14.358  25.546  32.056  1.00  0.00    -0.273 N 
HETATM   31  C3  UNL     1      14.496  24.271  31.659  1.00  0.00     0.279 A 
ATOM     32  H3  UNL     1      14.744  25.863  32.945  1.00  0.00     0.173 HD
HETATM   33  O2  UNL     1      15.107  23.458  32.392  1.00  0.00    -0.265 OA
ENDBRANCH   1  23
TORSDOF 4
ENDMDL
