MODEL 1
REMARK VINA RESULT: -6.700343447      0.000      0.000
REMARK  6 active torsions:
REMARK  status: ('A' for Active; 'I' for Inactive)
REMARK    1  A    between atoms: N1_1  and  N2_4 
REMARK    2  A    between atoms: N2_4  and  C1_6 
REMARK    3  A    between atoms: C1_6  and  N3_8 
REMARK    4  A    between atoms: N3_8  and  N4_10 
REMARK       I    between atoms: N4_10  and  C2_12 
REMARK    5  A    between atoms: C2_12  and  C3_14 
REMARK    6  A    between atoms: C3_14  and  N5_15 
ROOT
HETATM    1  N4  UNL     1       2.605  17.938  26.805  1.00  0.00    -0.263 N 
ATOM      2  H4  UNL     1       2.399  17.453  25.931  1.00  0.00     0.190 HD
HETATM    3  C2  UNL     1       3.129  19.294  26.820  1.00  0.00     0.276 C 
HETATM    4  O1  UNL     1       3.378  19.856  27.894  1.00  0.00    -0.265 OA
ENDROOT
BRANCH   1   5
HETATM    5  N3  UNL     1       2.403  17.339  28.035  1.00  0.00    -0.272 N 
ATOM      6  H3  UNL     1       3.163  17.301  28.714  1.00  0.00     0.189 HD
BRANCH   5   7
HETATM    7  C1  UNL     1       1.142  16.778  28.351  1.00  0.00     0.205 C 
HETATM    8  S1  UNL     1       0.269  17.403  29.558  1.00  0.00    -0.038 SA
BRANCH   7   9
HETATM    9  N2  UNL     1       0.682  15.679  27.589  1.00  0.00    -0.282 N 
ATOM     10  H2  UNL     1      -0.271  15.658  27.227  1.00  0.00     0.189 HD
BRANCH   9  11
HETATM   11  N1  UNL     1       1.568  14.619  27.343  1.00  0.00    -0.343 N 
ATOM     12  H12 UNL     1       1.510  13.769  27.903  1.00  0.00     0.176 HD
ATOM     13  H11 UNL     1       2.259  14.727  26.600  1.00  0.00     0.176 HD
ENDBRANCH   9  11
ENDBRANCH   7   9
ENDBRANCH   5   7
ENDBRANCH   1   5
BRANCH   3  14
HETATM   14  C3  UNL     1       3.356  19.985  25.537  1.00  0.00     0.181 C 
BRANCH  14  15
HETATM   15  N5  UNL     1       3.959  19.146  24.579  1.00  0.00    -0.300 N 
HETATM   16  C4  UNL     1       4.990  19.733  23.826  1.00  0.00     0.157 C 
HETATM   17  C5  UNL     1       5.878  18.696  23.131  1.00  0.00     0.131 C 
HETATM   18  S2  UNL     1       4.789  18.050  21.844  1.00  0.00     0.033 S 
HETATM   19  O2  UNL     1       4.994  18.972  20.433  1.00  0.00    -0.257 OA
HETATM   20  C6  UNL     1       3.145  18.479  22.447  1.00  0.00     0.243 C 
HETATM   21  N6  UNL     1       3.083  18.332  23.878  1.00  0.00    -0.127 NA
ENDBRANCH  14  15
ENDBRANCH   3  14
TORSDOF 6
ENDMDL
MODEL 2
REMARK VINA RESULT: -6.515797861      1.216      1.491
REMARK  6 active torsions:
REMARK  status: ('A' for Active; 'I' for Inactive)
REMARK    1  A    between atoms: N1_1  and  N2_4 
REMARK    2  A    between atoms: N2_4  and  C1_6 
REMARK    3  A    between atoms: C1_6  and  N3_8 
REMARK    4  A    between atoms: N3_8  and  N4_10 
REMARK       I    between atoms: N4_10  and  C2_12 
REMARK    5  A    between atoms: C2_12  and  C3_14 
REMARK    6  A    between atoms: C3_14  and  N5_15 
ROOT
HETATM    1  N4  UNL     1       2.152  17.995  26.298  1.00  0.00    -0.263 N 
ATOM      2  H4  UNL     1       1.901  17.506  25.438  1.00  0.00     0.190 HD
HETATM    3  C2  UNL     1       2.216  19.446  26.361  1.00  0.00     0.276 C 
HETATM    4  O1  UNL     1       2.530  20.013  27.414  1.00  0.00    -0.265 OA
ENDROOT
BRANCH   1   5
HETATM    5  N3  UNL     1       2.448  17.311  27.463  1.00  0.00    -0.272 N 
ATOM      6  H3  UNL     1       3.407  17.291  27.811  1.00  0.00     0.189 HD
BRANCH   5   7
HETATM    7  C1  UNL     1       1.423  16.641  28.173  1.00  0.00     0.205 C 
HETATM    8  S1  UNL     1       0.580  17.435  29.299  1.00  0.00    -0.038 SA
BRANCH   7   9
HETATM    9  N2  UNL     1       1.165  15.285  27.865  1.00  0.00    -0.282 N 
ATOM     10  H2  UNL     1       1.561  14.537  28.434  1.00  0.00     0.189 HD
BRANCH   9  11
HETATM   11  N1  UNL     1       0.353  14.994  26.759  1.00  0.00    -0.343 N 
ATOM     12  H12 UNL     1      -0.621  15.295  26.751  1.00  0.00     0.176 HD
ATOM     13  H11 UNL     1       0.763  14.480  25.978  1.00  0.00     0.176 HD
ENDBRANCH   9  11
ENDBRANCH   7   9
ENDBRANCH   5   7
ENDBRANCH   1   5
BRANCH   3  14
HETATM   14  C3  UNL     1       1.901  20.227  25.150  1.00  0.00     0.181 C 
BRANCH  14  15
HETATM   15  N5  UNL     1       2.987  20.285  24.255  1.00  0.00    -0.300 N 
HETATM   16  C4  UNL     1       2.647  20.295  22.891  1.00  0.00     0.157 C 
HETATM   17  C5  UNL     1       3.792  20.785  22.000  1.00  0.00     0.131 C 
HETATM   18  S2  UNL     1       4.967  19.418  22.087  1.00  0.00     0.033 S 
HETATM   19  O2  UNL     1       4.637  18.324  20.830  1.00  0.00    -0.257 OA
HETATM   20  C6  UNL     1       4.480  18.556  23.594  1.00  0.00     0.243 C 
HETATM   21  N6  UNL     1       4.076  19.502  24.602  1.00  0.00    -0.127 NA
ENDBRANCH  14  15
ENDBRANCH   3  14
TORSDOF 6
ENDMDL
MODEL 3
REMARK VINA RESULT: -6.338107501      2.091      2.604
REMARK  6 active torsions:
REMARK  status: ('A' for Active; 'I' for Inactive)
REMARK    1  A    between atoms: N1_1  and  N2_4 
REMARK    2  A    between atoms: N2_4  and  C1_6 
REMARK    3  A    between atoms: C1_6  and  N3_8 
REMARK    4  A    between atoms: N3_8  and  N4_10 
REMARK       I    between atoms: N4_10  and  C2_12 
REMARK    5  A    between atoms: C2_12  and  C3_14 
REMARK    6  A    between atoms: C3_14  and  N5_15 
ROOT
HETATM    1  N4  UNL     1       3.262  17.298  25.581  1.00  0.00    -0.263 N 
ATOM      2  H4  UNL     1       3.729  16.538  25.087  1.00  0.00     0.190 HD
HETATM    3  C2  UNL     1       2.692  18.433  24.873  1.00  0.00     0.276 C 
HETATM    4  O1  UNL     1       2.138  19.346  25.497  1.00  0.00    -0.265 OA
ENDROOT
BRANCH   1   5
HETATM    5  N3  UNL     1       3.139  17.304  26.959  1.00  0.00    -0.272 N 
ATOM      6  H3  UNL     1       3.946  17.528  27.541  1.00  0.00     0.189 HD
BRANCH   5   7
HETATM    7  C1  UNL     1       1.895  16.998  27.561  1.00  0.00     0.205 C 
HETATM    8  S1  UNL     1       1.169  15.594  27.228  1.00  0.00    -0.038 SA
BRANCH   7   9
HETATM    9  N2  UNL     1       1.324  17.942  28.446  1.00  0.00    -0.282 N 
ATOM     10  H2  UNL     1       0.579  17.671  29.087  1.00  0.00     0.189 HD
BRANCH   9  11
HETATM   11  N1  UNL     1       1.808  19.259  28.420  1.00  0.00    -0.343 N 
ATOM     12  H12 UNL     1       1.230  20.019  28.779  1.00  0.00     0.176 HD
ATOM     13  H11 UNL     1       2.739  19.426  28.038  1.00  0.00     0.176 HD
ENDBRANCH   9  11
ENDBRANCH   7   9
ENDBRANCH   5   7
ENDBRANCH   1   5
BRANCH   3  14
HETATM   14  C3  UNL     1       2.787  18.476  23.402  1.00  0.00     0.181 C 
BRANCH  14  15
HETATM   15  N5  UNL     1       4.028  18.975  22.961  1.00  0.00    -0.300 N 
HETATM   16  C4  UNL     1       4.454  18.511  21.704  1.00  0.00     0.157 C 
HETATM   17  C5  UNL     1       5.553  19.386  21.093  1.00  0.00     0.131 C 
HETATM   18  S2  UNL     1       6.976  19.010  22.138  1.00  0.00     0.033 S 
HETATM   19  O2  UNL     1       7.827  17.704  21.463  1.00  0.00    -0.257 OA
HETATM   20  C6  UNL     1       6.221  18.349  23.635  1.00  0.00     0.243 C 
HETATM   21  N6  UNL     1       5.006  19.061  23.939  1.00  0.00    -0.127 NA
ENDBRANCH  14  15
ENDBRANCH   3  14
TORSDOF 6
ENDMDL
MODEL 4
REMARK VINA RESULT: -6.319617794      2.045      2.686
REMARK  6 active torsions:
REMARK  status: ('A' for Active; 'I' for Inactive)
REMARK    1  A    between atoms: N1_1  and  N2_4 
REMARK    2  A    between atoms: N2_4  and  C1_6 
REMARK    3  A    between atoms: C1_6  and  N3_8 
REMARK    4  A    between atoms: N3_8  and  N4_10 
REMARK       I    between atoms: N4_10  and  C2_12 
REMARK    5  A    between atoms: C2_12  and  C3_14 
REMARK    6  A    between atoms: C3_14  and  N5_15 
ROOT
HETATM    1  N4  UNL     1       2.639  17.098  26.045  1.00  0.00    -0.263 N 
ATOM      2  H4  UNL     1       2.337  16.169  25.752  1.00  0.00     0.190 HD
HETATM    3  C2  UNL     1       2.865  18.166  25.086  1.00  0.00     0.276 C 
HETATM    4  O1  UNL     1       3.239  19.282  25.468  1.00  0.00    -0.265 OA
ENDROOT
BRANCH   1   5
HETATM    5  N3  UNL     1       2.857  17.406  27.376  1.00  0.00    -0.272 N 
ATOM      6  H3  UNL     1       3.763  17.210  27.803  1.00  0.00     0.189 HD
BRANCH   5   7
HETATM    7  C1  UNL     1       1.823  17.993  28.146  1.00  0.00     0.205 C 
HETATM    8  S1  UNL     1       0.817  17.048  28.986  1.00  0.00    -0.038 SA
BRANCH   7   9
HETATM    9  N2  UNL     1       1.708  19.402  28.157  1.00  0.00    -0.282 N 
ATOM     10  H2  UNL     1       0.792  19.850  28.180  1.00  0.00     0.189 HD
BRANCH   9  11
HETATM   11  N1  UNL     1       2.883  20.168  28.135  1.00  0.00    -0.343 N 
ATOM     12  H12 UNL     1       3.753  19.754  27.801  1.00  0.00     0.176 HD
ATOM     13  H11 UNL     1       2.838  21.134  28.459  1.00  0.00     0.176 HD
ENDBRANCH   9  11
ENDBRANCH   7   9
ENDBRANCH   5   7
ENDBRANCH   1   5
BRANCH   3  14
HETATM   14  C3  UNL     1       2.640  17.897  23.653  1.00  0.00     0.181 C 
BRANCH  14  15
HETATM   15  N5  UNL     1       3.827  17.987  22.901  1.00  0.00    -0.300 N 
HETATM   16  C4  UNL     1       4.967  17.422  23.500  1.00  0.00     0.157 C 
HETATM   17  C5  UNL     1       6.094  17.160  22.496  1.00  0.00     0.131 C 
HETATM   18  S2  UNL     1       6.661  18.829  22.103  1.00  0.00     0.033 S 
HETATM   19  O2  UNL     1       7.901  19.258  23.180  1.00  0.00    -0.257 OA
HETATM   20  C6  UNL     1       5.258  19.858  22.575  1.00  0.00     0.243 C 
HETATM   21  N6  UNL     1       4.021  19.196  22.252  1.00  0.00    -0.127 NA
ENDBRANCH  14  15
ENDBRANCH   3  14
TORSDOF 6
ENDMDL
MODEL 5
REMARK VINA RESULT: -6.264424176      1.343      1.530
REMARK  6 active torsions:
REMARK  status: ('A' for Active; 'I' for Inactive)
REMARK    1  A    between atoms: N1_1  and  N2_4 
REMARK    2  A    between atoms: N2_4  and  C1_6 
REMARK    3  A    between atoms: C1_6  and  N3_8 
REMARK    4  A    between atoms: N3_8  and  N4_10 
REMARK       I    between atoms: N4_10  and  C2_12 
REMARK    5  A    between atoms: C2_12  and  C3_14 
REMARK    6  A    between atoms: C3_14  and  N5_15 
ROOT
HETATM    1  N4  UNL     1       1.971  18.558  27.025  1.00  0.00    -0.263 N 
ATOM      2  H4  UNL     1       1.474  18.168  26.223  1.00  0.00     0.190 HD
HETATM    3  C2  UNL     1       2.913  19.656  26.879  1.00  0.00     0.276 C 
HETATM    4  O1  UNL     1       3.508  20.105  27.866  1.00  0.00    -0.265 OA
ENDROOT
BRANCH   1   5
HETATM    5  N3  UNL     1       1.784  18.069  28.305  1.00  0.00    -0.272 N 
ATOM      6  H3  UNL     1       2.138  18.591  29.107  1.00  0.00     0.189 HD
BRANCH   5   7
HETATM    7  C1  UNL     1       1.104  16.843  28.503  1.00  0.00     0.205 C 
HETATM    8  S1  UNL     1       1.198  15.686  27.381  1.00  0.00    -0.038 SA
BRANCH   7   9
HETATM    9  N2  UNL     1       0.358  16.670  29.691  1.00  0.00    -0.282 N 
ATOM     10  H2  UNL     1       0.670  16.022  30.414  1.00  0.00     0.189 HD
BRANCH   9  11
HETATM   11  N1  UNL     1      -0.823  17.412  29.853  1.00  0.00    -0.343 N 
ATOM     12  H12 UNL     1      -1.580  17.042  30.427  1.00  0.00     0.176 HD
ATOM     13  H11 UNL     1      -0.896  18.315  29.384  1.00  0.00     0.176 HD
ENDBRANCH   9  11
ENDBRANCH   7   9
ENDBRANCH   5   7
ENDBRANCH   1   5
BRANCH   3  14
HETATM   14  C3  UNL     1       3.145  20.223  25.538  1.00  0.00     0.181 C 
BRANCH  14  15
HETATM   15  N5  UNL     1       3.912  19.368  24.723  1.00  0.00    -0.300 N 
HETATM   16  C4  UNL     1       4.726  20.010  23.772  1.00  0.00     0.157 C 
HETATM   17  C5  UNL     1       5.830  19.098  23.228  1.00  0.00     0.131 C 
HETATM   18  S2  UNL     1       4.905  17.930  22.209  1.00  0.00     0.033 S 
HETATM   19  O2  UNL     1       4.810  18.535  20.625  1.00  0.00    -0.257 OA
HETATM   20  C6  UNL     1       3.228  18.060  22.859  1.00  0.00     0.243 C 
HETATM   21  N6  UNL     1       3.257  18.227  24.289  1.00  0.00    -0.127 NA
ENDBRANCH  14  15
ENDBRANCH   3  14
TORSDOF 6
ENDMDL
