MODEL 1
REMARK VINA RESULT: -5.992398005      0.000      0.000
REMARK  13 active torsions:
REMARK  status: ('A' for Active; 'I' for Inactive)
REMARK    1  A    between atoms: O1_2  and  C2_3 
REMARK    2  A    between atoms: C4_5  and  C5_6 
REMARK    3  A    between atoms: C5_6  and  N1_7 
REMARK    4  A    between atoms: C6_9  and  N2_10 
REMARK    5  A    between atoms: C6_9  and  S1_15 
REMARK    6  A    between atoms: N2_10  and  N3_12 
REMARK    7  A    between atoms: S1_15  and  S2_16 
REMARK    8  A    between atoms: S2_16  and  C7_17 
REMARK    9  A    between atoms: C7_17  and  N5_21 
REMARK   10  A    between atoms: N5_21  and  C8_23 
REMARK   11  A    between atoms: C17_32  and  O4_33 
REMARK   12  A    between atoms: O4_33  and  C18_34 
REMARK   13  A    between atoms: C18_34  and  C20_36 
ROOT
HETATM    1  N1  UNL     1      45.561  42.041  61.170  1.00  0.00    -0.365 N 
ATOM      2  H1  UNL     1      44.996  41.221  61.391  1.00  0.00     0.162 HD
HETATM    3  C6  UNL     1      45.232  42.666  60.127  1.00  0.00     0.171 C 
ENDROOT
BRANCH   3   4
HETATM    4  N2  UNL     1      44.097  42.121  59.399  1.00  0.00    -0.219 N 
ATOM      5  H2  UNL     1      44.263  41.574  58.554  1.00  0.00     0.195 HD
BRANCH   4   6
HETATM    6  N3  UNL     1      42.788  42.329  59.833  1.00  0.00    -0.037 N 
HETATM    7  O2  UNL     1      41.875  41.534  59.530  1.00  0.00    -0.516 OA
HETATM    8  O3  UNL     1      42.527  43.435  60.606  1.00  0.00    -0.516 OA
ENDBRANCH   4   6
ENDBRANCH   3   4
BRANCH   3   9
HETATM    9  S1  UNL     1      45.976  44.107  59.433  1.00  0.00    -0.012 SA
BRANCH   9  10
HETATM   10  S2  UNL     1      45.054  45.918  59.954  1.00  0.00    -0.014 SA
BRANCH  10  11
HETATM   11  C7  UNL     1      44.947  46.093  61.724  1.00  0.00     0.145 C 
HETATM   12  N4  UNL     1      44.155  45.311  62.364  1.00  0.00    -0.379 N 
ATOM     13  H42 UNL     1      43.625  44.626  61.824  1.00  0.00     0.158 HD
ATOM     14  H41 UNL     1      44.095  45.411  63.377  1.00  0.00     0.158 HD
BRANCH  11  15
HETATM   15  N5  UNL     1      45.681  47.041  62.471  1.00  0.00    -0.365 N 
ATOM     16  H5  UNL     1      45.413  48.025  62.476  1.00  0.00     0.162 HD
BRANCH  15  17
HETATM   17  C8  UNL     1      46.823  46.578  63.229  1.00  0.00     0.087 C 
HETATM   18  C9  UNL     1      47.137  47.577  64.290  1.00  0.00     0.025 C 
HETATM   19  C10 UNL     1      47.749  48.824  63.749  1.00  0.00     0.002 C 
HETATM   20  C11 UNL     1      48.832  48.621  62.740  1.00  0.00     0.001 C 
HETATM   21  C12 UNL     1      48.511  47.545  61.732  1.00  0.00     0.006 C 
HETATM   22  C13 UNL     1      48.001  46.289  62.359  1.00  0.00     0.004 C 
HETATM   23  C14 UNL     1      49.063  45.558  63.151  1.00  0.00     0.012 C 
ENDBRANCH  15  17
ENDBRANCH  11  15
ENDBRANCH  10  11
ENDBRANCH   9  10
ENDBRANCH   3   9
BRANCH   1  24
HETATM   24  C5  UNL     1      46.616  42.325  62.081  1.00  0.00     0.160 C 
BRANCH  24  25
HETATM   25  C4  UNL     1      47.583  41.180  62.120  1.00  0.00    -0.038 A 
HETATM   26  C3  UNL     1      48.887  41.404  62.489  1.00  0.00     0.048 A 
HETATM   27  C2  UNL     1      49.746  40.340  62.516  1.00  0.00     0.102 A 
HETATM   28  C17 UNL     1      49.361  39.025  62.184  1.00  0.00     0.103 A 
HETATM   29  C16 UNL     1      48.049  38.870  61.825  1.00  0.00     0.040 A 
HETATM   30  C15 UNL     1      47.139  39.921  61.782  1.00  0.00     0.012 A 
BRANCH  27  31
HETATM   31  O1  UNL     1      51.047  40.549  62.882  1.00  0.00    -0.353 OA
HETATM   32  C1  UNL     1      51.591  41.780  63.270  1.00  0.00     0.210 C 
ENDBRANCH  27  31
BRANCH  28  33
HETATM   33  O4  UNL     1      50.304  38.018  62.242  1.00  0.00    -0.333 OA
BRANCH  33  34
HETATM   34  C18 UNL     1      50.875  37.442  61.120  1.00  0.00     0.225 C 
HETATM   35  C19 UNL     1      52.389  37.653  61.068  1.00  0.00     0.052 C 
BRANCH  34  36
HETATM   36  C20 UNL     1      50.637  35.946  61.148  1.00  0.00     0.203 C 
HETATM   37  O5  UNL     1      49.596  35.457  60.641  1.00  0.00    -0.646 OA
HETATM   38  O6  UNL     1      51.596  35.151  61.745  1.00  0.00    -0.646 OA
ENDBRANCH  34  36
ENDBRANCH  33  34
ENDBRANCH  28  33
ENDBRANCH  24  25
ENDBRANCH   1  24
TORSDOF 13
ENDMDL
MODEL 2
REMARK VINA RESULT: -5.906208561      3.928      7.843
REMARK  13 active torsions:
REMARK  status: ('A' for Active; 'I' for Inactive)
REMARK    1  A    between atoms: O1_2  and  C2_3 
REMARK    2  A    between atoms: C4_5  and  C5_6 
REMARK    3  A    between atoms: C5_6  and  N1_7 
REMARK    4  A    between atoms: C6_9  and  N2_10 
REMARK    5  A    between atoms: C6_9  and  S1_15 
REMARK    6  A    between atoms: N2_10  and  N3_12 
REMARK    7  A    between atoms: S1_15  and  S2_16 
REMARK    8  A    between atoms: S2_16  and  C7_17 
REMARK    9  A    between atoms: C7_17  and  N5_21 
REMARK   10  A    between atoms: N5_21  and  C8_23 
REMARK   11  A    between atoms: C17_32  and  O4_33 
REMARK   12  A    between atoms: O4_33  and  C18_34 
REMARK   13  A    between atoms: C18_34  and  C20_36 
ROOT
HETATM    1  N1  UNL     1      48.635  41.878  62.866  1.00  0.00    -0.365 N 
ATOM      2  H1  UNL     1      47.696  41.751  63.245  1.00  0.00     0.162 HD
HETATM    3  C6  UNL     1      49.370  40.854  62.875  1.00  0.00     0.171 C 
ENDROOT
BRANCH   3   4
HETATM    4  N2  UNL     1      48.765  39.652  63.425  1.00  0.00    -0.219 N 
ATOM      5  H2  UNL     1      49.303  39.074  64.071  1.00  0.00     0.195 HD
BRANCH   4   6
HETATM    6  N3  UNL     1      47.466  39.272  63.087  1.00  0.00    -0.037 N 
HETATM    7  O2  UNL     1      47.255  38.382  62.239  1.00  0.00    -0.516 OA
HETATM    8  O3  UNL     1      46.420  39.904  63.716  1.00  0.00    -0.516 OA
ENDBRANCH   4   6
ENDBRANCH   3   4
BRANCH   3   9
HETATM    9  S1  UNL     1      51.036  40.698  62.317  1.00  0.00    -0.012 SA
BRANCH   9  10
HETATM   10  S2  UNL     1      52.415  41.945  63.290  1.00  0.00    -0.014 SA
BRANCH  10  11
HETATM   11  C7  UNL     1      52.575  43.503  62.440  1.00  0.00     0.145 C 
HETATM   12  N4  UNL     1      52.845  43.484  61.185  1.00  0.00    -0.379 N 
ATOM     13  H42 UNL     1      52.954  42.574  60.737  1.00  0.00     0.158 HD
ATOM     14  H41 UNL     1      52.935  44.376  60.699  1.00  0.00     0.158 HD
BRANCH  11  15
HETATM   15  N5  UNL     1      52.423  44.763  63.062  1.00  0.00    -0.365 N 
ATOM     16  H5  UNL     1      52.303  44.837  64.072  1.00  0.00     0.162 HD
BRANCH  15  17
HETATM   17  C8  UNL     1      52.441  45.943  62.227  1.00  0.00     0.087 C 
HETATM   18  C9  UNL     1      53.454  46.898  62.761  1.00  0.00     0.025 C 
HETATM   19  C10 UNL     1      53.020  47.555  64.027  1.00  0.00     0.002 C 
HETATM   20  C11 UNL     1      51.615  48.063  64.036  1.00  0.00     0.001 C 
HETATM   21  C12 UNL     1      50.632  47.103  63.413  1.00  0.00     0.006 C 
HETATM   22  C13 UNL     1      51.091  46.567  62.097  1.00  0.00     0.004 C 
HETATM   23  C14 UNL     1      51.109  47.620  61.011  1.00  0.00     0.012 C 
ENDBRANCH  15  17
ENDBRANCH  11  15
ENDBRANCH  10  11
ENDBRANCH   9  10
ENDBRANCH   3   9
BRANCH   1  24
HETATM   24  C5  UNL     1      48.940  43.186  62.399  1.00  0.00     0.160 C 
BRANCH  24  25
HETATM   25  C4  UNL     1      47.681  43.990  62.267  1.00  0.00    -0.038 A 
HETATM   26  C3  UNL     1      47.595  45.221  62.869  1.00  0.00     0.048 A 
HETATM   27  C2  UNL     1      46.434  45.931  62.732  1.00  0.00     0.102 A 
HETATM   28  C17 UNL     1      45.321  45.464  62.003  1.00  0.00     0.103 A 
HETATM   29  C16 UNL     1      45.471  44.230  61.428  1.00  0.00     0.040 A 
HETATM   30  C15 UNL     1      46.631  43.471  61.541  1.00  0.00     0.012 A 
BRANCH  27  31
HETATM   31  O1  UNL     1      46.334  47.160  63.326  1.00  0.00    -0.353 OA
HETATM   32  C1  UNL     1      47.169  47.636  64.345  1.00  0.00     0.210 C 
ENDBRANCH  27  31
BRANCH  28  33
HETATM   33  O4  UNL     1      44.193  46.257  61.923  1.00  0.00    -0.333 OA
BRANCH  33  34
HETATM   34  C18 UNL     1      43.066  45.909  61.199  1.00  0.00     0.225 C 
HETATM   35  C19 UNL     1      41.922  45.439  62.099  1.00  0.00     0.052 C 
BRANCH  34  36
HETATM   36  C20 UNL     1      42.564  47.120  60.439  1.00  0.00     0.203 C 
HETATM   37  O5  UNL     1      43.271  48.155  60.349  1.00  0.00    -0.646 OA
HETATM   38  O6  UNL     1      41.314  47.042  59.856  1.00  0.00    -0.646 OA
ENDBRANCH  34  36
ENDBRANCH  33  34
ENDBRANCH  28  33
ENDBRANCH  24  25
ENDBRANCH   1  24
TORSDOF 13
ENDMDL
MODEL 3
REMARK VINA RESULT: -5.797240063      3.922      6.706
REMARK  13 active torsions:
REMARK  status: ('A' for Active; 'I' for Inactive)
REMARK    1  A    between atoms: O1_2  and  C2_3 
REMARK    2  A    between atoms: C4_5  and  C5_6 
REMARK    3  A    between atoms: C5_6  and  N1_7 
REMARK    4  A    between atoms: C6_9  and  N2_10 
REMARK    5  A    between atoms: C6_9  and  S1_15 
REMARK    6  A    between atoms: N2_10  and  N3_12 
REMARK    7  A    between atoms: S1_15  and  S2_16 
REMARK    8  A    between atoms: S2_16  and  C7_17 
REMARK    9  A    between atoms: C7_17  and  N5_21 
REMARK   10  A    between atoms: N5_21  and  C8_23 
REMARK   11  A    between atoms: C17_32  and  O4_33 
REMARK   12  A    between atoms: O4_33  and  C18_34 
REMARK   13  A    between atoms: C18_34  and  C20_36 
ROOT
HETATM    1  N1  UNL     1      51.095  40.402  62.756  1.00  0.00    -0.365 N 
ATOM      2  H1  UNL     1      51.272  39.937  63.647  1.00  0.00     0.162 HD
HETATM    3  C6  UNL     1      49.893  40.703  62.527  1.00  0.00     0.171 C 
ENDROOT
BRANCH   3   4
HETATM    4  N2  UNL     1      48.946  40.339  63.568  1.00  0.00    -0.219 N 
ATOM      5  H2  UNL     1      49.192  40.500  64.545  1.00  0.00     0.195 HD
BRANCH   4   6
HETATM    6  N3  UNL     1      47.708  39.776  63.260  1.00  0.00    -0.037 N 
HETATM    7  O2  UNL     1      46.644  40.354  63.559  1.00  0.00    -0.516 OA
HETATM    8  O3  UNL     1      47.689  38.562  62.614  1.00  0.00    -0.516 OA
ENDBRANCH   4   6
ENDBRANCH   3   4
BRANCH   3   9
HETATM    9  S1  UNL     1      49.215  41.496  61.105  1.00  0.00    -0.012 SA
BRANCH   9  10
HETATM   10  S2  UNL     1      49.176  43.592  61.195  1.00  0.00    -0.014 SA
BRANCH  10  11
HETATM   11  C7  UNL     1      48.390  44.151  62.693  1.00  0.00     0.145 C 
HETATM   12  N4  UNL     1      47.452  43.429  63.191  1.00  0.00    -0.379 N 
ATOM     13  H42 UNL     1      47.205  42.569  62.702  1.00  0.00     0.158 HD
ATOM     14  H41 UNL     1      47.003  43.749  64.049  1.00  0.00     0.158 HD
BRANCH  11  15
HETATM   15  N5  UNL     1      48.733  45.342  63.370  1.00  0.00    -0.365 N 
ATOM     16  H5  UNL     1      49.572  45.393  63.948  1.00  0.00     0.162 HD
BRANCH  15  17
HETATM   17  C8  UNL     1      47.862  46.488  63.222  1.00  0.00     0.087 C 
HETATM   18  C9  UNL     1      47.936  46.972  61.814  1.00  0.00     0.025 C 
HETATM   19  C10 UNL     1      49.223  47.658  61.504  1.00  0.00     0.002 C 
HETATM   20  C11 UNL     1      49.690  48.640  62.528  1.00  0.00     0.001 C 
HETATM   21  C12 UNL     1      49.523  48.145  63.944  1.00  0.00     0.006 C 
HETATM   22  C13 UNL     1      48.172  47.566  64.207  1.00  0.00     0.004 C 
HETATM   23  C14 UNL     1      47.077  48.610  64.193  1.00  0.00     0.012 C 
ENDBRANCH  15  17
ENDBRANCH  11  15
ENDBRANCH  10  11
ENDBRANCH   9  10
ENDBRANCH   3   9
BRANCH   1  24
HETATM   24  C5  UNL     1      52.238  40.623  61.939  1.00  0.00     0.160 C 
BRANCH  24  25
HETATM   25  C4  UNL     1      52.711  42.038  62.090  1.00  0.00    -0.038 A 
HETATM   26  C3  UNL     1      53.052  42.511  63.334  1.00  0.00     0.048 A 
HETATM   27  C2  UNL     1      53.480  43.805  63.441  1.00  0.00     0.102 A 
HETATM   28  C17 UNL     1      53.589  44.680  62.341  1.00  0.00     0.103 A 
HETATM   29  C16 UNL     1      53.233  44.147  61.130  1.00  0.00     0.040 A 
HETATM   30  C15 UNL     1      52.792  42.838  60.971  1.00  0.00     0.012 A 
BRANCH  27  31
HETATM   31  O1  UNL     1      53.824  44.289  64.674  1.00  0.00    -0.353 OA
HETATM   32  C1  UNL     1      55.055  44.083  65.310  1.00  0.00     0.210 C 
ENDBRANCH  27  31
BRANCH  28  33
HETATM   33  O4  UNL     1      54.032  45.970  62.553  1.00  0.00    -0.333 OA
BRANCH  33  34
HETATM   34  C18 UNL     1      53.183  47.052  62.706  1.00  0.00     0.225 C 
HETATM   35  C19 UNL     1      53.522  47.884  63.944  1.00  0.00     0.052 C 
BRANCH  34  36
HETATM   36  C20 UNL     1      53.317  47.969  61.506  1.00  0.00     0.203 C 
HETATM   37  O5  UNL     1      52.631  47.770  60.472  1.00  0.00    -0.646 OA
HETATM   38  O6  UNL     1      54.211  49.019  61.594  1.00  0.00    -0.646 OA
ENDBRANCH  34  36
ENDBRANCH  33  34
ENDBRANCH  28  33
ENDBRANCH  24  25
ENDBRANCH   1  24
TORSDOF 13
ENDMDL
MODEL 4
REMARK VINA RESULT: -5.758206342     13.753     15.709
REMARK  13 active torsions:
REMARK  status: ('A' for Active; 'I' for Inactive)
REMARK    1  A    between atoms: O1_2  and  C2_3 
REMARK    2  A    between atoms: C4_5  and  C5_6 
REMARK    3  A    between atoms: C5_6  and  N1_7 
REMARK    4  A    between atoms: C6_9  and  N2_10 
REMARK    5  A    between atoms: C6_9  and  S1_15 
REMARK    6  A    between atoms: N2_10  and  N3_12 
REMARK    7  A    between atoms: S1_15  and  S2_16 
REMARK    8  A    between atoms: S2_16  and  C7_17 
REMARK    9  A    between atoms: C7_17  and  N5_21 
REMARK   10  A    between atoms: N5_21  and  C8_23 
REMARK   11  A    between atoms: C17_32  and  O4_33 
REMARK   12  A    between atoms: O4_33  and  C18_34 
REMARK   13  A    between atoms: C18_34  and  C20_36 
ROOT
HETATM    1  N1  UNL     1      46.066  41.259  76.470  1.00  0.00    -0.365 N 
ATOM      2  H1  UNL     1      46.223  40.856  75.546  1.00  0.00     0.162 HD
HETATM    3  C6  UNL     1      46.299  40.495  77.445  1.00  0.00     0.171 C 
ENDROOT
BRANCH   3   4
HETATM    4  N2  UNL     1      46.756  39.159  77.101  1.00  0.00    -0.219 N 
ATOM      5  H2  UNL     1      47.584  38.780  77.561  1.00  0.00     0.195 HD
BRANCH   4   6
HETATM    6  N3  UNL     1      46.086  38.383  76.155  1.00  0.00    -0.037 N 
HETATM    7  O2  UNL     1      46.711  37.639  75.373  1.00  0.00    -0.516 OA
HETATM    8  O3  UNL     1      44.714  38.459  76.106  1.00  0.00    -0.516 OA
ENDBRANCH   4   6
ENDBRANCH   3   4
BRANCH   3   9
HETATM    9  S1  UNL     1      46.133  40.837  79.167  1.00  0.00    -0.012 SA
BRANCH   9  10
HETATM   10  S2  UNL     1      47.441  42.300  79.910  1.00  0.00    -0.014 SA
BRANCH  10  11
HETATM   11  C7  UNL     1      48.743  42.642  78.743  1.00  0.00     0.145 C 
HETATM   12  N4  UNL     1      49.679  41.773  78.607  1.00  0.00    -0.379 N 
ATOM     13  H42 UNL     1      49.629  40.929  79.177  1.00  0.00     0.158 HD
ATOM     14  H41 UNL     1      50.424  41.969  77.939  1.00  0.00     0.158 HD
BRANCH  11  15
HETATM   15  N5  UNL     1      48.812  43.812  77.954  1.00  0.00    -0.365 N 
ATOM     16  H5  UNL     1      49.015  43.760  76.956  1.00  0.00     0.162 HD
BRANCH  15  17
HETATM   17  C8  UNL     1      48.587  45.086  78.600  1.00  0.00     0.087 C 
HETATM   18  C9  UNL     1      48.160  46.080  77.575  1.00  0.00     0.025 C 
HETATM   19  C10 UNL     1      49.274  46.505  76.680  1.00  0.00     0.002 C 
HETATM   20  C11 UNL     1      50.561  46.828  77.366  1.00  0.00     0.001 C 
HETATM   21  C12 UNL     1      50.917  45.844  78.453  1.00  0.00     0.006 C 
HETATM   22  C13 UNL     1      49.778  45.548  79.373  1.00  0.00     0.004 C 
HETATM   23  C14 UNL     1      49.407  46.730  80.241  1.00  0.00     0.012 C 
ENDBRANCH  15  17
ENDBRANCH  11  15
ENDBRANCH  10  11
ENDBRANCH   9  10
ENDBRANCH   3   9
BRANCH   1  24
HETATM   24  C5  UNL     1      45.612  42.607  76.486  1.00  0.00     0.160 C 
BRANCH  24  25
HETATM   25  C4  UNL     1      46.289  43.389  75.401  1.00  0.00    -0.038 A 
HETATM   26  C3  UNL     1      45.940  44.700  75.189  1.00  0.00     0.048 A 
HETATM   27  C2  UNL     1      46.575  45.388  74.192  1.00  0.00     0.102 A 
HETATM   28  C17 UNL     1      47.570  44.820  73.371  1.00  0.00     0.103 A 
HETATM   29  C16 UNL     1      47.872  43.510  73.634  1.00  0.00     0.040 A 
HETATM   30  C15 UNL     1      47.253  42.770  74.635  1.00  0.00     0.012 A 
BRANCH  27  31
HETATM   31  O1  UNL     1      46.238  46.695  73.971  1.00  0.00    -0.353 OA
HETATM   32  C1  UNL     1      46.330  47.726  74.914  1.00  0.00     0.210 C 
ENDBRANCH  27  31
BRANCH  28  33
HETATM   33  O4  UNL     1      48.153  45.599  72.390  1.00  0.00    -0.333 OA
BRANCH  33  34
HETATM   34  C18 UNL     1      49.504  45.894  72.354  1.00  0.00     0.225 C 
HETATM   35  C19 UNL     1      50.056  45.907  70.927  1.00  0.00     0.052 C 
BRANCH  34  36
HETATM   36  C20 UNL     1      49.732  47.278  72.929  1.00  0.00     0.203 C 
HETATM   37  O5  UNL     1      48.908  48.202  72.714  1.00  0.00    -0.646 OA
HETATM   38  O6  UNL     1      50.868  47.480  73.690  1.00  0.00    -0.646 OA
ENDBRANCH  34  36
ENDBRANCH  33  34
ENDBRANCH  28  33
ENDBRANCH  24  25
ENDBRANCH   1  24
TORSDOF 13
ENDMDL
MODEL 5
REMARK VINA RESULT: -5.732589040     11.983     14.228
REMARK  13 active torsions:
REMARK  status: ('A' for Active; 'I' for Inactive)
REMARK    1  A    between atoms: O1_2  and  C2_3 
REMARK    2  A    between atoms: C4_5  and  C5_6 
REMARK    3  A    between atoms: C5_6  and  N1_7 
REMARK    4  A    between atoms: C6_9  and  N2_10 
REMARK    5  A    between atoms: C6_9  and  S1_15 
REMARK    6  A    between atoms: N2_10  and  N3_12 
REMARK    7  A    between atoms: S1_15  and  S2_16 
REMARK    8  A    between atoms: S2_16  and  C7_17 
REMARK    9  A    between atoms: C7_17  and  N5_21 
REMARK   10  A    between atoms: N5_21  and  C8_23 
REMARK   11  A    between atoms: C17_32  and  O4_33 
REMARK   12  A    between atoms: O4_33  and  C18_34 
REMARK   13  A    between atoms: C18_34  and  C20_36 
ROOT
HETATM    1  N1  UNL     1      47.752  45.035  72.738  1.00  0.00    -0.365 N 
ATOM      2  H1  UNL     1      47.572  45.981  72.402  1.00  0.00     0.162 HD
HETATM    3  C6  UNL     1      47.074  44.672  73.736  1.00  0.00     0.171 C 
ENDROOT
BRANCH   3   4
HETATM    4  N2  UNL     1      46.140  45.659  74.254  1.00  0.00    -0.219 N 
ATOM      5  H2  UNL     1      45.153  45.418  74.335  1.00  0.00     0.195 HD
BRANCH   4   6
HETATM    6  N3  UNL     1      46.567  46.929  74.641  1.00  0.00    -0.037 N 
HETATM    7  O2  UNL     1      47.267  47.632  73.885  1.00  0.00    -0.516 OA
HETATM    8  O3  UNL     1      46.195  47.390  75.882  1.00  0.00    -0.516 OA
ENDBRANCH   4   6
ENDBRANCH   3   4
BRANCH   3   9
HETATM    9  S1  UNL     1      47.121  43.129  74.589  1.00  0.00    -0.012 SA
BRANCH   9  10
HETATM   10  S2  UNL     1      47.990  43.198  76.497  1.00  0.00    -0.014 SA
BRANCH  10  11
HETATM   11  C7  UNL     1      47.742  44.792  77.253  1.00  0.00     0.145 C 
HETATM   12  N4  UNL     1      46.629  45.011  77.854  1.00  0.00    -0.379 N 
ATOM     13  H42 UNL     1      45.941  44.258  77.869  1.00  0.00     0.158 HD
ATOM     14  H41 UNL     1      46.488  45.924  78.287  1.00  0.00     0.158 HD
BRANCH  11  15
HETATM   15  N5  UNL     1      48.695  45.835  77.233  1.00  0.00    -0.365 N 
ATOM     16  H5  UNL     1      48.432  46.790  77.474  1.00  0.00     0.162 HD
BRANCH  15  17
HETATM   17  C8  UNL     1      50.055  45.510  76.861  1.00  0.00     0.087 C 
HETATM   18  C9  UNL     1      50.979  46.018  77.915  1.00  0.00     0.025 C 
HETATM   19  C10 UNL     1      51.116  47.502  77.900  1.00  0.00     0.002 C 
HETATM   20  C11 UNL     1      51.310  48.115  76.551  1.00  0.00     0.001 C 
HETATM   21  C12 UNL     1      50.414  47.517  75.494  1.00  0.00     0.006 C 
HETATM   22  C13 UNL     1      50.410  46.024  75.505  1.00  0.00     0.004 C 
HETATM   23  C14 UNL     1      51.728  45.433  75.055  1.00  0.00     0.012 C 
ENDBRANCH  15  17
ENDBRANCH  11  15
ENDBRANCH  10  11
ENDBRANCH   9  10
ENDBRANCH   3   9
BRANCH   1  24
HETATM   24  C5  UNL     1      48.735  44.301  72.018  1.00  0.00     0.160 C 
BRANCH  24  25
HETATM   25  C4  UNL     1      49.950  45.151  71.799  1.00  0.00    -0.038 A 
HETATM   26  C3  UNL     1      51.154  44.554  71.512  1.00  0.00     0.048 A 
HETATM   27  C2  UNL     1      52.246  45.355  71.317  1.00  0.00     0.102 A 
HETATM   28  C17 UNL     1      52.199  46.762  71.396  1.00  0.00     0.103 A 
HETATM   29  C16 UNL     1      50.970  47.294  71.685  1.00  0.00     0.040 A 
HETATM   30  C15 UNL     1      49.833  46.521  71.892  1.00  0.00     0.012 A 
BRANCH  27  31
HETATM   31  O1  UNL     1      53.451  44.774  71.031  1.00  0.00    -0.353 OA
HETATM   32  C1  UNL     1      54.240  44.057  71.939  1.00  0.00     0.210 C 
ENDBRANCH  27  31
BRANCH  28  33
HETATM   33  O4  UNL     1      53.357  47.483  71.183  1.00  0.00    -0.333 OA
BRANCH  33  34
HETATM   34  C18 UNL     1      53.734  48.567  71.956  1.00  0.00     0.225 C 
HETATM   35  C19 UNL     1      54.152  48.154  73.368  1.00  0.00     0.052 C 
BRANCH  34  36
HETATM   36  C20 UNL     1      54.931  49.245  71.320  1.00  0.00     0.203 C 
HETATM   37  O5  UNL     1      55.611  48.651  70.446  1.00  0.00    -0.646 OA
HETATM   38  O6  UNL     1      55.242  50.526  71.736  1.00  0.00    -0.646 OA
ENDBRANCH  34  36
ENDBRANCH  33  34
ENDBRANCH  28  33
ENDBRANCH  24  25
ENDBRANCH   1  24
TORSDOF 13
ENDMDL
