MODEL 1
REMARK VINA RESULT: -7.486048081      0.000      0.000
REMARK  7 active torsions:
REMARK  status: ('A' for Active; 'I' for Inactive)
REMARK    1  A    between atoms: C6_7  and  C7_8 
REMARK    2  A    between atoms: C7_8  and  O1_9 
REMARK    3  A    between atoms: C7_8  and  C8_11 
REMARK    4  A    between atoms: C9_14  and  C10_15 
REMARK    5  A    between atoms: C10_15  and  C11_17 
REMARK    6  A    between atoms: C13_19  and  N1_20 
REMARK    7  A    between atoms: C16_25  and  O5_26 
ROOT
HETATM    1  C1  UNL     1      48.843  46.269  32.199  1.00  0.00     0.010 C 
HETATM    2  C2  UNL     1      48.824  47.673  31.597  1.00  0.00    -0.014 C 
HETATM    3  C3  UNL     1      50.027  47.789  30.718  1.00  0.00     0.009 C 
HETATM    4  C4  UNL     1      50.913  48.938  30.982  1.00  0.00     0.047 C 
HETATM    5  C5  UNL     1      50.061  50.141  31.334  1.00  0.00    -0.010 A 
HETATM    6  S1  UNL     1      50.061  51.792  30.902  1.00  0.00    -0.095 SA
HETATM    7  C6  UNL     1      48.721  52.327  31.848  1.00  0.00     0.032 A 
HETATM    8  C9  UNL     1      48.313  51.183  32.473  1.00  0.00     0.038 A 
HETATM    9  C17 UNL     1      49.012  50.063  32.199  1.00  0.00    -0.029 A 
HETATM   10  C18 UNL     1      48.806  48.656  32.728  1.00  0.00     0.045 C 
ENDROOT
BRANCH   8  11
HETATM   11  C10 UNL     1      47.192  51.203  33.452  1.00  0.00     0.196 C 
HETATM   12  O2  UNL     1      46.045  51.090  32.901  1.00  0.00    -0.286 OA
BRANCH  11  13
HETATM   13  C11 UNL     1      47.310  51.341  34.865  1.00  0.00     0.050 A 
HETATM   14  C12 UNL     1      47.916  50.403  35.709  1.00  0.00     0.054 A 
HETATM   15  C13 UNL     1      48.007  50.500  37.061  1.00  0.00     0.104 A 
HETATM   16  C14 UNL     1      47.461  51.617  37.668  1.00  0.00     0.039 A 
HETATM   17  C15 UNL     1      46.854  52.577  36.909  1.00  0.00     0.040 A 
HETATM   18  C16 UNL     1      46.769  52.452  35.520  1.00  0.00     0.080 A 
BRANCH  15  19
HETATM   19  N1  UNL     1      48.600  49.525  37.893  1.00  0.00    -0.116 N 
HETATM   20  O3  UNL     1      48.406  48.327  37.672  1.00  0.00    -0.532 OA
HETATM   21  O4  UNL     1      49.385  49.894  38.951  1.00  0.00    -0.532 OA
ENDBRANCH  15  19
BRANCH  18  22
HETATM   22  O5  UNL     1      46.147  53.450  34.879  1.00  0.00    -0.360 OA
ATOM     23  H5  UNL     1      46.440  54.354  34.913  1.00  0.00     0.217 HD
ENDBRANCH  18  22
ENDBRANCH  11  13
ENDBRANCH   8  11
BRANCH   7  24
HETATM   24  C7  UNL     1      48.264  53.733  31.881  1.00  0.00     0.223 C 
BRANCH  24  25
HETATM   25  O1  UNL     1      48.190  54.312  33.120  1.00  0.00    -0.385 OA
ATOM     26  H1  UNL     1      47.424  54.851  33.283  1.00  0.00     0.210 HD
ENDBRANCH  24  25
BRANCH  24  27
HETATM   27  C8  UNL     1      46.899  53.788  31.182  1.00  0.00     0.386 C 
HETATM   28  F1  UNL     1      46.667  55.043  30.675  1.00  0.00    -0.211 F 
HETATM   29  F2  UNL     1      46.860  52.879  30.169  1.00  0.00    -0.211 F 
ENDBRANCH  24  27
ENDBRANCH   7  24
TORSDOF 7
ENDMDL
MODEL 2
REMARK VINA RESULT: -7.447782853      1.894      2.456
REMARK  7 active torsions:
REMARK  status: ('A' for Active; 'I' for Inactive)
REMARK    1  A    between atoms: C6_7  and  C7_8 
REMARK    2  A    between atoms: C7_8  and  O1_9 
REMARK    3  A    between atoms: C7_8  and  C8_11 
REMARK    4  A    between atoms: C9_14  and  C10_15 
REMARK    5  A    between atoms: C10_15  and  C11_17 
REMARK    6  A    between atoms: C13_19  and  N1_20 
REMARK    7  A    between atoms: C16_25  and  O5_26 
ROOT
HETATM    1  C1  UNL     1      52.252  48.850  32.923  1.00  0.00     0.010 C 
HETATM    2  C2  UNL     1      50.767  48.977  32.589  1.00  0.00    -0.014 C 
HETATM    3  C3  UNL     1      50.541  48.231  31.313  1.00  0.00     0.009 C 
HETATM    4  C4  UNL     1      49.881  48.985  30.231  1.00  0.00     0.047 C 
HETATM    5  C5  UNL     1      48.816  49.877  30.836  1.00  0.00    -0.010 A 
HETATM    6  S1  UNL     1      47.201  50.269  30.446  1.00  0.00    -0.095 SA
HETATM    7  C6  UNL     1      46.869  51.383  31.722  1.00  0.00     0.032 A 
HETATM    8  C9  UNL     1      48.044  51.406  32.419  1.00  0.00     0.038 A 
HETATM    9  C17 UNL     1      49.039  50.625  31.953  1.00  0.00    -0.029 A 
HETATM   10  C18 UNL     1      50.441  50.436  32.500  1.00  0.00     0.045 C 
ENDROOT
BRANCH   8  11
HETATM   11  C10 UNL     1      48.218  52.302  33.595  1.00  0.00     0.196 C 
HETATM   12  O2  UNL     1      48.736  53.430  33.291  1.00  0.00    -0.286 OA
BRANCH  11  13
HETATM   13  C11 UNL     1      47.876  51.998  34.944  1.00  0.00     0.050 A 
HETATM   14  C12 UNL     1      48.454  50.972  35.701  1.00  0.00     0.054 A 
HETATM   15  C13 UNL     1      48.117  50.645  36.975  1.00  0.00     0.104 A 
HETATM   16  C14 UNL     1      47.121  51.382  37.591  1.00  0.00     0.039 A 
HETATM   17  C15 UNL     1      46.510  52.401  36.915  1.00  0.00     0.040 A 
HETATM   18  C16 UNL     1      46.872  52.715  35.603  1.00  0.00     0.080 A 
BRANCH  15  19
HETATM   19  N1  UNL     1      48.697  49.586  37.707  1.00  0.00    -0.116 N 
HETATM   20  O3  UNL     1      49.503  49.830  38.609  1.00  0.00    -0.532 OA
HETATM   21  O4  UNL     1      48.381  48.285  37.423  1.00  0.00    -0.532 OA
ENDBRANCH  15  19
BRANCH  18  22
HETATM   22  O5  UNL     1      46.203  53.729  35.038  1.00  0.00    -0.360 OA
ATOM     23  H5  UNL     1      45.802  54.430  35.537  1.00  0.00     0.217 HD
ENDBRANCH  18  22
ENDBRANCH  11  13
ENDBRANCH   8  11
BRANCH   7  24
HETATM   24  C7  UNL     1      45.574  52.080  31.871  1.00  0.00     0.223 C 
BRANCH  24  25
HETATM   25  O1  UNL     1      45.628  53.344  32.396  1.00  0.00    -0.385 OA
ATOM     26  H1  UNL     1      44.870  53.894  32.237  1.00  0.00     0.210 HD
ENDBRANCH  24  25
BRANCH  24  27
HETATM   27  C8  UNL     1      44.666  51.184  32.725  1.00  0.00     0.386 C 
HETATM   28  F1  UNL     1      45.414  50.433  33.598  1.00  0.00    -0.211 F 
HETATM   29  F2  UNL     1      43.789  51.951  33.429  1.00  0.00    -0.211 F 
ENDBRANCH  24  27
ENDBRANCH   7  24
TORSDOF 7
ENDMDL
MODEL 3
REMARK VINA RESULT: -7.272684498      1.177      1.287
REMARK  7 active torsions:
REMARK  status: ('A' for Active; 'I' for Inactive)
REMARK    1  A    between atoms: C6_7  and  C7_8 
REMARK    2  A    between atoms: C7_8  and  O1_9 
REMARK    3  A    between atoms: C7_8  and  C8_11 
REMARK    4  A    between atoms: C9_14  and  C10_15 
REMARK    5  A    between atoms: C10_15  and  C11_17 
REMARK    6  A    between atoms: C13_19  and  N1_20 
REMARK    7  A    between atoms: C16_25  and  O5_26 
ROOT
HETATM    1  C1  UNL     1      48.923  46.354  32.342  1.00  0.00     0.010 C 
HETATM    2  C2  UNL     1      48.476  47.623  31.617  1.00  0.00    -0.014 C 
HETATM    3  C3  UNL     1      49.417  47.827  30.473  1.00  0.00     0.009 C 
HETATM    4  C4  UNL     1      50.068  49.148  30.400  1.00  0.00     0.047 C 
HETATM    5  C5  UNL     1      49.069  50.210  30.814  1.00  0.00    -0.010 A 
HETATM    6  S1  UNL     1      48.622  51.747  30.222  1.00  0.00    -0.095 SA
HETATM    7  C6  UNL     1      47.425  52.159  31.395  1.00  0.00     0.032 A 
HETATM    8  C9  UNL     1      47.413  51.066  32.215  1.00  0.00     0.038 A 
HETATM    9  C17 UNL     1      48.265  50.068  31.904  1.00  0.00    -0.029 A 
HETATM   10  C18 UNL     1      48.482  48.744  32.611  1.00  0.00     0.045 C 
ENDROOT
BRANCH   8  11
HETATM   11  C10 UNL     1      46.542  51.025  33.421  1.00  0.00     0.196 C 
HETATM   12  O2  UNL     1      45.325  50.749  33.150  1.00  0.00    -0.286 OA
BRANCH  11  13
HETATM   13  C11 UNL     1      46.952  51.265  34.765  1.00  0.00     0.050 A 
HETATM   14  C12 UNL     1      47.597  50.328  35.581  1.00  0.00     0.054 A 
HETATM   15  C13 UNL     1      47.964  50.527  36.873  1.00  0.00     0.104 A 
HETATM   16  C14 UNL     1      47.686  51.757  37.444  1.00  0.00     0.039 A 
HETATM   17  C15 UNL     1      47.059  52.723  36.708  1.00  0.00     0.040 A 
HETATM   18  C16 UNL     1      46.688  52.493  35.381  1.00  0.00     0.080 A 
BRANCH  15  19
HETATM   19  N1  UNL     1      48.588  49.554  37.685  1.00  0.00    -0.116 N 
HETATM   20  O3  UNL     1      48.355  48.357  37.501  1.00  0.00    -0.532 OA
HETATM   21  O4  UNL     1      49.448  49.925  38.683  1.00  0.00    -0.532 OA
ENDBRANCH  15  19
BRANCH  18  22
HETATM   22  O5  UNL     1      46.075  53.509  34.759  1.00  0.00    -0.360 OA
ATOM     23  H5  UNL     1      45.131  53.583  34.689  1.00  0.00     0.217 HD
ENDBRANCH  18  22
ENDBRANCH  11  13
ENDBRANCH   8  11
BRANCH   7  24
HETATM   24  C7  UNL     1      46.692  53.443  31.386  1.00  0.00     0.223 C 
BRANCH  24  25
HETATM   25  O1  UNL     1      46.129  53.806  30.191  1.00  0.00    -0.385 OA
ATOM     26  H1  UNL     1      45.201  53.629  30.097  1.00  0.00     0.210 HD
ENDBRANCH  24  25
BRANCH  24  27
HETATM   27  C8  UNL     1      47.662  54.529  31.872  1.00  0.00     0.386 C 
HETATM   28  F1  UNL     1      48.481  54.037  32.858  1.00  0.00    -0.211 F 
HETATM   29  F2  UNL     1      48.424  54.967  30.833  1.00  0.00    -0.211 F 
ENDBRANCH  24  27
ENDBRANCH   7  24
TORSDOF 7
ENDMDL
MODEL 4
REMARK VINA RESULT: -7.243774481      1.975      2.493
REMARK  7 active torsions:
REMARK  status: ('A' for Active; 'I' for Inactive)
REMARK    1  A    between atoms: C6_7  and  C7_8 
REMARK    2  A    between atoms: C7_8  and  O1_9 
REMARK    3  A    between atoms: C7_8  and  C8_11 
REMARK    4  A    between atoms: C9_14  and  C10_15 
REMARK    5  A    between atoms: C10_15  and  C11_17 
REMARK    6  A    between atoms: C13_19  and  N1_20 
REMARK    7  A    between atoms: C16_25  and  O5_26 
ROOT
HETATM    1  C1  UNL     1      47.699  46.180  35.590  1.00  0.00     0.010 C 
HETATM    2  C2  UNL     1      47.339  47.259  34.571  1.00  0.00    -0.014 C 
HETATM    3  C3  UNL     1      47.866  46.805  33.249  1.00  0.00     0.009 C 
HETATM    4  C4  UNL     1      48.739  47.757  32.538  1.00  0.00     0.047 C 
HETATM    5  C5  UNL     1      48.204  49.160  32.748  1.00  0.00    -0.010 A 
HETATM    6  S1  UNL     1      47.950  50.520  31.748  1.00  0.00    -0.095 SA
HETATM    7  C6  UNL     1      47.338  51.621  32.927  1.00  0.00     0.032 A 
HETATM    8  C9  UNL     1      47.350  50.878  34.073  1.00  0.00     0.038 A 
HETATM    9  C17 UNL     1      47.798  49.611  33.967  1.00  0.00    -0.029 A 
HETATM   10  C18 UNL     1      47.930  48.551  35.045  1.00  0.00     0.045 C 
ENDROOT
BRANCH   8  11
HETATM   11  C10 UNL     1      46.944  51.474  35.376  1.00  0.00     0.196 C 
HETATM   12  O2  UNL     1      45.714  51.815  35.408  1.00  0.00    -0.286 OA
BRANCH  11  13
HETATM   13  C11 UNL     1      47.787  51.681  36.506  1.00  0.00     0.050 A 
HETATM   14  C12 UNL     1      47.737  50.927  37.685  1.00  0.00     0.054 A 
HETATM   15  C13 UNL     1      48.507  51.132  38.785  1.00  0.00     0.104 A 
HETATM   16  C14 UNL     1      49.425  52.167  38.750  1.00  0.00     0.039 A 
HETATM   17  C15 UNL     1      49.532  52.945  37.632  1.00  0.00     0.040 A 
HETATM   18  C16 UNL     1      48.725  52.718  36.514  1.00  0.00     0.080 A 
BRANCH  15  19
HETATM   19  N1  UNL     1      48.418  50.374  39.974  1.00  0.00    -0.116 N 
HETATM   20  O3  UNL     1      47.326  49.939  40.346  1.00  0.00    -0.532 OA
HETATM   21  O4  UNL     1      49.533  50.122  40.726  1.00  0.00    -0.532 OA
ENDBRANCH  15  19
BRANCH  18  22
HETATM   22  O5  UNL     1      48.913  53.546  35.478  1.00  0.00    -0.360 OA
ATOM     23  H5  UNL     1      48.334  53.575  34.725  1.00  0.00     0.217 HD
ENDBRANCH  18  22
ENDBRANCH  11  13
ENDBRANCH   8  11
BRANCH   7  24
HETATM   24  C7  UNL     1      46.957  53.015  32.612  1.00  0.00     0.223 C 
BRANCH  24  25
HETATM   25  O1  UNL     1      46.880  53.873  33.677  1.00  0.00    -0.385 OA
ATOM     26  H1  UNL     1      46.441  53.538  34.450  1.00  0.00     0.210 HD
ENDBRANCH  24  25
BRANCH  24  27
HETATM   27  C8  UNL     1      45.616  52.966  31.867  1.00  0.00     0.386 C 
HETATM   28  F1  UNL     1      44.570  52.944  32.757  1.00  0.00    -0.211 F 
HETATM   29  F2  UNL     1      45.495  54.055  31.059  1.00  0.00    -0.211 F 
ENDBRANCH  24  27
ENDBRANCH   7  24
TORSDOF 7
ENDMDL
MODEL 5
REMARK VINA RESULT: -7.228016875      4.027      6.366
REMARK  7 active torsions:
REMARK  status: ('A' for Active; 'I' for Inactive)
REMARK    1  A    between atoms: C6_7  and  C7_8 
REMARK    2  A    between atoms: C7_8  and  O1_9 
REMARK    3  A    between atoms: C7_8  and  C8_11 
REMARK    4  A    between atoms: C9_14  and  C10_15 
REMARK    5  A    between atoms: C10_15  and  C11_17 
REMARK    6  A    between atoms: C13_19  and  N1_20 
REMARK    7  A    between atoms: C16_25  and  O5_26 
ROOT
HETATM    1  C1  UNL     1      45.819  50.582  29.074  1.00  0.00     0.010 C 
HETATM    2  C2  UNL     1      45.752  50.532  30.600  1.00  0.00    -0.014 C 
HETATM    3  C3  UNL     1      44.705  51.512  31.022  1.00  0.00     0.009 C 
HETATM    4  C4  UNL     1      45.124  52.518  32.016  1.00  0.00     0.047 C 
HETATM    5  C5  UNL     1      46.055  51.860  33.015  1.00  0.00    -0.010 A 
HETATM    6  S1  UNL     1      46.221  51.886  34.713  1.00  0.00    -0.095 SA
HETATM    7  C6  UNL     1      47.583  50.838  34.876  1.00  0.00     0.032 A 
HETATM    8  C9  UNL     1      47.860  50.497  33.582  1.00  0.00     0.038 A 
HETATM    9  C17 UNL     1      47.065  51.030  32.633  1.00  0.00    -0.029 A 
HETATM   10  C18 UNL     1      47.118  50.844  31.128  1.00  0.00     0.045 C 
ENDROOT
BRANCH   8  11
HETATM   11  C10 UNL     1      49.025  49.630  33.253  1.00  0.00     0.196 C 
HETATM   12  O2  UNL     1      50.145  50.159  33.565  1.00  0.00    -0.286 OA
BRANCH  11  13
HETATM   13  C11 UNL     1      48.971  48.342  32.645  1.00  0.00     0.050 A 
HETATM   14  C12 UNL     1      49.420  48.053  31.351  1.00  0.00     0.054 A 
HETATM   15  C13 UNL     1      49.346  46.841  30.743  1.00  0.00     0.104 A 
HETATM   16  C14 UNL     1      48.784  45.794  31.452  1.00  0.00     0.039 A 
HETATM   17  C15 UNL     1      48.324  46.000  32.722  1.00  0.00     0.040 A 
HETATM   18  C16 UNL     1      48.408  47.258  33.325  1.00  0.00     0.080 A 
BRANCH  15  19
HETATM   19  N1  UNL     1      49.781  46.582  29.424  1.00  0.00    -0.116 N 
HETATM   20  O3  UNL     1      50.749  47.192  28.964  1.00  0.00    -0.532 OA
HETATM   21  O4  UNL     1      49.134  45.663  28.644  1.00  0.00    -0.532 OA
ENDBRANCH  15  19
BRANCH  18  22
HETATM   22  O5  UNL     1      47.921  47.344  34.570  1.00  0.00    -0.360 OA
ATOM     23  H5  UNL     1      47.872  46.603  35.162  1.00  0.00     0.217 HD
ENDBRANCH  18  22
ENDBRANCH  11  13
ENDBRANCH   8  11
BRANCH   7  24
HETATM   24  C7  UNL     1      48.197  50.507  36.179  1.00  0.00     0.223 C 
BRANCH  24  25
HETATM   25  O1  UNL     1      48.041  49.215  36.606  1.00  0.00    -0.385 OA
ATOM     26  H1  UNL     1      47.174  48.980  36.915  1.00  0.00     0.210 HD
ENDBRANCH  24  25
BRANCH  24  27
HETATM   27  C8  UNL     1      47.630  51.486  37.216  1.00  0.00     0.386 C 
HETATM   28  F1  UNL     1      47.210  50.811  38.336  1.00  0.00    -0.211 F 
HETATM   29  F2  UNL     1      48.583  52.391  37.568  1.00  0.00    -0.211 F 
ENDBRANCH  24  27
ENDBRANCH   7  24
TORSDOF 7
ENDMDL
