MODEL 1
REMARK VINA RESULT: -5.513162609      0.000      0.000
REMARK  2 active torsions:
REMARK  status: ('A' for Active; 'I' for Inactive)
REMARK    1  A    between atoms: O1_1  and  C1_3 
REMARK    2  A    between atoms: N1_4  and  O2_5 
ROOT
HETATM    1  C1  UNL     1      13.232  16.276  17.034  1.00  0.00     0.226 C 
HETATM    2  N1  UNL     1      12.520  15.172  17.626  1.00  0.00    -0.170 NA
HETATM    3  C2  UNL     1      11.879  14.552  16.504  1.00  0.00     0.124 C 
HETATM    4  C3  UNL     1      11.558  15.667  15.511  1.00  0.00     0.030 C 
HETATM    5  C4  UNL     1      12.306  16.886  16.007  1.00  0.00     0.002 C 
HETATM    6  C5  UNL     1      13.092  17.554  14.880  1.00  0.00     0.013 C 
HETATM    7  C6  UNL     1      12.303  18.705  14.302  1.00  0.00     0.001 C 
HETATM    8  C7  UNL     1      12.251  19.836  15.316  1.00  0.00     0.000 C 
HETATM    9  C8  UNL     1      12.221  19.220  16.687  1.00  0.00     0.001 C 
HETATM   10  C9  UNL     1      11.398  17.932  16.586  1.00  0.00     0.013 C 
ENDROOT
BRANCH   1  11
HETATM   11  O1  UNL     1      14.305  15.714  16.309  1.00  0.00    -0.378 OA
ATOM     12  H1  UNL     1      14.918  16.422  16.146  1.00  0.00     0.211 HD
ENDBRANCH   1  11
BRANCH   2  13
HETATM   13  O2  UNL     1      11.687  15.529  18.611  1.00  0.00    -0.311 OA
ATOM     14  H2  UNL     1      12.029  15.366  19.483  1.00  0.00     0.237 HD
ENDBRANCH   2  13
TORSDOF 2
ENDMDL
MODEL 2
REMARK VINA RESULT: -5.426102249      2.104      3.987
REMARK  2 active torsions:
REMARK  status: ('A' for Active; 'I' for Inactive)
REMARK    1  A    between atoms: O1_1  and  C1_3 
REMARK    2  A    between atoms: N1_4  and  O2_5 
ROOT
HETATM    1  C1  UNL     1      12.150  17.089  16.911  1.00  0.00     0.226 C 
HETATM    2  N1  UNL     1      11.933  17.359  15.512  1.00  0.00    -0.170 NA
HETATM    3  C2  UNL     1      11.550  16.083  14.985  1.00  0.00     0.124 C 
HETATM    4  C3  UNL     1      12.294  15.030  15.802  1.00  0.00     0.030 C 
HETATM    5  C4  UNL     1      12.879  15.768  16.987  1.00  0.00     0.002 C 
HETATM    6  C5  UNL     1      12.579  15.044  18.298  1.00  0.00     0.013 C 
HETATM    7  C6  UNL     1      13.751  14.181  18.701  1.00  0.00     0.001 C 
HETATM    8  C7  UNL     1      14.905  15.073  19.131  1.00  0.00     0.000 C 
HETATM    9  C8  UNL     1      14.851  16.324  18.299  1.00  0.00     0.001 C 
HETATM   10  C9  UNL     1      14.371  15.917  16.902  1.00  0.00     0.013 C 
ENDROOT
BRANCH   1  11
HETATM   11  O1  UNL     1      10.876  16.866  17.475  1.00  0.00    -0.378 OA
ATOM     12  H1  UNL     1      10.348  17.624  17.254  1.00  0.00     0.211 HD
ENDBRANCH   1  11
BRANCH   2  13
HETATM   13  O2  UNL     1      12.981  17.920  14.898  1.00  0.00    -0.311 OA
ATOM     14  H2  UNL     1      13.079  18.849  15.073  1.00  0.00     0.237 HD
ENDBRANCH   2  13
TORSDOF 2
ENDMDL
MODEL 3
REMARK VINA RESULT: -5.408181558      1.392      2.453
REMARK  2 active torsions:
REMARK  status: ('A' for Active; 'I' for Inactive)
REMARK    1  A    between atoms: O1_1  and  C1_3 
REMARK    2  A    between atoms: N1_4  and  O2_5 
ROOT
HETATM    1  C1  UNL     1      11.194  16.530  16.227  1.00  0.00     0.226 C 
HETATM    2  N1  UNL     1      11.626  15.288  16.816  1.00  0.00    -0.170 NA
HETATM    3  C2  UNL     1      12.339  15.709  17.986  1.00  0.00     0.124 C 
HETATM    4  C3  UNL     1      12.982  17.052  17.648  1.00  0.00     0.030 C 
HETATM    5  C4  UNL     1      12.355  17.490  16.342  1.00  0.00     0.002 C 
HETATM    6  C5  UNL     1      11.873  18.938  16.413  1.00  0.00     0.013 C 
HETATM    7  C6  UNL     1      12.910  19.865  15.824  1.00  0.00     0.001 C 
HETATM    8  C7  UNL     1      12.965  19.662  14.319  1.00  0.00     0.000 C 
HETATM    9  C8  UNL     1      12.679  18.212  14.042  1.00  0.00     0.001 C 
HETATM   10  C9  UNL     1      13.304  17.402  15.181  1.00  0.00     0.013 C 
ENDROOT
BRANCH   1  11
HETATM   11  O1  UNL     1      10.181  17.039  17.068  1.00  0.00    -0.378 OA
ATOM     12  H1  UNL     1      10.620  17.400  17.829  1.00  0.00     0.211 HD
ENDBRANCH   1  11
BRANCH   2  13
HETATM   13  O2  UNL     1      12.331  14.510  15.987  1.00  0.00    -0.311 OA
ATOM     14  H2  UNL     1      11.808  13.862  15.529  1.00  0.00     0.237 HD
ENDBRANCH   2  13
TORSDOF 2
ENDMDL
MODEL 4
REMARK VINA RESULT: -5.359599579      1.983      3.711
REMARK  2 active torsions:
REMARK  status: ('A' for Active; 'I' for Inactive)
REMARK    1  A    between atoms: O1_1  and  C1_3 
REMARK    2  A    between atoms: N1_4  and  O2_5 
ROOT
HETATM    1  C1  UNL     1      12.678  15.542  15.735  1.00  0.00     0.226 C 
HETATM    2  N1  UNL     1      11.457  16.238  15.418  1.00  0.00    -0.170 NA
HETATM    3  C2  UNL     1      11.816  17.618  15.563  1.00  0.00     0.124 C 
HETATM    4  C3  UNL     1      12.868  17.683  16.669  1.00  0.00     0.030 C 
HETATM    5  C4  UNL     1      13.282  16.249  16.926  1.00  0.00     0.002 C 
HETATM    6  C5  UNL     1      14.802  16.104  16.945  1.00  0.00     0.013 C 
HETATM    7  C6  UNL     1      15.314  16.139  18.366  1.00  0.00     0.001 C 
HETATM    8  C7  UNL     1      14.901  14.862  19.079  1.00  0.00     0.000 C 
HETATM    9  C8  UNL     1      13.565  14.443  18.531  1.00  0.00     0.001 C 
HETATM   10  C9  UNL     1      12.775  15.723  18.238  1.00  0.00     0.013 C 
ENDROOT
BRANCH   1  11
HETATM   11  O1  UNL     1      13.559  15.771  14.656  1.00  0.00    -0.378 OA
ATOM     12  H1  UNL     1      14.222  16.371  14.974  1.00  0.00     0.211 HD
ENDBRANCH   1  11
BRANCH   2  13
HETATM   13  O2  UNL     1      10.407  15.858  16.156  1.00  0.00    -0.311 OA
ATOM     14  H2  UNL     1       9.875  16.579  16.469  1.00  0.00     0.237 HD
ENDBRANCH   2  13
TORSDOF 2
ENDMDL
MODEL 5
REMARK VINA RESULT: -5.340359195      1.471      2.204
REMARK  2 active torsions:
REMARK  status: ('A' for Active; 'I' for Inactive)
REMARK    1  A    between atoms: O1_1  and  C1_3 
REMARK    2  A    between atoms: N1_4  and  O2_5 
ROOT
HETATM    1  C1  UNL     1      12.161  16.344  17.507  1.00  0.00     0.226 C 
HETATM    2  N1  UNL     1      12.950  15.215  17.083  1.00  0.00    -0.170 NA
HETATM    3  C2  UNL     1      14.119  15.823  16.518  1.00  0.00     0.124 C 
HETATM    4  C3  UNL     1      13.672  17.148  15.906  1.00  0.00     0.030 C 
HETATM    5  C4  UNL     1      12.263  17.379  16.410  1.00  0.00     0.002 C 
HETATM    6  C5  UNL     1      12.093  18.792  16.964  1.00  0.00     0.013 C 
HETATM    7  C6  UNL     1      11.492  19.697  15.915  1.00  0.00     0.001 C 
HETATM    8  C7  UNL     1      10.040  19.308  15.690  1.00  0.00     0.000 C 
HETATM    9  C8  UNL     1       9.931  17.820  15.878  1.00  0.00     0.001 C 
HETATM   10  C9  UNL     1      11.224  17.201  15.340  1.00  0.00     0.013 C 
ENDROOT
BRANCH   1  11
HETATM   11  O1  UNL     1      12.823  16.894  18.626  1.00  0.00    -0.378 OA
ATOM     12  H1  UNL     1      13.652  17.230  18.308  1.00  0.00     0.211 HD
ENDBRANCH   1  11
BRANCH   2  13
HETATM   13  O2  UNL     1      12.306  14.381  16.258  1.00  0.00    -0.311 OA
ATOM     14  H2  UNL     1      12.537  13.468  16.375  1.00  0.00     0.237 HD
ENDBRANCH   2  13
TORSDOF 2
ENDMDL
