MODEL 1
REMARK VINA RESULT: -9.065098399      0.000      0.000
REMARK  8 active torsions:
REMARK  status: ('A' for Active; 'I' for Inactive)
REMARK    1  A    between atoms: C2_5  and  S1_6 
REMARK    2  A    between atoms: S1_6  and  N3_9 
REMARK    3  A    between atoms: C4_11  and  C5_12 
REMARK    4  A    between atoms: C5_12  and  S2_13 
REMARK    5  A    between atoms: S2_13  and  C6_14 
REMARK    6  A    between atoms: N5_17  and  N6_18 
REMARK    7  A    between atoms: C8_21  and  N7_22 
REMARK    8  A    between atoms: N8_25  and  N9_26 
ROOT
HETATM    1  N3  UNL     1       2.913 -19.229   4.320  1.00  0.00    -0.193 N 
HETATM    2  C3  UNL     1       1.673 -18.732   4.130  1.00  0.00     0.140 A 
HETATM    3  C4  UNL     1       0.926 -18.877   5.253  1.00  0.00     0.040 A 
HETATM    4  N10 UNL     1       1.769 -19.489   6.151  1.00  0.00    -0.309 N 
ATOM      5  H10 UNL     1       1.533 -19.750   7.108  1.00  0.00     0.170 HD
HETATM    6  C9  UNL     1       2.934 -19.682   5.564  1.00  0.00     0.340 A 
HETATM    7  O3  UNL     1       3.944 -20.219   6.094  1.00  0.00    -0.245 OA
ENDROOT
BRANCH   3   8
HETATM    8  C5  UNL     1      -0.481 -18.503   5.544  1.00  0.00     0.139 C 
BRANCH   8   9
HETATM    9  S2  UNL     1      -0.709 -18.068   7.213  1.00  0.00    -0.100 SA
BRANCH   9  10
HETATM   10  C6  UNL     1      -2.112 -17.222   7.750  1.00  0.00     0.154 A 
HETATM   11  C7  UNL     1      -2.594 -15.962   7.570  1.00  0.00     0.191 A 
HETATM   12  N4  UNL     1      -1.931 -14.912   6.899  1.00  0.00    -0.077 NA
HETATM   13  N5  UNL     1      -3.808 -15.791   8.166  1.00  0.00    -0.074 N 
HETATM   14  C8  UNL     1      -4.063 -16.987   8.725  1.00  0.00     0.720 A 
HETATM   15  N8  UNL     1      -3.090 -17.850   8.500  1.00  0.00    -0.081 N 
BRANCH  13  16
HETATM   16  N6  UNL     1      -4.578 -14.633   8.176  1.00  0.00    -0.323 N 
ATOM     17  H62 UNL     1      -4.328 -13.690   7.879  1.00  0.00     0.178 HD
ATOM     18  H61 UNL     1      -5.544 -14.542   8.490  1.00  0.00     0.178 HD
ENDBRANCH  13  16
BRANCH  14  19
HETATM   19  N7  UNL     1      -5.152 -17.202   9.390  1.00  0.00    -0.231 N 
ATOM     20  H72 UNL     1      -5.957 -17.750   9.086  1.00  0.00     0.174 HD
ATOM     21  H71 UNL     1      -5.290 -16.814  10.323  1.00  0.00     0.174 HD
ENDBRANCH  14  19
BRANCH  15  22
HETATM   22  N9  UNL     1      -3.085 -19.162   8.961  1.00  0.00    -0.323 N 
ATOM     23  H92 UNL     1      -3.925 -19.699   9.176  1.00  0.00     0.178 HD
ATOM     24  H91 UNL     1      -2.270 -19.749   9.144  1.00  0.00     0.178 HD
ENDBRANCH  15  22
ENDBRANCH   9  10
ENDBRANCH   8   9
ENDBRANCH   3   8
BRANCH   1  25
HETATM   25  S1  UNL     1       4.154 -19.229   3.150  1.00  0.00     0.307 S 
HETATM   26  O1  UNL     1       4.512 -17.825   2.751  1.00  0.00    -0.196 OA
HETATM   27  O2  UNL     1       5.381 -19.851   3.756  1.00  0.00    -0.196 OA
BRANCH  25  28
HETATM   28  C2  UNL     1       3.686 -20.098   1.701  1.00  0.00     0.256 A 
HETATM   29  N2  UNL     1       2.560 -20.707   1.281  1.00  0.00    -0.257 N 
HETATM   30  N1  UNL     1       3.102 -21.062   0.131  1.00  0.00    -0.234 N 
ATOM     31  H2  UNL     1       1.638 -20.842   1.695  1.00  0.00     0.191 HD
HETATM   32  C1  UNL     1       2.700 -21.789  -1.086  1.00  0.00     0.200 C 
HETATM   33  N11 UNL     1       4.219 -20.467   0.525  1.00  0.00    -0.257 N 
ATOM     34  H11 UNL     1       5.137 -20.339   0.098  1.00  0.00     0.191 HD
ENDBRANCH  25  28
ENDBRANCH   1  25
TORSDOF 8
ENDMDL
MODEL 2
REMARK VINA RESULT: -8.919317435      2.259      2.776
REMARK  8 active torsions:
REMARK  status: ('A' for Active; 'I' for Inactive)
REMARK    1  A    between atoms: C2_5  and  S1_6 
REMARK    2  A    between atoms: S1_6  and  N3_9 
REMARK    3  A    between atoms: C4_11  and  C5_12 
REMARK    4  A    between atoms: C5_12  and  S2_13 
REMARK    5  A    between atoms: S2_13  and  C6_14 
REMARK    6  A    between atoms: N5_17  and  N6_18 
REMARK    7  A    between atoms: C8_21  and  N7_22 
REMARK    8  A    between atoms: N8_25  and  N9_26 
ROOT
HETATM    1  N3  UNL     1       1.105 -19.664   4.444  1.00  0.00    -0.193 N 
HETATM    2  C3  UNL     1       0.013 -20.348   4.847  1.00  0.00     0.140 A 
HETATM    3  C4  UNL     1      -0.561 -19.741   5.915  1.00  0.00     0.040 A 
HETATM    4  N10 UNL     1       0.232 -18.643   6.154  1.00  0.00    -0.309 N 
ATOM      5  H10 UNL     1       0.091 -17.955   6.893  1.00  0.00     0.170 HD
HETATM    6  C9  UNL     1       1.206 -18.631   5.265  1.00  0.00     0.340 A 
HETATM    7  O3  UNL     1       2.119 -17.765   5.187  1.00  0.00    -0.245 OA
ENDROOT
BRANCH   3   8
HETATM    8  C5  UNL     1      -1.758 -20.101   6.715  1.00  0.00     0.139 C 
BRANCH   8   9
HETATM    9  S2  UNL     1      -1.866 -19.173   8.183  1.00  0.00    -0.100 SA
BRANCH   9  10
HETATM   10  C6  UNL     1      -2.777 -17.712   8.271  1.00  0.00     0.154 A 
HETATM   11  C7  UNL     1      -2.665 -16.482   7.699  1.00  0.00     0.191 A 
HETATM   12  N4  UNL     1      -1.604 -16.046   6.878  1.00  0.00    -0.077 NA
HETATM   13  N5  UNL     1      -3.697 -15.663   8.048  1.00  0.00    -0.074 N 
HETATM   14  C8  UNL     1      -4.452 -16.425   8.860  1.00  0.00     0.720 A 
HETATM   15  N8  UNL     1      -3.942 -17.632   9.012  1.00  0.00    -0.081 N 
BRANCH  13  16
HETATM   16  N6  UNL     1      -3.893 -14.347   7.643  1.00  0.00    -0.323 N 
ATOM     17  H62 UNL     1      -3.944 -13.963   6.700  1.00  0.00     0.178 HD
ATOM     18  H61 UNL     1      -4.023 -13.533   8.245  1.00  0.00     0.178 HD
ENDBRANCH  13  16
BRANCH  14  19
HETATM   19  N7  UNL     1      -5.539 -15.968   9.395  1.00  0.00    -0.231 N 
ATOM     20  H72 UNL     1      -6.346 -15.583   8.905  1.00  0.00     0.174 HD
ATOM     21  H71 UNL     1      -5.670 -15.960  10.406  1.00  0.00     0.174 HD
ENDBRANCH  14  19
BRANCH  15  22
HETATM   22  N9  UNL     1      -4.511 -18.629   9.797  1.00  0.00    -0.323 N 
ATOM     23  H92 UNL     1      -3.992 -19.411  10.198  1.00  0.00     0.178 HD
ATOM     24  H91 UNL     1      -5.490 -18.717  10.071  1.00  0.00     0.178 HD
ENDBRANCH  15  22
ENDBRANCH   9  10
ENDBRANCH   8   9
ENDBRANCH   3   8
BRANCH   1  25
HETATM   25  S1  UNL     1       2.098 -20.098   3.127  1.00  0.00     0.307 S 
HETATM   26  O1  UNL     1       2.245 -21.591   3.039  1.00  0.00    -0.196 OA
HETATM   27  O2  UNL     1       1.437 -19.636   1.858  1.00  0.00    -0.196 OA
BRANCH  25  28
HETATM   28  C2  UNL     1       3.703 -19.406   3.263  1.00  0.00     0.256 A 
HETATM   29  N2  UNL     1       4.698 -19.487   4.167  1.00  0.00    -0.257 N 
HETATM   30  N1  UNL     1       5.482 -18.682   3.474  1.00  0.00    -0.234 N 
ATOM     31  H2  UNL     1       4.805 -19.982   5.052  1.00  0.00     0.191 HD
HETATM   32  C1  UNL     1       6.834 -18.108   3.592  1.00  0.00     0.200 C 
HETATM   33  N11 UNL     1       4.515 -18.590   2.572  1.00  0.00    -0.257 N 
ATOM     34  H11 UNL     1       4.423 -18.089   1.688  1.00  0.00     0.191 HD
ENDBRANCH  25  28
ENDBRANCH   1  25
TORSDOF 8
ENDMDL
MODEL 3
REMARK VINA RESULT: -8.903298643      1.512      1.831
REMARK  8 active torsions:
REMARK  status: ('A' for Active; 'I' for Inactive)
REMARK    1  A    between atoms: C2_5  and  S1_6 
REMARK    2  A    between atoms: S1_6  and  N3_9 
REMARK    3  A    between atoms: C4_11  and  C5_12 
REMARK    4  A    between atoms: C5_12  and  S2_13 
REMARK    5  A    between atoms: S2_13  and  C6_14 
REMARK    6  A    between atoms: N5_17  and  N6_18 
REMARK    7  A    between atoms: C8_21  and  N7_22 
REMARK    8  A    between atoms: N8_25  and  N9_26 
ROOT
HETATM    1  N3  UNL     1       1.854 -19.897   5.313  1.00  0.00    -0.193 N 
HETATM    2  C3  UNL     1       0.816 -20.607   5.802  1.00  0.00     0.140 A 
HETATM    3  C4  UNL     1      -0.218 -19.787   6.108  1.00  0.00     0.040 A 
HETATM    4  N10 UNL     1       0.232 -18.528   5.784  1.00  0.00    -0.309 N 
ATOM      5  H10 UNL     1      -0.295 -17.661   5.886  1.00  0.00     0.170 HD
HETATM    6  C9  UNL     1       1.461 -18.633   5.317  1.00  0.00     0.340 A 
HETATM    7  O3  UNL     1       2.181 -17.677   4.922  1.00  0.00    -0.245 OA
ENDROOT
BRANCH   3   8
HETATM    8  C5  UNL     1      -1.561 -20.076   6.674  1.00  0.00     0.139 C 
BRANCH   8   9
HETATM    9  S2  UNL     1      -1.825 -19.253   8.184  1.00  0.00    -0.100 SA
BRANCH   9  10
HETATM   10  C6  UNL     1      -2.736 -17.792   8.277  1.00  0.00     0.154 A 
HETATM   11  C7  UNL     1      -2.634 -16.566   7.696  1.00  0.00     0.191 A 
HETATM   12  N4  UNL     1      -1.584 -16.132   6.858  1.00  0.00    -0.077 NA
HETATM   13  N5  UNL     1      -3.662 -15.745   8.055  1.00  0.00    -0.074 N 
HETATM   14  C8  UNL     1      -4.404 -16.503   8.881  1.00  0.00     0.720 A 
HETATM   15  N8  UNL     1      -3.891 -17.709   9.033  1.00  0.00    -0.081 N 
BRANCH  13  16
HETATM   16  N6  UNL     1      -3.865 -14.432   7.646  1.00  0.00    -0.323 N 
ATOM     17  H62 UNL     1      -4.683 -14.012   7.205  1.00  0.00     0.178 HD
ATOM     18  H61 UNL     1      -3.207 -13.656   7.726  1.00  0.00     0.178 HD
ENDBRANCH  13  16
BRANCH  14  19
HETATM   19  N7  UNL     1      -5.484 -16.045   9.429  1.00  0.00    -0.231 N 
ATOM     20  H72 UNL     1      -5.757 -15.066   9.516  1.00  0.00     0.174 HD
ATOM     21  H71 UNL     1      -6.179 -16.670   9.838  1.00  0.00     0.174 HD
ENDBRANCH  14  19
BRANCH  15  22
HETATM   22  N9  UNL     1      -4.447 -18.703   9.832  1.00  0.00    -0.323 N 
ATOM     23  H92 UNL     1      -5.332 -19.170   9.636  1.00  0.00     0.178 HD
ATOM     24  H91 UNL     1      -4.063 -19.088  10.695  1.00  0.00     0.178 HD
ENDBRANCH  15  22
ENDBRANCH   9  10
ENDBRANCH   8   9
ENDBRANCH   3   8
BRANCH   1  25
HETATM   25  S1  UNL     1       3.339 -20.564   4.803  1.00  0.00     0.307 S 
HETATM   26  O1  UNL     1       4.494 -19.757   5.324  1.00  0.00    -0.196 OA
HETATM   27  O2  UNL     1       3.463 -21.948   5.377  1.00  0.00    -0.196 OA
BRANCH  25  28
HETATM   28  C2  UNL     1       3.465 -20.619   3.055  1.00  0.00     0.256 A 
HETATM   29  N2  UNL     1       2.787 -21.246   2.074  1.00  0.00    -0.257 N 
HETATM   30  N1  UNL     1       3.543 -20.721   1.126  1.00  0.00    -0.234 N 
ATOM     31  H2  UNL     1       1.993 -21.885   2.066  1.00  0.00     0.191 HD
HETATM   32  C1  UNL     1       3.640 -20.768  -0.343  1.00  0.00     0.200 C 
HETATM   33  N11 UNL     1       4.221 -20.094   2.077  1.00  0.00    -0.257 N 
ATOM     34  H11 UNL     1       5.017 -19.456   2.069  1.00  0.00     0.191 HD
ENDBRANCH  25  28
ENDBRANCH   1  25
TORSDOF 8
ENDMDL
MODEL 4
REMARK VINA RESULT: -8.807945894      1.492      1.752
REMARK  8 active torsions:
REMARK  status: ('A' for Active; 'I' for Inactive)
REMARK    1  A    between atoms: C2_5  and  S1_6 
REMARK    2  A    between atoms: S1_6  and  N3_9 
REMARK    3  A    between atoms: C4_11  and  C5_12 
REMARK    4  A    between atoms: C5_12  and  S2_13 
REMARK    5  A    between atoms: S2_13  and  C6_14 
REMARK    6  A    between atoms: N5_17  and  N6_18 
REMARK    7  A    between atoms: C8_21  and  N7_22 
REMARK    8  A    between atoms: N8_25  and  N9_26 
ROOT
HETATM    1  N3  UNL     1       1.307 -19.093   5.050  1.00  0.00    -0.193 N 
HETATM    2  C3  UNL     1      -0.025 -19.278   5.171  1.00  0.00     0.140 A 
HETATM    3  C4  UNL     1      -0.334 -19.700   6.422  1.00  0.00     0.040 A 
HETATM    4  N10 UNL     1       0.876 -19.767   7.072  1.00  0.00    -0.309 N 
ATOM      5  H10 UNL     1       1.018 -20.051   8.041  1.00  0.00     0.170 HD
HETATM    6  C9  UNL     1       1.823 -19.401   6.229  1.00  0.00     0.340 A 
HETATM    7  O3  UNL     1       3.055 -19.344   6.488  1.00  0.00    -0.245 OA
ENDROOT
BRANCH   3   8
HETATM    8  C5  UNL     1      -1.639 -20.044   7.042  1.00  0.00     0.139 C 
BRANCH   8   9
HETATM    9  S2  UNL     1      -1.944 -19.116   8.481  1.00  0.00    -0.100 SA
BRANCH   9  10
HETATM   10  C6  UNL     1      -2.874 -17.665   8.449  1.00  0.00     0.154 A 
HETATM   11  C7  UNL     1      -2.738 -16.458   7.835  1.00  0.00     0.191 A 
HETATM   12  N4  UNL     1      -1.629 -16.040   7.068  1.00  0.00    -0.077 NA
HETATM   13  N5  UNL     1      -3.800 -15.639   8.081  1.00  0.00    -0.074 N 
HETATM   14  C8  UNL     1      -4.599 -16.378   8.872  1.00  0.00     0.720 A 
HETATM   15  N8  UNL     1      -4.087 -17.571   9.107  1.00  0.00    -0.081 N 
BRANCH  13  16
HETATM   16  N6  UNL     1      -3.983 -14.343   7.610  1.00  0.00    -0.323 N 
ATOM     17  H62 UNL     1      -3.288 -13.670   7.290  1.00  0.00     0.178 HD
ATOM     18  H61 UNL     1      -4.868 -13.849   7.505  1.00  0.00     0.178 HD
ENDBRANCH  13  16
BRANCH  14  19
HETATM   19  N7  UNL     1      -5.723 -15.915   9.315  1.00  0.00    -0.231 N 
ATOM     20  H72 UNL     1      -6.268 -15.149   8.918  1.00  0.00     0.174 HD
ATOM     21  H71 UNL     1      -6.170 -16.308  10.143  1.00  0.00     0.174 HD
ENDBRANCH  14  19
BRANCH  15  22
HETATM   22  N9  UNL     1      -4.695 -18.544   9.893  1.00  0.00    -0.323 N 
ATOM     23  H92 UNL     1      -4.312 -19.475  10.055  1.00  0.00     0.178 HD
ATOM     24  H91 UNL     1      -5.578 -18.465  10.398  1.00  0.00     0.178 HD
ENDBRANCH  15  22
ENDBRANCH   9  10
ENDBRANCH   8   9
ENDBRANCH   3   8
BRANCH   1  25
HETATM   25  S1  UNL     1       2.093 -18.558   3.634  1.00  0.00     0.307 S 
HETATM   26  O1  UNL     1       1.468 -17.291   3.123  1.00  0.00    -0.196 OA
HETATM   27  O2  UNL     1       3.525 -18.250   3.970  1.00  0.00    -0.196 OA
BRANCH  25  28
HETATM   28  C2  UNL     1       2.014 -19.752   2.352  1.00  0.00     0.256 A 
HETATM   29  N2  UNL     1       2.909 -20.563   1.754  1.00  0.00    -0.257 N 
HETATM   30  N1  UNL     1       1.999 -21.082   0.950  1.00  0.00    -0.234 N 
ATOM     31  H2  UNL     1       3.909 -20.717   1.876  1.00  0.00     0.191 HD
HETATM   32  C1  UNL     1       1.940 -22.090  -0.123  1.00  0.00     0.200 C 
HETATM   33  N11 UNL     1       1.104 -20.293   1.526  1.00  0.00    -0.257 N 
ATOM     34  H11 UNL     1       0.102 -20.150   1.393  1.00  0.00     0.191 HD
ENDBRANCH  25  28
ENDBRANCH   1  25
TORSDOF 8
ENDMDL
MODEL 5
REMARK VINA RESULT: -8.793265825      2.081      2.517
REMARK  8 active torsions:
REMARK  status: ('A' for Active; 'I' for Inactive)
REMARK    1  A    between atoms: C2_5  and  S1_6 
REMARK    2  A    between atoms: S1_6  and  N3_9 
REMARK    3  A    between atoms: C4_11  and  C5_12 
REMARK    4  A    between atoms: C5_12  and  S2_13 
REMARK    5  A    between atoms: S2_13  and  C6_14 
REMARK    6  A    between atoms: N5_17  and  N6_18 
REMARK    7  A    between atoms: C8_21  and  N7_22 
REMARK    8  A    between atoms: N8_25  and  N9_26 
ROOT
HETATM    1  N3  UNL     1       0.492 -19.254   5.139  1.00  0.00    -0.193 N 
HETATM    2  C3  UNL     1       0.570 -19.102   6.477  1.00  0.00     0.140 A 
HETATM    3  C4  UNL     1      -0.575 -19.520   7.071  1.00  0.00     0.040 A 
HETATM    4  N10 UNL     1      -1.369 -19.942   6.030  1.00  0.00    -0.309 N 
ATOM      5  H10 UNL     1      -2.311 -20.324   6.114  1.00  0.00     0.170 HD
HETATM    6  C9  UNL     1      -0.705 -19.770   4.903  1.00  0.00     0.340 A 
HETATM    7  O3  UNL     1      -1.129 -20.050   3.750  1.00  0.00    -0.245 OA
ENDROOT
BRANCH   3   8
HETATM    8  C5  UNL     1      -0.980 -19.550   8.499  1.00  0.00     0.139 C 
BRANCH   8   9
HETATM    9  S2  UNL     1      -2.647 -19.100   8.715  1.00  0.00    -0.100 SA
BRANCH   9  10
HETATM   10  C6  UNL     1      -3.187 -17.477   8.501  1.00  0.00     0.154 A 
HETATM   11  C7  UNL     1      -2.642 -16.354   7.959  1.00  0.00     0.191 A 
HETATM   12  N4  UNL     1      -1.323 -16.226   7.474  1.00  0.00    -0.077 NA
HETATM   13  N5  UNL     1      -3.515 -15.307   7.973  1.00  0.00    -0.074 N 
HETATM   14  C8  UNL     1      -4.620 -15.817   8.545  1.00  0.00     0.720 A 
HETATM   15  N8  UNL     1      -4.462 -17.087   8.867  1.00  0.00    -0.081 N 
BRANCH  13  16
HETATM   16  N6  UNL     1      -3.284 -14.020   7.499  1.00  0.00    -0.323 N 
ATOM     17  H62 UNL     1      -3.096 -13.164   8.021  1.00  0.00     0.178 HD
ATOM     18  H61 UNL     1      -3.263 -13.720   6.525  1.00  0.00     0.178 HD
ENDBRANCH  13  16
BRANCH  14  19
HETATM   19  N7  UNL     1      -5.679 -15.096   8.730  1.00  0.00    -0.231 N 
ATOM     20  H72 UNL     1      -5.795 -14.110   8.494  1.00  0.00     0.174 HD
ATOM     21  H71 UNL     1      -6.521 -15.486   9.150  1.00  0.00     0.174 HD
ENDBRANCH  14  19
BRANCH  15  22
HETATM   22  N9  UNL     1      -5.440 -17.868   9.474  1.00  0.00    -0.323 N 
ATOM     23  H92 UNL     1      -5.846 -17.672  10.389  1.00  0.00     0.178 HD
ATOM     24  H91 UNL     1      -5.870 -18.717   9.104  1.00  0.00     0.178 HD
ENDBRANCH  15  22
ENDBRANCH   9  10
ENDBRANCH   8   9
ENDBRANCH   3   8
BRANCH   1  25
HETATM   25  S1  UNL     1       1.730 -18.853   4.037  1.00  0.00     0.307 S 
HETATM   26  O1  UNL     1       1.480 -17.506   3.420  1.00  0.00    -0.196 OA
HETATM   27  O2  UNL     1       3.029 -18.770   4.788  1.00  0.00    -0.196 OA
BRANCH  25  28
HETATM   28  C2  UNL     1       1.854 -20.024   2.738  1.00  0.00     0.256 A 
HETATM   29  N2  UNL     1       1.228 -20.204   1.558  1.00  0.00    -0.257 N 
HETATM   30  N1  UNL     1       1.941 -21.277   1.269  1.00  0.00    -0.234 N 
ATOM     31  H2  UNL     1       0.486 -19.701   1.073  1.00  0.00     0.191 HD
HETATM   32  C1  UNL     1       2.043 -22.255   0.171  1.00  0.00     0.200 C 
HETATM   33  N11 UNL     1       2.569 -21.117   2.425  1.00  0.00    -0.257 N 
ATOM     34  H11 UNL     1       3.313 -21.630   2.898  1.00  0.00     0.191 HD
ENDBRANCH  25  28
ENDBRANCH   1  25
TORSDOF 8
ENDMDL
