MODEL 1
REMARK VINA RESULT: -7.774892698      0.000      0.000
REMARK  14 active torsions:
REMARK  status: ('A' for Active; 'I' for Inactive)
REMARK    1  A    between atoms: C3_3  and  C4_4 
REMARK    2  A    between atoms: C4_4  and  N1_5 
REMARK    3  A    between atoms: N1_5  and  C7_8 
REMARK    4  A    between atoms: C7_8  and  N2_9 
REMARK       I    between atoms: N2_9  and  C8_11 
REMARK    5  A    between atoms: C8_11  and  C9_13 
REMARK    6  A    between atoms: C11_18  and  C12_19 
REMARK    7  A    between atoms: C12_19  and  C13_20 
REMARK    8  A    between atoms: C13_20  and  C14_21 
REMARK    9  A    between atoms: C17_27  and  C18_28 
REMARK   10  A    between atoms: C22_34  and  C23_35 
REMARK   11  A    between atoms: C23_35  and  C24_36 
REMARK   12  A    between atoms: C27_41  and  O5_42 
REMARK   13  A    between atoms: C28_44  and  C29_45 
REMARK   14  A    between atoms: C31_49  and  O6_50 
ROOT
HETATM    1  C1  UNL     1      12.302  -9.667   5.134  1.00  0.00     0.112 C 
HETATM    2  C2  UNL     1      12.355  -9.099   3.787  1.00  0.00    -0.109 C 
HETATM    3  C3  UNL     1      12.395  -8.629   2.682  1.00  0.00    -0.079 C 
ENDROOT
BRANCH   3   4
HETATM    4  C4  UNL     1      12.452  -8.025   1.331  1.00  0.00     0.331 C 
BRANCH   4   5
HETATM    5  N1  UNL     1      13.555  -7.105   1.245  1.00  0.00    -0.049 N 
HETATM    6  C5  UNL     1      13.592  -6.492  -0.050  1.00  0.00     0.275 C 
HETATM    7  C6  UNL     1      14.777  -7.916   1.379  1.00  0.00     0.275 C 
BRANCH   5   8
HETATM    8  C7  UNL     1      13.505  -6.089   2.277  1.00  0.00     0.362 C 
BRANCH   8   9
HETATM    9  N2  UNL     1      14.799  -5.943   2.899  1.00  0.00    -0.335 N 
HETATM   10  C8  UNL     1      15.582  -4.766   2.783  1.00  0.00     0.249 C 
HETATM   11  O1  UNL     1      15.162  -3.804   2.123  1.00  0.00    -0.271 OA
ATOM     12  H2  UNL     1      15.167  -6.721   3.446  1.00  0.00     0.164 HD
BRANCH  10  13
HETATM   13  C9  UNL     1      16.930  -4.654   3.450  1.00  0.00     0.251 C 
HETATM   14  N3  UNL     1      16.718  -4.764   4.836  1.00  0.00    -0.339 N 
HETATM   15  C10 UNL     1      17.355  -5.577   5.808  1.00  0.00     0.241 C 
ATOM     16  H3  UNL     1      15.984  -4.159   5.203  1.00  0.00     0.163 HD
HETATM   17  O2  UNL     1      16.603  -6.064   6.701  1.00  0.00    -0.271 OA
HETATM   18  C11 UNL     1      18.778  -5.894   5.863  1.00  0.00     0.176 C 
HETATM   19  N4  UNL     1      19.565  -5.342   6.913  1.00  0.00    -0.346 N 
HETATM   20  C16 UNL     1      19.378  -5.132   8.265  1.00  0.00     0.241 C 
ATOM     21  H4  UNL     1      20.480  -5.029   6.592  1.00  0.00     0.163 HD
HETATM   22  O3  UNL     1      20.128  -5.836   9.054  1.00  0.00    -0.271 OA
HETATM   23  C17 UNL     1      18.470  -4.240   9.020  1.00  0.00     0.178 C 
HETATM   24  N5  UNL     1      19.130  -2.973   9.359  1.00  0.00    -0.341 N 
HETATM   25  C20 UNL     1      19.913  -2.996  10.613  1.00  0.00     0.153 C 
HETATM   26  C21 UNL     1      19.132  -1.778   8.680  1.00  0.00     0.243 C 
HETATM   27  O4  UNL     1      20.205  -1.089   8.649  1.00  0.00    -0.271 OA
HETATM   28  C22 UNL     1      17.984  -1.121   7.919  1.00  0.00     0.176 C 
HETATM   29  N6  UNL     1      17.778  -1.824   6.692  1.00  0.00    -0.359 N 
HETATM   30  C27 UNL     1      18.184  -1.786   5.381  1.00  0.00     0.135 C 
ATOM     31  H6  UNL     1      17.126  -2.595   6.835  1.00  0.00     0.162 HD
HETATM   32  C28 UNL     1      17.642  -1.177   4.141  1.00  0.00     0.157 C 
HETATM   33  N7  UNL     1      17.528  -2.138   3.050  1.00  0.00    -0.360 N 
HETATM   34  C31 UNL     1      17.692  -3.493   2.939  1.00  0.00     0.144 C 
ATOM     35  H7  UNL     1      17.265  -1.701   2.167  1.00  0.00     0.162 HD
BRANCH  18  36
HETATM   36  C12 UNL     1      18.971  -7.419   5.710  1.00  0.00     0.035 C 
BRANCH  36  37
HETATM   37  C13 UNL     1      20.337  -7.744   6.234  1.00  0.00     0.002 C 
BRANCH  37  38
HETATM   38  C14 UNL     1      20.289  -8.847   7.289  1.00  0.00    -0.004 C 
HETATM   39  C15 UNL     1      18.929  -9.502   7.178  1.00  0.00     0.005 C 
ENDBRANCH  37  38
ENDBRANCH  36  37
ENDBRANCH  18  36
BRANCH  23  40
HETATM   40  C18 UNL     1      18.185  -4.956  10.361  1.00  0.00     0.030 C 
HETATM   41  C19 UNL     1      16.898  -5.706  10.348  1.00  0.00     0.007 C 
ENDBRANCH  23  40
BRANCH  28  42
HETATM   42  C23 UNL     1      18.186   0.349   7.853  1.00  0.00     0.038 C 
BRANCH  42  43
HETATM   43  C24 UNL     1      17.507   1.165   8.910  1.00  0.00    -0.020 C 
HETATM   44  C25 UNL     1      16.887   0.215   9.949  1.00  0.00     0.009 C 
HETATM   45  C26 UNL     1      18.655   1.844   9.697  1.00  0.00     0.009 C 
ENDBRANCH  42  43
ENDBRANCH  28  42
BRANCH  30  46
HETATM   46  O5  UNL     1      19.291  -2.395   5.004  1.00  0.00    -0.348 OA
ATOM     47  H5  UNL     1      20.086  -1.899   4.848  1.00  0.00     0.219 HD
ENDBRANCH  30  46
BRANCH  32  48
HETATM   48  C29 UNL     1      18.744  -0.142   3.766  1.00  0.00     0.029 C 
HETATM   49  C30 UNL     1      18.367   1.166   4.382  1.00  0.00     0.007 C 
ENDBRANCH  32  48
BRANCH  34  50
HETATM   50  O6  UNL     1      18.733  -3.844   2.233  1.00  0.00    -0.348 OA
ATOM     51  H6  UNL     1      19.221  -3.099   1.904  1.00  0.00     0.219 HD
ENDBRANCH  34  50
ENDBRANCH  10  13
ENDBRANCH   8   9
ENDBRANCH   5   8
ENDBRANCH   4   5
ENDBRANCH   3   4
TORSDOF 14
ENDMDL
MODEL 2
REMARK VINA RESULT: -7.573889024      1.019      2.175
REMARK  14 active torsions:
REMARK  status: ('A' for Active; 'I' for Inactive)
REMARK    1  A    between atoms: C3_3  and  C4_4 
REMARK    2  A    between atoms: C4_4  and  N1_5 
REMARK    3  A    between atoms: N1_5  and  C7_8 
REMARK    4  A    between atoms: C7_8  and  N2_9 
REMARK       I    between atoms: N2_9  and  C8_11 
REMARK    5  A    between atoms: C8_11  and  C9_13 
REMARK    6  A    between atoms: C11_18  and  C12_19 
REMARK    7  A    between atoms: C12_19  and  C13_20 
REMARK    8  A    between atoms: C13_20  and  C14_21 
REMARK    9  A    between atoms: C17_27  and  C18_28 
REMARK   10  A    between atoms: C22_34  and  C23_35 
REMARK   11  A    between atoms: C23_35  and  C24_36 
REMARK   12  A    between atoms: C27_41  and  O5_42 
REMARK   13  A    between atoms: C28_44  and  C29_45 
REMARK   14  A    between atoms: C31_49  and  O6_50 
ROOT
HETATM    1  C1  UNL     1      17.203  -4.990  -1.139  1.00  0.00     0.112 C 
HETATM    2  C2  UNL     1      15.898  -5.548  -0.786  1.00  0.00    -0.109 C 
HETATM    3  C3  UNL     1      14.824  -6.008  -0.502  1.00  0.00    -0.079 C 
ENDROOT
BRANCH   3   4
HETATM    4  C4  UNL     1      13.508  -6.597  -0.167  1.00  0.00     0.331 C 
BRANCH   4   5
HETATM    5  N1  UNL     1      13.532  -7.139   1.166  1.00  0.00    -0.049 N 
HETATM    6  C5  UNL     1      14.687  -7.968   1.344  1.00  0.00     0.275 C 
HETATM    7  C6  UNL     1      12.349  -8.010   1.276  1.00  0.00     0.275 C 
BRANCH   5   8
HETATM    8  C7  UNL     1      13.498  -6.106   2.181  1.00  0.00     0.362 C 
BRANCH   8   9
HETATM    9  N2  UNL     1      14.793  -5.973   2.803  1.00  0.00    -0.335 N 
HETATM   10  C8  UNL     1      15.547  -4.773   2.764  1.00  0.00     0.249 C 
HETATM   11  O1  UNL     1      15.101  -3.778   2.175  1.00  0.00    -0.271 OA
ATOM     12  H2  UNL     1      15.183  -6.778   3.293  1.00  0.00     0.164 HD
BRANCH  10  13
HETATM   13  C9  UNL     1      16.897  -4.675   3.430  1.00  0.00     0.251 C 
HETATM   14  N3  UNL     1      16.687  -4.787   4.815  1.00  0.00    -0.339 N 
HETATM   15  C10 UNL     1      17.318  -5.609   5.784  1.00  0.00     0.241 C 
ATOM     16  H3  UNL     1      15.959  -4.177   5.185  1.00  0.00     0.163 HD
HETATM   17  O2  UNL     1      16.563  -6.092   6.677  1.00  0.00    -0.271 OA
HETATM   18  C11 UNL     1      18.738  -5.939   5.835  1.00  0.00     0.176 C 
HETATM   19  N4  UNL     1      19.531  -5.398   6.885  1.00  0.00    -0.346 N 
HETATM   20  C16 UNL     1      19.349  -5.190   8.238  1.00  0.00     0.241 C 
ATOM     21  H4  UNL     1      20.449  -5.092   6.563  1.00  0.00     0.163 HD
HETATM   22  O3  UNL     1      20.094  -5.903   9.024  1.00  0.00    -0.271 OA
HETATM   23  C17 UNL     1      18.451  -4.292   8.997  1.00  0.00     0.178 C 
HETATM   24  N5  UNL     1      19.123  -3.032   9.339  1.00  0.00    -0.341 N 
HETATM   25  C20 UNL     1      19.908  -3.066  10.592  1.00  0.00     0.153 C 
HETATM   26  C21 UNL     1      19.135  -1.835   8.664  1.00  0.00     0.243 C 
HETATM   27  O4  UNL     1      20.214  -1.156   8.633  1.00  0.00    -0.271 OA
HETATM   28  C22 UNL     1      17.991  -1.165   7.906  1.00  0.00     0.176 C 
HETATM   29  N6  UNL     1      17.777  -1.862   6.678  1.00  0.00    -0.359 N 
HETATM   30  C27 UNL     1      18.181  -1.824   5.366  1.00  0.00     0.135 C 
ATOM     31  H6  UNL     1      17.118  -2.627   6.820  1.00  0.00     0.162 HD
HETATM   32  C28 UNL     1      17.643  -1.207   4.130  1.00  0.00     0.157 C 
HETATM   33  N7  UNL     1      17.518  -2.163   3.036  1.00  0.00    -0.360 N 
HETATM   34  C31 UNL     1      17.669  -3.519   2.920  1.00  0.00     0.144 C 
ATOM     35  H7  UNL     1      17.257  -1.721   2.155  1.00  0.00     0.162 HD
BRANCH  18  36
HETATM   36  C12 UNL     1      18.917  -7.466   5.678  1.00  0.00     0.035 C 
BRANCH  36  37
HETATM   37  C13 UNL     1      18.348  -7.839   4.343  1.00  0.00     0.002 C 
BRANCH  37  38
HETATM   38  C14 UNL     1      17.683  -9.213   4.378  1.00  0.00    -0.004 C 
HETATM   39  C15 UNL     1      16.210  -8.982   4.638  1.00  0.00     0.005 C 
ENDBRANCH  37  38
ENDBRANCH  36  37
ENDBRANCH  18  36
BRANCH  23  40
HETATM   40  C18 UNL     1      18.161  -5.009  10.337  1.00  0.00     0.030 C 
HETATM   41  C19 UNL     1      16.862  -5.738  10.328  1.00  0.00     0.007 C 
ENDBRANCH  23  40
BRANCH  28  42
HETATM   42  C23 UNL     1      18.208   0.303   7.845  1.00  0.00     0.038 C 
BRANCH  42  43
HETATM   43  C24 UNL     1      17.537   1.122   8.904  1.00  0.00    -0.020 C 
HETATM   44  C25 UNL     1      16.883   0.175   9.925  1.00  0.00     0.009 C 
HETATM   45  C26 UNL     1      18.691   1.765   9.711  1.00  0.00     0.009 C 
ENDBRANCH  42  43
ENDBRANCH  28  42
BRANCH  30  46
HETATM   46  O5  UNL     1      19.281  -2.442   4.985  1.00  0.00    -0.348 OA
ATOM     47  H5  UNL     1      20.134  -2.059   5.155  1.00  0.00     0.219 HD
ENDBRANCH  30  46
BRANCH  32  48
HETATM   48  C29 UNL     1      18.753  -0.181   3.756  1.00  0.00     0.029 C 
HETATM   49  C30 UNL     1      18.384   1.132   4.366  1.00  0.00     0.007 C 
ENDBRANCH  32  48
BRANCH  34  50
HETATM   50  O6  UNL     1      18.705  -3.878   2.211  1.00  0.00    -0.348 OA
ATOM     51  H6  UNL     1      18.609  -3.669   1.289  1.00  0.00     0.219 HD
ENDBRANCH  34  50
ENDBRANCH  10  13
ENDBRANCH   8   9
ENDBRANCH   5   8
ENDBRANCH   4   5
ENDBRANCH   3   4
TORSDOF 14
ENDMDL
MODEL 3
REMARK VINA RESULT: -7.172402013      2.297      9.231
REMARK  14 active torsions:
REMARK  status: ('A' for Active; 'I' for Inactive)
REMARK    1  A    between atoms: C3_3  and  C4_4 
REMARK    2  A    between atoms: C4_4  and  N1_5 
REMARK    3  A    between atoms: N1_5  and  C7_8 
REMARK    4  A    between atoms: C7_8  and  N2_9 
REMARK       I    between atoms: N2_9  and  C8_11 
REMARK    5  A    between atoms: C8_11  and  C9_13 
REMARK    6  A    between atoms: C11_18  and  C12_19 
REMARK    7  A    between atoms: C12_19  and  C13_20 
REMARK    8  A    between atoms: C13_20  and  C14_21 
REMARK    9  A    between atoms: C17_27  and  C18_28 
REMARK   10  A    between atoms: C22_34  and  C23_35 
REMARK   11  A    between atoms: C23_35  and  C24_36 
REMARK   12  A    between atoms: C27_41  and  O5_42 
REMARK   13  A    between atoms: C28_44  and  C29_45 
REMARK   14  A    between atoms: C31_49  and  O6_50 
ROOT
HETATM    1  C1  UNL     1      19.140  -1.726  13.822  1.00  0.00     0.112 C 
HETATM    2  C2  UNL     1      18.642  -0.379  13.539  1.00  0.00    -0.109 C 
HETATM    3  C3  UNL     1      18.232   0.728  13.312  1.00  0.00    -0.079 C 
ENDROOT
BRANCH   3   4
HETATM    4  C4  UNL     1      17.745   2.101  13.050  1.00  0.00     0.331 C 
BRANCH   4   5
HETATM    5  N1  UNL     1      17.936   2.440  11.665  1.00  0.00    -0.049 N 
HETATM    6  C5  UNL     1      19.307   2.251  11.292  1.00  0.00     0.275 C 
HETATM    7  C6  UNL     1      17.648   3.880  11.552  1.00  0.00     0.275 C 
BRANCH   5   8
HETATM    8  C7  UNL     1      17.071   1.679  10.788  1.00  0.00     0.362 C 
BRANCH   8   9
HETATM    9  N2  UNL     1      17.856   0.921   9.845  1.00  0.00    -0.335 N 
HETATM   10  C8  UNL     1      17.316  -0.131   9.061  1.00  0.00     0.249 C 
HETATM   11  O1  UNL     1      16.119  -0.435   9.172  1.00  0.00    -0.271 OA
ATOM     12  H2  UNL     1      18.843   1.152   9.736  1.00  0.00     0.164 HD
BRANCH  10  13
HETATM   13  C9  UNL     1      18.171  -0.898   8.084  1.00  0.00     0.251 C 
HETATM   14  N3  UNL     1      17.311  -1.432   7.108  1.00  0.00    -0.339 N 
HETATM   15  C10 UNL     1      17.382  -1.396   5.692  1.00  0.00     0.241 C 
ATOM     16  H3  UNL     1      16.502  -1.927   7.481  1.00  0.00     0.163 HD
HETATM   17  O2  UNL     1      16.282  -1.236   5.087  1.00  0.00    -0.271 OA
HETATM   18  C11 UNL     1      18.593  -1.524   4.890  1.00  0.00     0.176 C 
HETATM   19  N4  UNL     1      18.779  -2.701   4.111  1.00  0.00    -0.346 N 
HETATM   20  C16 UNL     1      17.963  -3.491   3.327  1.00  0.00     0.241 C 
ATOM     21  H4  UNL     1      19.741  -3.039   4.139  1.00  0.00     0.163 HD
HETATM   22  O3  UNL     1      18.223  -3.486   2.057  1.00  0.00    -0.271 OA
HETATM   23  C17 UNL     1      16.818  -4.372   3.650  1.00  0.00     0.178 C 
HETATM   24  N5  UNL     1      17.252  -5.763   3.834  1.00  0.00    -0.341 N 
HETATM   25  C20 UNL     1      17.325  -6.560   2.591  1.00  0.00     0.153 C 
HETATM   26  C21 UNL     1      17.604  -6.424   4.985  1.00  0.00     0.243 C 
HETATM   27  O4  UNL     1      18.568  -7.259   4.947  1.00  0.00    -0.271 OA
HETATM   28  C22 UNL     1      16.981  -6.303   6.374  1.00  0.00     0.176 C 
HETATM   29  N6  UNL     1      17.386  -5.063   6.957  1.00  0.00    -0.359 N 
HETATM   30  C27 UNL     1      18.378  -4.555   7.758  1.00  0.00     0.135 C 
ATOM     31  H6  UNL     1      16.733  -4.324   6.696  1.00  0.00     0.162 HD
HETATM   32  C28 UNL     1      18.517  -4.315   9.215  1.00  0.00     0.157 C 
HETATM   33  N7  UNL     1      18.931  -2.950   9.520  1.00  0.00    -0.360 N 
HETATM   34  C31 UNL     1      19.105  -1.809   8.782  1.00  0.00     0.144 C 
ATOM     35  H7  UNL     1      19.137  -2.812  10.509  1.00  0.00     0.162 HD
BRANCH  18  36
HETATM   36  C12 UNL     1      18.810  -0.229   4.076  1.00  0.00     0.035 C 
BRANCH  36  37
HETATM   37  C13 UNL     1      18.149   0.882   4.833  1.00  0.00     0.002 C 
BRANCH  37  38
HETATM   38  C14 UNL     1      19.134   1.999   5.170  1.00  0.00    -0.004 C 
HETATM   39  C15 UNL     1      19.142   2.139   6.677  1.00  0.00     0.005 C 
ENDBRANCH  37  38
ENDBRANCH  36  37
ENDBRANCH  18  36
BRANCH  23  40
HETATM   40  C18 UNL     1      15.905  -4.361   2.402  1.00  0.00     0.030 C 
HETATM   41  C19 UNL     1      14.582  -4.999   2.653  1.00  0.00     0.007 C 
ENDBRANCH  23  40
BRANCH  28  42
HETATM   42  C23 UNL     1      17.215  -7.547   7.152  1.00  0.00     0.038 C 
BRANCH  42  43
HETATM   43  C24 UNL     1      16.098  -8.544   7.169  1.00  0.00    -0.020 C 
HETATM   44  C25 UNL     1      15.021  -8.102   6.162  1.00  0.00     0.009 C 
HETATM   45  C26 UNL     1      16.684  -9.821   6.518  1.00  0.00     0.009 C 
ENDBRANCH  42  43
ENDBRANCH  28  42
BRANCH  30  46
HETATM   46  O5  UNL     1      19.518  -4.147   7.237  1.00  0.00    -0.348 OA
ATOM     47  H5  UNL     1      19.904  -4.607   6.501  1.00  0.00     0.219 HD
ENDBRANCH  30  46
BRANCH  32  48
HETATM   48  C29 UNL     1      19.680  -5.275   9.605  1.00  0.00     0.029 C 
HETATM   49  C30 UNL     1      20.564  -4.551  10.568  1.00  0.00     0.007 C 
ENDBRANCH  32  48
BRANCH  34  50
HETATM   50  O6  UNL     1      20.352  -1.437   8.669  1.00  0.00    -0.348 OA
ATOM     51  H6  UNL     1      20.879  -2.064   8.187  1.00  0.00     0.219 HD
ENDBRANCH  34  50
ENDBRANCH  10  13
ENDBRANCH   8   9
ENDBRANCH   5   8
ENDBRANCH   4   5
ENDBRANCH   3   4
TORSDOF 14
ENDMDL
MODEL 4
REMARK VINA RESULT: -6.961974959      7.821     13.221
REMARK  14 active torsions:
REMARK  status: ('A' for Active; 'I' for Inactive)
REMARK    1  A    between atoms: C3_3  and  C4_4 
REMARK    2  A    between atoms: C4_4  and  N1_5 
REMARK    3  A    between atoms: N1_5  and  C7_8 
REMARK    4  A    between atoms: C7_8  and  N2_9 
REMARK       I    between atoms: N2_9  and  C8_11 
REMARK    5  A    between atoms: C8_11  and  C9_13 
REMARK    6  A    between atoms: C11_18  and  C12_19 
REMARK    7  A    between atoms: C12_19  and  C13_20 
REMARK    8  A    between atoms: C13_20  and  C14_21 
REMARK    9  A    between atoms: C17_27  and  C18_28 
REMARK   10  A    between atoms: C22_34  and  C23_35 
REMARK   11  A    between atoms: C23_35  and  C24_36 
REMARK   12  A    between atoms: C27_41  and  O5_42 
REMARK   13  A    between atoms: C28_44  and  C29_45 
REMARK   14  A    between atoms: C31_49  and  O6_50 
ROOT
HETATM    1  C1  UNL     1      10.231   5.880  13.204  1.00  0.00     0.112 C 
HETATM    2  C2  UNL     1      11.016   6.397  14.325  1.00  0.00    -0.109 C 
HETATM    3  C3  UNL     1      11.660   6.827  15.244  1.00  0.00    -0.079 C 
ENDROOT
BRANCH   3   4
HETATM    4  C4  UNL     1      12.431   7.371  16.385  1.00  0.00     0.331 C 
BRANCH   4   5
HETATM    5  N1  UNL     1      13.841   7.323  16.100  1.00  0.00    -0.049 N 
HETATM    6  C5  UNL     1      14.489   6.373  16.955  1.00  0.00     0.275 C 
HETATM    7  C6  UNL     1      14.374   8.653  16.442  1.00  0.00     0.275 C 
BRANCH   5   8
HETATM    8  C7  UNL     1      14.110   7.010  14.712  1.00  0.00     0.362 C 
BRANCH   8   9
HETATM    9  N2  UNL     1      15.218   6.091  14.612  1.00  0.00    -0.335 N 
HETATM   10  C8  UNL     1      16.454   6.436  14.007  1.00  0.00     0.249 C 
HETATM   11  O1  UNL     1      16.617   7.569  13.532  1.00  0.00    -0.271 OA
ATOM     12  H2  UNL     1      15.109   5.152  14.994  1.00  0.00     0.164 HD
BRANCH  10  13
HETATM   13  C9  UNL     1      17.589   5.446  13.924  1.00  0.00     0.251 C 
HETATM   14  N3  UNL     1      17.117   4.331  13.208  1.00  0.00    -0.339 N 
HETATM   15  C10 UNL     1      17.677   3.634  12.107  1.00  0.00     0.241 C 
ATOM     16  H3  UNL     1      16.224   3.964  13.535  1.00  0.00     0.163 HD
HETATM   17  O2  UNL     1      16.857   3.247  11.224  1.00  0.00    -0.271 OA
HETATM   18  C11 UNL     1      19.090   3.333  11.910  1.00  0.00     0.176 C 
HETATM   19  N4  UNL     1      19.525   1.982  12.012  1.00  0.00    -0.346 N 
HETATM   20  C16 UNL     1      19.025   0.762  11.601  1.00  0.00     0.241 C 
ATOM     21  H4  UNL     1      20.413   1.894  12.505  1.00  0.00     0.163 HD
HETATM   22  O3  UNL     1      19.711   0.150  10.686  1.00  0.00    -0.271 OA
HETATM   23  C17 UNL     1      17.831  -0.014  12.004  1.00  0.00     0.178 C 
HETATM   24  N5  UNL     1      18.161  -0.995  13.046  1.00  0.00    -0.341 N 
HETATM   25  C20 UNL     1      18.655  -2.294  12.543  1.00  0.00     0.153 C 
HETATM   26  C21 UNL     1      18.084  -0.877  14.413  1.00  0.00     0.243 C 
HETATM   27  O4  UNL     1      18.994  -1.412  15.129  1.00  0.00    -0.271 OA
HETATM   28  C22 UNL     1      17.018  -0.166  15.242  1.00  0.00     0.176 C 
HETATM   29  N6  UNL     1      17.206   1.245  15.127  1.00  0.00    -0.359 N 
HETATM   30  C27 UNL     1      17.862   2.272  15.761  1.00  0.00     0.135 C 
ATOM     31  H6  UNL     1      16.692   1.602  14.322  1.00  0.00     0.162 HD
HETATM   32  C28 UNL     1      17.488   3.259  16.802  1.00  0.00     0.157 C 
HETATM   33  N7  UNL     1      17.782   4.631  16.403  1.00  0.00    -0.360 N 
HETATM   34  C31 UNL     1      18.213   5.226  15.248  1.00  0.00     0.144 C 
ATOM     35  H7  UNL     1      17.632   5.301  17.158  1.00  0.00     0.162 HD
BRANCH  18  36
HETATM   36  C12 UNL     1      19.589   4.025  10.622  1.00  0.00     0.035 C 
BRANCH  36  37
HETATM   37  C13 UNL     1      19.820   2.948   9.606  1.00  0.00     0.002 C 
BRANCH  37  38
HETATM   38  C14 UNL     1      18.712   2.917   8.556  1.00  0.00    -0.004 C 
HETATM   39  C15 UNL     1      19.032   1.779   7.612  1.00  0.00     0.005 C 
ENDBRANCH  37  38
ENDBRANCH  36  37
ENDBRANCH  18  36
BRANCH  23  40
HETATM   40  C18 UNL     1      17.410  -0.828  10.757  1.00  0.00     0.030 C 
HETATM   41  C19 UNL     1      16.469  -0.081   9.876  1.00  0.00     0.007 C 
ENDBRANCH  23  40
BRANCH  28  42
HETATM   42  C23 UNL     1      16.955  -0.751  16.607  1.00  0.00     0.038 C 
BRANCH  42  43
HETATM   43  C24 UNL     1      18.110  -0.456  17.514  1.00  0.00    -0.020 C 
HETATM   44  C25 UNL     1      17.568   0.071  18.854  1.00  0.00     0.009 C 
HETATM   45  C26 UNL     1      18.692  -1.840  17.892  1.00  0.00     0.009 C 
ENDBRANCH  42  43
ENDBRANCH  28  42
BRANCH  30  46
HETATM   46  O5  UNL     1      19.116   2.550  15.465  1.00  0.00    -0.348 OA
ATOM     47  H5  UNL     1      19.424   3.449  15.465  1.00  0.00     0.219 HD
ENDBRANCH  30  46
BRANCH  32  48
HETATM   48  C29 UNL     1      18.433   2.880  17.980  1.00  0.00     0.029 C 
HETATM   49  C30 UNL     1      17.980   3.635  19.187  1.00  0.00     0.007 C 
ENDBRANCH  32  48
BRANCH  34  50
HETATM   50  O6  UNL     1      19.424   5.708  15.320  1.00  0.00    -0.348 OA
ATOM     51  H6  UNL     1      19.574   6.208  16.115  1.00  0.00     0.219 HD
ENDBRANCH  34  50
ENDBRANCH  10  13
ENDBRANCH   8   9
ENDBRANCH   5   8
ENDBRANCH   4   5
ENDBRANCH   3   4
TORSDOF 14
ENDMDL
MODEL 5
REMARK VINA RESULT: -6.650004124      2.378      8.984
REMARK  14 active torsions:
REMARK  status: ('A' for Active; 'I' for Inactive)
REMARK    1  A    between atoms: C3_3  and  C4_4 
REMARK    2  A    between atoms: C4_4  and  N1_5 
REMARK    3  A    between atoms: N1_5  and  C7_8 
REMARK    4  A    between atoms: C7_8  and  N2_9 
REMARK       I    between atoms: N2_9  and  C8_11 
REMARK    5  A    between atoms: C8_11  and  C9_13 
REMARK    6  A    between atoms: C11_18  and  C12_19 
REMARK    7  A    between atoms: C12_19  and  C13_20 
REMARK    8  A    between atoms: C13_20  and  C14_21 
REMARK    9  A    between atoms: C17_27  and  C18_28 
REMARK   10  A    between atoms: C22_34  and  C23_35 
REMARK   11  A    between atoms: C23_35  and  C24_36 
REMARK   12  A    between atoms: C27_41  and  O5_42 
REMARK   13  A    between atoms: C28_44  and  C29_45 
REMARK   14  A    between atoms: C31_49  and  O6_50 
ROOT
HETATM    1  C1  UNL     1      20.026  -5.216  10.232  1.00  0.00     0.112 C 
HETATM    2  C2  UNL     1      19.535  -3.839  10.282  1.00  0.00    -0.109 C 
HETATM    3  C3  UNL     1      19.136  -2.705  10.320  1.00  0.00    -0.079 C 
ENDROOT
BRANCH   3   4
HETATM    4  C4  UNL     1      18.652  -1.306  10.341  1.00  0.00     0.331 C 
BRANCH   4   5
HETATM    5  N1  UNL     1      18.270  -0.894   9.017  1.00  0.00    -0.049 N 
HETATM    6  C5  UNL     1      19.406  -0.909   8.144  1.00  0.00     0.275 C 
HETATM    7  C6  UNL     1      17.829   0.506   9.135  1.00  0.00     0.275 C 
BRANCH   5   8
HETATM    8  C7  UNL     1      17.210  -1.715   8.470  1.00  0.00     0.362 C 
BRANCH   8   9
HETATM    9  N2  UNL     1      17.698  -2.481   7.349  1.00  0.00    -0.335 N 
HETATM   10  C8  UNL     1      17.459  -3.872   7.203  1.00  0.00     0.249 C 
HETATM   11  O1  UNL     1      16.807  -4.483   8.062  1.00  0.00    -0.271 OA
ATOM     12  H2  UNL     1      18.238  -2.002   6.629  1.00  0.00     0.164 HD
BRANCH  10  13
HETATM   13  C9  UNL     1      17.986  -4.636   6.014  1.00  0.00     0.251 C 
HETATM   14  N3  UNL     1      16.878  -5.200   5.358  1.00  0.00    -0.339 N 
HETATM   15  C10 UNL     1      16.505  -5.182   3.990  1.00  0.00     0.241 C 
ATOM     16  H3  UNL     1      16.236  -5.705   5.967  1.00  0.00     0.163 HD
HETATM   17  O2  UNL     1      15.268  -5.052   3.755  1.00  0.00    -0.271 OA
HETATM   18  C11 UNL     1      17.409  -5.298   2.851  1.00  0.00     0.176 C 
HETATM   19  N4  UNL     1      17.372  -6.481   2.062  1.00  0.00    -0.346 N 
HETATM   20  C16 UNL     1      16.371  -7.299   1.576  1.00  0.00     0.241 C 
ATOM     21  H4  UNL     1      18.302  -6.800   1.792  1.00  0.00     0.163 HD
HETATM   22  O3  UNL     1      16.223  -7.306   0.287  1.00  0.00    -0.271 OA
HETATM   23  C17 UNL     1      15.403  -8.197   2.245  1.00  0.00     0.178 C 
HETATM   24  N5  UNL     1      15.904  -9.576   2.294  1.00  0.00    -0.341 N 
HETATM   25  C20 UNL     1      15.606 -10.389   1.096  1.00  0.00     0.153 C 
HETATM   26  C21 UNL     1      16.611 -10.215   3.285  1.00  0.00     0.243 C 
HETATM   27  O4  UNL     1      17.534 -11.030   2.954  1.00  0.00    -0.271 OA
HETATM   28  C22 UNL     1      16.447 -10.086   4.797  1.00  0.00     0.176 C 
HETATM   29  N6  UNL     1      16.985  -8.831   5.217  1.00  0.00    -0.359 N 
HETATM   30  C27 UNL     1      18.165  -8.292   5.666  1.00  0.00     0.135 C 
ATOM     31  H6  UNL     1      16.267  -8.108   5.166  1.00  0.00     0.162 HD
HETATM   32  C28 UNL     1      18.744  -8.029   7.006  1.00  0.00     0.157 C 
HETATM   33  N7  UNL     1      19.200  -6.652   7.157  1.00  0.00    -0.360 N 
HETATM   34  C31 UNL     1      19.112  -5.519   6.394  1.00  0.00     0.144 C 
ATOM     35  H7  UNL     1      19.701  -6.497   8.032  1.00  0.00     0.162 HD
BRANCH  18  36
HETATM   36  C12 UNL     1      17.333  -4.010   2.001  1.00  0.00     0.035 C 
BRANCH  36  37
HETATM   37  C13 UNL     1      17.344  -2.853   2.953  1.00  0.00     0.002 C 
BRANCH  37  38
HETATM   38  C14 UNL     1      18.766  -2.382   3.251  1.00  0.00    -0.004 C 
HETATM   39  C15 UNL     1      18.660  -0.960   3.757  1.00  0.00     0.005 C 
ENDBRANCH  37  38
ENDBRANCH  36  37
ENDBRANCH  18  36
BRANCH  23  40
HETATM   40  C18 UNL     1      14.147  -8.221   1.342  1.00  0.00     0.030 C 
HETATM   41  C19 UNL     1      13.077  -7.302   1.822  1.00  0.00     0.007 C 
ENDBRANCH  23  40
BRANCH  28  42
HETATM   42  C23 UNL     1      16.940 -11.314   5.473  1.00  0.00     0.038 C 
BRANCH  42  43
HETATM   43  C24 UNL     1      16.539 -11.496   6.904  1.00  0.00    -0.020 C 
HETATM   44  C25 UNL     1      15.009 -11.647   6.976  1.00  0.00     0.009 C 
HETATM   45  C26 UNL     1      17.049 -12.905   7.293  1.00  0.00     0.009 C 
ENDBRANCH  42  43
ENDBRANCH  28  42
BRANCH  30  46
HETATM   46  O5  UNL     1      19.077  -7.870   4.814  1.00  0.00    -0.348 OA
ATOM     47  H5  UNL     1      19.998  -7.885   5.045  1.00  0.00     0.219 HD
ENDBRANCH  30  46
BRANCH  32  48
HETATM   48  C29 UNL     1      19.992  -8.961   7.022  1.00  0.00     0.029 C 
HETATM   49  C30 UNL     1      20.984  -8.376   7.974  1.00  0.00     0.007 C 
ENDBRANCH  32  48
BRANCH  34  50
HETATM   50  O6  UNL     1      20.252  -5.124   5.896  1.00  0.00    -0.348 OA
ATOM     51  H6  UNL     1      20.147  -4.561   5.138  1.00  0.00     0.219 HD
ENDBRANCH  34  50
ENDBRANCH  10  13
ENDBRANCH   8   9
ENDBRANCH   5   8
ENDBRANCH   4   5
ENDBRANCH   3   4
TORSDOF 14
ENDMDL
