MODEL 1
REMARK VINA RESULT: -8.053535259      0.000      0.000
REMARK  17 active torsions:
REMARK  status: ('A' for Active; 'I' for Inactive)
REMARK    1  A    between atoms: C2_2  and  C3_3 
REMARK    2  A    between atoms: C3_3  and  C4_4 
REMARK    3  A    between atoms: C4_4  and  C5_5 
REMARK    4  A    between atoms: C5_5  and  C6_6 
REMARK    5  A    between atoms: C7_9  and  C8_10 
REMARK    6  A    between atoms: C8_10  and  C9_11 
REMARK    7  A    between atoms: C9_11  and  O1_13 
REMARK    8  A    between atoms: C12_19  and  C13_20 
REMARK    9  A    between atoms: C13_20  and  C14_21 
REMARK   10  A    between atoms: C14_21  and  C15_22 
REMARK   11  A    between atoms: C15_22  and  N3_23 
REMARK       I    between atoms: N7_34  and  C20_35 
REMARK   12  A    between atoms: C20_35  and  C21_37 
REMARK   13  A    between atoms: C21_37  and  C22_38 
REMARK   14  A    between atoms: C22_38  and  C23_39 
REMARK   15  A    between atoms: C23_39  and  C24_40 
REMARK   16  A    between atoms: C24_40  and  C25_41 
REMARK   17  A    between atoms: C25_41  and  N8_42 
ROOT
HETATM    1  C6  UNL     1       1.107   9.802  42.584  1.00  0.00     0.090 C 
HETATM    2  N1  UNL     1      -0.204   9.800  42.519  1.00  0.00    -0.366 N 
ATOM      3  H1  UNL     1      -0.533  10.423  41.781  1.00  0.00     0.161 HD
HETATM    4  C7  UNL     1      -1.297   9.178  43.182  1.00  0.00     0.177 C 
HETATM    5  C11 UNL     1      -1.252   9.451  44.664  1.00  0.00     0.241 C 
HETATM    6  O2  UNL     1      -2.315   9.942  45.110  1.00  0.00    -0.271 OA
HETATM    7  N2  UNL     1      -0.230   9.253  45.629  1.00  0.00    -0.346 N 
ATOM      8  H2  UNL     1      -0.350   9.891  46.415  1.00  0.00     0.163 HD
HETATM    9  C12 UNL     1       0.936   8.407  45.827  1.00  0.00     0.177 C 
HETATM   10  C17 UNL     1       1.888   8.480  44.731  1.00  0.00     0.245 C 
HETATM   11  O3  UNL     1       2.968   7.882  44.966  1.00  0.00    -0.271 OA
HETATM   12  N6  UNL     1       1.938   9.054  43.441  1.00  0.00    -0.314 N 
ATOM     13  H6  UNL     1       2.841   8.874  43.002  1.00  0.00     0.170 HD
ENDROOT
BRANCH   1  14
HETATM   14  C5  UNL     1       1.717  10.684  41.608  1.00  0.00     0.036 C 
HETATM   15  C18 UNL     1       0.701  11.802  41.290  1.00  0.00     0.039 C 
HETATM   16  C19 UNL     1       1.223  12.314  39.982  1.00  0.00     0.127 C 
HETATM   17  N7  UNL     1       1.896  11.187  39.355  1.00  0.00    -0.351 N 
HETATM   18  C20 UNL     1       2.424  11.289  38.039  1.00  0.00     0.219 C 
HETATM   19  C27 UNL     1       1.896  10.056  40.249  1.00  0.00     0.143 C 
HETATM   20  O4  UNL     1       3.000  10.281  37.562  1.00  0.00    -0.273 OA
BRANCH  14  21
HETATM   21  C4  UNL     1       2.972  11.379  42.035  1.00  0.00     0.019 C 
BRANCH  21  22
HETATM   22  C3  UNL     1       4.256  10.854  41.539  1.00  0.00     0.001 C 
BRANCH  22  23
HETATM   23  C2  UNL     1       4.982  11.985  40.766  1.00  0.00    -0.005 C 
HETATM   24  C1  UNL     1       5.726  11.386  39.592  1.00  0.00     0.005 C 
ENDBRANCH  22  23
ENDBRANCH  21  22
ENDBRANCH  14  21
BRANCH  18  25
HETATM   25  C21 UNL     1       2.334  12.501  37.212  1.00  0.00     0.103 C 
BRANCH  25  26
HETATM   26  C22 UNL     1       3.415  13.518  37.583  1.00  0.00     0.009 C 
BRANCH  26  27
HETATM   27  C23 UNL     1       4.315  13.612  36.381  1.00  0.00     0.002 C 
BRANCH  27  28
HETATM   28  C24 UNL     1       4.174  14.861  35.587  1.00  0.00     0.020 C 
BRANCH  28  29
HETATM   29  C25 UNL     1       5.425  15.379  34.960  1.00  0.00     0.122 C 
BRANCH  29  30
HETATM   30  N8  UNL     1       6.332  15.719  36.040  1.00  0.00    -0.367 N 
HETATM   31  C26 UNL     1       7.565  15.373  36.067  1.00  0.00     0.196 C 
HETATM   32  N9  UNL     1       8.098  14.618  35.002  1.00  0.00    -0.067 NA
HETATM   33  N10 UNL     1       8.397  15.737  37.148  1.00  0.00    -0.067 NA
ATOM     34  H8  UNL     1       5.967  16.265  36.820  1.00  0.00     0.161 HD
ENDBRANCH  29  30
ENDBRANCH  28  29
ENDBRANCH  27  28
ENDBRANCH  26  27
ENDBRANCH  25  26
ENDBRANCH  18  25
ENDBRANCH   1  14
BRANCH   4  35
HETATM   35  C8  UNL     1      -1.559   7.778  42.882  1.00  0.00     0.066 C 
BRANCH  35  36
HETATM   36  C9  UNL     1      -2.947   7.340  42.589  1.00  0.00     0.116 C 
HETATM   37  C10 UNL     1      -3.120   6.473  41.385  1.00  0.00     0.039 C 
BRANCH  36  38
HETATM   38  O1  UNL     1      -3.519   6.681  43.713  1.00  0.00    -0.396 OA
ATOM     39  H1  UNL     1      -4.458   6.821  43.745  1.00  0.00     0.210 HD
ENDBRANCH  36  38
ENDBRANCH  35  36
ENDBRANCH   4  35
BRANCH   9  40
HETATM   40  C13 UNL     1       0.482   7.048  46.235  1.00  0.00     0.036 C 
BRANCH  40  41
HETATM   41  C14 UNL     1       0.312   6.044  45.147  1.00  0.00     0.022 C 
BRANCH  41  42
HETATM   42  C15 UNL     1      -0.581   4.936  45.745  1.00  0.00     0.122 C 
BRANCH  42  43
HETATM   43  N3  UNL     1      -1.726   4.672  44.933  1.00  0.00    -0.367 N 
HETATM   44  C16 UNL     1      -1.871   3.637  44.190  1.00  0.00     0.196 C 
HETATM   45  N4  UNL     1      -0.908   2.599  44.067  1.00  0.00    -0.067 NA
HETATM   46  N5  UNL     1      -3.072   3.516  43.440  1.00  0.00    -0.067 NA
ATOM     47  H3  UNL     1      -2.483   5.356  44.944  1.00  0.00     0.161 HD
ENDBRANCH  42  43
ENDBRANCH  41  42
ENDBRANCH  40  41
ENDBRANCH   9  40
TORSDOF 17
ENDMDL
MODEL 2
REMARK VINA RESULT: -8.018872971      1.053      1.231
REMARK  17 active torsions:
REMARK  status: ('A' for Active; 'I' for Inactive)
REMARK    1  A    between atoms: C2_2  and  C3_3 
REMARK    2  A    between atoms: C3_3  and  C4_4 
REMARK    3  A    between atoms: C4_4  and  C5_5 
REMARK    4  A    between atoms: C5_5  and  C6_6 
REMARK    5  A    between atoms: C7_9  and  C8_10 
REMARK    6  A    between atoms: C8_10  and  C9_11 
REMARK    7  A    between atoms: C9_11  and  O1_13 
REMARK    8  A    between atoms: C12_19  and  C13_20 
REMARK    9  A    between atoms: C13_20  and  C14_21 
REMARK   10  A    between atoms: C14_21  and  C15_22 
REMARK   11  A    between atoms: C15_22  and  N3_23 
REMARK       I    between atoms: N7_34  and  C20_35 
REMARK   12  A    between atoms: C20_35  and  C21_37 
REMARK   13  A    between atoms: C21_37  and  C22_38 
REMARK   14  A    between atoms: C22_38  and  C23_39 
REMARK   15  A    between atoms: C23_39  and  C24_40 
REMARK   16  A    between atoms: C24_40  and  C25_41 
REMARK   17  A    between atoms: C25_41  and  N8_42 
ROOT
HETATM    1  C6  UNL     1       1.657  10.149  42.133  1.00  0.00     0.090 C 
HETATM    2  N1  UNL     1       0.359  10.291  42.251  1.00  0.00    -0.366 N 
ATOM      3  H1  UNL     1       0.018  11.039  41.646  1.00  0.00     0.161 HD
HETATM    4  C7  UNL     1      -0.711   9.703  42.979  1.00  0.00     0.177 C 
HETATM    5  C11 UNL     1      -0.450   9.767  44.463  1.00  0.00     0.241 C 
HETATM    6  O2  UNL     1      -1.382  10.302  45.107  1.00  0.00    -0.271 OA
HETATM    7  N2  UNL     1       0.652   9.335  45.246  1.00  0.00    -0.346 N 
ATOM      8  H2  UNL     1       0.709   9.871  46.112  1.00  0.00     0.163 HD
HETATM    9  C12 UNL     1       1.723   8.355  45.178  1.00  0.00     0.177 C 
HETATM   10  C17 UNL     1       2.533   8.475  43.977  1.00  0.00     0.245 C 
HETATM   11  O3  UNL     1       3.554   7.742  43.987  1.00  0.00    -0.271 OA
HETATM   12  N6  UNL     1       2.492   9.209  42.771  1.00  0.00    -0.314 N 
ATOM     13  H6  UNL     1       3.305   8.997  42.193  1.00  0.00     0.170 HD
ENDROOT
BRANCH   1  14
HETATM   14  C5  UNL     1       2.244  11.085  41.195  1.00  0.00     0.036 C 
HETATM   15  C18 UNL     1       1.273  12.279  41.060  1.00  0.00     0.039 C 
HETATM   16  C19 UNL     1       1.726  12.884  39.766  1.00  0.00     0.127 C 
HETATM   17  N7  UNL     1       2.284  11.787  38.989  1.00  0.00    -0.351 N 
HETATM   18  C20 UNL     1       2.718  11.985  37.650  1.00  0.00     0.219 C 
HETATM   19  C27 UNL     1       2.284  10.579  39.775  1.00  0.00     0.143 C 
HETATM   20  O4  UNL     1       3.197  10.998  37.040  1.00  0.00    -0.273 OA
BRANCH  14  21
HETATM   21  C4  UNL     1       3.565  11.672  41.581  1.00  0.00     0.019 C 
BRANCH  21  22
HETATM   22  C3  UNL     1       4.781  11.088  40.988  1.00  0.00     0.001 C 
BRANCH  22  23
HETATM   23  C2  UNL     1       5.522  12.198  40.199  1.00  0.00    -0.005 C 
HETATM   24  C1  UNL     1       6.202  11.581  38.995  1.00  0.00     0.005 C 
ENDBRANCH  22  23
ENDBRANCH  21  22
ENDBRANCH  14  21
BRANCH  18  25
HETATM   25  C21 UNL     1       2.638  13.273  36.944  1.00  0.00     0.103 C 
BRANCH  25  26
HETATM   26  C22 UNL     1       2.496  13.080  35.434  1.00  0.00     0.009 C 
BRANCH  26  27
HETATM   27  C23 UNL     1       3.174  14.267  34.807  1.00  0.00     0.002 C 
BRANCH  27  28
HETATM   28  C24 UNL     1       4.227  14.902  35.642  1.00  0.00     0.020 C 
BRANCH  28  29
HETATM   29  C25 UNL     1       5.357  15.532  34.899  1.00  0.00     0.122 C 
BRANCH  29  30
HETATM   30  N8  UNL     1       6.359  15.901  35.880  1.00  0.00    -0.367 N 
HETATM   31  C26 UNL     1       7.461  15.268  36.042  1.00  0.00     0.196 C 
HETATM   32  N9  UNL     1       7.743  14.147  35.235  1.00  0.00    -0.067 NA
HETATM   33  N10 UNL     1       8.397  15.678  37.016  1.00  0.00    -0.067 NA
ATOM     34  H8  UNL     1       6.176  16.709  36.475  1.00  0.00     0.161 HD
ENDBRANCH  29  30
ENDBRANCH  28  29
ENDBRANCH  27  28
ENDBRANCH  26  27
ENDBRANCH  25  26
ENDBRANCH  18  25
ENDBRANCH   1  14
BRANCH   4  35
HETATM   35  C8  UNL     1      -1.176   8.390  42.554  1.00  0.00     0.066 C 
BRANCH  35  36
HETATM   36  C9  UNL     1      -1.910   7.527  43.513  1.00  0.00     0.116 C 
HETATM   37  C10 UNL     1      -3.399   7.656  43.503  1.00  0.00     0.039 C 
BRANCH  36  38
HETATM   38  O1  UNL     1      -1.568   6.159  43.328  1.00  0.00    -0.396 OA
ATOM     39  H1  UNL     1      -2.020   5.609  43.958  1.00  0.00     0.210 HD
ENDBRANCH  36  38
ENDBRANCH  35  36
ENDBRANCH   4  35
BRANCH   9  40
HETATM   40  C13 UNL     1       1.162   7.007  45.479  1.00  0.00     0.036 C 
BRANCH  40  41
HETATM   41  C14 UNL     1       0.207   6.920  46.619  1.00  0.00     0.022 C 
BRANCH  41  42
HETATM   42  C15 UNL     1      -0.051   5.412  46.825  1.00  0.00     0.122 C 
BRANCH  42  43
HETATM   43  N3  UNL     1      -0.427   4.761  45.611  1.00  0.00    -0.367 N 
HETATM   44  C16 UNL     1      -0.734   3.519  45.513  1.00  0.00     0.196 C 
HETATM   45  N4  UNL     1      -0.745   2.609  46.605  1.00  0.00    -0.067 NA
HETATM   46  N5  UNL     1      -1.090   3.018  44.232  1.00  0.00    -0.067 NA
ATOM     47  H3  UNL     1      -0.453   5.323  44.760  1.00  0.00     0.161 HD
ENDBRANCH  42  43
ENDBRANCH  41  42
ENDBRANCH  40  41
ENDBRANCH   9  40
TORSDOF 17
ENDMDL
MODEL 3
REMARK VINA RESULT: -8.011558382      1.239      1.564
REMARK  17 active torsions:
REMARK  status: ('A' for Active; 'I' for Inactive)
REMARK    1  A    between atoms: C2_2  and  C3_3 
REMARK    2  A    between atoms: C3_3  and  C4_4 
REMARK    3  A    between atoms: C4_4  and  C5_5 
REMARK    4  A    between atoms: C5_5  and  C6_6 
REMARK    5  A    between atoms: C7_9  and  C8_10 
REMARK    6  A    between atoms: C8_10  and  C9_11 
REMARK    7  A    between atoms: C9_11  and  O1_13 
REMARK    8  A    between atoms: C12_19  and  C13_20 
REMARK    9  A    between atoms: C13_20  and  C14_21 
REMARK   10  A    between atoms: C14_21  and  C15_22 
REMARK   11  A    between atoms: C15_22  and  N3_23 
REMARK       I    between atoms: N7_34  and  C20_35 
REMARK   12  A    between atoms: C20_35  and  C21_37 
REMARK   13  A    between atoms: C21_37  and  C22_38 
REMARK   14  A    between atoms: C22_38  and  C23_39 
REMARK   15  A    between atoms: C23_39  and  C24_40 
REMARK   16  A    between atoms: C24_40  and  C25_41 
REMARK   17  A    between atoms: C25_41  and  N8_42 
ROOT
HETATM    1  C6  UNL     1       0.887   9.804  42.661  1.00  0.00     0.090 C 
HETATM    2  N1  UNL     1      -0.424   9.809  42.608  1.00  0.00    -0.366 N 
ATOM      3  H1  UNL     1      -0.756  10.452  41.888  1.00  0.00     0.161 HD
HETATM    4  C7  UNL     1      -1.514   9.176  43.264  1.00  0.00     0.177 C 
HETATM    5  C11 UNL     1      -1.456   9.411  44.752  1.00  0.00     0.241 C 
HETATM    6  O2  UNL     1      -2.513   9.897  45.219  1.00  0.00    -0.271 OA
HETATM    7  N2  UNL     1      -0.427   9.185  45.703  1.00  0.00    -0.346 N 
ATOM      8  H2  UNL     1      -0.537   9.804  46.506  1.00  0.00     0.163 HD
HETATM    9  C12 UNL     1       0.737   8.329  45.870  1.00  0.00     0.177 C 
HETATM   10  C17 UNL     1       1.679   8.425  44.768  1.00  0.00     0.245 C 
HETATM   11  O3  UNL     1       2.759   7.816  44.979  1.00  0.00    -0.271 OA
HETATM   12  N6  UNL     1       1.722   9.031  43.493  1.00  0.00    -0.314 N 
ATOM     13  H6  UNL     1       2.620   8.857  43.042  1.00  0.00     0.170 HD
ENDROOT
BRANCH   1  14
HETATM   14  C5  UNL     1       1.494  10.706  41.703  1.00  0.00     0.036 C 
HETATM   15  C18 UNL     1       0.439  11.773  41.334  1.00  0.00     0.039 C 
HETATM   16  C19 UNL     1       0.988  12.300  40.044  1.00  0.00     0.127 C 
HETATM   17  N7  UNL     1       1.738  11.201  39.454  1.00  0.00    -0.351 N 
HETATM   18  C20 UNL     1       2.314  11.319  38.159  1.00  0.00     0.219 C 
HETATM   19  C27 UNL     1       1.756  10.078  40.357  1.00  0.00     0.143 C 
HETATM   20  O4  UNL     1       2.955  10.336  37.714  1.00  0.00    -0.273 OA
BRANCH  14  21
HETATM   21  C4  UNL     1       2.696  11.463  42.173  1.00  0.00     0.019 C 
BRANCH  21  22
HETATM   22  C3  UNL     1       4.025  10.959  41.787  1.00  0.00     0.001 C 
BRANCH  22  23
HETATM   23  C2  UNL     1       4.881  10.800  43.070  1.00  0.00    -0.005 C 
HETATM   24  C1  UNL     1       5.199   9.335  43.275  1.00  0.00     0.005 C 
ENDBRANCH  22  23
ENDBRANCH  21  22
ENDBRANCH  14  21
BRANCH  18  25
HETATM   25  C21 UNL     1       2.200  12.520  37.319  1.00  0.00     0.103 C 
BRANCH  25  26
HETATM   26  C22 UNL     1       3.096  12.429  36.083  1.00  0.00     0.009 C 
BRANCH  26  27
HETATM   27  C23 UNL     1       3.256  13.843  35.593  1.00  0.00     0.002 C 
BRANCH  27  28
HETATM   28  C24 UNL     1       4.514  14.514  36.014  1.00  0.00     0.020 C 
BRANCH  28  29
HETATM   29  C25 UNL     1       5.634  13.610  36.410  1.00  0.00     0.122 C 
BRANCH  29  30
HETATM   30  N8  UNL     1       5.944  13.900  37.796  1.00  0.00    -0.367 N 
HETATM   31  C26 UNL     1       6.143  12.998  38.683  1.00  0.00     0.196 C 
HETATM   32  N9  UNL     1       6.061  11.637  38.320  1.00  0.00    -0.067 NA
HETATM   33  N10 UNL     1       6.444  13.345  40.018  1.00  0.00    -0.067 NA
ATOM     34  H8  UNL     1       6.008  14.877  38.081  1.00  0.00     0.161 HD
ENDBRANCH  29  30
ENDBRANCH  28  29
ENDBRANCH  27  28
ENDBRANCH  26  27
ENDBRANCH  25  26
ENDBRANCH  18  25
ENDBRANCH   1  14
BRANCH   4  35
HETATM   35  C8  UNL     1      -1.786   7.785  42.932  1.00  0.00     0.066 C 
BRANCH  35  36
HETATM   36  C9  UNL     1      -3.184   7.352  42.682  1.00  0.00     0.116 C 
HETATM   37  C10 UNL     1      -3.404   6.518  41.462  1.00  0.00     0.039 C 
BRANCH  36  38
HETATM   38  O1  UNL     1      -3.710   6.660  43.809  1.00  0.00    -0.396 OA
ATOM     39  H1  UNL     1      -4.615   6.904  43.964  1.00  0.00     0.210 HD
ENDBRANCH  36  38
ENDBRANCH  35  36
ENDBRANCH   4  35
BRANCH   9  40
HETATM   40  C13 UNL     1       0.279   6.962  46.248  1.00  0.00     0.036 C 
BRANCH  40  41
HETATM   41  C14 UNL     1       0.094   5.987  45.137  1.00  0.00     0.022 C 
BRANCH  41  42
HETATM   42  C15 UNL     1      -0.798   4.868  45.715  1.00  0.00     0.122 C 
BRANCH  42  43
HETATM   43  N3  UNL     1      -1.929   4.601  44.885  1.00  0.00    -0.367 N 
HETATM   44  C16 UNL     1      -2.037   3.591  44.101  1.00  0.00     0.196 C 
HETATM   45  N4  UNL     1      -1.041   2.588  43.947  1.00  0.00    -0.067 NA
HETATM   46  N5  UNL     1      -3.229   3.461  43.339  1.00  0.00    -0.067 NA
ATOM     47  H3  UNL     1      -2.707   5.260  44.917  1.00  0.00     0.161 HD
ENDBRANCH  42  43
ENDBRANCH  41  42
ENDBRANCH  40  41
ENDBRANCH   9  40
TORSDOF 17
ENDMDL
MODEL 4
REMARK VINA RESULT: -7.905153463      3.720     12.124
REMARK  17 active torsions:
REMARK  status: ('A' for Active; 'I' for Inactive)
REMARK    1  A    between atoms: C2_2  and  C3_3 
REMARK    2  A    between atoms: C3_3  and  C4_4 
REMARK    3  A    between atoms: C4_4  and  C5_5 
REMARK    4  A    between atoms: C5_5  and  C6_6 
REMARK    5  A    between atoms: C7_9  and  C8_10 
REMARK    6  A    between atoms: C8_10  and  C9_11 
REMARK    7  A    between atoms: C9_11  and  O1_13 
REMARK    8  A    between atoms: C12_19  and  C13_20 
REMARK    9  A    between atoms: C13_20  and  C14_21 
REMARK   10  A    between atoms: C14_21  and  C15_22 
REMARK   11  A    between atoms: C15_22  and  N3_23 
REMARK       I    between atoms: N7_34  and  C20_35 
REMARK   12  A    between atoms: C20_35  and  C21_37 
REMARK   13  A    between atoms: C21_37  and  C22_38 
REMARK   14  A    between atoms: C22_38  and  C23_39 
REMARK   15  A    between atoms: C23_39  and  C24_40 
REMARK   16  A    between atoms: C24_40  and  C25_41 
REMARK   17  A    between atoms: C25_41  and  N8_42 
ROOT
HETATM    1  C6  UNL     1       4.947  13.208  36.808  1.00  0.00     0.090 C 
HETATM    2  N1  UNL     1       6.245  13.332  36.957  1.00  0.00    -0.366 N 
ATOM      3  H1  UNL     1       6.564  12.839  37.791  1.00  0.00     0.161 HD
HETATM    4  C7  UNL     1       7.334  13.955  36.289  1.00  0.00     0.177 C 
HETATM    5  C11 UNL     1       7.091  15.435  36.132  1.00  0.00     0.241 C 
HETATM    6  O2  UNL     1       8.023  16.141  36.585  1.00  0.00    -0.271 OA
HETATM    7  N2  UNL     1       6.008  16.158  35.569  1.00  0.00    -0.346 N 
ATOM      8  H2  UNL     1       5.953  17.094  35.972  1.00  0.00     0.163 HD
HETATM    9  C12 UNL     1       4.953  15.959  34.588  1.00  0.00     0.177 C 
HETATM   10  C17 UNL     1       4.126  14.797  34.867  1.00  0.00     0.245 C 
HETATM   11  O3  UNL     1       3.118  14.711  34.120  1.00  0.00    -0.271 OA
HETATM   12  N6  UNL     1       4.138  13.711  35.770  1.00  0.00    -0.314 N 
ATOM     13  H6  UNL     1       3.321  13.117  35.628  1.00  0.00     0.170 HD
ENDROOT
BRANCH   1  14
HETATM   14  C5  UNL     1       4.332  12.423  37.860  1.00  0.00     0.036 C 
HETATM   15  C18 UNL     1       3.176  11.618  37.225  1.00  0.00     0.039 C 
HETATM   16  C19 UNL     1       2.360  11.269  38.432  1.00  0.00     0.127 C 
HETATM   17  N7  UNL     1       2.600  12.334  39.394  1.00  0.00    -0.351 N 
HETATM   18  C20 UNL     1       1.894  12.379  40.628  1.00  0.00     0.219 C 
HETATM   19  C27 UNL     1       3.587  13.249  38.878  1.00  0.00     0.143 C 
HETATM   20  O4  UNL     1       2.156  13.321  41.415  1.00  0.00    -0.273 OA
BRANCH  14  21
HETATM   21  C4  UNL     1       5.209  11.419  38.538  1.00  0.00     0.019 C 
BRANCH  21  22
HETATM   22  C3  UNL     1       5.765  11.766  39.857  1.00  0.00     0.001 C 
BRANCH  22  23
HETATM   23  C2  UNL     1       7.210  12.291  39.656  1.00  0.00    -0.005 C 
HETATM   24  C1  UNL     1       7.266  13.751  40.052  1.00  0.00     0.005 C 
ENDBRANCH  22  23
ENDBRANCH  21  22
ENDBRANCH  14  21
BRANCH  18  25
HETATM   25  C21 UNL     1       0.882  11.392  41.029  1.00  0.00     0.103 C 
BRANCH  25  26
HETATM   26  C22 UNL     1       1.335  10.582  42.245  1.00  0.00     0.009 C 
BRANCH  26  27
HETATM   27  C23 UNL     1       2.404   9.652  41.739  1.00  0.00     0.002 C 
BRANCH  27  28
HETATM   28  C24 UNL     1       3.658   9.644  42.537  1.00  0.00     0.020 C 
BRANCH  28  29
HETATM   29  C25 UNL     1       3.876   8.443  43.395  1.00  0.00     0.122 C 
BRANCH  29  30
HETATM   30  N8  UNL     1       2.668   8.253  44.175  1.00  0.00    -0.367 N 
HETATM   31  C26 UNL     1       2.530   8.661  45.381  1.00  0.00     0.196 C 
HETATM   32  N9  UNL     1       3.596   9.336  46.012  1.00  0.00    -0.067 NA
HETATM   33  N10 UNL     1       1.327   8.445  46.088  1.00  0.00    -0.067 NA
ATOM     34  H8  UNL     1       1.885   7.767  43.739  1.00  0.00     0.161 HD
ENDBRANCH  29  30
ENDBRANCH  28  29
ENDBRANCH  27  28
ENDBRANCH  26  27
ENDBRANCH  25  26
ENDBRANCH  18  25
ENDBRANCH   1  14
BRANCH   4  35
HETATM   35  C8  UNL     1       7.817  13.338  35.062  1.00  0.00     0.066 C 
BRANCH  35  36
HETATM   36  C9  UNL     1       8.691  12.140  35.141  1.00  0.00     0.116 C 
HETATM   37  C10 UNL     1      10.145  12.405  35.357  1.00  0.00     0.039 C 
BRANCH  36  38
HETATM   38  O1  UNL     1       8.234  11.245  36.148  1.00  0.00    -0.396 OA
ATOM     39  H1  UNL     1       8.760  10.453  36.160  1.00  0.00     0.210 HD
ENDBRANCH  36  38
ENDBRANCH  35  36
ENDBRANCH   4  35
BRANCH   9  40
HETATM   40  C13 UNL     1       5.542  16.055  33.223  1.00  0.00     0.036 C 
BRANCH  40  41
HETATM   41  C14 UNL     1       6.010  14.782  32.605  1.00  0.00     0.022 C 
BRANCH  41  42
HETATM   42  C15 UNL     1       7.244  15.164  31.760  1.00  0.00     0.122 C 
BRANCH  42  43
HETATM   43  N3  UNL     1       6.878  15.756  30.513  1.00  0.00    -0.367 N 
HETATM   44  C16 UNL     1       6.863  15.140  29.388  1.00  0.00     0.196 C 
HETATM   45  N4  UNL     1       7.212  13.773  29.220  1.00  0.00    -0.067 NA
HETATM   46  N5  UNL     1       6.472  15.869  28.232  1.00  0.00    -0.067 NA
ATOM     47  H3  UNL     1       6.608  16.740  30.517  1.00  0.00     0.161 HD
ENDBRANCH  42  43
ENDBRANCH  41  42
ENDBRANCH  40  41
ENDBRANCH   9  40
TORSDOF 17
ENDMDL
MODEL 5
REMARK VINA RESULT: -7.900808335      0.938      1.226
REMARK  17 active torsions:
REMARK  status: ('A' for Active; 'I' for Inactive)
REMARK    1  A    between atoms: C2_2  and  C3_3 
REMARK    2  A    between atoms: C3_3  and  C4_4 
REMARK    3  A    between atoms: C4_4  and  C5_5 
REMARK    4  A    between atoms: C5_5  and  C6_6 
REMARK    5  A    between atoms: C7_9  and  C8_10 
REMARK    6  A    between atoms: C8_10  and  C9_11 
REMARK    7  A    between atoms: C9_11  and  O1_13 
REMARK    8  A    between atoms: C12_19  and  C13_20 
REMARK    9  A    between atoms: C13_20  and  C14_21 
REMARK   10  A    between atoms: C14_21  and  C15_22 
REMARK   11  A    between atoms: C15_22  and  N3_23 
REMARK       I    between atoms: N7_34  and  C20_35 
REMARK   12  A    between atoms: C20_35  and  C21_37 
REMARK   13  A    between atoms: C21_37  and  C22_38 
REMARK   14  A    between atoms: C22_38  and  C23_39 
REMARK   15  A    between atoms: C23_39  and  C24_40 
REMARK   16  A    between atoms: C24_40  and  C25_41 
REMARK   17  A    between atoms: C25_41  and  N8_42 
ROOT
HETATM    1  C6  UNL     1       1.015   9.718  42.600  1.00  0.00     0.090 C 
HETATM    2  N1  UNL     1      -0.290   9.661  42.473  1.00  0.00    -0.366 N 
ATOM      3  H1  UNL     1      -0.609  10.270  41.719  1.00  0.00     0.161 HD
HETATM    4  C7  UNL     1      -1.386   8.993  43.084  1.00  0.00     0.177 C 
HETATM    5  C11 UNL     1      -1.424   9.267  44.566  1.00  0.00     0.241 C 
HETATM    6  O2  UNL     1      -2.527   9.714  44.960  1.00  0.00    -0.271 OA
HETATM    7  N2  UNL     1      -0.442   9.111  45.579  1.00  0.00    -0.346 N 
ATOM      8  H2  UNL     1      -0.626   9.744  46.357  1.00  0.00     0.163 HD
HETATM    9  C12 UNL     1       0.748   8.315  45.834  1.00  0.00     0.177 C 
HETATM   10  C17 UNL     1       1.746   8.428  44.784  1.00  0.00     0.245 C 
HETATM   11  O3  UNL     1       2.838   7.875  45.072  1.00  0.00    -0.271 OA
HETATM   12  N6  UNL     1       1.835   9.005  43.498  1.00  0.00    -0.314 N 
ATOM     13  H6  UNL     1       2.764   8.862  43.103  1.00  0.00     0.170 HD
ENDROOT
BRANCH   1  14
HETATM   14  C5  UNL     1       1.634  10.624  41.654  1.00  0.00     0.036 C 
HETATM   15  C18 UNL     1       0.612  11.739  41.338  1.00  0.00     0.039 C 
HETATM   16  C19 UNL     1       1.153  12.281  40.051  1.00  0.00     0.127 C 
HETATM   17  N7  UNL     1       1.849  11.173  39.414  1.00  0.00    -0.351 N 
HETATM   18  C20 UNL     1       2.401  11.307  38.111  1.00  0.00     0.219 C 
HETATM   19  C27 UNL     1       1.844  10.025  40.286  1.00  0.00     0.143 C 
HETATM   20  O4  UNL     1       2.995  10.314  37.625  1.00  0.00    -0.273 OA
BRANCH  14  21
HETATM   21  C4  UNL     1       2.873  11.323  42.117  1.00  0.00     0.019 C 
BRANCH  21  22
HETATM   22  C3  UNL     1       4.174  10.793  41.672  1.00  0.00     0.001 C 
BRANCH  22  23
HETATM   23  C2  UNL     1       4.944  11.929  40.950  1.00  0.00    -0.005 C 
HETATM   24  C1  UNL     1       5.623  11.363  39.721  1.00  0.00     0.005 C 
ENDBRANCH  22  23
ENDBRANCH  21  22
ENDBRANCH  14  21
BRANCH  18  25
HETATM   25  C21 UNL     1       2.313  12.534  37.306  1.00  0.00     0.103 C 
BRANCH  25  26
HETATM   26  C22 UNL     1       3.301  13.596  37.790  1.00  0.00     0.009 C 
BRANCH  26  27
HETATM   27  C23 UNL     1       4.379  13.657  36.741  1.00  0.00     0.002 C 
BRANCH  27  28
HETATM   28  C24 UNL     1       4.100  14.575  35.606  1.00  0.00     0.020 C 
BRANCH  28  29
HETATM   29  C25 UNL     1       5.280  15.293  35.044  1.00  0.00     0.122 C 
BRANCH  29  30
HETATM   30  N8  UNL     1       6.236  15.450  36.123  1.00  0.00    -0.367 N 
HETATM   31  C26 UNL     1       7.493  15.239  35.995  1.00  0.00     0.196 C 
HETATM   32  N9  UNL     1       8.005  14.829  34.746  1.00  0.00    -0.067 NA
HETATM   33  N10 UNL     1       8.373  15.411  37.085  1.00  0.00    -0.067 NA
ATOM     34  H8  UNL     1       5.888  15.746  37.035  1.00  0.00     0.161 HD
ENDBRANCH  29  30
ENDBRANCH  28  29
ENDBRANCH  27  28
ENDBRANCH  26  27
ENDBRANCH  25  26
ENDBRANCH  18  25
ENDBRANCH   1  14
BRANCH   4  35
HETATM   35  C8  UNL     1      -1.576   7.584  42.774  1.00  0.00     0.066 C 
BRANCH  35  36
HETATM   36  C9  UNL     1      -2.816   7.146  42.085  1.00  0.00     0.116 C 
HETATM   37  C10 UNL     1      -2.721   5.871  41.312  1.00  0.00     0.039 C 
BRANCH  36  38
HETATM   38  O1  UNL     1      -3.898   7.045  43.003  1.00  0.00    -0.396 OA
ATOM     39  H1  UNL     1      -4.729   7.165  42.560  1.00  0.00     0.210 HD
ENDBRANCH  36  38
ENDBRANCH  35  36
ENDBRANCH   4  35
BRANCH   9  40
HETATM   40  C13 UNL     1       0.331   6.938  46.222  1.00  0.00     0.036 C 
BRANCH  40  41
HETATM   41  C14 UNL     1      -0.027   6.010  45.113  1.00  0.00     0.022 C 
BRANCH  41  42
HETATM   42  C15 UNL     1      -1.118   5.082  45.689  1.00  0.00     0.122 C 
BRANCH  42  43
HETATM   43  N3  UNL     1      -2.433   5.541  45.377  1.00  0.00    -0.367 N 
HETATM   44  C16 UNL     1      -3.279   5.973  46.239  1.00  0.00     0.196 C 
HETATM   45  N4  UNL     1      -3.027   6.056  47.636  1.00  0.00    -0.067 NA
HETATM   46  N5  UNL     1      -4.552   6.399  45.772  1.00  0.00    -0.067 NA
ATOM     47  H3  UNL     1      -2.721   5.525  44.399  1.00  0.00     0.161 HD
ENDBRANCH  42  43
ENDBRANCH  41  42
ENDBRANCH  40  41
ENDBRANCH   9  40
TORSDOF 17
ENDMDL
