MODEL 1
REMARK VINA RESULT: -7.419239867      0.000      0.000
REMARK  12 active torsions:
REMARK  status: ('A' for Active; 'I' for Inactive)
REMARK    1  A    between atoms: O1_2  and  C2_3 
REMARK    2  A    between atoms: C2_3  and  C3_4 
REMARK    3  A    between atoms: C3_4  and  O2_5 
REMARK    4  A    between atoms: O2_5  and  C4_6 
REMARK    5  A    between atoms: C5_8  and  O4_9 
REMARK    6  A    between atoms: O4_9  and  C6_10 
REMARK    7  A    between atoms: C6_10  and  C7_12 
REMARK    8  A    between atoms: C11_19  and  O6_20 
REMARK    9  A    between atoms: C12_22  and  O7_23 
REMARK   10  A    between atoms: C14_27  and  C15_28 
REMARK   11  A    between atoms: C15_28  and  C16_29 
REMARK   12  A    between atoms: C16_29  and  C17_30 
ROOT
HETATM    1  C4  UNL     1      17.808 -16.501  21.521  1.00  0.00     0.295 C 
HETATM    2  O3  UNL     1      18.521 -16.872  22.667  1.00  0.00    -0.325 OA
HETATM    3  C5  UNL     1      19.871 -16.576  22.575  1.00  0.00     0.297 C 
HETATM    4  C8  UNL     1      20.146 -15.102  22.490  1.00  0.00     0.030 C 
HETATM    5  C9  UNL     1      19.573 -14.150  21.790  1.00  0.00    -0.016 C 
HETATM    6  C10 UNL     1      18.443 -14.272  20.846  1.00  0.00     0.075 C 
HETATM    7  C11 UNL     1      17.993 -13.006  20.248  1.00  0.00     0.160 C 
HETATM    8  C12 UNL     1      16.738 -12.429  20.786  1.00  0.00     0.190 C 
HETATM    9  C13 UNL     1      15.600 -13.399  20.906  1.00  0.00     0.157 C 
HETATM   10  O8  UNL     1      14.775 -12.967  21.974  1.00  0.00    -0.363 OA
HETATM   11  C14 UNL     1      13.901 -12.380  21.063  1.00  0.00     0.130 C 
HETATM   12  C20 UNL     1      14.489 -13.158  19.944  1.00  0.00     0.056 C 
HETATM   13  C21 UNL     1      13.737 -14.317  19.405  1.00  0.00     0.016 C 
HETATM   14  C22 UNL     1      16.011 -14.779  21.179  1.00  0.00     0.193 C 
HETATM   15  O9  UNL     1      15.214 -15.673  21.080  1.00  0.00    -0.292 OA
HETATM   16  C23 UNL     1      17.387 -15.077  21.574  1.00  0.00     0.159 C 
HETATM   17 CL1  UNL     1      17.487 -14.608  23.324  1.00  0.00    -0.104 Cl
ENDROOT
BRANCH   8  18
HETATM   18  O7  UNL     1      16.332 -11.393  19.944  1.00  0.00    -0.389 OA
ATOM     19  H7  UNL     1      15.613 -11.706  19.408  1.00  0.00     0.210 HD
ENDBRANCH   8  18
BRANCH   7  20
HETATM   20  O6  UNL     1      19.011 -12.045  20.428  1.00  0.00    -0.392 OA
ATOM     21  H6  UNL     1      19.175 -11.623  19.593  1.00  0.00     0.210 HD
ENDBRANCH   7  20
BRANCH  11  22
HETATM   22  C15 UNL     1      12.492 -12.655  21.459  1.00  0.00     0.033 C 
BRANCH  22  23
HETATM   23  C16 UNL     1      11.711 -11.465  21.916  1.00  0.00     0.006 C 
BRANCH  23  24
HETATM   24  C17 UNL     1      12.031 -11.251  23.382  1.00  0.00    -0.023 C 
HETATM   25  C18 UNL     1      11.820  -9.789  23.702  1.00  0.00     0.009 C 
HETATM   26  C19 UNL     1      11.124 -12.101  24.245  1.00  0.00     0.009 C 
ENDBRANCH  23  24
ENDBRANCH  22  23
ENDBRANCH  11  22
BRANCH   1  27
HETATM   27  O2  UNL     1      16.819 -17.434  21.307  1.00  0.00    -0.357 OA
BRANCH  27  28
HETATM   28  C3  UNL     1      16.853 -18.475  22.223  1.00  0.00     0.197 C 
BRANCH  28  29
HETATM   29  C2  UNL     1      15.724 -18.393  23.217  1.00  0.00     0.193 C 
BRANCH  29  30
HETATM   30  O1  UNL     1      14.463 -18.458  22.641  1.00  0.00    -0.394 OA
HETATM   31  C1  UNL     1      14.213 -19.777  22.265  1.00  0.00     0.201 C 
ENDBRANCH  29  30
ENDBRANCH  28  29
ENDBRANCH  27  28
ENDBRANCH   1  27
BRANCH   3  32
HETATM   32  O4  UNL     1      20.481 -17.159  21.446  1.00  0.00    -0.279 OA
BRANCH  32  33
HETATM   33  C6  UNL     1      21.131 -18.374  21.605  1.00  0.00     0.370 C 
HETATM   34  O5  UNL     1      22.357 -18.399  21.969  1.00  0.00    -0.255 OA
BRANCH  33  35
HETATM   35  C7  UNL     1      20.423 -19.656  21.360  1.00  0.00     0.479 C 
HETATM   36  F1  UNL     1      21.302 -20.628  20.888  1.00  0.00    -0.162 F 
HETATM   37  F2  UNL     1      19.473 -19.483  20.377  1.00  0.00    -0.162 F 
HETATM   38  F3  UNL     1      19.773 -20.054  22.504  1.00  0.00    -0.162 F 
ENDBRANCH  33  35
ENDBRANCH  32  33
ENDBRANCH   3  32
TORSDOF 12
ENDMDL
MODEL 2
REMARK VINA RESULT: -7.246357589      1.142      1.313
REMARK  12 active torsions:
REMARK  status: ('A' for Active; 'I' for Inactive)
REMARK    1  A    between atoms: O1_2  and  C2_3 
REMARK    2  A    between atoms: C2_3  and  C3_4 
REMARK    3  A    between atoms: C3_4  and  O2_5 
REMARK    4  A    between atoms: O2_5  and  C4_6 
REMARK    5  A    between atoms: C5_8  and  O4_9 
REMARK    6  A    between atoms: O4_9  and  C6_10 
REMARK    7  A    between atoms: C6_10  and  C7_12 
REMARK    8  A    between atoms: C11_19  and  O6_20 
REMARK    9  A    between atoms: C12_22  and  O7_23 
REMARK   10  A    between atoms: C14_27  and  C15_28 
REMARK   11  A    between atoms: C15_28  and  C16_29 
REMARK   12  A    between atoms: C16_29  and  C17_30 
ROOT
HETATM    1  C4  UNL     1      18.108 -16.602  21.870  1.00  0.00     0.295 C 
HETATM    2  O3  UNL     1      18.807 -16.872  23.053  1.00  0.00    -0.325 OA
HETATM    3  C5  UNL     1      20.150 -16.547  22.966  1.00  0.00     0.297 C 
HETATM    4  C8  UNL     1      20.388 -15.075  22.784  1.00  0.00     0.030 C 
HETATM    5  C9  UNL     1      19.805 -14.190  22.008  1.00  0.00    -0.016 C 
HETATM    6  C10 UNL     1      18.698 -14.409  21.052  1.00  0.00     0.075 C 
HETATM    7  C11 UNL     1      18.228 -13.201  20.360  1.00  0.00     0.160 C 
HETATM    8  C12 UNL     1      16.947 -12.623  20.832  1.00  0.00     0.190 C 
HETATM    9  C13 UNL     1      15.833 -13.613  20.997  1.00  0.00     0.157 C 
HETATM   10  O8  UNL     1      14.974 -13.132  22.016  1.00  0.00    -0.363 OA
HETATM   11  C14 UNL     1      14.104 -12.635  21.049  1.00  0.00     0.130 C 
HETATM   12  C20 UNL     1      14.736 -13.471  19.999  1.00  0.00     0.056 C 
HETATM   13  C21 UNL     1      14.026 -14.686  19.528  1.00  0.00     0.016 C 
HETATM   14  C22 UNL     1      16.274 -14.959  21.374  1.00  0.00     0.193 C 
HETATM   15  O9  UNL     1      15.503 -15.880  21.322  1.00  0.00    -0.292 OA
HETATM   16  C23 UNL     1      17.648 -15.190  21.815  1.00  0.00     0.159 C 
HETATM   17 CL1  UNL     1      17.699 -14.598  23.529  1.00  0.00    -0.104 Cl
ENDROOT
BRANCH   8  18
HETATM   18  O7  UNL     1      16.531 -11.660  19.911  1.00  0.00    -0.389 OA
ATOM     19  H7  UNL     1      15.939 -12.071  19.292  1.00  0.00     0.210 HD
ENDBRANCH   8  18
BRANCH   7  20
HETATM   20  O6  UNL     1      19.215 -12.201  20.491  1.00  0.00    -0.392 OA
ATOM     21  H6  UNL     1      18.828 -11.366  20.257  1.00  0.00     0.210 HD
ENDBRANCH   7  20
BRANCH  11  22
HETATM   22  C15 UNL     1      12.695 -12.920  21.436  1.00  0.00     0.033 C 
BRANCH  22  23
HETATM   23  C16 UNL     1      11.868 -11.722  21.776  1.00  0.00     0.006 C 
BRANCH  23  24
HETATM   24  C17 UNL     1      12.180 -11.350  23.211  1.00  0.00    -0.023 C 
HETATM   25  C18 UNL     1      12.197  -9.843  23.315  1.00  0.00     0.009 C 
HETATM   26  C19 UNL     1      11.127 -11.916  24.139  1.00  0.00     0.009 C 
ENDBRANCH  23  24
ENDBRANCH  22  23
ENDBRANCH  11  22
BRANCH   1  27
HETATM   27  O2  UNL     1      17.149 -17.575  21.703  1.00  0.00    -0.357 OA
BRANCH  27  28
HETATM   28  C3  UNL     1      17.171 -18.532  22.707  1.00  0.00     0.197 C 
BRANCH  28  29
HETATM   29  C2  UNL     1      16.005 -18.392  23.650  1.00  0.00     0.193 C 
BRANCH  29  30
HETATM   30  O1  UNL     1      14.770 -18.584  23.047  1.00  0.00    -0.394 OA
HETATM   31  C1  UNL     1      14.520 -19.953  22.969  1.00  0.00     0.201 C 
ENDBRANCH  29  30
ENDBRANCH  28  29
ENDBRANCH  27  28
ENDBRANCH   1  27
BRANCH   3  32
HETATM   32  O4  UNL     1      20.799 -17.189  21.893  1.00  0.00    -0.279 OA
BRANCH  32  33
HETATM   33  C6  UNL     1      21.259 -18.484  22.085  1.00  0.00     0.370 C 
HETATM   34  O5  UNL     1      20.470 -19.474  21.905  1.00  0.00    -0.255 OA
BRANCH  33  35
HETATM   35  C7  UNL     1      22.662 -18.742  22.496  1.00  0.00     0.479 C 
HETATM   36  F1  UNL     1      23.135 -17.723  23.319  1.00  0.00    -0.162 F 
HETATM   37  F2  UNL     1      23.479 -18.754  21.387  1.00  0.00    -0.162 F 
HETATM   38  F3  UNL     1      22.750 -19.977  23.094  1.00  0.00    -0.162 F 
ENDBRANCH  33  35
ENDBRANCH  32  33
ENDBRANCH   3  32
TORSDOF 12
ENDMDL
MODEL 3
REMARK VINA RESULT: -7.215679233      1.198      1.404
REMARK  12 active torsions:
REMARK  status: ('A' for Active; 'I' for Inactive)
REMARK    1  A    between atoms: O1_2  and  C2_3 
REMARK    2  A    between atoms: C2_3  and  C3_4 
REMARK    3  A    between atoms: C3_4  and  O2_5 
REMARK    4  A    between atoms: O2_5  and  C4_6 
REMARK    5  A    between atoms: C5_8  and  O4_9 
REMARK    6  A    between atoms: O4_9  and  C6_10 
REMARK    7  A    between atoms: C6_10  and  C7_12 
REMARK    8  A    between atoms: C11_19  and  O6_20 
REMARK    9  A    between atoms: C12_22  and  O7_23 
REMARK   10  A    between atoms: C14_27  and  C15_28 
REMARK   11  A    between atoms: C15_28  and  C16_29 
REMARK   12  A    between atoms: C16_29  and  C17_30 
ROOT
HETATM    1  C4  UNL     1      18.134 -16.601  21.825  1.00  0.00     0.295 C 
HETATM    2  O3  UNL     1      18.837 -16.876  23.005  1.00  0.00    -0.325 OA
HETATM    3  C5  UNL     1      20.174 -16.526  22.924  1.00  0.00     0.297 C 
HETATM    4  C8  UNL     1      20.386 -15.048  22.764  1.00  0.00     0.030 C 
HETATM    5  C9  UNL     1      19.788 -14.161  22.000  1.00  0.00    -0.016 C 
HETATM    6  C10 UNL     1      18.686 -14.386  21.041  1.00  0.00     0.075 C 
HETATM    7  C11 UNL     1      18.196 -13.176  20.366  1.00  0.00     0.160 C 
HETATM    8  C12 UNL     1      16.904 -12.627  20.845  1.00  0.00     0.190 C 
HETATM    9  C13 UNL     1      15.807 -13.639  20.994  1.00  0.00     0.157 C 
HETATM   10  O8  UNL     1      14.940 -13.188  22.020  1.00  0.00    -0.363 OA
HETATM   11  C14 UNL     1      14.062 -12.691  21.060  1.00  0.00     0.130 C 
HETATM   12  C20 UNL     1      14.709 -13.501  19.999  1.00  0.00     0.056 C 
HETATM   13  C21 UNL     1      14.021 -14.720  19.509  1.00  0.00     0.016 C 
HETATM   14  C22 UNL     1      16.272 -14.982  21.352  1.00  0.00     0.193 C 
HETATM   15  O9  UNL     1      15.518 -15.915  21.286  1.00  0.00    -0.292 OA
HETATM   16  C23 UNL     1      17.650 -15.196  21.791  1.00  0.00     0.159 C 
HETATM   17 CL1  UNL     1      17.689 -14.629  23.514  1.00  0.00    -0.104 Cl
ENDROOT
BRANCH   8  18
HETATM   18  O7  UNL     1      16.472 -11.658  19.939  1.00  0.00    -0.389 OA
ATOM     19  H7  UNL     1      15.523 -11.666  19.920  1.00  0.00     0.210 HD
ENDBRANCH   8  18
BRANCH   7  20
HETATM   20  O6  UNL     1      19.166 -12.161  20.513  1.00  0.00    -0.392 OA
ATOM     21  H6  UNL     1      19.175 -11.639  19.719  1.00  0.00     0.210 HD
ENDBRANCH   7  20
BRANCH  11  22
HETATM   22  C15 UNL     1      12.658 -13.007  21.441  1.00  0.00     0.033 C 
BRANCH  22  23
HETATM   23  C16 UNL     1      11.804 -11.827  21.778  1.00  0.00     0.006 C 
BRANCH  23  24
HETATM   24  C17 UNL     1      12.263 -11.306  23.124  1.00  0.00    -0.023 C 
HETATM   25  C18 UNL     1      12.548  -9.829  22.987  1.00  0.00     0.009 C 
HETATM   26  C19 UNL     1      11.187 -11.526  24.165  1.00  0.00     0.009 C 
ENDBRANCH  23  24
ENDBRANCH  22  23
ENDBRANCH  11  22
BRANCH   1  27
HETATM   27  O2  UNL     1      17.192 -17.587  21.643  1.00  0.00    -0.357 OA
BRANCH  27  28
HETATM   28  C3  UNL     1      17.718 -18.735  21.068  1.00  0.00     0.197 C 
BRANCH  28  29
HETATM   29  C2  UNL     1      16.797 -19.325  20.032  1.00  0.00     0.193 C 
BRANCH  29  30
HETATM   30  O1  UNL     1      16.182 -18.379  19.224  1.00  0.00    -0.394 OA
HETATM   31  C1  UNL     1      14.839 -18.723  19.078  1.00  0.00     0.201 C 
ENDBRANCH  29  30
ENDBRANCH  28  29
ENDBRANCH  27  28
ENDBRANCH   1  27
BRANCH   3  32
HETATM   32  O4  UNL     1      20.835 -17.141  21.842  1.00  0.00    -0.279 OA
BRANCH  32  33
HETATM   33  C6  UNL     1      21.426 -18.378  22.052  1.00  0.00     0.370 C 
HETATM   34  O5  UNL     1      21.562 -18.827  23.242  1.00  0.00    -0.255 OA
BRANCH  33  35
HETATM   35  C7  UNL     1      21.907 -19.198  20.910  1.00  0.00     0.479 C 
HETATM   36  F1  UNL     1      22.803 -20.173  21.341  1.00  0.00    -0.162 F 
HETATM   37  F2  UNL     1      22.598 -18.402  20.023  1.00  0.00    -0.162 F 
HETATM   38  F3  UNL     1      20.834 -19.736  20.241  1.00  0.00    -0.162 F 
ENDBRANCH  33  35
ENDBRANCH  32  33
ENDBRANCH   3  32
TORSDOF 12
ENDMDL
MODEL 4
REMARK VINA RESULT: -7.203605185      2.451      3.478
REMARK  12 active torsions:
REMARK  status: ('A' for Active; 'I' for Inactive)
REMARK    1  A    between atoms: O1_2  and  C2_3 
REMARK    2  A    between atoms: C2_3  and  C3_4 
REMARK    3  A    between atoms: C3_4  and  O2_5 
REMARK    4  A    between atoms: O2_5  and  C4_6 
REMARK    5  A    between atoms: C5_8  and  O4_9 
REMARK    6  A    between atoms: O4_9  and  C6_10 
REMARK    7  A    between atoms: C6_10  and  C7_12 
REMARK    8  A    between atoms: C11_19  and  O6_20 
REMARK    9  A    between atoms: C12_22  and  O7_23 
REMARK   10  A    between atoms: C14_27  and  C15_28 
REMARK   11  A    between atoms: C15_28  and  C16_29 
REMARK   12  A    between atoms: C16_29  and  C17_30 
ROOT
HETATM    1  C4  UNL     1      19.568 -16.638  23.215  1.00  0.00     0.295 C 
HETATM    2  O3  UNL     1      20.217 -16.466  24.444  1.00  0.00    -0.325 OA
HETATM    3  C5  UNL     1      21.533 -16.061  24.300  1.00  0.00     0.297 C 
HETATM    4  C8  UNL     1      21.666 -14.701  23.675  1.00  0.00     0.030 C 
HETATM    5  C9  UNL     1      21.060 -14.155  22.645  1.00  0.00    -0.016 C 
HETATM    6  C10 UNL     1      20.030 -14.759  21.773  1.00  0.00     0.075 C 
HETATM    7  C11 UNL     1      19.507 -13.871  20.724  1.00  0.00     0.160 C 
HETATM    8  C12 UNL     1      18.160 -13.296  20.954  1.00  0.00     0.190 C 
HETATM    9  C13 UNL     1      17.119 -14.286  21.386  1.00  0.00     0.157 C 
HETATM   10  O8  UNL     1      16.169 -13.595  22.179  1.00  0.00    -0.363 OA
HETATM   11  C14 UNL     1      15.319 -13.501  21.080  1.00  0.00     0.130 C 
HETATM   12  C20 UNL     1      16.073 -14.559  20.362  1.00  0.00     0.056 C 
HETATM   13  C21 UNL     1      15.489 -15.919  20.272  1.00  0.00     0.016 C 
HETATM   14  C22 UNL     1      17.642 -15.403  22.177  1.00  0.00     0.193 C 
HETATM   15  O9  UNL     1      16.950 -16.362  22.392  1.00  0.00    -0.292 OA
HETATM   16  C23 UNL     1      19.003 -15.360  22.709  1.00  0.00     0.159 C 
HETATM   17 CL1  UNL     1      18.910 -14.267  24.154  1.00  0.00    -0.104 Cl
ENDROOT
BRANCH   8  18
HETATM   18  O7  UNL     1      17.723 -12.706  19.768  1.00  0.00    -0.389 OA
ATOM     19  H7  UNL     1      17.870 -11.769  19.826  1.00  0.00     0.210 HD
ENDBRANCH   8  18
BRANCH   7  20
HETATM   20  O6  UNL     1      20.405 -12.793  20.567  1.00  0.00    -0.392 OA
ATOM     21  H6  UNL     1      20.645 -12.735  19.650  1.00  0.00     0.210 HD
ENDBRANCH   7  20
BRANCH  11  22
HETATM   22  C15 UNL     1      13.917 -13.782  21.494  1.00  0.00     0.033 C 
BRANCH  22  23
HETATM   23  C16 UNL     1      12.889 -12.837  20.960  1.00  0.00     0.006 C 
BRANCH  23  24
HETATM   24  C17 UNL     1      12.701 -11.743  21.991  1.00  0.00    -0.023 C 
HETATM   25  C18 UNL     1      12.174 -10.516  21.286  1.00  0.00     0.009 C 
HETATM   26  C19 UNL     1      11.719 -12.187  23.052  1.00  0.00     0.009 C 
ENDBRANCH  23  24
ENDBRANCH  22  23
ENDBRANCH  11  22
BRANCH   1  27
HETATM   27  O2  UNL     1      18.699 -17.699  23.331  1.00  0.00    -0.357 OA
BRANCH  27  28
HETATM   28  C3  UNL     1      19.291 -18.917  23.030  1.00  0.00     0.197 C 
BRANCH  28  29
HETATM   29  C2  UNL     1      20.058 -18.871  21.734  1.00  0.00     0.193 C 
BRANCH  29  30
HETATM   30  O1  UNL     1      21.243 -19.593  21.757  1.00  0.00    -0.394 OA
HETATM   31  C1  UNL     1      22.085 -19.098  20.762  1.00  0.00     0.201 C 
ENDBRANCH  29  30
ENDBRANCH  28  29
ENDBRANCH  27  28
ENDBRANCH   1  27
BRANCH   3  32
HETATM   32  O4  UNL     1      22.291 -16.940  23.500  1.00  0.00    -0.279 OA
BRANCH  32  33
HETATM   33  C6  UNL     1      23.337 -17.631  24.094  1.00  0.00     0.370 C 
HETATM   34  O5  UNL     1      23.093 -18.645  24.834  1.00  0.00    -0.255 OA
BRANCH  33  35
HETATM   35  C7  UNL     1      24.746 -17.211  23.883  1.00  0.00     0.479 C 
HETATM   36  F1  UNL     1      25.568 -17.705  24.893  1.00  0.00    -0.162 F 
HETATM   37  F2  UNL     1      24.838 -15.838  23.945  1.00  0.00    -0.162 F 
HETATM   38  F3  UNL     1      25.164 -17.602  22.633  1.00  0.00    -0.162 F 
ENDBRANCH  33  35
ENDBRANCH  32  33
ENDBRANCH   3  32
TORSDOF 12
ENDMDL
MODEL 5
REMARK VINA RESULT: -7.197282652      2.730      3.256
REMARK  12 active torsions:
REMARK  status: ('A' for Active; 'I' for Inactive)
REMARK    1  A    between atoms: O1_2  and  C2_3 
REMARK    2  A    between atoms: C2_3  and  C3_4 
REMARK    3  A    between atoms: C3_4  and  O2_5 
REMARK    4  A    between atoms: O2_5  and  C4_6 
REMARK    5  A    between atoms: C5_8  and  O4_9 
REMARK    6  A    between atoms: O4_9  and  C6_10 
REMARK    7  A    between atoms: C6_10  and  C7_12 
REMARK    8  A    between atoms: C11_19  and  O6_20 
REMARK    9  A    between atoms: C12_22  and  O7_23 
REMARK   10  A    between atoms: C14_27  and  C15_28 
REMARK   11  A    between atoms: C15_28  and  C16_29 
REMARK   12  A    between atoms: C16_29  and  C17_30 
ROOT
HETATM    1  C4  UNL     1      19.559 -16.645  23.268  1.00  0.00     0.295 C 
HETATM    2  O3  UNL     1      20.203 -16.468  24.499  1.00  0.00    -0.325 OA
HETATM    3  C5  UNL     1      21.522 -16.072  24.360  1.00  0.00     0.297 C 
HETATM    4  C8  UNL     1      21.666 -14.717  23.726  1.00  0.00     0.030 C 
HETATM    5  C9  UNL     1      21.069 -14.175  22.689  1.00  0.00    -0.016 C 
HETATM    6  C10 UNL     1      20.039 -14.778  21.816  1.00  0.00     0.075 C 
HETATM    7  C11 UNL     1      19.528 -13.895  20.759  1.00  0.00     0.160 C 
HETATM    8  C12 UNL     1      18.183 -13.310  20.978  1.00  0.00     0.190 C 
HETATM    9  C13 UNL     1      17.134 -14.291  21.411  1.00  0.00     0.157 C 
HETATM   10  O8  UNL     1      16.183 -13.589  22.194  1.00  0.00    -0.363 OA
HETATM   11  C14 UNL     1      15.340 -13.499  21.089  1.00  0.00     0.130 C 
HETATM   12  C20 UNL     1      16.091 -14.565  20.383  1.00  0.00     0.056 C 
HETATM   13  C21 UNL     1      15.499 -15.923  20.299  1.00  0.00     0.016 C 
HETATM   14  C22 UNL     1      17.646 -15.406  22.212  1.00  0.00     0.193 C 
HETATM   15  O9  UNL     1      16.947 -16.359  22.430  1.00  0.00    -0.292 OA
HETATM   16  C23 UNL     1      19.004 -15.367  22.751  1.00  0.00     0.159 C 
HETATM   17 CL1  UNL     1      18.910 -14.264  24.188  1.00  0.00    -0.104 Cl
ENDROOT
BRANCH   8  18
HETATM   18  O7  UNL     1      17.755 -12.726  19.785  1.00  0.00    -0.389 OA
ATOM     19  H7  UNL     1      18.302 -11.969  19.608  1.00  0.00     0.210 HD
ENDBRANCH   8  18
BRANCH   7  20
HETATM   20  O6  UNL     1      20.432 -12.823  20.599  1.00  0.00    -0.392 OA
ATOM     21  H6  UNL     1      20.482 -12.610  19.674  1.00  0.00     0.210 HD
ENDBRANCH   7  20
BRANCH  11  22
HETATM   22  C15 UNL     1      13.934 -13.768  21.498  1.00  0.00     0.033 C 
BRANCH  22  23
HETATM   23  C16 UNL     1      12.912 -12.831  20.940  1.00  0.00     0.006 C 
BRANCH  23  24
HETATM   24  C17 UNL     1      12.719 -11.718  21.950  1.00  0.00    -0.023 C 
HETATM   25  C18 UNL     1      12.173 -10.511  21.224  1.00  0.00     0.009 C 
HETATM   26  C19 UNL     1      11.749 -12.152  23.026  1.00  0.00     0.009 C 
ENDBRANCH  23  24
ENDBRANCH  22  23
ENDBRANCH  11  22
BRANCH   1  27
HETATM   27  O2  UNL     1      18.683 -17.700  23.387  1.00  0.00    -0.357 OA
BRANCH  27  28
HETATM   28  C3  UNL     1      18.786 -18.352  24.607  1.00  0.00     0.197 C 
BRANCH  28  29
HETATM   29  C2  UNL     1      17.437 -18.649  25.208  1.00  0.00     0.193 C 
BRANCH  29  30
HETATM   30  O1  UNL     1      17.486 -19.494  26.307  1.00  0.00    -0.394 OA
HETATM   31  C1  UNL     1      18.606 -19.168  27.070  1.00  0.00     0.201 C 
ENDBRANCH  29  30
ENDBRANCH  28  29
ENDBRANCH  27  28
ENDBRANCH   1  27
BRANCH   3  32
HETATM   32  O4  UNL     1      22.279 -16.960  23.570  1.00  0.00    -0.279 OA
BRANCH  32  33
HETATM   33  C6  UNL     1      23.347 -17.617  24.162  1.00  0.00     0.370 C 
HETATM   34  O5  UNL     1      23.133 -18.599  24.953  1.00  0.00    -0.255 OA
BRANCH  33  35
HETATM   35  C7  UNL     1      24.746 -17.198  23.890  1.00  0.00     0.479 C 
HETATM   36  F1  UNL     1      25.604 -17.655  24.887  1.00  0.00    -0.162 F 
HETATM   37  F2  UNL     1      24.832 -15.824  23.905  1.00  0.00    -0.162 F 
HETATM   38  F3  UNL     1      25.124 -17.628  22.641  1.00  0.00    -0.162 F 
ENDBRANCH  33  35
ENDBRANCH  32  33
ENDBRANCH   3  32
TORSDOF 12
ENDMDL
