MODEL 1
REMARK VINA RESULT: -10.070752396      0.000      0.000
REMARK  8 active torsions:
REMARK  status: ('A' for Active; 'I' for Inactive)
REMARK    1  A    between atoms: C3_3  and  C4_4 
REMARK    2  A    between atoms: C4_4  and  O1_5 
REMARK    3  A    between atoms: C4_4  and  C27_34 
REMARK    4  A    between atoms: O1_5  and  C5_6 
REMARK    5  A    between atoms: C14_15  and  C16_17 
REMARK    6  A    between atoms: C16_17  and  O2_18 
REMARK    7  A    between atoms: C18_21  and  O3_22 
REMARK    8  A    between atoms: C24_30  and  C26_32 
ROOT
HETATM    1  C1  UNL     1      64.326   0.872   8.460  1.00  0.00     0.012 C 
HETATM    2  C2  UNL     1      63.162   0.907   8.766  1.00  0.00    -0.115 C 
HETATM    3  C3  UNL     1      61.761   0.925   9.106  1.00  0.00     0.130 C 
ENDROOT
BRANCH   3   4
HETATM    4  C4  UNL     1      61.439   1.253  10.542  1.00  0.00     0.166 C 
BRANCH   4   5
HETATM    5  O1  UNL     1      61.674   2.522  10.919  1.00  0.00    -0.374 OA
BRANCH   5   6
HETATM    6  C5  UNL     1      62.509   2.713  11.977  1.00  0.00     0.133 C 
HETATM    7  C6  UNL     1      63.999   2.574  11.513  1.00  0.00     0.043 C 
HETATM    8  C7  UNL     1      64.608   3.926  11.895  1.00  0.00    -0.027 C 
HETATM    9  C8  UNL     1      66.035   4.067  11.899  1.00  0.00     0.037 C 
HETATM   10  C20 UNL     1      63.878   4.059  13.147  1.00  0.00     0.050 C 
HETATM   11  C23 UNL     1      64.018   4.775  10.794  1.00  0.00     0.011 C 
HETATM   12  C9  UNL     1      66.710   4.961  12.830  1.00  0.00    -0.023 C 
HETATM   13  C10 UNL     1      66.129   6.213  13.365  1.00  0.00    -0.080 C 
HETATM   14  C11 UNL     1      66.358   7.446  12.467  1.00  0.00     0.043 C 
HETATM   15  C12 UNL     1      64.854   6.222  14.087  1.00  0.00     0.057 C 
HETATM   16  C13 UNL     1      63.812   7.222  13.628  1.00  0.00     0.024 C 
HETATM   17  C19 UNL     1      64.282   4.858  14.255  1.00  0.00     0.142 C 
HETATM   18  C14 UNL     1      62.454   6.986  14.210  1.00  0.00    -0.015 C 
HETATM   19  C15 UNL     1      62.505   7.643  15.617  1.00  0.00     0.018 C 
HETATM   20  C17 UNL     1      62.026   5.618  14.467  1.00  0.00     0.043 C 
HETATM   21  C18 UNL     1      63.077   4.885  15.226  1.00  0.00     0.165 C 
HETATM   22  C24 UNL     1      61.526   4.682  13.390  1.00  0.00     0.027 C 
HETATM   23  C21 UNL     1      62.523   4.149  12.514  1.00  0.00     0.007 C 
HETATM   24  C25 UNL     1      60.854   3.542  14.186  1.00  0.00     0.024 C 
HETATM   25  C22 UNL     1      62.595   4.886  11.210  1.00  0.00     0.014 C 
HETATM   26  F1  UNL     1      65.212   4.211  15.110  1.00  0.00    -0.239 F 
BRANCH  18  27
HETATM   27  C16 UNL     1      61.460   7.868  13.477  1.00  0.00     0.173 C 
BRANCH  27  28
HETATM   28  O2  UNL     1      60.351   8.007  14.352  1.00  0.00    -0.400 OA
ATOM     29  H2  UNL     1      59.587   7.769  13.839  1.00  0.00     0.209 HD
ENDBRANCH  27  28
ENDBRANCH  18  27
BRANCH  21  30
HETATM   30  O3  UNL     1      63.407   5.325  16.465  1.00  0.00    -0.392 OA
ATOM     31  H3  UNL     1      64.327   5.415  16.685  1.00  0.00     0.210 HD
ENDBRANCH  21  30
BRANCH  22  32
HETATM   32  C26 UNL     1      60.353   5.288  12.673  1.00  0.00     0.241 C 
HETATM   33  O4  UNL     1      59.304   4.648  12.489  1.00  0.00    -0.306 OA
ENDBRANCH  22  32
ENDBRANCH   5   6
ENDBRANCH   4   5
BRANCH   4  34
HETATM   34  C27 UNL     1      60.028   0.801  10.740  1.00  0.00    -0.029 A 
HETATM   35  C28 UNL     1      59.248   1.346  11.732  1.00  0.00     0.010 A 
HETATM   36  C29 UNL     1      57.948   0.922  11.890  1.00  0.00     0.001 A 
HETATM   37  C30 UNL     1      57.415  -0.042  11.066  1.00  0.00     0.000 A 
HETATM   38  C31 UNL     1      58.195  -0.578  10.085  1.00  0.00     0.001 A 
HETATM   39  C32 UNL     1      59.479  -0.162   9.925  1.00  0.00     0.010 A 
ENDBRANCH   4  34
ENDBRANCH   3   4
TORSDOF 8
ENDMDL
MODEL 2
REMARK VINA RESULT: -9.485247138      1.232      2.419
REMARK  8 active torsions:
REMARK  status: ('A' for Active; 'I' for Inactive)
REMARK    1  A    between atoms: C3_3  and  C4_4 
REMARK    2  A    between atoms: C4_4  and  O1_5 
REMARK    3  A    between atoms: C4_4  and  C27_34 
REMARK    4  A    between atoms: O1_5  and  C5_6 
REMARK    5  A    between atoms: C14_15  and  C16_17 
REMARK    6  A    between atoms: C16_17  and  O2_18 
REMARK    7  A    between atoms: C18_21  and  O3_22 
REMARK    8  A    between atoms: C24_30  and  C26_32 
ROOT
HETATM    1  C1  UNL     1      57.623   1.603  14.747  1.00  0.00     0.012 C 
HETATM    2  C2  UNL     1      58.533   1.467  13.971  1.00  0.00    -0.115 C 
HETATM    3  C3  UNL     1      59.631   1.272  13.057  1.00  0.00     0.130 C 
ENDROOT
BRANCH   3   4
HETATM    4  C4  UNL     1      59.507   1.967  11.724  1.00  0.00     0.166 C 
BRANCH   4   5
HETATM    5  O1  UNL     1      60.436   2.904  11.465  1.00  0.00    -0.374 OA
BRANCH   5   6
HETATM    6  C5  UNL     1      61.552   2.907  12.244  1.00  0.00     0.133 C 
HETATM    7  C6  UNL     1      62.802   2.501  11.388  1.00  0.00     0.043 C 
HETATM    8  C7  UNL     1      63.736   3.703  11.547  1.00  0.00    -0.027 C 
HETATM    9  C8  UNL     1      65.108   3.571  11.151  1.00  0.00     0.037 C 
HETATM   10  C20 UNL     1      63.421   3.940  12.949  1.00  0.00     0.050 C 
HETATM   11  C23 UNL     1      63.034   4.676  10.629  1.00  0.00     0.011 C 
HETATM   12  C9  UNL     1      66.171   4.297  11.832  1.00  0.00    -0.023 C 
HETATM   13  C10 UNL     1      66.008   5.622  12.471  1.00  0.00    -0.080 C 
HETATM   14  C11 UNL     1      66.207   6.812  11.510  1.00  0.00     0.043 C 
HETATM   15  C12 UNL     1      65.010   5.855  13.518  1.00  0.00     0.057 C 
HETATM   16  C13 UNL     1      64.089   7.045  13.338  1.00  0.00     0.024 C 
HETATM   17  C19 UNL     1      64.261   4.620  13.877  1.00  0.00     0.142 C 
HETATM   18  C14 UNL     1      62.927   7.055  14.280  1.00  0.00    -0.015 C 
HETATM   19  C15 UNL     1      63.490   7.655  15.598  1.00  0.00     0.018 C 
HETATM   20  C17 UNL     1      62.338   5.787  14.685  1.00  0.00     0.043 C 
HETATM   21  C18 UNL     1      63.400   4.849  15.144  1.00  0.00     0.165 C 
HETATM   22  C24 UNL     1      61.391   4.990  13.817  1.00  0.00     0.027 C 
HETATM   23  C21 UNL     1      61.986   4.300  12.714  1.00  0.00     0.007 C 
HETATM   24  C25 UNL     1      60.764   3.978  14.800  1.00  0.00     0.024 C 
HETATM   25  C22 UNL     1      61.830   5.044  11.421  1.00  0.00     0.014 C 
HETATM   26  F1  UNL     1      65.251   3.786  14.459  1.00  0.00    -0.239 F 
BRANCH  18  27
HETATM   27  C16 UNL     1      61.954   8.128  13.827  1.00  0.00     0.173 C 
BRANCH  27  28
HETATM   28  O2  UNL     1      61.109   8.375  14.940  1.00  0.00    -0.400 OA
ATOM     29  H2  UNL     1      60.289   7.935  14.743  1.00  0.00     0.209 HD
ENDBRANCH  27  28
ENDBRANCH  18  27
BRANCH  21  30
HETATM   30  O3  UNL     1      64.138   5.188  16.229  1.00  0.00    -0.392 OA
ATOM     31  H3  UNL     1      64.461   4.494  16.793  1.00  0.00     0.210 HD
ENDBRANCH  21  30
BRANCH  22  32
HETATM   32  C26 UNL     1      60.202   5.825  13.436  1.00  0.00     0.241 C 
HETATM   33  O4  UNL     1      59.439   6.298  14.295  1.00  0.00    -0.306 OA
ENDBRANCH  22  32
ENDBRANCH   5   6
ENDBRANCH   4   5
BRANCH   4  34
HETATM   34  C27 UNL     1      59.440   0.868  10.714  1.00  0.00    -0.029 A 
HETATM   35  C28 UNL     1      58.467  -0.100  10.791  1.00  0.00     0.010 A 
HETATM   36  C29 UNL     1      58.418  -1.097   9.845  1.00  0.00     0.001 A 
HETATM   37  C30 UNL     1      59.332  -1.141   8.817  1.00  0.00     0.000 A 
HETATM   38  C31 UNL     1      60.294  -0.178   8.748  1.00  0.00     0.001 A 
HETATM   39  C32 UNL     1      60.346   0.809   9.680  1.00  0.00     0.010 A 
ENDBRANCH   4  34
ENDBRANCH   3   4
TORSDOF 8
ENDMDL
MODEL 3
REMARK VINA RESULT: -9.271550201      2.058      3.212
REMARK  8 active torsions:
REMARK  status: ('A' for Active; 'I' for Inactive)
REMARK    1  A    between atoms: C3_3  and  C4_4 
REMARK    2  A    between atoms: C4_4  and  O1_5 
REMARK    3  A    between atoms: C4_4  and  C27_34 
REMARK    4  A    between atoms: O1_5  and  C5_6 
REMARK    5  A    between atoms: C14_15  and  C16_17 
REMARK    6  A    between atoms: C16_17  and  O2_18 
REMARK    7  A    between atoms: C18_21  and  O3_22 
REMARK    8  A    between atoms: C24_30  and  C26_32 
ROOT
HETATM    1  C1  UNL     1      62.698   0.823   8.812  1.00  0.00     0.012 C 
HETATM    2  C2  UNL     1      61.541   0.815   9.145  1.00  0.00    -0.115 C 
HETATM    3  C3  UNL     1      60.147   0.789   9.512  1.00  0.00     0.130 C 
ENDROOT
BRANCH   3   4
HETATM    4  C4  UNL     1      59.859   0.771  10.992  1.00  0.00     0.166 C 
BRANCH   4   5
HETATM    5  O1  UNL     1      59.688   1.974  11.569  1.00  0.00    -0.374 OA
BRANCH   5   6
HETATM    6  C5  UNL     1      60.689   2.427  12.373  1.00  0.00     0.133 C 
HETATM    7  C6  UNL     1      61.650   3.358  11.556  1.00  0.00     0.043 C 
HETATM    8  C7  UNL     1      61.599   4.676  12.334  1.00  0.00    -0.027 C 
HETATM    9  C8  UNL     1      62.585   5.679  12.061  1.00  0.00     0.037 C 
HETATM   10  C20 UNL     1      61.559   4.058  13.652  1.00  0.00     0.050 C 
HETATM   11  C23 UNL     1      60.241   5.165  11.888  1.00  0.00     0.011 C 
HETATM   12  C9  UNL     1      63.060   6.584  13.100  1.00  0.00    -0.023 C 
HETATM   13  C10 UNL     1      62.248   7.046  14.248  1.00  0.00    -0.080 C 
HETATM   14  C11 UNL     1      61.396   8.297  13.953  1.00  0.00     0.043 C 
HETATM   15  C12 UNL     1      61.628   6.102  15.181  1.00  0.00     0.057 C 
HETATM   16  C13 UNL     1      60.151   6.287  15.465  1.00  0.00     0.024 C 
HETATM   17  C19 UNL     1      61.961   4.685  14.866  1.00  0.00     0.142 C 
HETATM   18  C14 UNL     1      59.527   5.135  16.189  1.00  0.00    -0.015 C 
HETATM   19  C15 UNL     1      59.874   5.372  17.685  1.00  0.00     0.018 C 
HETATM   20  C17 UNL     1      60.010   3.789  15.916  1.00  0.00     0.043 C 
HETATM   21  C18 UNL     1      61.496   3.746  16.006  1.00  0.00     0.165 C 
HETATM   22  C24 UNL     1      59.620   2.993  14.691  1.00  0.00     0.027 C 
HETATM   23  C21 UNL     1      60.227   3.402  13.462  1.00  0.00     0.007 C 
HETATM   24  C25 UNL     1      60.051   1.553  15.043  1.00  0.00     0.024 C 
HETATM   25  C22 UNL     1      59.322   4.266  12.635  1.00  0.00     0.014 C 
HETATM   26  F1  UNL     1      63.358   4.611  15.106  1.00  0.00    -0.239 F 
BRANCH  18  27
HETATM   27  C16 UNL     1      58.021   5.319  16.173  1.00  0.00     0.173 C 
BRANCH  27  28
HETATM   28  O2  UNL     1      57.538   4.633  17.318  1.00  0.00    -0.400 OA
ATOM     29  H2  UNL     1      57.233   3.790  17.003  1.00  0.00     0.209 HD
ENDBRANCH  27  28
ENDBRANCH  18  27
BRANCH  21  30
HETATM   30  O3  UNL     1      62.081   4.030  17.196  1.00  0.00    -0.392 OA
ATOM     31  H3  UNL     1      61.928   3.444  17.928  1.00  0.00     0.210 HD
ENDBRANCH  21  30
BRANCH  22  32
HETATM   32  C26 UNL     1      58.126   2.854  14.611  1.00  0.00     0.241 C 
HETATM   33  O4  UNL     1      57.506   2.073  15.351  1.00  0.00    -0.306 OA
ENDBRANCH  22  32
ENDBRANCH   5   6
ENDBRANCH   4   5
BRANCH   4  34
HETATM   34  C27 UNL     1      58.702  -0.161  11.154  1.00  0.00    -0.029 A 
HETATM   35  C28 UNL     1      58.224  -0.881  10.085  1.00  0.00     0.010 A 
HETATM   36  C29 UNL     1      57.164  -1.741  10.259  1.00  0.00     0.001 A 
HETATM   37  C30 UNL     1      56.573  -1.893  11.492  1.00  0.00     0.000 A 
HETATM   38  C31 UNL     1      57.053  -1.175  12.547  1.00  0.00     0.001 A 
HETATM   39  C32 UNL     1      58.100  -0.325  12.380  1.00  0.00     0.010 A 
ENDBRANCH   4  34
ENDBRANCH   3   4
TORSDOF 8
ENDMDL
MODEL 4
REMARK VINA RESULT: -9.061598972      2.781      5.771
REMARK  8 active torsions:
REMARK  status: ('A' for Active; 'I' for Inactive)
REMARK    1  A    between atoms: C3_3  and  C4_4 
REMARK    2  A    between atoms: C4_4  and  O1_5 
REMARK    3  A    between atoms: C4_4  and  C27_34 
REMARK    4  A    between atoms: O1_5  and  C5_6 
REMARK    5  A    between atoms: C14_15  and  C16_17 
REMARK    6  A    between atoms: C16_17  and  O2_18 
REMARK    7  A    between atoms: C18_21  and  O3_22 
REMARK    8  A    between atoms: C24_30  and  C26_32 
ROOT
HETATM    1  C1  UNL     1      59.864   3.942  13.789  1.00  0.00     0.012 C 
HETATM    2  C2  UNL     1      60.040   2.908  13.198  1.00  0.00    -0.115 C 
HETATM    3  C3  UNL     1      60.225   1.654  12.511  1.00  0.00     0.130 C 
ENDROOT
BRANCH   3   4
HETATM    4  C4  UNL     1      60.810   1.747  11.124  1.00  0.00     0.166 C 
BRANCH   4   5
HETATM    5  O1  UNL     1      62.152   1.711  11.052  1.00  0.00    -0.374 OA
BRANCH   5   6
HETATM    6  C5  UNL     1      62.771   2.753  10.431  1.00  0.00     0.133 C 
HETATM    7  C6  UNL     1      62.771   4.009  11.368  1.00  0.00     0.043 C 
HETATM    8  C7  UNL     1      64.260   4.334  11.512  1.00  0.00    -0.027 C 
HETATM    9  C8  UNL     1      64.642   5.604  12.056  1.00  0.00     0.037 C 
HETATM   10  C20 UNL     1      64.605   4.018  10.134  1.00  0.00     0.050 C 
HETATM   11  C23 UNL     1      64.654   3.233  12.469  1.00  0.00     0.011 C 
HETATM   12  C9  UNL     1      65.862   6.279  11.633  1.00  0.00    -0.023 C 
HETATM   13  C10 UNL     1      67.092   5.587  11.185  1.00  0.00    -0.080 C 
HETATM   14  C11 UNL     1      68.049   5.200  12.331  1.00  0.00     0.043 C 
HETATM   15  C12 UNL     1      67.080   4.642  10.066  1.00  0.00     0.057 C 
HETATM   16  C13 UNL     1      67.716   3.287  10.304  1.00  0.00     0.024 C 
HETATM   17  C19 UNL     1      65.737   4.524   9.433  1.00  0.00     0.142 C 
HETATM   18  C14 UNL     1      67.417   2.285   9.233  1.00  0.00    -0.015 C 
HETATM   19  C15 UNL     1      68.437   2.597   8.103  1.00  0.00     0.018 C 
HETATM   20  C17 UNL     1      66.122   2.328   8.571  1.00  0.00     0.043 C 
HETATM   21  C18 UNL     1      65.822   3.714   8.116  1.00  0.00     0.165 C 
HETATM   22  C24 UNL     1      64.852   1.780   9.181  1.00  0.00     0.027 C 
HETATM   23  C21 UNL     1      64.279   2.560  10.235  1.00  0.00     0.007 C 
HETATM   24  C25 UNL     1      63.878   1.706   7.985  1.00  0.00     0.024 C 
HETATM   25  C22 UNL     1      64.627   2.031  11.595  1.00  0.00     0.014 C 
HETATM   26  F1  UNL     1      65.524   5.806   8.864  1.00  0.00    -0.239 F 
BRANCH  18  27
HETATM   27  C16 UNL     1      67.875   0.921   9.714  1.00  0.00     0.173 C 
BRANCH  27  28
HETATM   28  O2  UNL     1      68.159   0.175   8.541  1.00  0.00    -0.400 OA
ATOM     29  H2  UNL     1      67.355   0.177   8.034  1.00  0.00     0.209 HD
ENDBRANCH  27  28
ENDBRANCH  18  27
BRANCH  21  30
HETATM   30  O3  UNL     1      66.639   4.285   7.196  1.00  0.00    -0.392 OA
ATOM     31  H3  UNL     1      67.271   4.931   7.490  1.00  0.00     0.210 HD
ENDBRANCH  21  30
BRANCH  22  32
HETATM   32  C26 UNL     1      65.022   0.329   9.528  1.00  0.00     0.241 C 
HETATM   33  O4  UNL     1      65.048  -0.550   8.650  1.00  0.00    -0.306 OA
ENDBRANCH  22  32
ENDBRANCH   5   6
ENDBRANCH   4   5
BRANCH   4  34
HETATM   34  C27 UNL     1      60.120   0.680  10.336  1.00  0.00    -0.029 A 
HETATM   35  C28 UNL     1      60.643   0.238   9.145  1.00  0.00     0.010 A 
HETATM   36  C29 UNL     1      59.997  -0.752   8.440  1.00  0.00     0.001 A 
HETATM   37  C30 UNL     1      58.831  -1.308   8.912  1.00  0.00     0.000 A 
HETATM   38  C31 UNL     1      58.318  -0.863  10.095  1.00  0.00     0.001 A 
HETATM   39  C32 UNL     1      58.953   0.113  10.794  1.00  0.00     0.010 A 
ENDBRANCH   4  34
ENDBRANCH   3   4
TORSDOF 8
ENDMDL
MODEL 5
REMARK VINA RESULT: -8.941467543      2.872      5.201
REMARK  8 active torsions:
REMARK  status: ('A' for Active; 'I' for Inactive)
REMARK    1  A    between atoms: C3_3  and  C4_4 
REMARK    2  A    between atoms: C4_4  and  O1_5 
REMARK    3  A    between atoms: C4_4  and  C27_34 
REMARK    4  A    between atoms: O1_5  and  C5_6 
REMARK    5  A    between atoms: C14_15  and  C16_17 
REMARK    6  A    between atoms: C16_17  and  O2_18 
REMARK    7  A    between atoms: C18_21  and  O3_22 
REMARK    8  A    between atoms: C24_30  and  C26_32 
ROOT
HETATM    1  C1  UNL     1      60.298   5.376  11.637  1.00  0.00     0.012 C 
HETATM    2  C2  UNL     1      60.525   4.202  11.774  1.00  0.00    -0.115 C 
HETATM    3  C3  UNL     1      60.767   2.793  11.959  1.00  0.00     0.130 C 
ENDROOT
BRANCH   3   4
HETATM    4  C4  UNL     1      61.572   2.118  10.877  1.00  0.00     0.166 C 
BRANCH   4   5
HETATM    5  O1  UNL     1      62.782   1.663  11.247  1.00  0.00    -0.374 OA
BRANCH   5   6
HETATM    6  C5  UNL     1      63.849   2.052  10.496  1.00  0.00     0.133 C 
HETATM    7  C6  UNL     1      63.583   3.469   9.882  1.00  0.00     0.043 C 
HETATM    8  C7  UNL     1      64.750   4.303  10.415  1.00  0.00    -0.027 C 
HETATM    9  C8  UNL     1      65.015   5.582   9.824  1.00  0.00     0.037 C 
HETATM   10  C20 UNL     1      65.744   3.246  10.293  1.00  0.00     0.050 C 
HETATM   11  C23 UNL     1      64.282   4.489  11.839  1.00  0.00     0.011 C 
HETATM   12  C9  UNL     1      66.367   6.115   9.731  1.00  0.00    -0.023 C 
HETATM   13  C10 UNL     1      67.451   5.829  10.699  1.00  0.00    -0.080 C 
HETATM   14  C11 UNL     1      67.472   6.775  11.916  1.00  0.00     0.043 C 
HETATM   15  C12 UNL     1      67.878   4.459  10.993  1.00  0.00     0.057 C 
HETATM   16  C13 UNL     1      67.957   4.063  12.454  1.00  0.00     0.024 C 
HETATM   17  C19 UNL     1      67.149   3.446  10.181  1.00  0.00     0.142 C 
HETATM   18  C14 UNL     1      68.118   2.591  12.672  1.00  0.00    -0.015 C 
HETATM   19  C15 UNL     1      69.638   2.327  12.488  1.00  0.00     0.018 C 
HETATM   20  C17 UNL     1      67.478   1.669  11.745  1.00  0.00     0.043 C 
HETATM   21  C18 UNL     1      67.795   2.048  10.340  1.00  0.00     0.165 C 
HETATM   22  C24 UNL     1      66.005   1.329  11.787  1.00  0.00     0.027 C 
HETATM   23  C21 UNL     1      65.116   2.342  11.309  1.00  0.00     0.007 C 
HETATM   24  C25 UNL     1      65.900   0.069  10.902  1.00  0.00     0.024 C 
HETATM   25  C22 UNL     1      64.503   3.139  12.422  1.00  0.00     0.014 C 
HETATM   26  F1  UNL     1      67.578   3.713   8.855  1.00  0.00    -0.239 F 
BRANCH  18  27
HETATM   27  C16 UNL     1      67.915   2.301  14.147  1.00  0.00     0.173 C 
BRANCH  27  28
HETATM   28  O2  UNL     1      67.529   3.536  14.732  1.00  0.00    -0.400 OA
ATOM     29  H2  UNL     1      66.579   3.545  14.710  1.00  0.00     0.209 HD
ENDBRANCH  27  28
ENDBRANCH  18  27
BRANCH  21  30
HETATM   30  O3  UNL     1      69.089   2.015   9.937  1.00  0.00    -0.392 OA
ATOM     31  H3  UNL     1      69.557   1.189   9.982  1.00  0.00     0.210 HD
ENDBRANCH  21  30
BRANCH  22  32
HETATM   32  C26 UNL     1      65.632   0.786  13.137  1.00  0.00     0.241 C 
HETATM   33  O4  UNL     1      65.781  -0.416  13.418  1.00  0.00    -0.306 OA
ENDBRANCH  22  32
ENDBRANCH   5   6
ENDBRANCH   4   5
BRANCH   4  34
HETATM   34  C27 UNL     1      60.666   1.073  10.310  1.00  0.00    -0.029 A 
HETATM   35  C28 UNL     1      60.945   0.483   9.100  1.00  0.00     0.010 A 
HETATM   36  C29 UNL     1      60.103  -0.484   8.601  1.00  0.00     0.001 A 
HETATM   37  C30 UNL     1      58.982  -0.872   9.297  1.00  0.00     0.000 A 
HETATM   38  C31 UNL     1      58.712  -0.282  10.496  1.00  0.00     0.001 A 
HETATM   39  C32 UNL     1      59.541   0.673  10.993  1.00  0.00     0.010 A 
ENDBRANCH   4  34
ENDBRANCH   3   4
TORSDOF 8
ENDMDL
