MODEL 1
REMARK VINA RESULT: -7.282425577      0.000      0.000
REMARK  10 active torsions:
REMARK  status: ('A' for Active; 'I' for Inactive)
REMARK    1  A    between atoms: C2_2  and  N1_3 
REMARK    2  A    between atoms: N1_3  and  C3_5 
REMARK    3  A    between atoms: C3_5  and  C4_6 
REMARK    4  A    between atoms: C3_5  and  C5_9 
REMARK    5  A    between atoms: C4_6  and  O1_7 
REMARK    6  A    between atoms: C7_13  and  N3_14 
REMARK    7  A    between atoms: N3_14  and  C8_16 
REMARK    8  A    between atoms: C8_16  and  C9_17 
REMARK       I    between atoms: N4_21  and  C13_22 
REMARK       I    between atoms: C13_22  and  N5_24 
REMARK    9  A    between atoms: C18_31  and  N7_32 
REMARK   10  A    between atoms: N7_32  and  C19_34 
ROOT
HETATM    1  C5  UNL     1      26.328   9.924  31.019  1.00  0.00     0.049 A 
HETATM    2  C6  UNL     1      26.968  10.783  30.174  1.00  0.00     0.123 A 
HETATM    3  N2  UNL     1      26.680  12.127  30.173  1.00  0.00    -0.201 N 
ATOM      4  H2  UNL     1      27.181  12.734  29.524  1.00  0.00     0.183 HD
HETATM    5  C7  UNL     1      25.779  12.664  30.980  1.00  0.00     0.683 A 
HETATM    6  N6  UNL     1      25.137  11.803  31.825  1.00  0.00    -0.176 N 
ATOM      7  H6  UNL     1      24.437  12.189  32.458  1.00  0.00     0.186 HD
HETATM    8  C18 UNL     1      25.368  10.475  31.878  1.00  0.00     0.131 A 
ENDROOT
BRANCH   5   9
HETATM    9  N3  UNL     1      25.545  13.973  31.083  1.00  0.00    -0.205 N 
ATOM     10  H3  UNL     1      25.763  14.447  31.959  1.00  0.00     0.183 HD
BRANCH   9  11
HETATM   11  C8  UNL     1      25.014  14.709  30.031  1.00  0.00     0.085 C 
BRANCH  11  12
HETATM   12  C9  UNL     1      23.989  15.766  30.130  1.00  0.00     0.043 C 
HETATM   13  C10 UNL     1      24.831  16.995  30.660  1.00  0.00     0.013 C 
HETATM   14  C11 UNL     1      23.942  18.149  30.864  1.00  0.00     0.021 C 
HETATM   15  C12 UNL     1      23.055  17.804  32.078  1.00  0.00     0.127 C 
HETATM   16  N4  UNL     1      22.292  16.636  31.761  1.00  0.00    -0.333 N 
HETATM   17  C13 UNL     1      20.949  16.502  32.256  1.00  0.00     0.320 C 
HETATM   18  C17 UNL     1      22.864  15.528  31.016  1.00  0.00     0.137 C 
HETATM   19  O2  UNL     1      20.256  15.566  31.756  1.00  0.00    -0.247 OA
HETATM   20  N5  UNL     1      20.430  17.361  33.249  1.00  0.00    -0.334 N 
HETATM   21  C14 UNL     1      20.702  18.391  34.176  1.00  0.00     0.129 C 
HETATM   22  C16 UNL     1      18.997  17.490  33.696  1.00  0.00     0.129 C 
HETATM   23  C15 UNL     1      19.297  18.948  33.946  1.00  0.00     0.040 C 
ENDBRANCH  11  12
ENDBRANCH   9  11
ENDBRANCH   5   9
BRANCH   8  24
HETATM   24  N7  UNL     1      24.735   9.633  32.572  1.00  0.00    -0.371 N 
ATOM     25  H7  UNL     1      24.294   8.942  31.964  1.00  0.00     0.161 HD
BRANCH  24  26
HETATM   26  C19 UNL     1      24.445   9.348  33.899  1.00  0.00     0.075 C 
HETATM   27  C20 UNL     1      23.069   9.960  34.270  1.00  0.00     0.031 C 
HETATM   28  C21 UNL     1      25.402  10.093  34.875  1.00  0.00     0.031 C 
ENDBRANCH  24  26
ENDBRANCH   8  24
BRANCH   1  29
HETATM   29  C3  UNL     1      26.823   8.528  31.119  1.00  0.00     0.044 C 
BRANCH  29  30
HETATM   30  N1  UNL     1      26.666   7.718  30.013  1.00  0.00    -0.391 N 
ATOM     31  H1  UNL     1      25.756   7.503  29.605  1.00  0.00     0.159 HD
BRANCH  30  32
HETATM   32  C2  UNL     1      27.934   7.193  29.474  1.00  0.00     0.115 C 
HETATM   33  C1  UNL     1      27.766   6.144  28.431  1.00  0.00     0.026 C 
ENDBRANCH  30  32
ENDBRANCH  29  30
BRANCH  29  34
HETATM   34  C4  UNL     1      27.864   8.345  32.162  1.00  0.00     0.221 C 
BRANCH  34  35
HETATM   35  O1  UNL     1      27.414   7.700  33.293  1.00  0.00    -0.395 OA
ATOM     36  H1  UNL     1      26.504   7.879  33.503  1.00  0.00     0.209 HD
ENDBRANCH  34  35
ENDBRANCH  29  34
ENDBRANCH   1  29
TORSDOF 10
ENDMDL
MODEL 2
REMARK VINA RESULT: -7.212665708      1.746      2.923
REMARK  10 active torsions:
REMARK  status: ('A' for Active; 'I' for Inactive)
REMARK    1  A    between atoms: C2_2  and  N1_3 
REMARK    2  A    between atoms: N1_3  and  C3_5 
REMARK    3  A    between atoms: C3_5  and  C4_6 
REMARK    4  A    between atoms: C3_5  and  C5_9 
REMARK    5  A    between atoms: C4_6  and  O1_7 
REMARK    6  A    between atoms: C7_13  and  N3_14 
REMARK    7  A    between atoms: N3_14  and  C8_16 
REMARK    8  A    between atoms: C8_16  and  C9_17 
REMARK       I    between atoms: N4_21  and  C13_22 
REMARK       I    between atoms: C13_22  and  N5_24 
REMARK    9  A    between atoms: C18_31  and  N7_32 
REMARK   10  A    between atoms: N7_32  and  C19_34 
ROOT
HETATM    1  C5  UNL     1      25.004   9.774  32.910  1.00  0.00     0.049 A 
HETATM    2  C6  UNL     1      23.872  10.525  32.788  1.00  0.00     0.123 A 
HETATM    3  N2  UNL     1      23.938  11.886  32.604  1.00  0.00    -0.201 N 
ATOM      4  H2  UNL     1      23.068  12.412  32.519  1.00  0.00     0.183 HD
HETATM    5  C7  UNL     1      25.086  12.541  32.534  1.00  0.00     0.683 A 
HETATM    6  N6  UNL     1      26.219  11.788  32.659  1.00  0.00    -0.176 N 
ATOM      7  H6  UNL     1      27.118  12.268  32.609  1.00  0.00     0.186 HD
HETATM    8  C18 UNL     1      26.228  10.452  32.842  1.00  0.00     0.131 A 
ENDROOT
BRANCH   5   9
HETATM    9  N3  UNL     1      25.195  13.841  32.254  1.00  0.00    -0.205 N 
ATOM     10  H3  UNL     1      25.587  14.467  32.957  1.00  0.00     0.183 HD
BRANCH   9  11
HETATM   11  C8  UNL     1      24.791  14.366  31.033  1.00  0.00     0.085 C 
BRANCH  11  12
HETATM   12  C9  UNL     1      23.790  15.429  30.823  1.00  0.00     0.043 C 
HETATM   13  C10 UNL     1      24.582  16.722  31.270  1.00  0.00     0.013 C 
HETATM   14  C11 UNL     1      23.703  17.897  31.168  1.00  0.00     0.021 C 
HETATM   15  C12 UNL     1      22.649  17.750  32.284  1.00  0.00     0.127 C 
HETATM   16  N4  UNL     1      21.907  16.550  32.047  1.00  0.00    -0.333 N 
HETATM   17  C13 UNL     1      20.506  16.499  32.363  1.00  0.00     0.320 C 
HETATM   18  C17 UNL     1      22.547  15.336  31.568  1.00  0.00     0.137 C 
HETATM   19  O2  UNL     1      19.864  15.500  31.921  1.00  0.00    -0.247 OA
HETATM   20  N5  UNL     1      19.876  17.505  33.129  1.00  0.00    -0.334 N 
HETATM   21  C14 UNL     1      20.045  18.665  33.916  1.00  0.00     0.129 C 
HETATM   22  C16 UNL     1      18.399  17.708  33.346  1.00  0.00     0.129 C 
HETATM   23  C15 UNL     1      18.700  19.186  33.409  1.00  0.00     0.040 C 
ENDBRANCH  11  12
ENDBRANCH   9  11
ENDBRANCH   5   9
BRANCH   8  24
HETATM   24  N7  UNL     1      27.243   9.734  33.056  1.00  0.00    -0.371 N 
ATOM     25  H7  UNL     1      27.170   9.293  33.973  1.00  0.00     0.161 HD
BRANCH  24  26
HETATM   26  C19 UNL     1      28.427   9.352  32.441  1.00  0.00     0.075 C 
HETATM   27  C20 UNL     1      28.234   9.354  30.902  1.00  0.00     0.031 C 
HETATM   28  C21 UNL     1      28.772   7.859  32.720  1.00  0.00     0.031 C 
ENDBRANCH  24  26
ENDBRANCH   8  24
BRANCH   1  29
HETATM   29  C3  UNL     1      24.876   8.295  32.900  1.00  0.00     0.044 C 
BRANCH  29  30
HETATM   30  N1  UNL     1      24.399   7.691  34.045  1.00  0.00    -0.391 N 
ATOM     31  H1  UNL     1      23.406   7.626  34.268  1.00  0.00     0.159 HD
BRANCH  30  32
HETATM   32  C2  UNL     1      25.458   7.148  34.917  1.00  0.00     0.115 C 
HETATM   33  C1  UNL     1      25.899   5.772  34.556  1.00  0.00     0.026 C 
ENDBRANCH  30  32
ENDBRANCH  29  30
BRANCH  29  34
HETATM   34  C4  UNL     1      24.774   7.722  31.534  1.00  0.00     0.221 C 
BRANCH  34  35
HETATM   35  O1  UNL     1      25.808   6.872  31.205  1.00  0.00    -0.395 OA
ATOM     36  H1  UNL     1      26.569   6.956  31.768  1.00  0.00     0.209 HD
ENDBRANCH  34  35
ENDBRANCH  29  34
ENDBRANCH   1  29
TORSDOF 10
ENDMDL
MODEL 3
REMARK VINA RESULT: -6.958838407      1.573      3.060
REMARK  10 active torsions:
REMARK  status: ('A' for Active; 'I' for Inactive)
REMARK    1  A    between atoms: C2_2  and  N1_3 
REMARK    2  A    between atoms: N1_3  and  C3_5 
REMARK    3  A    between atoms: C3_5  and  C4_6 
REMARK    4  A    between atoms: C3_5  and  C5_9 
REMARK    5  A    between atoms: C4_6  and  O1_7 
REMARK    6  A    between atoms: C7_13  and  N3_14 
REMARK    7  A    between atoms: N3_14  and  C8_16 
REMARK    8  A    between atoms: C8_16  and  C9_17 
REMARK       I    between atoms: N4_21  and  C13_22 
REMARK       I    between atoms: C13_22  and  N5_24 
REMARK    9  A    between atoms: C18_31  and  N7_32 
REMARK   10  A    between atoms: N7_32  and  C19_34 
ROOT
HETATM    1  C5  UNL     1      25.669  11.207  33.520  1.00  0.00     0.049 A 
HETATM    2  C6  UNL     1      26.171  12.401  33.946  1.00  0.00     0.123 A 
HETATM    3  N2  UNL     1      26.324  13.459  33.081  1.00  0.00    -0.201 N 
ATOM      4  H2  UNL     1      26.704  14.334  33.441  1.00  0.00     0.183 HD
HETATM    5  C7  UNL     1      25.996  13.385  31.801  1.00  0.00     0.683 A 
HETATM    6  N6  UNL     1      25.495  12.188  31.374  1.00  0.00    -0.176 N 
ATOM      7  H6  UNL     1      25.235  12.103  30.392  1.00  0.00     0.186 HD
HETATM    8  C18 UNL     1      25.321  11.110  32.167  1.00  0.00     0.131 A 
ENDROOT
BRANCH   5   9
HETATM    9  N3  UNL     1      26.030  14.416  30.955  1.00  0.00    -0.205 N 
ATOM     10  H3  UNL     1      26.826  15.054  30.985  1.00  0.00     0.183 HD
BRANCH   9  11
HETATM   11  C8  UNL     1      25.015  14.646  30.036  1.00  0.00     0.085 C 
BRANCH  11  12
HETATM   12  C9  UNL     1      23.987  15.702  30.110  1.00  0.00     0.043 C 
HETATM   13  C10 UNL     1      24.831  16.952  30.582  1.00  0.00     0.013 C 
HETATM   14  C11 UNL     1      23.940  18.110  30.756  1.00  0.00     0.021 C 
HETATM   15  C12 UNL     1      23.072  17.808  31.995  1.00  0.00     0.127 C 
HETATM   16  N4  UNL     1      22.310  16.626  31.732  1.00  0.00    -0.333 N 
HETATM   17  C13 UNL     1      20.975  16.505  32.252  1.00  0.00     0.320 C 
HETATM   18  C17 UNL     1      22.875  15.492  31.021  1.00  0.00     0.137 C 
HETATM   19  O2  UNL     1      20.278  15.549  31.797  1.00  0.00    -0.247 OA
HETATM   20  N5  UNL     1      20.466  17.399  33.219  1.00  0.00    -0.334 N 
HETATM   21  C14 UNL     1      20.748  18.463  34.103  1.00  0.00     0.129 C 
HETATM   22  C16 UNL     1      19.039  17.539  33.683  1.00  0.00     0.129 C 
HETATM   23  C15 UNL     1      19.337  19.006  33.874  1.00  0.00     0.040 C 
ENDBRANCH  11  12
ENDBRANCH   9  11
ENDBRANCH   5   9
BRANCH   8  24
HETATM   24  N7  UNL     1      24.952   9.962  31.796  1.00  0.00    -0.371 N 
ATOM     25  H7  UNL     1      24.020   9.762  32.159  1.00  0.00     0.161 HD
BRANCH  24  26
HETATM   26  C19 UNL     1      25.411   8.885  31.051  1.00  0.00     0.075 C 
HETATM   27  C20 UNL     1      25.188   7.573  31.849  1.00  0.00     0.031 C 
HETATM   28  C21 UNL     1      26.960   8.906  30.892  1.00  0.00     0.031 C 
ENDBRANCH  24  26
ENDBRANCH   8  24
BRANCH   1  29
HETATM   29  C3  UNL     1      25.337  10.175  34.535  1.00  0.00     0.044 C 
BRANCH  29  30
HETATM   30  N1  UNL     1      26.372   9.689  35.308  1.00  0.00    -0.391 N 
ATOM     31  H1  UNL     1      27.166  10.260  35.597  1.00  0.00     0.159 HD
BRANCH  30  32
HETATM   32  C2  UNL     1      26.223   8.269  35.676  1.00  0.00     0.115 C 
HETATM   33  C1  UNL     1      27.512   7.539  35.827  1.00  0.00     0.026 C 
ENDBRANCH  30  32
ENDBRANCH  29  30
BRANCH  29  34
HETATM   34  C4  UNL     1      23.909  10.185  34.940  1.00  0.00     0.221 C 
BRANCH  34  35
HETATM   35  O1  UNL     1      23.139   9.240  34.297  1.00  0.00    -0.395 OA
ATOM     36  H1  UNL     1      22.301   9.076  34.715  1.00  0.00     0.209 HD
ENDBRANCH  34  35
ENDBRANCH  29  34
ENDBRANCH   1  29
TORSDOF 10
ENDMDL
MODEL 4
REMARK VINA RESULT: -6.925213167      2.886     10.047
REMARK  10 active torsions:
REMARK  status: ('A' for Active; 'I' for Inactive)
REMARK    1  A    between atoms: C2_2  and  N1_3 
REMARK    2  A    between atoms: N1_3  and  C3_5 
REMARK    3  A    between atoms: C3_5  and  C4_6 
REMARK    4  A    between atoms: C3_5  and  C5_9 
REMARK    5  A    between atoms: C4_6  and  O1_7 
REMARK    6  A    between atoms: C7_13  and  N3_14 
REMARK    7  A    between atoms: N3_14  and  C8_16 
REMARK    8  A    between atoms: C8_16  and  C9_17 
REMARK       I    between atoms: N4_21  and  C13_22 
REMARK       I    between atoms: C13_22  and  N5_24 
REMARK    9  A    between atoms: C18_31  and  N7_32 
REMARK   10  A    between atoms: N7_32  and  C19_34 
ROOT
HETATM    1  C5  UNL     1      23.556  17.360  34.356  1.00  0.00     0.049 A 
HETATM    2  C6  UNL     1      24.597  16.481  34.304  1.00  0.00     0.123 A 
HETATM    3  N2  UNL     1      24.437  15.217  33.785  1.00  0.00    -0.201 N 
ATOM      4  H2  UNL     1      25.241  14.590  33.767  1.00  0.00     0.183 HD
HETATM    5  C7  UNL     1      23.280  14.784  33.310  1.00  0.00     0.683 A 
HETATM    6  N6  UNL     1      22.238  15.665  33.363  1.00  0.00    -0.176 N 
ATOM      7  H6  UNL     1      21.334  15.356  33.004  1.00  0.00     0.186 HD
HETATM    8  C18 UNL     1      22.323  16.916  33.859  1.00  0.00     0.131 A 
ENDROOT
BRANCH   5   9
HETATM    9  N3  UNL     1      23.109  13.607  32.705  1.00  0.00    -0.205 N 
ATOM     10  H3  UNL     1      22.211  13.402  32.267  1.00  0.00     0.183 HD
BRANCH   9  11
HETATM   11  C8  UNL     1      24.118  12.653  32.655  1.00  0.00     0.085 C 
BRANCH  11  12
HETATM   12  C9  UNL     1      23.940  11.189  32.655  1.00  0.00     0.043 C 
HETATM   13  C10 UNL     1      23.850  10.867  34.201  1.00  0.00     0.013 C 
HETATM   14  C11 UNL     1      23.715   9.414  34.393  1.00  0.00     0.021 C 
HETATM   15  C12 UNL     1      25.072   8.795  34.002  1.00  0.00     0.127 C 
HETATM   16  N4  UNL     1      25.323   9.095  32.626  1.00  0.00    -0.333 N 
HETATM   17  C13 UNL     1      26.001   8.136  31.796  1.00  0.00     0.320 C 
HETATM   18  C17 UNL     1      24.987  10.386  32.050  1.00  0.00     0.137 C 
HETATM   19  O2  UNL     1      25.987   8.361  30.550  1.00  0.00    -0.247 OA
HETATM   20  N5  UNL     1      26.652   7.006  32.339  1.00  0.00    -0.334 N 
HETATM   21  C14 UNL     1      27.075   6.341  33.510  1.00  0.00     0.129 C 
HETATM   22  C16 UNL     1      27.198   5.814  31.598  1.00  0.00     0.129 C 
HETATM   23  C15 UNL     1      26.835   5.000  32.816  1.00  0.00     0.040 C 
ENDBRANCH  11  12
ENDBRANCH   9  11
ENDBRANCH   5   9
BRANCH   8  24
HETATM   24  N7  UNL     1      21.368  17.726  34.015  1.00  0.00    -0.371 N 
ATOM     25  H7  UNL     1      21.524  18.292  34.849  1.00  0.00     0.161 HD
BRANCH  24  26
HETATM   26  C19 UNL     1      20.173  18.091  33.412  1.00  0.00     0.075 C 
HETATM   27  C20 UNL     1      19.526  19.253  34.212  1.00  0.00     0.031 C 
HETATM   28  C21 UNL     1      19.094  16.975  33.538  1.00  0.00     0.031 C 
ENDBRANCH  24  26
ENDBRANCH   8  24
BRANCH   1  29
HETATM   29  C3  UNL     1      23.837  18.768  34.733  1.00  0.00     0.044 C 
BRANCH  29  30
HETATM   30  N1  UNL     1      23.492  19.163  36.010  1.00  0.00    -0.391 N 
ATOM     31  H1  UNL     1      22.566  19.512  36.254  1.00  0.00     0.159 HD
BRANCH  30  32
HETATM   32  C2  UNL     1      24.589  19.035  36.988  1.00  0.00     0.115 C 
HETATM   33  C1  UNL     1      24.441  17.883  37.921  1.00  0.00     0.026 C 
ENDBRANCH  30  32
ENDBRANCH  29  30
BRANCH  29  34
HETATM   34  C4  UNL     1      24.896  19.400  33.907  1.00  0.00     0.221 C 
BRANCH  34  35
HETATM   35  O1  UNL     1      24.959  20.771  34.032  1.00  0.00    -0.395 OA
ATOM     36  H1  UNL     1      25.479  21.067  34.770  1.00  0.00     0.209 HD
ENDBRANCH  34  35
ENDBRANCH  29  34
ENDBRANCH   1  29
TORSDOF 10
ENDMDL
MODEL 5
REMARK VINA RESULT: -6.865612479      3.076      9.962
REMARK  10 active torsions:
REMARK  status: ('A' for Active; 'I' for Inactive)
REMARK    1  A    between atoms: C2_2  and  N1_3 
REMARK    2  A    between atoms: N1_3  and  C3_5 
REMARK    3  A    between atoms: C3_5  and  C4_6 
REMARK    4  A    between atoms: C3_5  and  C5_9 
REMARK    5  A    between atoms: C4_6  and  O1_7 
REMARK    6  A    between atoms: C7_13  and  N3_14 
REMARK    7  A    between atoms: N3_14  and  C8_16 
REMARK    8  A    between atoms: C8_16  and  C9_17 
REMARK       I    between atoms: N4_21  and  C13_22 
REMARK       I    between atoms: C13_22  and  N5_24 
REMARK    9  A    between atoms: C18_31  and  N7_32 
REMARK   10  A    between atoms: N7_32  and  C19_34 
ROOT
HETATM    1  C5  UNL     1      23.610  17.278  34.331  1.00  0.00     0.049 A 
HETATM    2  C6  UNL     1      24.683  16.439  34.286  1.00  0.00     0.123 A 
HETATM    3  N2  UNL     1      24.572  15.166  33.778  1.00  0.00    -0.201 N 
ATOM      4  H2  UNL     1      25.400  14.570  33.764  1.00  0.00     0.183 HD
HETATM    5  C7  UNL     1      23.433  14.683  33.308  1.00  0.00     0.683 A 
HETATM    6  N6  UNL     1      22.357  15.524  33.355  1.00  0.00    -0.176 N 
ATOM      7  H6  UNL     1      21.465  15.177  33.000  1.00  0.00     0.186 HD
HETATM    8  C18 UNL     1      22.394  16.782  33.841  1.00  0.00     0.131 A 
ENDROOT
BRANCH   5   9
HETATM    9  N3  UNL     1      23.306  13.496  32.713  1.00  0.00    -0.205 N 
ATOM     10  H3  UNL     1      23.222  13.458  31.698  1.00  0.00     0.183 HD
BRANCH   9  11
HETATM   11  C8  UNL     1      23.287  12.310  33.438  1.00  0.00     0.085 C 
BRANCH  11  12
HETATM   12  C9  UNL     1      24.444  11.447  33.738  1.00  0.00     0.043 C 
HETATM   13  C10 UNL     1      25.155  11.345  32.329  1.00  0.00     0.013 C 
HETATM   14  C11 UNL     1      26.330  10.465  32.433  1.00  0.00     0.021 C 
HETATM   15  C12 UNL     1      25.786   9.037  32.636  1.00  0.00     0.127 C 
HETATM   16  N4  UNL     1      25.034   9.010  33.852  1.00  0.00    -0.333 N 
HETATM   17  C13 UNL     1      25.051   7.835  34.680  1.00  0.00     0.320 C 
HETATM   18  C17 UNL     1      24.174  10.114  34.244  1.00  0.00     0.137 C 
HETATM   19  O2  UNL     1      24.558   7.956  35.841  1.00  0.00    -0.247 OA
HETATM   20  N5  UNL     1      25.584   6.609  34.225  1.00  0.00    -0.334 N 
HETATM   21  C14 UNL     1      26.105   5.885  33.130  1.00  0.00     0.129 C 
HETATM   22  C16 UNL     1      25.877   5.374  35.037  1.00  0.00     0.129 C 
HETATM   23  C15 UNL     1      27.025   5.128  34.088  1.00  0.00     0.040 C 
ENDBRANCH  11  12
ENDBRANCH   9  11
ENDBRANCH   5   9
BRANCH   8  24
HETATM   24  N7  UNL     1      21.408  17.555  33.990  1.00  0.00    -0.371 N 
ATOM     25  H7  UNL     1      21.489  18.053  34.877  1.00  0.00     0.161 HD
BRANCH  24  26
HETATM   26  C19 UNL     1      20.249  17.944  33.333  1.00  0.00     0.075 C 
HETATM   27  C20 UNL     1      19.655  19.195  34.031  1.00  0.00     0.031 C 
HETATM   28  C21 UNL     1      19.105  16.903  33.511  1.00  0.00     0.031 C 
ENDBRANCH  24  26
ENDBRANCH   8  24
BRANCH   1  29
HETATM   29  C3  UNL     1      23.835  18.699  34.696  1.00  0.00     0.044 C 
BRANCH  29  30
HETATM   30  N1  UNL     1      23.461  19.095  35.964  1.00  0.00    -0.391 N 
ATOM     31  H1  UNL     1      22.520  19.416  36.192  1.00  0.00     0.159 HD
BRANCH  30  32
HETATM   32  C2  UNL     1      24.547  19.013  36.958  1.00  0.00     0.115 C 
HETATM   33  C1  UNL     1      24.443  17.849  37.880  1.00  0.00     0.026 C 
ENDBRANCH  30  32
ENDBRANCH  29  30
BRANCH  29  34
HETATM   34  C4  UNL     1      24.883  19.358  33.876  1.00  0.00     0.221 C 
BRANCH  34  35
HETATM   35  O1  UNL     1      24.927  20.728  34.024  1.00  0.00    -0.395 OA
ATOM     36  H1  UNL     1      24.206  21.085  34.530  1.00  0.00     0.209 HD
ENDBRANCH  34  35
ENDBRANCH  29  34
ENDBRANCH   1  29
TORSDOF 10
ENDMDL
