MODEL 1
REMARK VINA RESULT: -7.543190528      0.000      0.000
REMARK  7 active torsions:
REMARK  status: ('A' for Active; 'I' for Inactive)
REMARK    1  A    between atoms: C2_2  and  N1_3 
REMARK    2  A    between atoms: C2_2  and  C17_29 
REMARK       I    between atoms: N1_3  and  C3_5 
REMARK       I    between atoms: C3_5  and  N2_7 
REMARK    3  A    between atoms: N2_7  and  C4_9 
REMARK    4  A    between atoms: C10_15  and  O2_16 
REMARK    5  A    between atoms: C13_20  and  N3_21 
REMARK    6  A    between atoms: N3_21  and  S1_23 
REMARK    7  A    between atoms: S1_23  and  C14_26 
ROOT
HETATM    1  C4  UNL     1      23.989  17.757  34.979  1.00  0.00     0.059 C 
HETATM    2  C5  UNL     1      24.708  18.982  34.456  1.00  0.00     0.038 C 
HETATM    3  C6  UNL     1      26.184  18.744  34.415  1.00  0.00    -0.009 C 
HETATM    4  C7  UNL     1      26.513  17.561  33.522  1.00  0.00     0.011 C 
HETATM    5  C8  UNL     1      25.838  16.364  34.133  1.00  0.00     0.014 C 
HETATM    6  C9  UNL     1      26.420  16.127  35.488  1.00  0.00     0.044 C 
HETATM    7  C10 UNL     1      26.047  17.300  36.372  1.00  0.00     0.061 C 
HETATM    8  C11 UNL     1      26.709  18.535  35.808  1.00  0.00     0.042 C 
HETATM    9  C12 UNL     1      24.574  17.520  36.397  1.00  0.00     0.071 C 
HETATM   10  C13 UNL     1      24.324  16.514  34.224  1.00  0.00     0.125 C 
ENDROOT
BRANCH   1  11
HETATM   11  N2  UNL     1      22.598  18.001  35.172  1.00  0.00    -0.332 N 
HETATM   12  C3  UNL     1      21.633  18.361  34.220  1.00  0.00     0.317 C 
HETATM   13  N1  UNL     1      20.261  18.572  34.520  1.00  0.00    -0.329 N 
HETATM   14  O1  UNL     1      21.959  18.516  33.020  1.00  0.00    -0.247 OA
ATOM     15  H1  UNL     1      19.964  18.454  35.489  1.00  0.00     0.165 HD
ATOM     16  H2  UNL     1      22.259  17.900  36.129  1.00  0.00     0.165 HD
BRANCH  13  17
HETATM   17  C2  UNL     1      19.267  18.938  33.562  1.00  0.00     0.183 C 
HETATM   18  C1  UNL     1      18.508  20.168  33.923  1.00  0.00     0.043 C 
BRANCH  17  19
HETATM   19  C17 UNL     1      18.336  17.832  33.239  1.00  0.00     0.196 C 
HETATM   20  O5  UNL     1      18.425  16.708  33.790  1.00  0.00    -0.646 OA
HETATM   21  O6  UNL     1      17.328  18.018  32.306  1.00  0.00    -0.646 OA
ENDBRANCH  17  19
ENDBRANCH  13  17
ENDBRANCH   1  11
BRANCH  10  22
HETATM   22  N3  UNL     1      23.722  16.334  32.963  1.00  0.00    -0.312 N 
ATOM     23  H3  UNL     1      23.712  17.079  32.266  1.00  0.00     0.172 HD
BRANCH  22  24
HETATM   24  S1  UNL     1      23.013  14.819  32.654  1.00  0.00     0.230 S 
HETATM   25  O3  UNL     1      22.868  14.632  31.146  1.00  0.00    -0.206 OA
HETATM   26  O4  UNL     1      21.636  14.705  33.297  1.00  0.00    -0.206 OA
BRANCH  24  27
HETATM   27  C14 UNL     1      23.960  13.433  33.226  1.00  0.00     0.121 C 
HETATM   28  C15 UNL     1      23.164  12.178  33.410  1.00  0.00     0.027 C 
HETATM   29  C16 UNL     1      24.946  13.125  32.068  1.00  0.00     0.027 C 
ENDBRANCH  24  27
ENDBRANCH  22  24
ENDBRANCH  10  22
BRANCH   7  30
HETATM   30  O2  UNL     1      26.479  17.127  37.670  1.00  0.00    -0.390 OA
ATOM     31  H2  UNL     1      26.531  17.950  38.141  1.00  0.00     0.210 HD
ENDBRANCH   7  30
TORSDOF 7
ENDMDL
MODEL 2
REMARK VINA RESULT: -7.516090305      2.532      4.159
REMARK  7 active torsions:
REMARK  status: ('A' for Active; 'I' for Inactive)
REMARK    1  A    between atoms: C2_2  and  N1_3 
REMARK    2  A    between atoms: C2_2  and  C17_29 
REMARK       I    between atoms: N1_3  and  C3_5 
REMARK       I    between atoms: C3_5  and  N2_7 
REMARK    3  A    between atoms: N2_7  and  C4_9 
REMARK    4  A    between atoms: C10_15  and  O2_16 
REMARK    5  A    between atoms: C13_20  and  N3_21 
REMARK    6  A    between atoms: N3_21  and  S1_23 
REMARK    7  A    between atoms: S1_23  and  C14_26 
ROOT
HETATM    1  C4  UNL     1      23.691  16.164  33.334  1.00  0.00     0.059 C 
HETATM    2  C5  UNL     1      24.852  15.932  34.278  1.00  0.00     0.038 C 
HETATM    3  C6  UNL     1      25.854  15.012  33.656  1.00  0.00    -0.009 C 
HETATM    4  C7  UNL     1      26.383  15.591  32.356  1.00  0.00     0.011 C 
HETATM    5  C8  UNL     1      25.200  15.725  31.436  1.00  0.00     0.014 C 
HETATM    6  C9  UNL     1      24.644  14.364  31.172  1.00  0.00     0.044 C 
HETATM    7  C10 UNL     1      24.088  13.822  32.472  1.00  0.00     0.061 C 
HETATM    8  C11 UNL     1      25.240  13.657  33.437  1.00  0.00     0.042 C 
HETATM    9  C12 UNL     1      23.095  14.754  33.074  1.00  0.00     0.071 C 
HETATM   10  C13 UNL     1      24.117  16.643  31.987  1.00  0.00     0.125 C 
ENDROOT
BRANCH   1  11
HETATM   11  N2  UNL     1      22.649  16.915  33.952  1.00  0.00    -0.332 N 
HETATM   12  C3  UNL     1      21.526  17.506  33.355  1.00  0.00     0.317 C 
HETATM   13  N1  UNL     1      20.536  18.230  34.071  1.00  0.00    -0.329 N 
HETATM   14  O1  UNL     1      21.347  17.413  32.119  1.00  0.00    -0.247 OA
ATOM     15  H1  UNL     1      20.653  18.324  35.080  1.00  0.00     0.165 HD
ATOM     16  H2  UNL     1      22.731  17.038  34.961  1.00  0.00     0.165 HD
BRANCH  13  17
HETATM   17  C2  UNL     1      19.387  18.837  33.478  1.00  0.00     0.183 C 
HETATM   18  C1  UNL     1      18.876  20.018  34.229  1.00  0.00     0.043 C 
BRANCH  17  19
HETATM   19  C17 UNL     1      18.290  17.876  33.219  1.00  0.00     0.196 C 
HETATM   20  O5  UNL     1      18.210  16.782  33.828  1.00  0.00    -0.646 OA
HETATM   21  O6  UNL     1      17.312  18.169  32.281  1.00  0.00    -0.646 OA
ENDBRANCH  17  19
ENDBRANCH  13  17
ENDBRANCH   1  11
BRANCH  10  22
HETATM   22  N3  UNL     1      24.492  17.997  31.865  1.00  0.00    -0.312 N 
ATOM     23  H3  UNL     1      24.562  18.606  32.679  1.00  0.00     0.172 HD
BRANCH  22  24
HETATM   24  S1  UNL     1      24.822  18.568  30.297  1.00  0.00     0.230 S 
HETATM   25  O3  UNL     1      23.942  19.783  30.011  1.00  0.00    -0.206 OA
HETATM   26  O4  UNL     1      24.542  17.502  29.244  1.00  0.00    -0.206 OA
BRANCH  24  27
HETATM   27  C14 UNL     1      26.492  19.107  30.046  1.00  0.00     0.121 C 
HETATM   28  C15 UNL     1      27.318  19.152  31.294  1.00  0.00     0.027 C 
HETATM   29  C16 UNL     1      27.136  17.999  29.171  1.00  0.00     0.027 C 
ENDBRANCH  24  27
ENDBRANCH  22  24
ENDBRANCH  10  22
BRANCH   7  30
HETATM   30  O2  UNL     1      23.481  12.595  32.304  1.00  0.00    -0.390 OA
ATOM     31  H2  UNL     1      23.054  12.297  33.098  1.00  0.00     0.210 HD
ENDBRANCH   7  30
TORSDOF 7
ENDMDL
MODEL 3
REMARK VINA RESULT: -7.472992709      3.052      6.693
REMARK  7 active torsions:
REMARK  status: ('A' for Active; 'I' for Inactive)
REMARK    1  A    between atoms: C2_2  and  N1_3 
REMARK    2  A    between atoms: C2_2  and  C17_29 
REMARK       I    between atoms: N1_3  and  C3_5 
REMARK       I    between atoms: C3_5  and  N2_7 
REMARK    3  A    between atoms: N2_7  and  C4_9 
REMARK    4  A    between atoms: C10_15  and  O2_16 
REMARK    5  A    between atoms: C13_20  and  N3_21 
REMARK    6  A    between atoms: N3_21  and  S1_23 
REMARK    7  A    between atoms: S1_23  and  C14_26 
ROOT
HETATM    1  C4  UNL     1      23.639  15.129  32.393  1.00  0.00     0.059 C 
HETATM    2  C5  UNL     1      24.698  15.545  33.391  1.00  0.00     0.038 C 
HETATM    3  C6  UNL     1      25.100  16.968  33.163  1.00  0.00    -0.009 C 
HETATM    4  C7  UNL     1      23.904  17.893  33.297  1.00  0.00     0.011 C 
HETATM    5  C8  UNL     1      22.924  17.482  32.232  1.00  0.00     0.014 C 
HETATM    6  C9  UNL     1      23.555  17.693  30.895  1.00  0.00     0.044 C 
HETATM    7  C10 UNL     1      24.721  16.734  30.768  1.00  0.00     0.061 C 
HETATM    8  C11 UNL     1      25.746  17.108  31.813  1.00  0.00     0.042 C 
HETATM    9  C12 UNL     1      24.298  15.324  31.001  1.00  0.00     0.071 C 
HETATM   10  C13 UNL     1      22.457  16.039  32.377  1.00  0.00     0.125 C 
ENDROOT
BRANCH   1  11
HETATM   11  N2  UNL     1      23.341  13.738  32.486  1.00  0.00    -0.332 N 
HETATM   12  C3  UNL     1      24.163  12.697  32.942  1.00  0.00     0.317 C 
HETATM   13  N1  UNL     1      23.760  11.336  33.003  1.00  0.00    -0.329 N 
HETATM   14  O1  UNL     1      25.330  12.939  33.329  1.00  0.00    -0.247 OA
ATOM     15  H1  UNL     1      22.815  11.107  32.694  1.00  0.00     0.165 HD
ATOM     16  H2  UNL     1      22.408  13.464  32.180  1.00  0.00     0.165 HD
BRANCH  13  17
HETATM   17  C2  UNL     1      24.584  10.265  33.465  1.00  0.00     0.183 C 
HETATM   18  C1  UNL     1      24.510   9.041  32.618  1.00  0.00     0.043 C 
BRANCH  17  19
HETATM   19  C17 UNL     1      24.351   9.925  34.888  1.00  0.00     0.196 C 
HETATM   20  O5  UNL     1      23.219   9.586  35.311  1.00  0.00    -0.646 OA
HETATM   21  O6  UNL     1      25.395   9.974  35.798  1.00  0.00    -0.646 OA
ENDBRANCH  17  19
ENDBRANCH  13  17
ENDBRANCH   1  11
BRANCH  10  22
HETATM   22  N3  UNL     1      21.523  15.914  33.425  1.00  0.00    -0.312 N 
ATOM     23  H3  UNL     1      21.821  15.828  34.397  1.00  0.00     0.172 HD
BRANCH  22  24
HETATM   24  S1  UNL     1      19.877  15.912  32.997  1.00  0.00     0.230 S 
HETATM   25  O3  UNL     1      19.226  14.631  33.515  1.00  0.00    -0.206 OA
HETATM   26  O4  UNL     1      19.693  15.979  31.486  1.00  0.00    -0.206 OA
BRANCH  24  27
HETATM   27  C14 UNL     1      18.936  17.247  33.686  1.00  0.00     0.121 C 
HETATM   28  C15 UNL     1      19.762  18.401  34.163  1.00  0.00     0.027 C 
HETATM   29  C16 UNL     1      18.111  17.802  32.494  1.00  0.00     0.027 C 
ENDBRANCH  24  27
ENDBRANCH  22  24
ENDBRANCH  10  22
BRANCH   7  30
HETATM   30  O2  UNL     1      25.316  16.806  29.526  1.00  0.00    -0.390 OA
ATOM     31  H2  UNL     1      26.264  16.834  29.587  1.00  0.00     0.210 HD
ENDBRANCH   7  30
TORSDOF 7
ENDMDL
MODEL 4
REMARK VINA RESULT: -7.377056413      1.985      2.399
REMARK  7 active torsions:
REMARK  status: ('A' for Active; 'I' for Inactive)
REMARK    1  A    between atoms: C2_2  and  N1_3 
REMARK    2  A    between atoms: C2_2  and  C17_29 
REMARK       I    between atoms: N1_3  and  C3_5 
REMARK       I    between atoms: C3_5  and  N2_7 
REMARK    3  A    between atoms: N2_7  and  C4_9 
REMARK    4  A    between atoms: C10_15  and  O2_16 
REMARK    5  A    between atoms: C13_20  and  N3_21 
REMARK    6  A    between atoms: N3_21  and  S1_23 
REMARK    7  A    between atoms: S1_23  and  C14_26 
ROOT
HETATM    1  C4  UNL     1      24.370  18.789  34.889  1.00  0.00     0.059 C 
HETATM    2  C5  UNL     1      25.301  19.954  35.148  1.00  0.00     0.038 C 
HETATM    3  C6  UNL     1      26.567  19.478  35.787  1.00  0.00    -0.009 C 
HETATM    4  C7  UNL     1      27.273  18.471  34.897  1.00  0.00     0.011 C 
HETATM    5  C8  UNL     1      26.333  17.307  34.741  1.00  0.00     0.014 C 
HETATM    6  C9  UNL     1      26.104  16.694  36.083  1.00  0.00     0.044 C 
HETATM    7  C10 UNL     1      25.366  17.701  36.941  1.00  0.00     0.061 C 
HETATM    8  C11 UNL     1      26.271  18.894  37.140  1.00  0.00     0.042 C 
HETATM    9  C12 UNL     1      24.110  18.162  36.285  1.00  0.00     0.071 C 
HETATM   10  C13 UNL     1      25.006  17.693  34.101  1.00  0.00     0.125 C 
ENDROOT
BRANCH   1  11
HETATM   11  N2  UNL     1      23.096  19.224  34.419  1.00  0.00    -0.332 N 
HETATM   12  C3  UNL     1      21.899  18.497  34.341  1.00  0.00     0.317 C 
HETATM   13  N1  UNL     1      20.674  19.034  33.862  1.00  0.00    -0.329 N 
HETATM   14  O1  UNL     1      21.864  17.299  34.707  1.00  0.00    -0.247 OA
ATOM     15  H1  UNL     1      20.670  20.008  33.557  1.00  0.00     0.165 HD
ATOM     16  H2  UNL     1      23.049  20.190  34.098  1.00  0.00     0.165 HD
BRANCH  13  17
HETATM   17  C2  UNL     1      19.448  18.308  33.778  1.00  0.00     0.183 C 
HETATM   18  C1  UNL     1      19.488  17.170  32.817  1.00  0.00     0.043 C 
BRANCH  17  19
HETATM   19  C17 UNL     1      18.277  19.174  33.504  1.00  0.00     0.196 C 
HETATM   20  O5  UNL     1      17.243  18.733  32.947  1.00  0.00    -0.646 OA
HETATM   21  O6  UNL     1      18.300  20.512  33.863  1.00  0.00    -0.646 OA
ENDBRANCH  17  19
ENDBRANCH  13  17
ENDBRANCH   1  11
BRANCH  10  22
HETATM   22  N3  UNL     1      25.153  17.890  32.712  1.00  0.00    -0.312 N 
ATOM     23  H3  UNL     1      25.889  18.484  32.333  1.00  0.00     0.172 HD
BRANCH  22  24
HETATM   24  S1  UNL     1      24.046  17.090  31.698  1.00  0.00     0.230 S 
HETATM   25  O3  UNL     1      22.828  17.985  31.481  1.00  0.00    -0.206 OA
HETATM   26  O4  UNL     1      23.583  15.771  32.306  1.00  0.00    -0.206 OA
BRANCH  24  27
HETATM   27  C14 UNL     1      24.668  16.715  30.081  1.00  0.00     0.121 C 
HETATM   28  C15 UNL     1      26.103  16.288  30.056  1.00  0.00     0.027 C 
HETATM   29  C16 UNL     1      23.864  15.467  29.629  1.00  0.00     0.027 C 
ENDBRANCH  24  27
ENDBRANCH  22  24
ENDBRANCH  10  22
BRANCH   7  30
HETATM   30  O2  UNL     1      25.042  17.187  38.179  1.00  0.00    -0.390 OA
ATOM     31  H2  UNL     1      24.280  16.621  38.142  1.00  0.00     0.210 HD
ENDBRANCH   7  30
TORSDOF 7
ENDMDL
MODEL 5
REMARK VINA RESULT: -7.288549671      2.836      6.272
REMARK  7 active torsions:
REMARK  status: ('A' for Active; 'I' for Inactive)
REMARK    1  A    between atoms: C2_2  and  N1_3 
REMARK    2  A    between atoms: C2_2  and  C17_29 
REMARK       I    between atoms: N1_3  and  C3_5 
REMARK       I    between atoms: C3_5  and  N2_7 
REMARK    3  A    between atoms: N2_7  and  C4_9 
REMARK    4  A    between atoms: C10_15  and  O2_16 
REMARK    5  A    between atoms: C13_20  and  N3_21 
REMARK    6  A    between atoms: N3_21  and  S1_23 
REMARK    7  A    between atoms: S1_23  and  C14_26 
ROOT
HETATM    1  C4  UNL     1      24.766  15.923  31.494  1.00  0.00     0.059 C 
HETATM    2  C5  UNL     1      26.010  16.301  32.269  1.00  0.00     0.038 C 
HETATM    3  C6  UNL     1      26.256  17.774  32.173  1.00  0.00    -0.009 C 
HETATM    4  C7  UNL     1      25.075  18.553  32.724  1.00  0.00     0.011 C 
HETATM    5  C8  UNL     1      23.891  18.196  31.868  1.00  0.00     0.014 C 
HETATM    6  C9  UNL     1      24.159  18.644  30.469  1.00  0.00     0.044 C 
HETATM    7  C10 UNL     1      25.314  17.827  29.927  1.00  0.00     0.061 C 
HETATM    8  C11 UNL     1      26.541  18.155  30.747  1.00  0.00     0.042 C 
HETATM    9  C12 UNL     1      25.049  16.365  30.034  1.00  0.00     0.071 C 
HETATM   10  C13 UNL     1      23.562  16.709  31.896  1.00  0.00     0.125 C 
ENDROOT
BRANCH   1  11
HETATM   11  N2  UNL     1      24.586  14.510  31.440  1.00  0.00    -0.332 N 
HETATM   12  C3  UNL     1      24.723  13.571  32.473  1.00  0.00     0.317 C 
HETATM   13  N1  UNL     1      24.509  12.176  32.312  1.00  0.00    -0.329 N 
HETATM   14  O1  UNL     1      25.052  13.943  33.624  1.00  0.00    -0.247 OA
ATOM     15  H1  UNL     1      24.239  11.841  31.387  1.00  0.00     0.165 HD
ATOM     16  H2  UNL     1      24.322  14.131  30.531  1.00  0.00     0.165 HD
BRANCH  13  17
HETATM   17  C2  UNL     1      24.644  11.208  33.354  1.00  0.00     0.183 C 
HETATM   18  C1  UNL     1      25.330   9.957  32.926  1.00  0.00     0.043 C 
BRANCH  17  19
HETATM   19  C17 UNL     1      23.360  10.891  34.023  1.00  0.00     0.196 C 
HETATM   20  O5  UNL     1      22.302  11.508  33.751  1.00  0.00    -0.646 OA
HETATM   21  O6  UNL     1      23.300   9.890  34.979  1.00  0.00    -0.646 OA
ENDBRANCH  17  19
ENDBRANCH  13  17
ENDBRANCH   1  11
BRANCH  10  22
HETATM   22  N3  UNL     1      22.925  16.354  33.102  1.00  0.00    -0.312 N 
ATOM     23  H3  UNL     1      23.432  16.328  33.986  1.00  0.00     0.172 HD
BRANCH  22  24
HETATM   24  S1  UNL     1      21.269  15.972  33.016  1.00  0.00     0.230 S 
HETATM   25  O3  UNL     1      21.020  14.657  33.752  1.00  0.00    -0.206 OA
HETATM   26  O4  UNL     1      20.804  15.822  31.573  1.00  0.00    -0.206 OA
BRANCH  24  27
HETATM   27  C14 UNL     1      20.198  17.164  33.776  1.00  0.00     0.121 C 
HETATM   28  C15 UNL     1      20.820  18.512  33.973  1.00  0.00     0.027 C 
HETATM   29  C16 UNL     1      19.062  17.386  32.743  1.00  0.00     0.027 C 
ENDBRANCH  24  27
ENDBRANCH  22  24
ENDBRANCH  10  22
BRANCH   7  30
HETATM   30  O2  UNL     1      25.581  18.122  28.606  1.00  0.00    -0.390 OA
ATOM     31  H2  UNL     1      25.658  17.338  28.075  1.00  0.00     0.210 HD
ENDBRANCH   7  30
TORSDOF 7
ENDMDL
