MODEL 1
REMARK VINA RESULT: -7.585009485      0.000      0.000
REMARK  7 active torsions:
REMARK  status: ('A' for Active; 'I' for Inactive)
REMARK    1  A    between atoms: C2_2  and  C4_4 
REMARK    2  A    between atoms: C15_18  and  C16_19 
REMARK    3  A    between atoms: C16_19  and  N2_20 
REMARK    4  A    between atoms: N2_20  and  S1_22 
REMARK    5  A    between atoms: S1_22  and  N3_25 
REMARK    6  A    between atoms: N3_25  and  C17_27 
REMARK    7  A    between atoms: C17_27  and  O4_28 
ROOT
HETATM    1  C4  UNL     1      24.550  18.452  36.065  1.00  0.00     0.179 C 
HETATM    2  N1  UNL     1      24.793  19.792  35.573  1.00  0.00    -0.347 N 
ATOM      3  H1  UNL     1      24.318  20.533  36.089  1.00  0.00     0.163 HD
HETATM    4  C5  UNL     1      25.570  20.224  34.512  1.00  0.00     0.218 C 
HETATM    5  O1  UNL     1      25.048  21.077  33.731  1.00  0.00    -0.274 OA
HETATM    6  C6  UNL     1      26.984  19.894  34.264  1.00  0.00     0.103 C 
HETATM    7  C7  UNL     1      27.450  20.410  32.940  1.00  0.00     0.009 C 
HETATM    8  C8  UNL     1      27.084  19.382  31.879  1.00  0.00     0.000 C 
HETATM    9  C9  UNL     1      26.875  20.021  30.529  1.00  0.00     0.000 C 
HETATM   10  C10 UNL     1      26.369  18.925  29.600  1.00  0.00     0.000 C 
HETATM   11  C11 UNL     1      24.976  18.455  30.008  1.00  0.00     0.000 C 
HETATM   12  C12 UNL     1      25.058  16.990  30.315  1.00  0.00     0.000 C 
HETATM   13  C13 UNL     1      23.932  16.464  31.160  1.00  0.00     0.002 C 
HETATM   14  C14 UNL     1      22.923  17.470  31.563  1.00  0.00     0.027 C 
HETATM   15  C15 UNL     1      23.135  18.114  32.935  1.00  0.00     0.103 C 
HETATM   16  N4  UNL     1      24.303  17.693  33.587  1.00  0.00    -0.353 N 
ATOM     17  H4  UNL     1      25.108  17.536  32.980  1.00  0.00     0.163 HD
HETATM   18  C18 UNL     1      24.528  17.456  34.947  1.00  0.00     0.241 C 
HETATM   19  O5  UNL     1      24.785  16.254  35.291  1.00  0.00    -0.271 OA
ENDROOT
BRANCH  15  20
HETATM   20  C16 UNL     1      21.825  17.976  33.682  1.00  0.00     0.158 C 
BRANCH  20  21
HETATM   21  N2  UNL     1      20.802  17.372  32.866  1.00  0.00    -0.301 N 
ATOM     22  H2  UNL     1      20.987  16.808  32.037  1.00  0.00     0.173 HD
BRANCH  21  23
HETATM   23  S1  UNL     1      19.282  17.713  33.448  1.00  0.00     0.316 S 
HETATM   24  O2  UNL     1      18.428  18.169  32.207  1.00  0.00    -0.183 OA
HETATM   25  O3  UNL     1      18.519  16.480  33.919  1.00  0.00    -0.183 OA
BRANCH  23  26
HETATM   26  N3  UNL     1      19.113  19.024  34.520  1.00  0.00    -0.281 N 
ATOM     27  H3  UNL     1      19.502  19.123  35.458  1.00  0.00     0.176 HD
BRANCH  26  28
HETATM   28  C17 UNL     1      18.289  19.965  33.794  1.00  0.00     0.300 C 
BRANCH  28  29
HETATM   29  O4  UNL     1      16.939  19.675  34.082  1.00  0.00    -0.382 OA
ATOM     30  H4  UNL     1      16.757  18.795  33.775  1.00  0.00     0.211 HD
ENDBRANCH  28  29
ENDBRANCH  26  28
ENDBRANCH  23  26
ENDBRANCH  21  23
ENDBRANCH  20  21
ENDBRANCH  15  20
BRANCH   1  31
HETATM   31  C2  UNL     1      25.493  18.076  37.159  1.00  0.00     0.009 C 
HETATM   32  C1  UNL     1      24.779  17.585  38.410  1.00  0.00     0.012 C 
HETATM   33  C3  UNL     1      26.538  19.046  37.555  1.00  0.00     0.012 C 
ENDBRANCH   1  31
TORSDOF 7
ENDMDL
MODEL 2
REMARK VINA RESULT: -7.396534763      1.520      1.901
REMARK  7 active torsions:
REMARK  status: ('A' for Active; 'I' for Inactive)
REMARK    1  A    between atoms: C2_2  and  C4_4 
REMARK    2  A    between atoms: C15_18  and  C16_19 
REMARK    3  A    between atoms: C16_19  and  N2_20 
REMARK    4  A    between atoms: N2_20  and  S1_22 
REMARK    5  A    between atoms: S1_22  and  N3_25 
REMARK    6  A    between atoms: N3_25  and  C17_27 
REMARK    7  A    between atoms: C17_27  and  O4_28 
ROOT
HETATM    1  C4  UNL     1      24.369  19.130  34.975  1.00  0.00     0.179 C 
HETATM    2  N1  UNL     1      24.910  19.808  33.815  1.00  0.00    -0.347 N 
ATOM      3  H1  UNL     1      24.633  20.785  33.719  1.00  0.00     0.163 HD
HETATM    4  C5  UNL     1      25.744  19.336  32.817  1.00  0.00     0.218 C 
HETATM    5  O1  UNL     1      25.422  19.616  31.622  1.00  0.00    -0.274 OA
HETATM    6  C6  UNL     1      27.036  18.652  33.000  1.00  0.00     0.103 C 
HETATM    7  C7  UNL     1      27.583  18.145  31.703  1.00  0.00     0.009 C 
HETATM    8  C8  UNL     1      26.964  16.781  31.432  1.00  0.00     0.000 C 
HETATM    9  C9  UNL     1      26.884  16.487  29.955  1.00  0.00     0.000 C 
HETATM   10  C10 UNL     1      26.116  15.179  29.811  1.00  0.00     0.000 C 
HETATM   11  C11 UNL     1      24.660  15.345  30.236  1.00  0.00     0.000 C 
HETATM   12  C12 UNL     1      24.401  14.395  31.366  1.00  0.00     0.000 C 
HETATM   13  C13 UNL     1      23.201  14.730  32.205  1.00  0.00     0.002 C 
HETATM   14  C14 UNL     1      22.465  15.948  31.792  1.00  0.00     0.027 C 
HETATM   15  C15 UNL     1      22.851  17.238  32.520  1.00  0.00     0.103 C 
HETATM   16  N4  UNL     1      23.900  17.082  33.437  1.00  0.00    -0.353 N 
ATOM     17  H4  UNL     1      24.633  16.431  33.153  1.00  0.00     0.163 HD
HETATM   18  C18 UNL     1      24.090  17.688  34.684  1.00  0.00     0.241 C 
HETATM   19  O5  UNL     1      24.064  16.926  35.708  1.00  0.00    -0.271 OA
ENDROOT
BRANCH  15  20
HETATM   20  C16 UNL     1      21.560  17.848  33.025  1.00  0.00     0.158 C 
BRANCH  20  21
HETATM   21  N2  UNL     1      20.415  17.041  32.688  1.00  0.00    -0.301 N 
ATOM     22  H2  UNL     1      20.455  16.197  32.116  1.00  0.00     0.173 HD
BRANCH  21  23
HETATM   23  S1  UNL     1      19.020  17.659  33.350  1.00  0.00     0.316 S 
HETATM   24  O2  UNL     1      18.164  18.200  32.145  1.00  0.00    -0.183 OA
HETATM   25  O3  UNL     1      18.100  16.593  33.937  1.00  0.00    -0.183 OA
BRANCH  23  26
HETATM   26  N3  UNL     1      19.152  19.023  34.359  1.00  0.00    -0.281 N 
ATOM     27  H3  UNL     1      19.733  19.136  35.189  1.00  0.00     0.176 HD
BRANCH  26  28
HETATM   28  C17 UNL     1      18.247  19.984  33.767  1.00  0.00     0.300 C 
BRANCH  28  29
HETATM   29  O4  UNL     1      16.931  19.614  34.113  1.00  0.00    -0.382 OA
ATOM     30  H4  UNL     1      16.913  18.671  34.227  1.00  0.00     0.211 HD
ENDBRANCH  28  29
ENDBRANCH  26  28
ENDBRANCH  23  26
ENDBRANCH  21  23
ENDBRANCH  20  21
ENDBRANCH  15  20
BRANCH   1  31
HETATM   31  C2  UNL     1      25.219  19.324  36.186  1.00  0.00     0.009 C 
HETATM   32  C1  UNL     1      24.458  19.949  37.346  1.00  0.00     0.012 C 
HETATM   33  C3  UNL     1      26.515  20.020  36.034  1.00  0.00     0.012 C 
ENDBRANCH   1  31
TORSDOF 7
ENDMDL
MODEL 3
REMARK VINA RESULT: -7.246628469      3.054      5.718
REMARK  7 active torsions:
REMARK  status: ('A' for Active; 'I' for Inactive)
REMARK    1  A    between atoms: C2_2  and  C4_4 
REMARK    2  A    between atoms: C15_18  and  C16_19 
REMARK    3  A    between atoms: C16_19  and  N2_20 
REMARK    4  A    between atoms: N2_20  and  S1_22 
REMARK    5  A    between atoms: S1_22  and  N3_25 
REMARK    6  A    between atoms: N3_25  and  C17_27 
REMARK    7  A    between atoms: C17_27  and  O4_28 
ROOT
HETATM    1  C4  UNL     1      21.301  17.253  32.988  1.00  0.00     0.179 C 
HETATM    2  N1  UNL     1      22.318  18.273  33.147  1.00  0.00    -0.347 N 
ATOM      3  H1  UNL     1      22.189  19.103  32.568  1.00  0.00     0.163 HD
HETATM    4  C5  UNL     1      23.436  18.296  33.962  1.00  0.00     0.218 C 
HETATM    5  O1  UNL     1      24.525  18.668  33.429  1.00  0.00    -0.274 OA
HETATM    6  C6  UNL     1      23.470  18.057  35.415  1.00  0.00     0.103 C 
HETATM    7  C7  UNL     1      24.872  18.008  35.935  1.00  0.00     0.009 C 
HETATM    8  C8  UNL     1      25.394  16.590  35.748  1.00  0.00     0.000 C 
HETATM    9  C9  UNL     1      26.893  16.562  35.588  1.00  0.00     0.000 C 
HETATM   10  C10 UNL     1      27.271  15.124  35.257  1.00  0.00     0.000 C 
HETATM   11  C11 UNL     1      26.745  14.717  33.885  1.00  0.00     0.000 C 
HETATM   12  C12 UNL     1      25.830  13.544  34.073  1.00  0.00     0.000 C 
HETATM   13  C13 UNL     1      24.877  13.304  32.937  1.00  0.00     0.002 C 
HETATM   14  C14 UNL     1      24.983  14.262  31.813  1.00  0.00     0.027 C 
HETATM   15  C15 UNL     1      24.019  15.451  31.858  1.00  0.00     0.103 C 
HETATM   16  N4  UNL     1      23.212  15.486  33.005  1.00  0.00    -0.353 N 
ATOM     17  H4  UNL     1      23.666  15.178  33.866  1.00  0.00     0.163 HD
HETATM   18  C18 UNL     1      21.877  15.880  33.143  1.00  0.00     0.241 C 
HETATM   19  O5  UNL     1      21.038  14.978  33.479  1.00  0.00    -0.271 OA
ENDROOT
BRANCH  15  20
HETATM   20  C16 UNL     1      23.328  15.495  30.511  1.00  0.00     0.158 C 
BRANCH  20  21
HETATM   21  N2  UNL     1      24.160  16.096  29.500  1.00  0.00    -0.301 N 
ATOM     22  H2  UNL     1      24.360  15.672  28.594  1.00  0.00     0.173 HD
BRANCH  21  23
HETATM   23  S1  UNL     1      24.754  17.568  29.996  1.00  0.00     0.316 S 
HETATM   24  O2  UNL     1      25.370  18.248  28.718  1.00  0.00    -0.183 OA
HETATM   25  O3  UNL     1      23.666  18.562  30.390  1.00  0.00    -0.183 OA
BRANCH  23  26
HETATM   26  N3  UNL     1      26.058  17.574  31.090  1.00  0.00    -0.281 N 
ATOM     27  H3  UNL     1      26.262  16.902  31.829  1.00  0.00     0.176 HD
BRANCH  26  28
HETATM   28  C17 UNL     1      26.812  18.755  30.727  1.00  0.00     0.300 C 
BRANCH  28  29
HETATM   29  O4  UNL     1      26.075  19.884  31.138  1.00  0.00    -0.382 OA
ATOM     30  H4  UNL     1      25.371  20.017  30.514  1.00  0.00     0.211 HD
ENDBRANCH  28  29
ENDBRANCH  26  28
ENDBRANCH  23  26
ENDBRANCH  21  23
ENDBRANCH  20  21
ENDBRANCH  15  20
BRANCH   1  31
HETATM   31  C2  UNL     1      20.124  17.493  33.872  1.00  0.00     0.009 C 
HETATM   32  C1  UNL     1      18.811  17.058  33.236  1.00  0.00     0.012 C 
HETATM   33  C3  UNL     1      19.945  18.837  34.464  1.00  0.00     0.012 C 
ENDBRANCH   1  31
TORSDOF 7
ENDMDL
MODEL 4
REMARK VINA RESULT: -7.117802364      3.325      5.890
REMARK  7 active torsions:
REMARK  status: ('A' for Active; 'I' for Inactive)
REMARK    1  A    between atoms: C2_2  and  C4_4 
REMARK    2  A    between atoms: C15_18  and  C16_19 
REMARK    3  A    between atoms: C16_19  and  N2_20 
REMARK    4  A    between atoms: N2_20  and  S1_22 
REMARK    5  A    between atoms: S1_22  and  N3_25 
REMARK    6  A    between atoms: N3_25  and  C17_27 
REMARK    7  A    between atoms: C17_27  and  O4_28 
ROOT
HETATM    1  C4  UNL     1      21.939  16.981  32.593  1.00  0.00     0.179 C 
HETATM    2  N1  UNL     1      22.773  18.121  32.912  1.00  0.00    -0.347 N 
ATOM      3  H1  UNL     1      22.637  18.936  32.315  1.00  0.00     0.163 HD
HETATM    4  C5  UNL     1      23.727  18.275  33.903  1.00  0.00     0.218 C 
HETATM    5  O1  UNL     1      24.833  18.793  33.557  1.00  0.00    -0.274 OA
HETATM    6  C6  UNL     1      23.549  18.021  35.343  1.00  0.00     0.103 C 
HETATM    7  C7  UNL     1      24.839  18.146  36.091  1.00  0.00     0.009 C 
HETATM    8  C8  UNL     1      25.564  16.810  36.004  1.00  0.00     0.000 C 
HETATM    9  C9  UNL     1      27.060  16.979  36.098  1.00  0.00     0.000 C 
HETATM   10  C10 UNL     1      27.671  15.607  35.845  1.00  0.00     0.000 C 
HETATM   11  C11 UNL     1      27.439  15.155  34.406  1.00  0.00     0.000 C 
HETATM   12  C12 UNL     1      26.666  13.872  34.448  1.00  0.00     0.000 C 
HETATM   13  C13 UNL     1      25.955  13.527  33.169  1.00  0.00     0.002 C 
HETATM   14  C14 UNL     1      26.122  14.508  32.072  1.00  0.00     0.027 C 
HETATM   15  C15 UNL     1      25.018  15.561  31.947  1.00  0.00     0.103 C 
HETATM   16  N4  UNL     1      24.033  15.475  32.942  1.00  0.00    -0.353 N 
ATOM     17  H4  UNL     1      24.373  15.215  33.869  1.00  0.00     0.163 HD
HETATM   18  C18 UNL     1      22.654  15.691  32.851  1.00  0.00     0.241 C 
HETATM   19  O5  UNL     1      21.895  14.684  33.049  1.00  0.00    -0.271 OA
ENDROOT
BRANCH  15  20
HETATM   20  C16 UNL     1      24.562  15.536  30.503  1.00  0.00     0.158 C 
BRANCH  20  21
HETATM   21  N2  UNL     1      24.392  16.863  29.969  1.00  0.00    -0.301 N 
ATOM     22  H2  UNL     1      23.489  17.287  29.759  1.00  0.00     0.173 HD
BRANCH  21  23
HETATM   23  S1  UNL     1      25.857  17.616  29.738  1.00  0.00     0.316 S 
HETATM   24  O2  UNL     1      26.496  17.784  31.166  1.00  0.00    -0.183 OA
HETATM   25  O3  UNL     1      26.887  16.740  29.032  1.00  0.00    -0.183 OA
BRANCH  23  26
HETATM   26  N3  UNL     1      25.850  19.210  29.141  1.00  0.00    -0.281 N 
ATOM     27  H3  UNL     1      26.105  19.533  28.208  1.00  0.00     0.176 HD
BRANCH  26  28
HETATM   28  C17 UNL     1      25.396  20.001  30.264  1.00  0.00     0.300 C 
BRANCH  28  29
HETATM   29  O4  UNL     1      24.092  19.579  30.595  1.00  0.00    -0.382 OA
ATOM     30  H4  UNL     1      23.478  20.150  30.149  1.00  0.00     0.211 HD
ENDBRANCH  28  29
ENDBRANCH  26  28
ENDBRANCH  23  26
ENDBRANCH  21  23
ENDBRANCH  20  21
ENDBRANCH  15  20
BRANCH   1  31
HETATM   31  C2  UNL     1      20.609  17.053  33.265  1.00  0.00     0.009 C 
HETATM   32  C1  UNL     1      19.465  16.632  32.355  1.00  0.00     0.012 C 
HETATM   33  C3  UNL     1      20.234  18.305  33.956  1.00  0.00     0.012 C 
ENDBRANCH   1  31
TORSDOF 7
ENDMDL
MODEL 5
REMARK VINA RESULT: -7.111096542      2.385      3.155
REMARK  7 active torsions:
REMARK  status: ('A' for Active; 'I' for Inactive)
REMARK    1  A    between atoms: C2_2  and  C4_4 
REMARK    2  A    between atoms: C15_18  and  C16_19 
REMARK    3  A    between atoms: C16_19  and  N2_20 
REMARK    4  A    between atoms: N2_20  and  S1_22 
REMARK    5  A    between atoms: S1_22  and  N3_25 
REMARK    6  A    between atoms: N3_25  and  C17_27 
REMARK    7  A    between atoms: C17_27  and  O4_28 
ROOT
HETATM    1  C4  UNL     1      24.380  17.704  33.977  1.00  0.00     0.179 C 
HETATM    2  N1  UNL     1      24.361  18.593  32.834  1.00  0.00    -0.347 N 
ATOM      3  H1  UNL     1      23.488  19.104  32.700  1.00  0.00     0.163 HD
HETATM    4  C5  UNL     1      25.343  18.856  31.895  1.00  0.00     0.218 C 
HETATM    5  O1  UNL     1      24.984  18.859  30.678  1.00  0.00    -0.274 OA
HETATM    6  C6  UNL     1      26.733  19.259  32.165  1.00  0.00     0.103 C 
HETATM    7  C7  UNL     1      27.550  19.305  30.912  1.00  0.00     0.009 C 
HETATM    8  C8  UNL     1      28.071  17.901  30.639  1.00  0.00     0.000 C 
HETATM    9  C9  UNL     1      28.301  17.666  29.167  1.00  0.00     0.000 C 
HETATM   10  C10 UNL     1      28.668  16.196  29.011  1.00  0.00     0.000 C 
HETATM   11  C11 UNL     1      27.486  15.292  29.351  1.00  0.00     0.000 C 
HETATM   12  C12 UNL     1      27.899  14.406  30.487  1.00  0.00     0.000 C 
HETATM   13  C13 UNL     1      26.759  13.793  31.250  1.00  0.00     0.002 C 
HETATM   14  C14 UNL     1      25.408  14.165  30.769  1.00  0.00     0.027 C 
HETATM   15  C15 UNL     1      24.746  15.344  31.487  1.00  0.00     0.103 C 
HETATM   16  N4  UNL     1      25.554  15.942  32.464  1.00  0.00    -0.353 N 
ATOM     17  H4  UNL     1      26.548  15.990  32.237  1.00  0.00     0.163 HD
HETATM   18  C18 UNL     1      25.200  16.481  33.705  1.00  0.00     0.241 C 
HETATM   19  O5  UNL     1      25.654  15.894  34.743  1.00  0.00    -0.271 OA
ENDROOT
BRANCH  15  20
HETATM   20  C16 UNL     1      23.369  14.873  31.906  1.00  0.00     0.158 C 
BRANCH  20  21
HETATM   21  N2  UNL     1      22.326  15.526  31.157  1.00  0.00    -0.301 N 
ATOM     22  H2  UNL     1      22.271  15.538  30.138  1.00  0.00     0.173 HD
BRANCH  21  23
HETATM   23  S1  UNL     1      21.222  16.257  32.163  1.00  0.00     0.316 S 
HETATM   24  O2  UNL     1      21.464  15.652  33.595  1.00  0.00    -0.183 OA
HETATM   25  O3  UNL     1      21.498  17.739  32.396  1.00  0.00    -0.183 OA
BRANCH  23  26
HETATM   26  N3  UNL     1      19.570  15.944  31.898  1.00  0.00    -0.281 N 
ATOM     27  H3  UNL     1      19.148  15.124  31.464  1.00  0.00     0.176 HD
BRANCH  26  28
HETATM   28  C17 UNL     1      18.904  17.112  32.432  1.00  0.00     0.300 C 
BRANCH  28  29
HETATM   29  O4  UNL     1      18.799  16.953  33.829  1.00  0.00    -0.382 OA
ATOM     30  H4  UNL     1      18.026  17.421  34.120  1.00  0.00     0.211 HD
ENDBRANCH  28  29
ENDBRANCH  26  28
ENDBRANCH  23  26
ENDBRANCH  21  23
ENDBRANCH  20  21
ENDBRANCH  15  20
BRANCH   1  31
HETATM   31  C2  UNL     1      24.786  18.409  35.228  1.00  0.00     0.009 C 
HETATM   32  C1  UNL     1      24.003  17.944  36.448  1.00  0.00     0.012 C 
HETATM   33  C3  UNL     1      24.830  19.887  35.224  1.00  0.00     0.012 C 
ENDBRANCH   1  31
TORSDOF 7
ENDMDL
