MODEL 1
REMARK VINA RESULT: -2.997174878      0.000      0.000
REMARK  3 active torsions:
REMARK  status: ('A' for Active; 'I' for Inactive)
REMARK    1  A    between atoms: C2_5  and  C3_6 
REMARK    2  A    between atoms: N5_26  and  S1_27 
REMARK    3  A    between atoms: S1_27  and  C18_30 
ROOT
HETATM    1  N1  UNL     1      -4.423 -11.863  24.803  1.00  0.00    -0.082 NA
HETATM    2  C1  UNL     1      -3.979 -10.919  23.853  1.00  0.00     0.131 A 
HETATM    3  N2  UNL     1      -4.114 -11.117  22.530  1.00  0.00    -0.343 N 
ATOM      4  H2  UNL     1      -4.576 -11.973  22.224  1.00  0.00     0.167 HD
HETATM    5  C2  UNL     1      -3.680 -10.263  21.577  1.00  0.00     0.047 A 
HETATM    6  C8  UNL     1      -3.062  -9.122  22.026  1.00  0.00     0.064 A 
HETATM    7  C9  UNL     1      -2.891  -8.855  23.367  1.00  0.00     0.086 A 
HETATM    8  C10 UNL     1      -3.363  -9.777  24.297  1.00  0.00     0.064 A 
HETATM    9  C11 UNL     1      -3.051  -9.236  25.521  1.00  0.00     0.075 A 
HETATM   10  C12 UNL     1      -3.269  -9.745  26.839  1.00  0.00    -0.007 A 
HETATM   11  C13 UNL     1      -2.162  -9.902  27.670  1.00  0.00     0.015 A 
HETATM   12  C14 UNL     1      -2.302 -10.336  28.966  1.00  0.00     0.020 A 
HETATM   13  C15 UNL     1      -3.558 -10.619  29.452  1.00  0.00     0.011 A 
HETATM   14 BR1  UNL     1      -3.773 -11.228  31.263  1.00  0.00    -0.051 Br
HETATM   15  C16 UNL     1      -4.661 -10.468  28.641  1.00  0.00     0.020 A 
HETATM   16  C17 UNL     1      -4.509 -10.030  27.338  1.00  0.00     0.015 A 
HETATM   17  N4  UNL     1      -2.430  -8.066  25.273  1.00  0.00    -0.282 N 
ATOM     18  H4  UNL     1      -2.083  -7.446  26.006  1.00  0.00     0.188 HD
HETATM   19  N5  UNL     1      -2.319  -7.812  24.004  1.00  0.00    -0.175 N 
ENDROOT
BRANCH  19  20
HETATM   20  S1  UNL     1      -1.565  -6.436  23.356  1.00  0.00     0.284 S 
HETATM   21  O1  UNL     1      -0.127  -6.722  22.996  1.00  0.00    -0.198 OA
HETATM   22  O2  UNL     1      -1.592  -5.255  24.274  1.00  0.00    -0.198 OA
BRANCH  20  23
HETATM   23  C18 UNL     1      -2.368  -5.973  21.865  1.00  0.00     0.103 A 
HETATM   24  C19 UNL     1      -3.468  -5.149  21.894  1.00  0.00     0.027 A 
HETATM   25  C20 UNL     1      -4.081  -4.842  20.683  1.00  0.00     0.002 A 
HETATM   26  C21 UNL     1      -3.631  -5.328  19.489  1.00  0.00     0.002 A 
HETATM   27  C22 UNL     1      -2.541  -6.144  19.495  1.00  0.00     0.025 A 
HETATM   28  C23 UNL     1      -1.915  -6.466  20.646  1.00  0.00     0.057 A 
HETATM   29 CL1  UNL     1      -0.502  -7.518  20.686  1.00  0.00    -0.083 Cl
ENDBRANCH  20  23
ENDBRANCH  19  20
BRANCH   5  30
HETATM   30  C3  UNL     1      -3.879 -10.577  20.154  1.00  0.00     0.006 A 
HETATM   31  C4  UNL     1      -3.974  -9.602  19.197  1.00  0.00     0.016 A 
HETATM   32  C5  UNL     1      -4.165  -9.974  17.852  1.00  0.00     0.018 A 
HETATM   33  C6  UNL     1      -4.257 -11.300  17.489  1.00  0.00     0.087 A 
HETATM   34  N3  UNL     1      -4.160 -12.237  18.453  1.00  0.00    -0.374 N 
HETATM   35  C7  UNL     1      -3.977 -11.890  19.745  1.00  0.00     0.101 A 
ATOM     36  H3  UNL     1      -4.226 -13.224  18.202  1.00  0.00     0.164 HD
ENDBRANCH   5  30
TORSDOF 3
ENDMDL
MODEL 2
REMARK VINA RESULT: -2.025440176      2.325      4.583
REMARK  3 active torsions:
REMARK  status: ('A' for Active; 'I' for Inactive)
REMARK    1  A    between atoms: C2_5  and  C3_6 
REMARK    2  A    between atoms: N5_26  and  S1_27 
REMARK    3  A    between atoms: S1_27  and  C18_30 
ROOT
HETATM    1  N1  UNL     1      -4.658  -7.214  26.042  1.00  0.00    -0.082 NA
HETATM    2  C1  UNL     1      -4.167  -7.501  24.751  1.00  0.00     0.131 A 
HETATM    3  N2  UNL     1      -4.509  -6.769  23.676  1.00  0.00    -0.343 N 
ATOM      4  H2  UNL     1      -5.126  -5.970  23.824  1.00  0.00     0.167 HD
HETATM    5  C2  UNL     1      -4.095  -7.016  22.414  1.00  0.00     0.047 A 
HETATM    6  C8  UNL     1      -3.267  -8.100  22.254  1.00  0.00     0.064 A 
HETATM    7  C9  UNL     1      -2.876  -8.893  23.311  1.00  0.00     0.086 A 
HETATM    8  C10 UNL     1      -3.338  -8.580  24.586  1.00  0.00     0.064 A 
HETATM    9  C11 UNL     1      -2.783  -9.532  25.406  1.00  0.00     0.075 A 
HETATM   10  C12 UNL     1      -2.921  -9.733  26.815  1.00  0.00    -0.007 A 
HETATM   11  C13 UNL     1      -3.390 -10.969  27.256  1.00  0.00     0.015 A 
HETATM   12  C14 UNL     1      -3.498 -11.249  28.597  1.00  0.00     0.020 A 
HETATM   13  C15 UNL     1      -3.135 -10.295  29.519  1.00  0.00     0.011 A 
HETATM   14 BR1  UNL     1      -3.279 -10.671  31.400  1.00  0.00    -0.051 Br
HETATM   15  C16 UNL     1      -2.669  -9.070  29.097  1.00  0.00     0.020 A 
HETATM   16  C17 UNL     1      -2.564  -8.797  27.744  1.00  0.00     0.015 A 
HETATM   17  N4  UNL     1      -2.048 -10.337  24.614  1.00  0.00    -0.282 N 
ATOM     18  H4  UNL     1      -1.520 -11.139  24.959  1.00  0.00     0.188 HD
HETATM   19  N5  UNL     1      -2.083  -9.984  23.364  1.00  0.00    -0.175 N 
ENDROOT
BRANCH  19  20
HETATM   20  S1  UNL     1      -1.289 -10.800  22.106  1.00  0.00     0.284 S 
HETATM   21  O1  UNL     1      -0.370 -11.870  22.644  1.00  0.00    -0.198 OA
HETATM   22  O2  UNL     1      -0.488  -9.896  21.223  1.00  0.00    -0.198 OA
BRANCH  20  23
HETATM   23  C18 UNL     1      -2.471 -11.621  21.100  1.00  0.00     0.103 A 
HETATM   24  C19 UNL     1      -2.760 -12.948  21.308  1.00  0.00     0.027 A 
HETATM   25  C20 UNL     1      -3.682 -13.553  20.459  1.00  0.00     0.002 A 
HETATM   26  C21 UNL     1      -4.296 -12.878  19.443  1.00  0.00     0.002 A 
HETATM   27  C22 UNL     1      -3.986 -11.565  19.262  1.00  0.00     0.025 A 
HETATM   28  C23 UNL     1      -3.099 -10.938  20.063  1.00  0.00     0.057 A 
HETATM   29 CL1  UNL     1      -2.679  -9.240  19.855  1.00  0.00    -0.083 Cl
ENDBRANCH  20  23
ENDBRANCH  19  20
BRANCH   5  30
HETATM   30  C3  UNL     1      -4.530  -6.151  21.308  1.00  0.00     0.006 A 
HETATM   31  C4  UNL     1      -5.830  -6.115  20.876  1.00  0.00     0.016 A 
HETATM   32  C5  UNL     1      -6.177  -5.263  19.810  1.00  0.00     0.018 A 
HETATM   33  C6  UNL     1      -5.231  -4.468  19.200  1.00  0.00     0.087 A 
HETATM   34  N3  UNL     1      -3.961  -4.524  19.648  1.00  0.00    -0.374 N 
HETATM   35  C7  UNL     1      -3.618  -5.339  20.668  1.00  0.00     0.101 A 
ATOM     36  H3  UNL     1      -3.248  -3.942  19.208  1.00  0.00     0.164 HD
ENDBRANCH   5  30
TORSDOF 3
ENDMDL
MODEL 3
REMARK VINA RESULT: -1.921415546      1.102      1.288
REMARK  3 active torsions:
REMARK  status: ('A' for Active; 'I' for Inactive)
REMARK    1  A    between atoms: C2_5  and  C3_6 
REMARK    2  A    between atoms: N5_26  and  S1_27 
REMARK    3  A    between atoms: S1_27  and  C18_30 
ROOT
HETATM    1  N1  UNL     1      -4.155 -11.947  24.842  1.00  0.00    -0.082 NA
HETATM    2  C1  UNL     1      -3.883 -10.968  23.862  1.00  0.00     0.131 A 
HETATM    3  N2  UNL     1      -3.987 -11.225  22.546  1.00  0.00    -0.343 N 
ATOM      4  H2  UNL     1      -4.298 -12.156  22.268  1.00  0.00     0.167 HD
HETATM    5  C2  UNL     1      -3.710 -10.337  21.566  1.00  0.00     0.047 A 
HETATM    6  C8  UNL     1      -3.293  -9.096  21.978  1.00  0.00     0.064 A 
HETATM    7  C9  UNL     1      -3.163  -8.764  23.309  1.00  0.00     0.086 A 
HETATM    8  C10 UNL     1      -3.468  -9.726  24.269  1.00  0.00     0.064 A 
HETATM    9  C11 UNL     1      -3.248  -9.105  25.474  1.00  0.00     0.075 A 
HETATM   10  C12 UNL     1      -3.370  -9.605  26.808  1.00  0.00    -0.007 A 
HETATM   11  C13 UNL     1      -2.248  -9.547  27.632  1.00  0.00     0.015 A 
HETATM   12  C14 UNL     1      -2.307  -9.962  28.941  1.00  0.00     0.020 A 
HETATM   13  C15 UNL     1      -3.494 -10.441  29.446  1.00  0.00     0.011 A 
HETATM   14 BR1  UNL     1      -3.595 -11.024  31.276  1.00  0.00    -0.051 Br
HETATM   15  C16 UNL     1      -4.611 -10.502  28.642  1.00  0.00     0.020 A 
HETATM   16  C17 UNL     1      -4.541 -10.083  27.325  1.00  0.00     0.015 A 
HETATM   17  N4  UNL     1      -2.835  -7.854  25.189  1.00  0.00    -0.282 N 
ATOM     18  H4  UNL     1      -2.596  -7.163  25.900  1.00  0.00     0.188 HD
HETATM   19  N5  UNL     1      -2.775  -7.621  23.912  1.00  0.00    -0.175 N 
ENDROOT
BRANCH  19  20
HETATM   20  S1  UNL     1      -2.269  -6.157  23.219  1.00  0.00     0.284 S 
HETATM   21  O1  UNL     1      -0.790  -6.180  22.916  1.00  0.00    -0.198 OA
HETATM   22  O2  UNL     1      -2.552  -4.964  24.077  1.00  0.00    -0.198 OA
BRANCH  20  23
HETATM   23  C18 UNL     1      -3.087  -5.919  21.684  1.00  0.00     0.103 A 
HETATM   24  C19 UNL     1      -2.392  -5.468  20.587  1.00  0.00     0.027 A 
HETATM   25  C20 UNL     1      -3.101  -5.269  19.407  1.00  0.00     0.002 A 
HETATM   26  C21 UNL     1      -4.442  -5.504  19.308  1.00  0.00     0.002 A 
HETATM   27  C22 UNL     1      -5.102  -5.948  20.413  1.00  0.00     0.025 A 
HETATM   28  C23 UNL     1      -4.454  -6.157  21.578  1.00  0.00     0.057 A 
HETATM   29 CL1  UNL     1      -5.279  -6.732  23.024  1.00  0.00    -0.083 Cl
ENDBRANCH  20  23
ENDBRANCH  19  20
BRANCH   5  30
HETATM   30  C3  UNL     1      -3.858 -10.722  20.154  1.00  0.00     0.006 A 
HETATM   31  C4  UNL     1      -3.950  -9.794  19.150  1.00  0.00     0.016 A 
HETATM   32  C5  UNL     1      -4.092 -10.232  17.819  1.00  0.00     0.018 A 
HETATM   33  C6  UNL     1      -4.138 -11.575  17.516  1.00  0.00     0.087 A 
HETATM   34  N3  UNL     1      -4.045 -12.465  18.525  1.00  0.00    -0.374 N 
HETATM   35  C7  UNL     1      -3.910 -12.054  19.804  1.00  0.00     0.101 A 
ATOM     36  H3  UNL     1      -4.078 -13.463  18.319  1.00  0.00     0.164 HD
ENDBRANCH   5  30
TORSDOF 3
ENDMDL
MODEL 4
REMARK VINA RESULT: -1.138486657      2.532      4.469
REMARK  3 active torsions:
REMARK  status: ('A' for Active; 'I' for Inactive)
REMARK    1  A    between atoms: C2_5  and  C3_6 
REMARK    2  A    between atoms: N5_26  and  S1_27 
REMARK    3  A    between atoms: S1_27  and  C18_30 
ROOT
HETATM    1  N1  UNL     1      -4.689  -7.314  25.880  1.00  0.00    -0.082 NA
HETATM    2  C1  UNL     1      -4.211  -7.577  24.578  1.00  0.00     0.131 A 
HETATM    3  N2  UNL     1      -4.573  -6.832  23.518  1.00  0.00    -0.343 N 
ATOM      4  H2  UNL     1      -5.194  -6.041  23.686  1.00  0.00     0.167 HD
HETATM    5  C2  UNL     1      -4.172  -7.058  22.248  1.00  0.00     0.047 A 
HETATM    6  C8  UNL     1      -3.337  -8.132  22.061  1.00  0.00     0.064 A 
HETATM    7  C9  UNL     1      -2.927  -8.938  23.101  1.00  0.00     0.086 A 
HETATM    8  C10 UNL     1      -3.376  -8.648  24.387  1.00  0.00     0.064 A 
HETATM    9  C11 UNL     1      -2.803  -9.608  25.185  1.00  0.00     0.075 A 
HETATM   10  C12 UNL     1      -2.922  -9.830  26.593  1.00  0.00    -0.007 A 
HETATM   11  C13 UNL     1      -3.376 -11.076  27.021  1.00  0.00     0.015 A 
HETATM   12  C14 UNL     1      -3.465 -11.378  28.359  1.00  0.00     0.020 A 
HETATM   13  C15 UNL     1      -3.099 -10.435  29.291  1.00  0.00     0.011 A 
HETATM   14 BR1  UNL     1      -3.216 -10.841  31.167  1.00  0.00    -0.051 Br
HETATM   15  C16 UNL     1      -2.647  -9.200  28.881  1.00  0.00     0.020 A 
HETATM   16  C17 UNL     1      -2.561  -8.906  27.532  1.00  0.00     0.015 A 
HETATM   17  N4  UNL     1      -2.072 -10.394  24.372  1.00  0.00    -0.282 N 
ATOM     18  H4  UNL     1      -1.533 -11.197  24.698  1.00  0.00     0.188 HD
HETATM   19  N5  UNL     1      -2.125 -10.022  23.128  1.00  0.00    -0.175 N 
ENDROOT
BRANCH  19  20
HETATM   20  S1  UNL     1      -1.340 -10.813  21.848  1.00  0.00     0.284 S 
HETATM   21  O1  UNL     1      -0.850 -12.178  22.269  1.00  0.00    -0.198 OA
HETATM   22  O2  UNL     1      -0.178 -10.048  21.299  1.00  0.00    -0.198 OA
BRANCH  20  23
HETATM   23  C18 UNL     1      -2.476 -11.076  20.535  1.00  0.00     0.103 A 
HETATM   24  C19 UNL     1      -2.657 -10.115  19.569  1.00  0.00     0.027 A 
HETATM   25  C20 UNL     1      -3.594 -10.367  18.571  1.00  0.00     0.002 A 
HETATM   26  C21 UNL     1      -4.325 -11.519  18.525  1.00  0.00     0.002 A 
HETATM   27  C22 UNL     1      -4.123 -12.450  19.498  1.00  0.00     0.025 A 
HETATM   28  C23 UNL     1      -3.224 -12.248  20.483  1.00  0.00     0.057 A 
HETATM   29 CL1  UNL     1      -2.939 -13.433  21.755  1.00  0.00    -0.083 Cl
ENDBRANCH  20  23
ENDBRANCH  19  20
BRANCH   5  30
HETATM   30  C3  UNL     1      -4.627  -6.179  21.161  1.00  0.00     0.006 A 
HETATM   31  C4  UNL     1      -5.942  -6.110  20.779  1.00  0.00     0.016 A 
HETATM   32  C5  UNL     1      -6.309  -5.246  19.729  1.00  0.00     0.018 A 
HETATM   33  C6  UNL     1      -5.367  -4.474  19.084  1.00  0.00     0.087 A 
HETATM   34  N3  UNL     1      -4.082  -4.564  19.481  1.00  0.00    -0.374 N 
HETATM   35  C7  UNL     1      -3.721  -5.389  20.486  1.00  0.00     0.101 A 
ATOM     36  H3  UNL     1      -3.372  -3.999  19.014  1.00  0.00     0.164 HD
ENDBRANCH   5  30
TORSDOF 3
ENDMDL
MODEL 5
REMARK VINA RESULT: -0.452926245      3.427      7.349
REMARK  3 active torsions:
REMARK  status: ('A' for Active; 'I' for Inactive)
REMARK    1  A    between atoms: C2_5  and  C3_6 
REMARK    2  A    between atoms: N5_26  and  S1_27 
REMARK    3  A    between atoms: S1_27  and  C18_30 
ROOT
HETATM    1  N1  UNL     1      -4.764 -11.737  22.830  1.00  0.00    -0.082 NA
HETATM    2  C1  UNL     1      -4.243 -10.832  23.781  1.00  0.00     0.131 A 
HETATM    3  N2  UNL     1      -4.358 -11.039  25.104  1.00  0.00    -0.343 N 
ATOM      4  H2  UNL     1      -4.819 -11.896  25.411  1.00  0.00     0.167 HD
HETATM    5  C2  UNL     1      -3.908 -10.193  26.057  1.00  0.00     0.047 A 
HETATM    6  C8  UNL     1      -3.294  -9.051  25.606  1.00  0.00     0.064 A 
HETATM    7  C9  UNL     1      -3.142  -8.775  24.264  1.00  0.00     0.086 A 
HETATM    8  C10 UNL     1      -3.627  -9.691  23.335  1.00  0.00     0.064 A 
HETATM    9  C11 UNL     1      -3.328  -9.145  22.111  1.00  0.00     0.075 A 
HETATM   10  C12 UNL     1      -3.605  -9.623  20.792  1.00  0.00    -0.007 A 
HETATM   11  C13 UNL     1      -4.334  -8.799  19.938  1.00  0.00     0.015 A 
HETATM   12  C14 UNL     1      -4.592  -9.173  18.641  1.00  0.00     0.020 A 
HETATM   13  C15 UNL     1      -4.121 -10.379  18.178  1.00  0.00     0.011 A 
HETATM   14 BR1  UNL     1      -4.472 -10.917  16.365  1.00  0.00    -0.051 Br
HETATM   15  C16 UNL     1      -3.398 -11.203  19.011  1.00  0.00     0.020 A 
HETATM   16  C17 UNL     1      -3.144 -10.818  20.316  1.00  0.00     0.015 A 
HETATM   17  N4  UNL     1      -2.705  -7.975  22.357  1.00  0.00    -0.282 N 
ATOM     18  H4  UNL     1      -2.368  -7.350  21.624  1.00  0.00     0.188 HD
HETATM   19  N5  UNL     1      -2.580  -7.727  23.626  1.00  0.00    -0.175 N 
ENDROOT
BRANCH  19  20
HETATM   20  S1  UNL     1      -1.868  -6.328  24.272  1.00  0.00     0.284 S 
HETATM   21  O1  UNL     1      -2.571  -5.084  23.786  1.00  0.00    -0.198 OA
HETATM   22  O2  UNL     1      -0.412  -6.199  23.950  1.00  0.00    -0.198 OA
BRANCH  20  23
HETATM   23  C18 UNL     1      -2.030  -6.340  26.020  1.00  0.00     0.103 A 
HETATM   24  C19 UNL     1      -0.944  -6.610  26.818  1.00  0.00     0.027 A 
HETATM   25  C20 UNL     1      -1.141  -6.636  28.195  1.00  0.00     0.002 A 
HETATM   26  C21 UNL     1      -2.360  -6.407  28.766  1.00  0.00     0.002 A 
HETATM   27  C22 UNL     1      -3.416  -6.144  27.948  1.00  0.00     0.025 A 
HETATM   28  C23 UNL     1      -3.270  -6.108  26.607  1.00  0.00     0.057 A 
HETATM   29 CL1  UNL     1      -4.616  -5.770  25.522  1.00  0.00    -0.083 Cl
ENDBRANCH  20  23
ENDBRANCH  19  20
BRANCH   5  30
HETATM   30  C3  UNL     1      -4.085 -10.517  27.480  1.00  0.00     0.006 A 
HETATM   31  C4  UNL     1      -5.234 -10.210  28.161  1.00  0.00     0.016 A 
HETATM   32  C5  UNL     1      -5.337 -10.549  29.524  1.00  0.00     0.018 A 
HETATM   33  C6  UNL     1      -4.303 -11.183  30.177  1.00  0.00     0.087 A 
HETATM   34  N3  UNL     1      -3.186 -11.474  29.481  1.00  0.00    -0.374 N 
HETATM   35  C7  UNL     1      -3.078 -11.152  28.174  1.00  0.00     0.101 A 
ATOM     36  H3  UNL     1      -2.411 -11.943  29.948  1.00  0.00     0.164 HD
ENDBRANCH   5  30
TORSDOF 3
ENDMDL
