MODEL 1
REMARK VINA RESULT: -5.078253628      0.000      0.000
REMARK  3 active torsions:
REMARK  status: ('A' for Active; 'I' for Inactive)
REMARK    1  A    between atoms: N1_1  and  C1_5 
REMARK    2  A    between atoms: N2_10  and  C6_11 
REMARK    3  A    between atoms: C6_11  and  C7_12 
ROOT
HETATM    1  C1  UNL     1      51.909  33.938   3.746  1.00  0.00     0.417 C 
HETATM    2  C2  UNL     1      51.651  32.625   3.069  1.00  0.00     0.065 C 
HETATM    3  C3  UNL     1      50.227  32.184   3.088  1.00  0.00     0.005 C 
HETATM    4  C4  UNL     1      49.448  32.613   4.284  1.00  0.00     0.030 C 
HETATM    5  C5  UNL     1      49.886  33.956   4.828  1.00  0.00     0.275 C 
HETATM    6  N2  UNL     1      51.303  33.879   5.060  1.00  0.00     0.119 N 
ENDROOT
BRANCH   1   7
HETATM    7  N1  UNL     1      53.280  34.286   3.726  1.00  0.00    -0.048 N 
ATOM      8  H13 UNL     1      53.632  34.351   2.771  1.00  0.00     0.276 HD
ATOM      9  H12 UNL     1      53.420  35.255   4.015  1.00  0.00     0.276 HD
ATOM     10  H11 UNL     1      53.846  33.647   4.285  1.00  0.00     0.276 HD
ENDBRANCH   1   7
BRANCH   6  11
HETATM   11  C6  UNL     1      51.823  34.944   5.867  1.00  0.00     0.279 C 
BRANCH  11  12
HETATM   12  C7  UNL     1      51.075  36.223   5.773  1.00  0.00     0.014 A 
HETATM   13  C8  UNL     1      51.776  37.384   6.485  1.00  0.00     0.007 A 
HETATM   14  C9  UNL     1      50.472  36.838   7.044  1.00  0.00     0.007 A 
ENDBRANCH  11  12
ENDBRANCH   6  11
TORSDOF 3
ENDMDL
MODEL 2
REMARK VINA RESULT: -5.041794755      0.931      1.009
REMARK  3 active torsions:
REMARK  status: ('A' for Active; 'I' for Inactive)
REMARK    1  A    between atoms: N1_1  and  C1_5 
REMARK    2  A    between atoms: N2_10  and  C6_11 
REMARK    3  A    between atoms: C6_11  and  C7_12 
ROOT
HETATM    1  C1  UNL     1      51.222  33.448   3.277  1.00  0.00     0.417 C 
HETATM    2  C2  UNL     1      51.067  32.185   2.484  1.00  0.00     0.065 C 
HETATM    3  C3  UNL     1      49.694  31.604   2.501  1.00  0.00     0.005 C 
HETATM    4  C4  UNL     1      48.924  31.837   3.756  1.00  0.00     0.030 C 
HETATM    5  C5  UNL     1      49.250  33.160   4.415  1.00  0.00     0.275 C 
HETATM    6  N2  UNL     1      50.675  33.205   4.597  1.00  0.00     0.119 N 
ENDROOT
BRANCH   1   7
HETATM    7  N1  UNL     1      52.550  33.932   3.251  1.00  0.00    -0.048 N 
ATOM      8  H13 UNL     1      52.579  34.922   3.007  1.00  0.00     0.276 HD
ATOM      9  H12 UNL     1      52.942  33.987   4.192  1.00  0.00     0.276 HD
ATOM     10  H11 UNL     1      53.147  33.383   2.633  1.00  0.00     0.276 HD
ENDBRANCH   1   7
BRANCH   6  11
HETATM   11  C6  UNL     1      51.120  34.237   5.488  1.00  0.00     0.279 C 
BRANCH  11  12
HETATM   12  C7  UNL     1      50.382  35.520   5.376  1.00  0.00     0.014 A 
HETATM   13  C8  UNL     1      51.220  36.734   5.792  1.00  0.00     0.007 A 
HETATM   14  C9  UNL     1      50.041  36.307   6.650  1.00  0.00     0.007 A 
ENDBRANCH  11  12
ENDBRANCH   6  11
TORSDOF 3
ENDMDL
MODEL 3
REMARK VINA RESULT: -4.943590072      2.286      4.731
REMARK  3 active torsions:
REMARK  status: ('A' for Active; 'I' for Inactive)
REMARK    1  A    between atoms: N1_1  and  C1_5 
REMARK    2  A    between atoms: N2_10  and  C6_11 
REMARK    3  A    between atoms: C6_11  and  C7_12 
ROOT
HETATM    1  C1  UNL     1      50.435  32.307   3.526  1.00  0.00     0.417 C 
HETATM    2  C2  UNL     1      51.433  33.405   3.310  1.00  0.00     0.065 C 
HETATM    3  C3  UNL     1      51.669  34.274   4.498  1.00  0.00     0.005 C 
HETATM    4  C4  UNL     1      50.491  34.453   5.395  1.00  0.00     0.030 C 
HETATM    5  C5  UNL     1      49.596  33.234   5.449  1.00  0.00     0.275 C 
HETATM    6  N2  UNL     1      49.244  32.904   4.095  1.00  0.00     0.119 N 
ENDROOT
BRANCH   1   7
HETATM    7  N1  UNL     1      50.228  31.539   2.356  1.00  0.00    -0.048 N 
ATOM      8  H13 UNL     1      50.083  30.555   2.580  1.00  0.00     0.276 HD
ATOM      9  H12 UNL     1      49.322  31.744   1.935  1.00  0.00     0.276 HD
ATOM     10  H11 UNL     1      50.985  31.656   1.682  1.00  0.00     0.276 HD
ENDBRANCH   1   7
BRANCH   6  11
HETATM   11  C6  UNL     1      48.154  31.978   3.982  1.00  0.00     0.279 C 
BRANCH  11  12
HETATM   12  C7  UNL     1      47.985  31.066   5.141  1.00  0.00     0.014 A 
HETATM   13  C8  UNL     1      47.632  29.633   4.731  1.00  0.00     0.007 A 
HETATM   14  C9  UNL     1      46.597  30.485   5.447  1.00  0.00     0.007 A 
ENDBRANCH  11  12
ENDBRANCH   6  11
TORSDOF 3
ENDMDL
MODEL 4
REMARK VINA RESULT: -4.864304758      1.539      2.602
REMARK  3 active torsions:
REMARK  status: ('A' for Active; 'I' for Inactive)
REMARK    1  A    between atoms: N1_1  and  C1_5 
REMARK    2  A    between atoms: N2_10  and  C6_11 
REMARK    3  A    between atoms: C6_11  and  C7_12 
ROOT
HETATM    1  C1  UNL     1      49.666  32.123   4.283  1.00  0.00     0.417 C 
HETATM    2  C2  UNL     1      49.674  31.606   2.875  1.00  0.00     0.065 C 
HETATM    3  C3  UNL     1      50.885  31.970   2.086  1.00  0.00     0.005 C 
HETATM    4  C4  UNL     1      51.503  33.280   2.441  1.00  0.00     0.030 C 
HETATM    5  C5  UNL     1      51.359  33.625   3.908  1.00  0.00     0.275 C 
HETATM    6  N2  UNL     1      49.961  33.540   4.230  1.00  0.00     0.119 N 
ENDROOT
BRANCH   1   7
HETATM    7  N1  UNL     1      48.479  31.776   4.969  1.00  0.00    -0.048 N 
ATOM      8  H13 UNL     1      48.206  30.812   4.774  1.00  0.00     0.276 HD
ATOM      9  H12 UNL     1      48.641  31.697   5.973  1.00  0.00     0.276 HD
ATOM     10  H11 UNL     1      47.716  32.423   4.767  1.00  0.00     0.276 HD
ENDBRANCH   1   7
BRANCH   6  11
HETATM   11  C6  UNL     1      49.611  34.140   5.485  1.00  0.00     0.279 C 
BRANCH  11  12
HETATM   12  C7  UNL     1      49.368  35.604   5.432  1.00  0.00     0.014 A 
HETATM   13  C8  UNL     1      50.389  36.412   6.239  1.00  0.00     0.007 A 
HETATM   14  C9  UNL     1      48.945  36.345   6.708  1.00  0.00     0.007 A 
ENDBRANCH  11  12
ENDBRANCH   6  11
TORSDOF 3
ENDMDL
MODEL 5
REMARK VINA RESULT: -4.857426224      2.742      4.659
REMARK  3 active torsions:
REMARK  status: ('A' for Active; 'I' for Inactive)
REMARK    1  A    between atoms: N1_1  and  C1_5 
REMARK    2  A    between atoms: N2_10  and  C6_11 
REMARK    3  A    between atoms: C6_11  and  C7_12 
ROOT
HETATM    1  C1  UNL     1      50.064  33.293   4.345  1.00  0.00     0.417 C 
HETATM    2  C2  UNL     1      51.301  33.320   3.497  1.00  0.00     0.065 C 
HETATM    3  C3  UNL     1      51.154  32.672   2.163  1.00  0.00     0.005 C 
HETATM    4  C4  UNL     1      50.201  31.527   2.116  1.00  0.00     0.030 C 
HETATM    5  C5  UNL     1      49.036  31.686   3.070  1.00  0.00     0.275 C 
HETATM    6  N2  UNL     1      49.586  31.926   4.376  1.00  0.00     0.119 N 
ENDROOT
BRANCH   1   7
HETATM    7  N1  UNL     1      50.274  33.891   5.610  1.00  0.00    -0.048 N 
ATOM      8  H13 UNL     1      51.098  34.492   5.603  1.00  0.00     0.276 HD
ATOM      9  H12 UNL     1      49.563  34.595   5.808  1.00  0.00     0.276 HD
ATOM     10  H11 UNL     1      50.328  33.198   6.357  1.00  0.00     0.276 HD
ENDBRANCH   1   7
BRANCH   6  11
HETATM   11  C6  UNL     1      48.640  31.783   5.446  1.00  0.00     0.279 C 
BRANCH  11  12
HETATM   12  C7  UNL     1      48.002  30.446   5.541  1.00  0.00     0.014 A 
HETATM   13  C8  UNL     1      46.479  30.494   5.379  1.00  0.00     0.007 A 
HETATM   14  C9  UNL     1      47.079  30.134   6.728  1.00  0.00     0.007 A 
ENDBRANCH  11  12
ENDBRANCH   6  11
TORSDOF 3
ENDMDL
