MODEL 1
REMARK VINA RESULT: -6.117380827      0.000      0.000
REMARK  8 active torsions:
REMARK  status: ('A' for Active; 'I' for Inactive)
REMARK    1  A    between atoms: C3_3  and  C6_6 
REMARK    2  A    between atoms: C6_6  and  C7_7 
REMARK    3  A    between atoms: C7_7  and  N1_8 
REMARK    4  A    between atoms: N1_8  and  C8_10 
REMARK    5  A    between atoms: C8_10  and  N2_12 
REMARK    6  A    between atoms: N2_12  and  C9_14 
REMARK    7  A    between atoms: C9_14  and  C10_15 
REMARK    8  A    between atoms: C10_15  and  N3_16 
ROOT
HETATM    1  C1  UNL     1      10.305  13.177  17.388  1.00  0.00     0.013 C 
HETATM    2  C2  UNL     1      10.935  14.211  17.468  1.00  0.00    -0.108 C 
HETATM    3  C3  UNL     1      11.720  15.455  17.548  1.00  0.00     0.017 C 
HETATM    4  C4  UNL     1      12.740  15.255  18.645  1.00  0.00     0.029 C 
HETATM    5  C5  UNL     1      12.471  15.562  16.240  1.00  0.00     0.029 C 
ENDROOT
BRANCH   3   6
HETATM    6  C6  UNL     1      10.827  16.635  17.808  1.00  0.00     0.041 C 
BRANCH   6   7
HETATM    7  C7  UNL     1      11.170  17.774  16.902  1.00  0.00     0.123 C 
BRANCH   7   8
HETATM    8  N1  UNL     1      11.517  18.996  17.545  1.00  0.00    -0.367 N 
ATOM      9  H1  UNL     1      12.422  19.017  18.015  1.00  0.00     0.161 HD
BRANCH   8  10
HETATM   10  C8  UNL     1      10.766  20.163  17.606  1.00  0.00     0.167 C 
HETATM   11  S1  UNL     1      10.754  21.197  16.362  1.00  0.00    -0.041 SA
BRANCH  10  12
HETATM   12  N2  UNL     1      10.008  20.467  18.755  1.00  0.00    -0.364 N 
ATOM     13  H2  UNL     1       9.896  19.746  19.468  1.00  0.00     0.162 HD
BRANCH  12  14
HETATM   14  C9  UNL     1       9.380  21.758  18.968  1.00  0.00     0.169 C 
BRANCH  14  15
HETATM   15  C10 UNL     1      10.164  22.631  19.891  1.00  0.00     0.306 C 
HETATM   16  C11 UNL     1      11.385  21.942  20.374  1.00  0.00     0.094 C 
HETATM   17  N4  UNL     1      12.342  21.413  20.754  1.00  0.00    -0.195 NA
BRANCH  15  18
HETATM   18  N3  UNL     1      10.654  23.797  19.147  1.00  0.00    -0.061 N 
ATOM     19  H33 UNL     1      11.554  23.622  18.701  1.00  0.00     0.276 HD
ATOM     20  H32 UNL     1      10.108  23.976  18.304  1.00  0.00     0.276 HD
ATOM     21  H31 UNL     1      10.681  24.604  19.771  1.00  0.00     0.276 HD
ENDBRANCH  15  18
ENDBRANCH  14  15
ENDBRANCH  12  14
ENDBRANCH  10  12
ENDBRANCH   8  10
ENDBRANCH   7   8
ENDBRANCH   6   7
ENDBRANCH   3   6
TORSDOF 8
ENDMDL
MODEL 2
REMARK VINA RESULT: -6.089613371      2.622      6.805
REMARK  8 active torsions:
REMARK  status: ('A' for Active; 'I' for Inactive)
REMARK    1  A    between atoms: C3_3  and  C6_6 
REMARK    2  A    between atoms: C6_6  and  C7_7 
REMARK    3  A    between atoms: C7_7  and  N1_8 
REMARK    4  A    between atoms: N1_8  and  C8_10 
REMARK    5  A    between atoms: C8_10  and  N2_12 
REMARK    6  A    between atoms: N2_12  and  C9_14 
REMARK    7  A    between atoms: C9_14  and  C10_15 
REMARK    8  A    between atoms: C10_15  and  N3_16 
ROOT
HETATM    1  C1  UNL     1      12.228  21.527  20.625  1.00  0.00     0.013 C 
HETATM    2  C2  UNL     1      11.356  21.473  19.784  1.00  0.00    -0.108 C 
HETATM    3  C3  UNL     1      10.283  21.427  18.775  1.00  0.00     0.017 C 
HETATM    4  C4  UNL     1       9.174  20.582  19.358  1.00  0.00     0.029 C 
HETATM    5  C5  UNL     1       9.764  22.841  18.650  1.00  0.00     0.029 C 
ENDROOT
BRANCH   3   6
HETATM    6  C6  UNL     1      10.796  20.875  17.474  1.00  0.00     0.041 C 
BRANCH   6   7
HETATM    7  C7  UNL     1      11.105  19.418  17.597  1.00  0.00     0.123 C 
BRANCH   7   8
HETATM    8  N1  UNL     1      11.024  18.663  16.391  1.00  0.00    -0.367 N 
ATOM      9  H1  UNL     1      11.259  19.159  15.532  1.00  0.00     0.161 HD
BRANCH   8  10
HETATM   10  C8  UNL     1      10.660  17.330  16.252  1.00  0.00     0.167 C 
HETATM   11  S1  UNL     1      10.374  16.706  14.787  1.00  0.00    -0.041 SA
BRANCH  10  12
HETATM   12  N2  UNL     1      10.529  16.502  17.384  1.00  0.00    -0.364 N 
ATOM     13  H2  UNL     1       9.593  16.321  17.749  1.00  0.00     0.162 HD
BRANCH  12  14
HETATM   14  C9  UNL     1      11.664  15.894  18.055  1.00  0.00     0.169 C 
BRANCH  14  15
HETATM   15  C10 UNL     1      11.801  14.440  17.747  1.00  0.00     0.306 C 
HETATM   16  C11 UNL     1      10.509  13.861  17.305  1.00  0.00     0.094 C 
HETATM   17  N4  UNL     1       9.505  13.401  16.957  1.00  0.00    -0.195 NA
BRANCH  15  18
HETATM   18  N3  UNL     1      12.703  14.276  16.601  1.00  0.00    -0.061 N 
ATOM     19  H33 UNL     1      13.629  13.952  16.879  1.00  0.00     0.276 HD
ATOM     20  H32 UNL     1      12.444  13.483  16.014  1.00  0.00     0.276 HD
ATOM     21  H31 UNL     1      12.740  15.151  16.078  1.00  0.00     0.276 HD
ENDBRANCH  15  18
ENDBRANCH  14  15
ENDBRANCH  12  14
ENDBRANCH  10  12
ENDBRANCH   8  10
ENDBRANCH   7   8
ENDBRANCH   6   7
ENDBRANCH   3   6
TORSDOF 8
ENDMDL
MODEL 3
REMARK VINA RESULT: -6.079354346      2.493      7.004
REMARK  8 active torsions:
REMARK  status: ('A' for Active; 'I' for Inactive)
REMARK    1  A    between atoms: C3_3  and  C6_6 
REMARK    2  A    between atoms: C6_6  and  C7_7 
REMARK    3  A    between atoms: C7_7  and  N1_8 
REMARK    4  A    between atoms: N1_8  and  C8_10 
REMARK    5  A    between atoms: C8_10  and  N2_12 
REMARK    6  A    between atoms: N2_12  and  C9_14 
REMARK    7  A    between atoms: C9_14  and  C10_15 
REMARK    8  A    between atoms: C10_15  and  N3_16 
ROOT
HETATM    1  C1  UNL     1      11.522  23.600  18.003  1.00  0.00     0.013 C 
HETATM    2  C2  UNL     1      11.431  22.733  18.847  1.00  0.00    -0.108 C 
HETATM    3  C3  UNL     1      11.327  21.700  19.891  1.00  0.00     0.017 C 
HETATM    4  C4  UNL     1      12.734  21.234  20.184  1.00  0.00     0.029 C 
HETATM    5  C5  UNL     1      10.811  22.402  21.127  1.00  0.00     0.029 C 
ENDROOT
BRANCH   3   6
HETATM    6  C6  UNL     1      10.435  20.575  19.444  1.00  0.00     0.041 C 
BRANCH   6   7
HETATM    7  C7  UNL     1      11.223  19.519  18.737  1.00  0.00     0.123 C 
BRANCH   7   8
HETATM    8  N1  UNL     1      10.604  18.950  17.586  1.00  0.00    -0.367 N 
ATOM      9  H1  UNL     1       9.892  19.519  17.129  1.00  0.00     0.161 HD
BRANCH   8  10
HETATM   10  C8  UNL     1      10.859  17.710  17.016  1.00  0.00     0.167 C 
HETATM   11  S1  UNL     1      11.308  17.596  15.465  1.00  0.00    -0.041 SA
BRANCH  10  12
HETATM   12  N2  UNL     1      10.725  16.531  17.776  1.00  0.00    -0.364 N 
ATOM     13  H2  UNL     1       9.789  16.235  18.053  1.00  0.00     0.162 HD
BRANCH  12  14
HETATM   14  C9  UNL     1      11.857  15.719  18.182  1.00  0.00     0.169 C 
BRANCH  14  15
HETATM   15  C10 UNL     1      11.762  14.313  17.689  1.00  0.00     0.306 C 
HETATM   16  C11 UNL     1      10.383  13.994  17.243  1.00  0.00     0.094 C 
HETATM   17  N4  UNL     1       9.310  13.737  16.891  1.00  0.00    -0.195 NA
BRANCH  15  18
HETATM   18  N3  UNL     1      12.593  14.168  16.489  1.00  0.00    -0.061 N 
ATOM     19  H33 UNL     1      13.397  14.795  16.495  1.00  0.00     0.276 HD
ATOM     20  H32 UNL     1      13.101  13.283  16.473  1.00  0.00     0.276 HD
ATOM     21  H31 UNL     1      12.009  14.295  15.662  1.00  0.00     0.276 HD
ENDBRANCH  15  18
ENDBRANCH  14  15
ENDBRANCH  12  14
ENDBRANCH  10  12
ENDBRANCH   8  10
ENDBRANCH   7   8
ENDBRANCH   6   7
ENDBRANCH   3   6
TORSDOF 8
ENDMDL
MODEL 4
REMARK VINA RESULT: -6.062349761      3.063      7.111
REMARK  8 active torsions:
REMARK  status: ('A' for Active; 'I' for Inactive)
REMARK    1  A    between atoms: C3_3  and  C6_6 
REMARK    2  A    between atoms: C6_6  and  C7_7 
REMARK    3  A    between atoms: C7_7  and  N1_8 
REMARK    4  A    between atoms: N1_8  and  C8_10 
REMARK    5  A    between atoms: C8_10  and  N2_12 
REMARK    6  A    between atoms: N2_12  and  C9_14 
REMARK    7  A    between atoms: C9_14  and  C10_15 
REMARK    8  A    between atoms: C10_15  and  N3_16 
ROOT
HETATM    1  C1  UNL     1      12.269  21.569  20.344  1.00  0.00     0.013 C 
HETATM    2  C2  UNL     1      11.444  21.195  19.537  1.00  0.00    -0.108 C 
HETATM    3  C3  UNL     1      10.445  20.764  18.544  1.00  0.00     0.017 C 
HETATM    4  C4  UNL     1       9.120  21.345  18.979  1.00  0.00     0.029 C 
HETATM    5  C5  UNL     1      10.832  21.432  17.244  1.00  0.00     0.029 C 
ENDROOT
BRANCH   3   6
HETATM    6  C6  UNL     1      10.405  19.265  18.441  1.00  0.00     0.041 C 
BRANCH   6   7
HETATM    7  C7  UNL     1      11.759  18.715  18.128  1.00  0.00     0.123 C 
BRANCH   7   8
HETATM    8  N1  UNL     1      12.178  17.608  18.922  1.00  0.00    -0.367 N 
ATOM      9  H1  UNL     1      12.269  17.780  19.923  1.00  0.00     0.161 HD
BRANCH   8  10
HETATM   10  C8  UNL     1      12.477  16.323  18.490  1.00  0.00     0.167 C 
HETATM   11  S1  UNL     1      13.981  15.741  18.622  1.00  0.00    -0.041 SA
BRANCH  10  12
HETATM   12  N2  UNL     1      11.477  15.508  17.923  1.00  0.00    -0.364 N 
ATOM     13  H2  UNL     1      10.599  15.943  17.638  1.00  0.00     0.162 HD
BRANCH  12  14
HETATM   14  C9  UNL     1      11.639  14.080  17.725  1.00  0.00     0.169 C 
BRANCH  14  15
HETATM   15  C10 UNL     1      10.336  13.372  17.555  1.00  0.00     0.306 C 
HETATM   16  C11 UNL     1       9.332  14.246  16.899  1.00  0.00     0.094 C 
HETATM   17  N4  UNL     1       8.544  14.920  16.386  1.00  0.00    -0.195 NA
BRANCH  15  18
HETATM   18  N3  UNL     1      10.520  12.245  16.633  1.00  0.00    -0.061 N 
ATOM     19  H33 UNL     1      11.310  12.384  16.003  1.00  0.00     0.276 HD
ATOM     20  H32 UNL     1      10.858  11.408  17.106  1.00  0.00     0.276 HD
ATOM     21  H31 UNL     1       9.647  12.081  16.129  1.00  0.00     0.276 HD
ENDBRANCH  15  18
ENDBRANCH  14  15
ENDBRANCH  12  14
ENDBRANCH  10  12
ENDBRANCH   8  10
ENDBRANCH   7   8
ENDBRANCH   6   7
ENDBRANCH   3   6
TORSDOF 8
ENDMDL
MODEL 5
REMARK VINA RESULT: -6.038815308      0.807      1.763
REMARK  8 active torsions:
REMARK  status: ('A' for Active; 'I' for Inactive)
REMARK    1  A    between atoms: C3_3  and  C6_6 
REMARK    2  A    between atoms: C6_6  and  C7_7 
REMARK    3  A    between atoms: C7_7  and  N1_8 
REMARK    4  A    between atoms: N1_8  and  C8_10 
REMARK    5  A    between atoms: C8_10  and  N2_12 
REMARK    6  A    between atoms: N2_12  and  C9_14 
REMARK    7  A    between atoms: C9_14  and  C10_15 
REMARK    8  A    between atoms: C10_15  and  N3_16 
ROOT
HETATM    1  C1  UNL     1      13.696  16.270  15.596  1.00  0.00     0.013 C 
HETATM    2  C2  UNL     1      13.157  16.121  16.673  1.00  0.00    -0.108 C 
HETATM    3  C3  UNL     1      12.518  15.917  17.984  1.00  0.00     0.017 C 
HETATM    4  C4  UNL     1      11.412  14.909  17.777  1.00  0.00     0.029 C 
HETATM    5  C5  UNL     1      13.565  15.272  18.865  1.00  0.00     0.029 C 
ENDROOT
BRANCH   3   6
HETATM    6  C6  UNL     1      12.009  17.218  18.540  1.00  0.00     0.041 C 
BRANCH   6   7
HETATM    7  C7  UNL     1      10.742  17.627  17.862  1.00  0.00     0.123 C 
BRANCH   7   8
HETATM    8  N1  UNL     1      10.829  18.776  17.023  1.00  0.00    -0.367 N 
ATOM      9  H1  UNL     1      11.101  18.607  16.055  1.00  0.00     0.161 HD
BRANCH   8  10
HETATM   10  C8  UNL     1      10.588  20.098  17.372  1.00  0.00     0.167 C 
HETATM   11  S1  UNL     1      10.799  21.284  16.292  1.00  0.00    -0.041 SA
BRANCH  10  12
HETATM   12  N2  UNL     1      10.162  20.428  18.674  1.00  0.00    -0.364 N 
ATOM     13  H2  UNL     1      10.388  19.789  19.436  1.00  0.00     0.162 HD
BRANCH  12  14
HETATM   14  C9  UNL     1       9.418  21.636  18.980  1.00  0.00     0.169 C 
BRANCH  14  15
HETATM   15  C10 UNL     1      10.155  22.545  19.906  1.00  0.00     0.306 C 
HETATM   16  C11 UNL     1      11.403  21.912  20.399  1.00  0.00     0.094 C 
HETATM   17  N4  UNL     1      12.379  21.426  20.787  1.00  0.00    -0.195 NA
BRANCH  15  18
HETATM   18  N3  UNL     1      10.598  23.730  19.163  1.00  0.00    -0.061 N 
ATOM     19  H33 UNL     1       9.857  24.424  19.060  1.00  0.00     0.276 HD
ATOM     20  H32 UNL     1      11.254  24.300  19.697  1.00  0.00     0.276 HD
ATOM     21  H31 UNL     1      10.982  23.436  18.264  1.00  0.00     0.276 HD
ENDBRANCH  15  18
ENDBRANCH  14  15
ENDBRANCH  12  14
ENDBRANCH  10  12
ENDBRANCH   8  10
ENDBRANCH   7   8
ENDBRANCH   6   7
ENDBRANCH   3   6
TORSDOF 8
ENDMDL
