MODEL 1
REMARK VINA RESULT: -6.305479259      0.000      0.000
REMARK  4 active torsions:
REMARK  status: ('A' for Active; 'I' for Inactive)
REMARK    1  A    between atoms: C4_6  and  C5_7 
REMARK    2  A    between atoms: C5_7  and  N1_8 
REMARK    3  A    between atoms: C7_14  and  C8_15 
REMARK    4  A    between atoms: C8_15  and  O3_16 
ROOT
HETATM    1  C1  UNL     1      18.419  10.097  58.403  1.00  0.00     0.013 C 
HETATM    2  C2  UNL     1      19.315  10.300  57.172  1.00  0.00     0.024 C 
HETATM    3  C3  UNL     1      18.851  11.489  56.437  1.00  0.00     0.118 C 
HETATM    4  S1  UNL     1      19.654  13.002  56.994  1.00  0.00     0.046 S 
HETATM    5  O1  UNL     1      19.076  13.299  58.545  1.00  0.00    -0.255 OA
HETATM    6  C4  UNL     1      21.358  12.458  57.170  1.00  0.00     0.232 C 
HETATM    7  O2  UNL     1      21.315  11.389  58.017  1.00  0.00    -0.364 OA
HETATM    8  C7  UNL     1      20.744  10.242  57.558  1.00  0.00     0.151 C 
ENDROOT
BRANCH   6   9
HETATM    9  C5  UNL     1      22.252  13.567  57.635  1.00  0.00     0.167 C 
BRANCH   9  10
HETATM   10  N1  UNL     1      21.538  14.373  58.567  1.00  0.00    -0.364 N 
HETATM   11  C6  UNL     1      21.520  15.626  58.665  1.00  0.00     0.197 C 
HETATM   12  N2  UNL     1      20.740  16.238  59.668  1.00  0.00    -0.067 NA
HETATM   13  N3  UNL     1      22.277  16.421  57.772  1.00  0.00    -0.067 NA
ATOM     14  H1  UNL     1      20.968  13.867  59.245  1.00  0.00     0.161 HD
ENDBRANCH   9  10
ENDBRANCH   6   9
BRANCH   8  15
HETATM   15  C8  UNL     1      21.549   9.542  56.467  1.00  0.00     0.196 C 
BRANCH  15  16
HETATM   16  O3  UNL     1      22.916   9.569  56.736  1.00  0.00    -0.398 OA
ATOM     17  H3  UNL     1      23.394   8.954  56.192  1.00  0.00     0.209 HD
ENDBRANCH  15  16
ENDBRANCH   8  15
TORSDOF 4
ENDMDL
MODEL 2
REMARK VINA RESULT: -5.616848186      1.232      1.232
REMARK  4 active torsions:
REMARK  status: ('A' for Active; 'I' for Inactive)
REMARK    1  A    between atoms: C4_6  and  C5_7 
REMARK    2  A    between atoms: C5_7  and  N1_8 
REMARK    3  A    between atoms: C7_14  and  C8_15 
REMARK    4  A    between atoms: C8_15  and  O3_16 
ROOT
HETATM    1  C1  UNL     1      18.450   9.599  59.053  1.00  0.00     0.013 C 
HETATM    2  C2  UNL     1      18.952   9.750  57.610  1.00  0.00     0.024 C 
HETATM    3  C3  UNL     1      18.018  10.612  56.867  1.00  0.00     0.118 C 
HETATM    4  S1  UNL     1      18.459  12.355  56.966  1.00  0.00     0.046 S 
HETATM    5  O1  UNL     1      18.182  12.823  58.558  1.00  0.00    -0.255 OA
HETATM    6  C4  UNL     1      20.242  12.285  56.748  1.00  0.00     0.232 C 
HETATM    7  O2  UNL     1      20.696  11.438  57.717  1.00  0.00    -0.364 OA
HETATM    8  C7  UNL     1      20.388  10.118  57.597  1.00  0.00     0.151 C 
ENDROOT
BRANCH   6   9
HETATM    9  C5  UNL     1      20.863  13.647  56.792  1.00  0.00     0.167 C 
BRANCH   9  10
HETATM   10  N1  UNL     1      20.470  14.294  57.998  1.00  0.00    -0.364 N 
HETATM   11  C6  UNL     1      21.035  15.245  58.596  1.00  0.00     0.197 C 
HETATM   12  N2  UNL     1      20.480  15.748  59.791  1.00  0.00    -0.067 NA
HETATM   13  N3  UNL     1      22.223  15.809  58.073  1.00  0.00    -0.067 NA
ATOM     14  H1  UNL     1      19.619  13.940  58.434  1.00  0.00     0.161 HD
ENDBRANCH   9  10
ENDBRANCH   6   9
BRANCH   8  15
HETATM   15  C8  UNL     1      21.094   9.419  56.440  1.00  0.00     0.196 C 
BRANCH  15  16
HETATM   16  O3  UNL     1      20.188   8.822  55.566  1.00  0.00    -0.398 OA
ATOM     17  H3  UNL     1      20.429   7.926  55.366  1.00  0.00     0.209 HD
ENDBRANCH  15  16
ENDBRANCH   8  15
TORSDOF 4
ENDMDL
MODEL 3
REMARK VINA RESULT: -5.437373846      1.477      2.890
REMARK  4 active torsions:
REMARK  status: ('A' for Active; 'I' for Inactive)
REMARK    1  A    between atoms: C4_6  and  C5_7 
REMARK    2  A    between atoms: C5_7  and  N1_8 
REMARK    3  A    between atoms: C7_14  and  C8_15 
REMARK    4  A    between atoms: C8_15  and  O3_16 
ROOT
HETATM    1  C1  UNL     1      20.026   8.904  55.820  1.00  0.00     0.013 C 
HETATM    2  C2  UNL     1      19.601   9.691  57.069  1.00  0.00     0.024 C 
HETATM    3  C3  UNL     1      20.740   9.760  57.999  1.00  0.00     0.118 C 
HETATM    4  S1  UNL     1      21.776  11.205  57.715  1.00  0.00     0.046 S 
HETATM    5  O1  UNL     1      22.541  10.955  56.237  1.00  0.00    -0.255 OA
HETATM    6  C4  UNL     1      20.541  12.484  57.450  1.00  0.00     0.232 C 
HETATM    7  O2  UNL     1      19.756  12.029  56.430  1.00  0.00    -0.364 OA
HETATM    8  C7  UNL     1      18.948  10.964  56.681  1.00  0.00     0.151 C 
ENDROOT
BRANCH   6   9
HETATM    9  C5  UNL     1      21.167  13.819  57.186  1.00  0.00     0.167 C 
BRANCH   9  10
HETATM   10  N1  UNL     1      20.799  14.714  58.231  1.00  0.00    -0.364 N 
HETATM   11  C6  UNL     1      21.270  15.851  58.489  1.00  0.00     0.197 C 
HETATM   12  N2  UNL     1      20.763  16.587  59.581  1.00  0.00    -0.067 NA
HETATM   13  N3  UNL     1      22.304  16.392  57.688  1.00  0.00    -0.067 NA
ATOM     14  H1  UNL     1      20.057  14.391  58.851  1.00  0.00     0.161 HD
ENDBRANCH   9  10
ENDBRANCH   6   9
BRANCH   8  15
HETATM   15  C8  UNL     1      17.797  11.270  57.635  1.00  0.00     0.196 C 
BRANCH  15  16
HETATM   16  O3  UNL     1      17.044  12.358  57.203  1.00  0.00    -0.398 OA
ATOM     17  H3  UNL     1      17.298  13.160  57.644  1.00  0.00     0.209 HD
ENDBRANCH  15  16
ENDBRANCH   8  15
TORSDOF 4
ENDMDL
MODEL 4
REMARK VINA RESULT: -5.428376725      1.299      1.600
REMARK  4 active torsions:
REMARK  status: ('A' for Active; 'I' for Inactive)
REMARK    1  A    between atoms: C4_6  and  C5_7 
REMARK    2  A    between atoms: C5_7  and  N1_8 
REMARK    3  A    between atoms: C7_14  and  C8_15 
REMARK    4  A    between atoms: C8_15  and  O3_16 
ROOT
HETATM    1  C1  UNL     1      19.551   8.825  57.881  1.00  0.00     0.013 C 
HETATM    2  C2  UNL     1      20.166   9.800  56.867  1.00  0.00     0.024 C 
HETATM    3  C3  UNL     1      19.082  10.443  56.106  1.00  0.00     0.118 C 
HETATM    4  S1  UNL     1      18.503  11.962  56.879  1.00  0.00     0.046 S 
HETATM    5  O1  UNL     1      17.717  11.503  58.294  1.00  0.00    -0.255 OA
HETATM    6  C4  UNL     1      20.054  12.726  57.372  1.00  0.00     0.232 C 
HETATM    7  O2  UNL     1      20.689  11.798  58.145  1.00  0.00    -0.364 OA
HETATM    8  C7  UNL     1      21.158  10.679  57.531  1.00  0.00     0.151 C 
ENDROOT
BRANCH   6   9
HETATM    9  C5  UNL     1      19.836  14.041  58.055  1.00  0.00     0.167 C 
BRANCH   9  10
HETATM   10  N1  UNL     1      20.915  14.912  57.733  1.00  0.00    -0.364 N 
HETATM   11  C6  UNL     1      21.327  15.916  58.368  1.00  0.00     0.197 C 
HETATM   12  N2  UNL     1      22.422  16.655  57.875  1.00  0.00    -0.067 NA
HETATM   13  N3  UNL     1      20.695  16.304  59.573  1.00  0.00    -0.067 NA
ATOM     14  H1  UNL     1      21.419  14.694  56.874  1.00  0.00     0.161 HD
ENDBRANCH   9  10
ENDBRANCH   6   9
BRANCH   8  15
HETATM   15  C8  UNL     1      22.336  10.931  56.595  1.00  0.00     0.196 C 
BRANCH  15  16
HETATM   16  O3  UNL     1      23.069   9.770  56.362  1.00  0.00    -0.398 OA
ATOM     17  H3  UNL     1      22.906   9.110  57.025  1.00  0.00     0.209 HD
ENDBRANCH  15  16
ENDBRANCH   8  15
TORSDOF 4
ENDMDL
MODEL 5
REMARK VINA RESULT: -4.573273147      2.051      2.494
REMARK  4 active torsions:
REMARK  status: ('A' for Active; 'I' for Inactive)
REMARK    1  A    between atoms: C4_6  and  C5_7 
REMARK    2  A    between atoms: C5_7  and  N1_8 
REMARK    3  A    between atoms: C7_14  and  C8_15 
REMARK    4  A    between atoms: C8_15  and  O3_16 
ROOT
HETATM    1  C1  UNL     1      18.113   9.629  59.261  1.00  0.00     0.013 C 
HETATM    2  C2  UNL     1      18.413   9.884  57.777  1.00  0.00     0.024 C 
HETATM    3  C3  UNL     1      17.493  10.918  57.275  1.00  0.00     0.118 C 
HETATM    4  S1  UNL     1      18.156  12.582  57.464  1.00  0.00     0.046 S 
HETATM    5  O1  UNL     1      18.174  12.897  59.117  1.00  0.00    -0.255 OA
HETATM    6  C4  UNL     1      19.865  12.345  56.962  1.00  0.00     0.232 C 
HETATM    7  O2  UNL     1      20.348  11.352  57.763  1.00  0.00    -0.364 OA
HETATM    8  C7  UNL     1      19.865  10.095  57.571  1.00  0.00     0.151 C 
ENDROOT
BRANCH   6   9
HETATM    9  C5  UNL     1      20.649  13.620  57.032  1.00  0.00     0.167 C 
BRANCH   9  10
HETATM   10  N1  UNL     1      21.919  13.414  56.423  1.00  0.00    -0.364 N 
HETATM   11  C6  UNL     1      23.033  13.228  56.977  1.00  0.00     0.197 C 
HETATM   12  N2  UNL     1      24.185  13.042  56.186  1.00  0.00    -0.067 NA
HETATM   13  N3  UNL     1      23.129  13.204  58.389  1.00  0.00    -0.067 NA
ATOM     14  H1  UNL     1      21.927  13.417  55.403  1.00  0.00     0.161 HD
ENDBRANCH   9  10
ENDBRANCH   6   9
BRANCH   8  15
HETATM   15  C8  UNL     1      20.303   9.456  56.256  1.00  0.00     0.196 C 
BRANCH  15  16
HETATM   16  O3  UNL     1      19.589   8.292  55.984  1.00  0.00    -0.398 OA
ATOM     17  H3  UNL     1      19.669   7.657  56.686  1.00  0.00     0.209 HD
ENDBRANCH  15  16
ENDBRANCH   8  15
TORSDOF 4
ENDMDL
