MODEL 1
REMARK VINA RESULT: -9.350000953      0.000      0.000
REMARK  12 active torsions:
REMARK  status: ('A' for Active; 'I' for Inactive)
REMARK    1  A    between atoms: C2_2  and  N1_4 
REMARK    2  A    between atoms: N1_4  and  C3_6 
REMARK    3  A    between atoms: C5_8  and  O1_9 
REMARK    4  A    between atoms: O1_9  and  C6_10 
REMARK    5  A    between atoms: C6_10  and  C7_11 
REMARK    6  A    between atoms: C12_16  and  C13_17 
REMARK    7  A    between atoms: C13_17  and  C16_20 
REMARK    8  A    between atoms: C16_20  and  O2_21 
REMARK    9  A    between atoms: C17_23  and  O3_24 
REMARK   10  A    between atoms: C18_26  and  O4_27 
REMARK   11  A    between atoms: O4_27  and  C19_28 
REMARK   12  A    between atoms: C24_33  and  O5_34 
ROOT
HETATM    1  C3  UNL     1      18.400  16.563  32.223  1.00  0.00     0.095 C 
HETATM    2  C4  UNL     1      18.060  15.899  33.506  1.00  0.00     0.060 C 
HETATM    3  C5  UNL     1      16.553  15.726  33.534  1.00  0.00     0.155 C 
HETATM    4  C17 UNL     1      15.965  17.108  33.690  1.00  0.00     0.176 C 
HETATM    5  C18 UNL     1      16.199  17.834  32.383  1.00  0.00     0.163 C 
HETATM    6  C26 UNL     1      17.643  17.821  31.951  1.00  0.00     0.002 C 
HETATM    7  C27 UNL     1      17.659  18.028  30.444  1.00  0.00     0.020 C 
HETATM    8  C28 UNL     1      18.385  18.977  32.596  1.00  0.00     0.020 C 
ENDROOT
BRANCH   3   9
HETATM    9  O1  UNL     1      16.102  14.794  34.406  1.00  0.00    -0.379 OA
BRANCH   9  10
HETATM   10  C6  UNL     1      17.096  13.956  34.928  1.00  0.00     0.207 C 
BRANCH  10  11
HETATM   11  C7  UNL     1      16.555  12.757  35.548  1.00  0.00    -0.027 A 
HETATM   12  C8  UNL     1      15.329  12.936  36.208  1.00  0.00     0.010 A 
HETATM   13  C9  UNL     1      14.692  11.894  36.841  1.00  0.00     0.001 A 
HETATM   14  C10 UNL     1      15.267  10.642  36.828  1.00  0.00     0.001 A 
HETATM   15  C11 UNL     1      16.478  10.469  36.174  1.00  0.00     0.008 A 
HETATM   16  C12 UNL     1      17.147  11.494  35.529  1.00  0.00    -0.040 A 
BRANCH  16  17
HETATM   17  C13 UNL     1      18.411  11.305  34.818  1.00  0.00     0.001 C 
HETATM   18  C14 UNL     1      19.185  12.587  34.559  1.00  0.00     0.022 C 
HETATM   19  C15 UNL     1      18.307  10.436  33.598  1.00  0.00     0.022 C 
BRANCH  17  20
HETATM   20  C16 UNL     1      19.367  10.541  35.761  1.00  0.00     0.177 C 
BRANCH  20  21
HETATM   21  O2  UNL     1      20.664  10.509  35.260  1.00  0.00    -0.400 OA
ATOM     22  H2  UNL     1      21.261  10.077  35.861  1.00  0.00     0.209 HD
ENDBRANCH  20  21
ENDBRANCH  17  20
ENDBRANCH  16  17
ENDBRANCH  10  11
ENDBRANCH   9  10
ENDBRANCH   3   9
BRANCH   4  23
HETATM   23  O3  UNL     1      14.604  16.923  33.905  1.00  0.00    -0.390 OA
ATOM     24  H3  UNL     1      14.268  16.508  33.119  1.00  0.00     0.210 HD
ENDBRANCH   4  23
BRANCH   1  25
HETATM   25  N1  UNL     1      18.370  15.633  31.117  1.00  0.00    -0.379 N 
ATOM     26  H1  UNL     1      19.116  15.708  30.426  1.00  0.00     0.160 HD
BRANCH  25  27
HETATM   27  C2  UNL     1      17.396  14.629  30.912  1.00  0.00     0.069 C 
HETATM   28  C1  UNL     1      17.516  13.257  31.469  1.00  0.00     0.081 C 
HETATM   29  S1  UNL     1      16.049  14.940  30.053  1.00  0.00    -0.066 SA
ENDBRANCH  25  27
ENDBRANCH   1  25
BRANCH   5  30
HETATM   30  O4  UNL     1      15.862  19.160  32.532  1.00  0.00    -0.377 OA
BRANCH  30  31
HETATM   31  C19 UNL     1      14.834  19.673  31.833  1.00  0.00     0.124 C 
HETATM   32  C20 UNL     1      14.015  18.716  31.006  1.00  0.00     0.032 C 
HETATM   33  C21 UNL     1      12.838  19.530  30.460  1.00  0.00     0.009 C 
HETATM   34  C22 UNL     1      13.253  20.694  29.633  1.00  0.00     0.010 C 
HETATM   35  C23 UNL     1      12.022  21.579  29.454  1.00  0.00     0.012 C 
HETATM   36  C24 UNL     1      14.329  21.544  30.240  1.00  0.00     0.124 C 
HETATM   37  C25 UNL     1      15.401  20.678  30.852  1.00  0.00     0.064 C 
BRANCH  36  38
HETATM   38  O5  UNL     1      13.845  22.491  31.135  1.00  0.00    -0.395 OA
ATOM     39  H5  UNL     1      13.365  23.196  30.716  1.00  0.00     0.210 HD
ENDBRANCH  36  38
ENDBRANCH  30  31
ENDBRANCH   5  30
TORSDOF 12
ENDMDL
MODEL 2
REMARK VINA RESULT: -9.235643879      2.025      3.372
REMARK  12 active torsions:
REMARK  status: ('A' for Active; 'I' for Inactive)
REMARK    1  A    between atoms: C2_2  and  N1_4 
REMARK    2  A    between atoms: N1_4  and  C3_6 
REMARK    3  A    between atoms: C5_8  and  O1_9 
REMARK    4  A    between atoms: O1_9  and  C6_10 
REMARK    5  A    between atoms: C6_10  and  C7_11 
REMARK    6  A    between atoms: C12_16  and  C13_17 
REMARK    7  A    between atoms: C13_17  and  C16_20 
REMARK    8  A    between atoms: C16_20  and  O2_21 
REMARK    9  A    between atoms: C17_23  and  O3_24 
REMARK   10  A    between atoms: C18_26  and  O4_27 
REMARK   11  A    between atoms: O4_27  and  C19_28 
REMARK   12  A    between atoms: C24_33  and  O5_34 
ROOT
HETATM    1  C3  UNL     1      17.375  17.211  32.495  1.00  0.00     0.095 C 
HETATM    2  C4  UNL     1      16.808  16.553  33.698  1.00  0.00     0.060 C 
HETATM    3  C5  UNL     1      15.308  16.466  33.494  1.00  0.00     0.155 C 
HETATM    4  C17 UNL     1      14.779  17.877  33.587  1.00  0.00     0.176 C 
HETATM    5  C18 UNL     1      15.248  18.604  32.346  1.00  0.00     0.163 C 
HETATM    6  C26 UNL     1      16.739  18.514  32.138  1.00  0.00     0.002 C 
HETATM    7  C27 UNL     1      16.996  18.737  30.655  1.00  0.00     0.020 C 
HETATM    8  C28 UNL     1      17.436  19.618  32.912  1.00  0.00     0.020 C 
ENDROOT
BRANCH   3   9
HETATM    9  O1  UNL     1      14.678  15.550  34.268  1.00  0.00    -0.379 OA
BRANCH   9  10
HETATM   10  C6  UNL     1      15.304  15.296  35.495  1.00  0.00     0.207 C 
BRANCH  10  11
HETATM   11  C7  UNL     1      15.630  13.892  35.683  1.00  0.00    -0.027 A 
HETATM   12  C8  UNL     1      16.790  13.462  35.019  1.00  0.00     0.010 A 
HETATM   13  C9  UNL     1      17.228  12.161  35.104  1.00  0.00     0.001 A 
HETATM   14  C10 UNL     1      16.515  11.255  35.857  1.00  0.00     0.001 A 
HETATM   15  C11 UNL     1      15.370  11.683  36.511  1.00  0.00     0.008 A 
HETATM   16  C12 UNL     1      14.900  12.983  36.447  1.00  0.00    -0.040 A 
BRANCH  16  17
HETATM   17  C13 UNL     1      13.706  13.440  37.159  1.00  0.00     0.001 C 
HETATM   18  C14 UNL     1      12.584  13.927  36.257  1.00  0.00     0.022 C 
HETATM   19  C15 UNL     1      13.988  14.384  38.292  1.00  0.00     0.022 C 
BRANCH  17  20
HETATM   20  C16 UNL     1      13.062  12.207  37.830  1.00  0.00     0.177 C 
BRANCH  20  21
HETATM   21  O2  UNL     1      13.142  12.276  39.216  1.00  0.00    -0.400 OA
ATOM     22  H2  UNL     1      12.805  11.488  39.627  1.00  0.00     0.209 HD
ENDBRANCH  20  21
ENDBRANCH  17  20
ENDBRANCH  16  17
ENDBRANCH  10  11
ENDBRANCH   9  10
ENDBRANCH   3   9
BRANCH   4  23
HETATM   23  O3  UNL     1      13.392  17.768  33.589  1.00  0.00    -0.390 OA
ATOM     24  H3  UNL     1      13.070  18.526  33.117  1.00  0.00     0.210 HD
ENDBRANCH   4  23
BRANCH   1  25
HETATM   25  N1  UNL     1      17.464  16.298  31.379  1.00  0.00    -0.379 N 
ATOM     26  H1  UNL     1      16.949  16.545  30.533  1.00  0.00     0.160 HD
BRANCH  25  27
HETATM   27  C2  UNL     1      18.203  15.092  31.358  1.00  0.00     0.069 C 
HETATM   28  C1  UNL     1      17.568  13.751  31.415  1.00  0.00     0.081 C 
HETATM   29  S1  UNL     1      19.826  15.114  31.245  1.00  0.00    -0.066 SA
ENDBRANCH  25  27
ENDBRANCH   1  25
BRANCH   5  30
HETATM   30  O4  UNL     1      14.966  19.945  32.469  1.00  0.00    -0.377 OA
BRANCH  30  31
HETATM   31  C19 UNL     1      15.041  20.748  31.393  1.00  0.00     0.124 C 
HETATM   32  C20 UNL     1      15.110  22.233  31.641  1.00  0.00     0.032 C 
HETATM   33  C21 UNL     1      15.349  22.879  30.273  1.00  0.00     0.009 C 
HETATM   34  C22 UNL     1      14.285  22.576  29.279  1.00  0.00     0.010 C 
HETATM   35  C23 UNL     1      14.820  22.989  27.910  1.00  0.00     0.012 C 
HETATM   36  C24 UNL     1      13.902  21.130  29.190  1.00  0.00     0.124 C 
HETATM   37  C25 UNL     1      13.788  20.530  30.569  1.00  0.00     0.064 C 
BRANCH  36  38
HETATM   38  O5  UNL     1      14.735  20.387  28.362  1.00  0.00    -0.395 OA
ATOM     39  H5  UNL     1      14.366  20.226  27.502  1.00  0.00     0.210 HD
ENDBRANCH  36  38
ENDBRANCH  30  31
ENDBRANCH   5  30
TORSDOF 12
ENDMDL
MODEL 3
REMARK VINA RESULT: -9.024353658      2.311      8.322
REMARK  12 active torsions:
REMARK  status: ('A' for Active; 'I' for Inactive)
REMARK    1  A    between atoms: C2_2  and  N1_4 
REMARK    2  A    between atoms: N1_4  and  C3_6 
REMARK    3  A    between atoms: C5_8  and  O1_9 
REMARK    4  A    between atoms: O1_9  and  C6_10 
REMARK    5  A    between atoms: C6_10  and  C7_11 
REMARK    6  A    between atoms: C12_16  and  C13_17 
REMARK    7  A    between atoms: C13_17  and  C16_20 
REMARK    8  A    between atoms: C16_20  and  O2_21 
REMARK    9  A    between atoms: C17_23  and  O3_24 
REMARK   10  A    between atoms: C18_26  and  O4_27 
REMARK   11  A    between atoms: O4_27  and  C19_28 
REMARK   12  A    between atoms: C24_33  and  O5_34 
ROOT
HETATM    1  C3  UNL     1      17.876  17.998  31.127  1.00  0.00     0.095 C 
HETATM    2  C4  UNL     1      17.360  17.710  29.766  1.00  0.00     0.060 C 
HETATM    3  C5  UNL     1      16.258  16.678  29.915  1.00  0.00     0.155 C 
HETATM    4  C17 UNL     1      16.929  15.387  30.314  1.00  0.00     0.176 C 
HETATM    5  C18 UNL     1      17.420  15.567  31.734  1.00  0.00     0.163 C 
HETATM    6  C26 UNL     1      18.280  16.792  31.910  1.00  0.00     0.002 C 
HETATM    7  C27 UNL     1      18.211  17.178  33.380  1.00  0.00     0.020 C 
HETATM    8  C28 UNL     1      19.723  16.462  31.573  1.00  0.00     0.020 C 
ENDROOT
BRANCH   3   9
HETATM    9  O1  UNL     1      15.405  16.598  28.866  1.00  0.00    -0.379 OA
BRANCH   9  10
HETATM   10  C6  UNL     1      14.053  16.734  29.203  1.00  0.00     0.207 C 
BRANCH  10  11
HETATM   11  C7  UNL     1      13.849  17.486  30.431  1.00  0.00    -0.027 A 
HETATM   12  C8  UNL     1      13.849  16.712  31.603  1.00  0.00     0.010 A 
HETATM   13  C9  UNL     1      13.670  17.280  32.842  1.00  0.00     0.001 A 
HETATM   14  C10 UNL     1      13.487  18.641  32.941  1.00  0.00     0.001 A 
HETATM   15  C11 UNL     1      13.489  19.403  31.782  1.00  0.00     0.008 A 
HETATM   16  C12 UNL     1      13.664  18.865  30.520  1.00  0.00    -0.040 A 
BRANCH  16  17
HETATM   17  C13 UNL     1      13.691  19.672  29.300  1.00  0.00     0.001 C 
HETATM   18  C14 UNL     1      12.880  19.101  28.149  1.00  0.00     0.022 C 
HETATM   19  C15 UNL     1      15.065  20.105  28.879  1.00  0.00     0.022 C 
BRANCH  17  20
HETATM   20  C16 UNL     1      12.940  20.989  29.596  1.00  0.00     0.177 C 
BRANCH  20  21
HETATM   21  O2  UNL     1      11.656  20.979  29.061  1.00  0.00    -0.400 OA
ATOM     22  H2  UNL     1      11.020  21.334  29.671  1.00  0.00     0.209 HD
ENDBRANCH  20  21
ENDBRANCH  17  20
ENDBRANCH  16  17
ENDBRANCH  10  11
ENDBRANCH   9  10
ENDBRANCH   3   9
BRANCH   4  23
HETATM   23  O3  UNL     1      15.942  14.409  30.263  1.00  0.00    -0.390 OA
ATOM     24  H3  UNL     1      15.642  14.292  31.157  1.00  0.00     0.210 HD
ENDBRANCH   4  23
BRANCH   1  25
HETATM   25  N1  UNL     1      16.993  18.878  31.857  1.00  0.00    -0.379 N 
ATOM     26  H1  UNL     1      16.091  18.500  32.144  1.00  0.00     0.160 HD
BRANCH  25  27
HETATM   27  C2  UNL     1      17.274  20.219  32.208  1.00  0.00     0.069 C 
HETATM   28  C1  UNL     1      16.563  21.379  31.612  1.00  0.00     0.081 C 
HETATM   29  S1  UNL     1      18.403  20.567  33.328  1.00  0.00    -0.066 SA
ENDBRANCH  25  27
ENDBRANCH   1  25
BRANCH   5  30
HETATM   30  O4  UNL     1      18.212  14.497  32.083  1.00  0.00    -0.377 OA
BRANCH  30  31
HETATM   31  C19 UNL     1      17.782  13.616  33.002  1.00  0.00     0.124 C 
HETATM   32  C20 UNL     1      16.746  14.095  33.987  1.00  0.00     0.032 C 
HETATM   33  C21 UNL     1      16.329  12.861  34.794  1.00  0.00     0.009 C 
HETATM   34  C22 UNL     1      17.458  12.213  35.514  1.00  0.00     0.010 C 
HETATM   35  C23 UNL     1      16.966  10.843  35.977  1.00  0.00     0.012 C 
HETATM   36  C24 UNL     1      18.686  11.988  34.684  1.00  0.00     0.124 C 
HETATM   37  C25 UNL     1      18.977  13.201  33.836  1.00  0.00     0.064 C 
BRANCH  36  38
HETATM   38  O5  UNL     1      18.638  10.821  33.932  1.00  0.00    -0.395 OA
ATOM     39  H5  UNL     1      19.493  10.438  33.774  1.00  0.00     0.210 HD
ENDBRANCH  36  38
ENDBRANCH  30  31
ENDBRANCH   5  30
TORSDOF 12
ENDMDL
MODEL 4
REMARK VINA RESULT: -8.995679371      1.481      2.821
REMARK  12 active torsions:
REMARK  status: ('A' for Active; 'I' for Inactive)
REMARK    1  A    between atoms: C2_2  and  N1_4 
REMARK    2  A    between atoms: N1_4  and  C3_6 
REMARK    3  A    between atoms: C5_8  and  O1_9 
REMARK    4  A    between atoms: O1_9  and  C6_10 
REMARK    5  A    between atoms: C6_10  and  C7_11 
REMARK    6  A    between atoms: C12_16  and  C13_17 
REMARK    7  A    between atoms: C13_17  and  C16_20 
REMARK    8  A    between atoms: C16_20  and  O2_21 
REMARK    9  A    between atoms: C17_23  and  O3_24 
REMARK   10  A    between atoms: C18_26  and  O4_27 
REMARK   11  A    between atoms: O4_27  and  C19_28 
REMARK   12  A    between atoms: C24_33  and  O5_34 
ROOT
HETATM    1  C3  UNL     1      18.292  16.581  32.597  1.00  0.00     0.095 C 
HETATM    2  C4  UNL     1      17.663  15.900  33.755  1.00  0.00     0.060 C 
HETATM    3  C5  UNL     1      16.166  15.895  33.511  1.00  0.00     0.155 C 
HETATM    4  C17 UNL     1      15.703  17.324  33.655  1.00  0.00     0.176 C 
HETATM    5  C18 UNL     1      16.239  18.081  32.459  1.00  0.00     0.163 C 
HETATM    6  C26 UNL     1      17.728  17.927  32.283  1.00  0.00     0.002 C 
HETATM    7  C27 UNL     1      18.034  18.203  30.818  1.00  0.00     0.020 C 
HETATM    8  C28 UNL     1      18.456  18.962  33.122  1.00  0.00     0.020 C 
ENDROOT
BRANCH   3   9
HETATM    9  O1  UNL     1      15.474  14.978  34.228  1.00  0.00    -0.379 OA
BRANCH   9  10
HETATM   10  C6  UNL     1      16.028  14.678  35.478  1.00  0.00     0.207 C 
BRANCH  10  11
HETATM   11  C7  UNL     1      16.148  13.248  35.715  1.00  0.00    -0.027 A 
HETATM   12  C8  UNL     1      17.290  12.652  35.157  1.00  0.00     0.010 A 
HETATM   13  C9  UNL     1      17.543  11.308  35.298  1.00  0.00     0.001 A 
HETATM   14  C10 UNL     1      16.657  10.523  36.003  1.00  0.00     0.001 A 
HETATM   15  C11 UNL     1      15.531  11.116  36.553  1.00  0.00     0.008 A 
HETATM   16  C12 UNL     1      15.244  12.464  36.430  1.00  0.00    -0.040 A 
BRANCH  16  17
HETATM   17  C13 UNL     1      14.068  13.092  37.032  1.00  0.00     0.001 C 
HETATM   18  C14 UNL     1      12.849  13.145  36.126  1.00  0.00     0.022 C 
HETATM   19  C15 UNL     1      14.348  14.406  37.702  1.00  0.00     0.022 C 
BRANCH  17  20
HETATM   20  C16 UNL     1      13.578  12.170  38.171  1.00  0.00     0.177 C 
BRANCH  20  21
HETATM   21  O2  UNL     1      13.280  12.891  39.322  1.00  0.00    -0.400 OA
ATOM     22  H2  UNL     1      13.353  12.352  40.102  1.00  0.00     0.209 HD
ENDBRANCH  20  21
ENDBRANCH  17  20
ENDBRANCH  16  17
ENDBRANCH  10  11
ENDBRANCH   9  10
ENDBRANCH   3   9
BRANCH   4  23
HETATM   23  O3  UNL     1      14.313  17.283  33.618  1.00  0.00    -0.390 OA
ATOM     24  H3  UNL     1      14.062  17.642  32.775  1.00  0.00     0.210 HD
ENDBRANCH   4  23
BRANCH   1  25
HETATM   25  N1  UNL     1      18.367  15.715  31.443  1.00  0.00    -0.379 N 
ATOM     26  H1  UNL     1      19.146  15.859  30.802  1.00  0.00     0.160 HD
BRANCH  25  27
HETATM   27  C2  UNL     1      17.451  14.683  31.128  1.00  0.00     0.069 C 
HETATM   28  C1  UNL     1      17.598  13.291  31.623  1.00  0.00     0.081 C 
HETATM   29  S1  UNL     1      16.147  14.983  30.202  1.00  0.00    -0.066 SA
ENDBRANCH  25  27
ENDBRANCH   1  25
BRANCH   5  30
HETATM   30  O4  UNL     1      16.017  19.428  32.635  1.00  0.00    -0.377 OA
BRANCH  30  31
HETATM   31  C19 UNL     1      15.253  20.102  31.757  1.00  0.00     0.124 C 
HETATM   32  C20 UNL     1      14.755  19.347  30.552  1.00  0.00     0.032 C 
HETATM   33  C21 UNL     1      13.795  20.295  29.827  1.00  0.00     0.009 C 
HETATM   34  C22 UNL     1      14.429  21.573  29.403  1.00  0.00     0.010 C 
HETATM   35  C23 UNL     1      13.301  22.526  29.016  1.00  0.00     0.012 C 
HETATM   36  C24 UNL     1      15.242  22.252  30.464  1.00  0.00     0.124 C 
HETATM   37  C25 UNL     1      16.082  21.245  31.209  1.00  0.00     0.064 C 
BRANCH  36  38
HETATM   38  O5  UNL     1      14.483  23.039  31.322  1.00  0.00    -0.395 OA
ATOM     39  H5  UNL     1      14.467  22.717  32.215  1.00  0.00     0.210 HD
ENDBRANCH  36  38
ENDBRANCH  30  31
ENDBRANCH   5  30
TORSDOF 12
ENDMDL
MODEL 5
REMARK VINA RESULT: -8.919989727      3.432      5.267
REMARK  12 active torsions:
REMARK  status: ('A' for Active; 'I' for Inactive)
REMARK    1  A    between atoms: C2_2  and  N1_4 
REMARK    2  A    between atoms: N1_4  and  C3_6 
REMARK    3  A    between atoms: C5_8  and  O1_9 
REMARK    4  A    between atoms: O1_9  and  C6_10 
REMARK    5  A    between atoms: C6_10  and  C7_11 
REMARK    6  A    between atoms: C12_16  and  C13_17 
REMARK    7  A    between atoms: C13_17  and  C16_20 
REMARK    8  A    between atoms: C16_20  and  O2_21 
REMARK    9  A    between atoms: C17_23  and  O3_24 
REMARK   10  A    between atoms: C18_26  and  O4_27 
REMARK   11  A    between atoms: O4_27  and  C19_28 
REMARK   12  A    between atoms: C24_33  and  O5_34 
ROOT
HETATM    1  C3  UNL     1      17.033  13.821  35.108  1.00  0.00     0.095 C 
HETATM    2  C4  UNL     1      16.253  14.357  36.251  1.00  0.00     0.060 C 
HETATM    3  C5  UNL     1      14.888  14.746  35.717  1.00  0.00     0.155 C 
HETATM    4  C17 UNL     1      15.099  15.957  34.841  1.00  0.00     0.176 C 
HETATM    5  C18 UNL     1      15.825  15.481  33.601  1.00  0.00     0.163 C 
HETATM    6  C26 UNL     1      17.085  14.715  33.914  1.00  0.00     0.002 C 
HETATM    7  C27 UNL     1      17.377  13.828  32.712  1.00  0.00     0.020 C 
HETATM    8  C28 UNL     1      18.245  15.679  34.085  1.00  0.00     0.020 C 
ENDROOT
BRANCH   3   9
HETATM    9  O1  UNL     1      13.919  14.862  36.656  1.00  0.00    -0.379 OA
BRANCH   9  10
HETATM   10  C6  UNL     1      13.750  13.729  37.461  1.00  0.00     0.207 C 
BRANCH  10  11
HETATM   11  C7  UNL     1      12.381  13.562  37.921  1.00  0.00    -0.027 A 
HETATM   12  C8  UNL     1      11.420  13.485  36.900  1.00  0.00     0.010 A 
HETATM   13  C9  UNL     1      10.083  13.326  37.179  1.00  0.00     0.001 A 
HETATM   14  C10 UNL     1       9.672  13.239  38.490  1.00  0.00     0.001 A 
HETATM   15  C11 UNL     1      10.623  13.316  39.496  1.00  0.00     0.008 A 
HETATM   16  C12 UNL     1      11.975  13.477  39.253  1.00  0.00    -0.040 A 
BRANCH  16  17
HETATM   17  C13 UNL     1      12.981  13.532  40.314  1.00  0.00     0.001 C 
HETATM   18  C14 UNL     1      13.988  14.661  40.169  1.00  0.00     0.022 C 
HETATM   19  C15 UNL     1      13.631  12.213  40.614  1.00  0.00     0.022 C 
BRANCH  17  20
HETATM   20  C16 UNL     1      12.257  13.917  41.623  1.00  0.00     0.177 C 
BRANCH  20  21
HETATM   21  O2  UNL     1      12.816  15.051  42.204  1.00  0.00    -0.400 OA
ATOM     22  H2  UNL     1      12.153  15.692  42.429  1.00  0.00     0.209 HD
ENDBRANCH  20  21
ENDBRANCH  17  20
ENDBRANCH  16  17
ENDBRANCH  10  11
ENDBRANCH   9  10
ENDBRANCH   3   9
BRANCH   4  23
HETATM   23  O3  UNL     1      13.829  16.418  34.511  1.00  0.00    -0.390 OA
ATOM     24  H3  UNL     1      13.879  17.366  34.539  1.00  0.00     0.210 HD
ENDBRANCH   4  23
BRANCH   1  25
HETATM   25  N1  UNL     1      16.645  12.467  34.786  1.00  0.00    -0.379 N 
ATOM     26  H1  UNL     1      15.954  12.343  34.047  1.00  0.00     0.160 HD
BRANCH  25  27
HETATM   27  C2  UNL     1      17.142  11.298  35.408  1.00  0.00     0.069 C 
HETATM   28  C1  UNL     1      16.325  10.453  36.317  1.00  0.00     0.081 C 
HETATM   29  S1  UNL     1      18.666  10.795  35.136  1.00  0.00    -0.066 SA
ENDBRANCH  25  27
ENDBRANCH   1  25
BRANCH   5  30
HETATM   30  O4  UNL     1      16.220  16.569  32.857  1.00  0.00    -0.377 OA
BRANCH  30  31
HETATM   31  C19 UNL     1      15.397  17.076  31.922  1.00  0.00     0.124 C 
HETATM   32  C20 UNL     1      14.672  16.096  31.035  1.00  0.00     0.032 C 
HETATM   33  C21 UNL     1      13.701  16.929  30.192  1.00  0.00     0.009 C 
HETATM   34  C22 UNL     1      14.371  17.968  29.366  1.00  0.00     0.010 C 
HETATM   35  C23 UNL     1      13.282  18.913  28.864  1.00  0.00     0.012 C 
HETATM   36  C24 UNL     1      15.379  18.800  30.100  1.00  0.00     0.124 C 
HETATM   37  C25 UNL     1      16.231  17.931  30.990  1.00  0.00     0.064 C 
BRANCH  36  38
HETATM   38  O5  UNL     1      14.818  19.868  30.790  1.00  0.00    -0.395 OA
ATOM     39  H5  UNL     1      14.446  20.531  30.222  1.00  0.00     0.210 HD
ENDBRANCH  36  38
ENDBRANCH  30  31
ENDBRANCH   5  30
TORSDOF 12
ENDMDL
