MODEL 1
REMARK VINA RESULT: -4.524203511      0.000      0.000
REMARK  3 active torsions:
REMARK  status: ('A' for Active; 'I' for Inactive)
REMARK    1  A    between atoms: C2_2  and  N1_3 
REMARK    2  A    between atoms: C5_7  and  N2_8 
REMARK    3  A    between atoms: N2_8  and  N3_10 
ROOT
HETATM    1  N1  UNL     1      28.233  18.680   6.899  1.00  0.00    -0.336 N 
HETATM    2  C3  UNL     1      28.300  19.275   8.066  1.00  0.00     0.100 A 
HETATM    3  C4  UNL     1      28.322  18.483   9.182  1.00  0.00     0.070 A 
HETATM    4  S1  UNL     1      28.249  16.914   8.515  1.00  0.00    -0.063 SA
HETATM    5  C5  UNL     1      28.194  17.349   6.869  1.00  0.00     0.164 A 
ENDROOT
BRANCH   5   6
HETATM    6  N2  UNL     1      28.127  16.581   5.796  1.00  0.00    -0.286 N 
ATOM      7  H2  UNL     1      28.621  16.806   4.932  1.00  0.00     0.188 HD
BRANCH   6   8
HETATM    8  N3  UNL     1      27.333  15.438   5.926  1.00  0.00    -0.343 N 
ATOM      9  H32 UNL     1      26.322  15.503   6.042  1.00  0.00     0.176 HD
ATOM     10  H31 UNL     1      27.836  14.551   5.897  1.00  0.00     0.176 HD
ENDBRANCH   6   8
ENDBRANCH   5   6
BRANCH   1  11
HETATM   11  C2  UNL     1      28.202  19.457   5.630  1.00  0.00     0.126 C 
HETATM   12  C1  UNL     1      27.865  20.903   5.907  1.00  0.00     0.027 C 
ENDBRANCH   1  11
TORSDOF 3
ENDMDL
MODEL 2
REMARK VINA RESULT: -4.419457110      2.841      3.418
REMARK  3 active torsions:
REMARK  status: ('A' for Active; 'I' for Inactive)
REMARK    1  A    between atoms: C2_2  and  N1_3 
REMARK    2  A    between atoms: C5_7  and  N2_8 
REMARK    3  A    between atoms: N2_8  and  N3_10 
ROOT
HETATM    1  N1  UNL     1      26.969  20.721   4.916  1.00  0.00    -0.336 N 
HETATM    2  C3  UNL     1      26.430  21.479   5.841  1.00  0.00     0.100 A 
HETATM    3  C4  UNL     1      26.821  21.273   7.136  1.00  0.00     0.070 A 
HETATM    4  S1  UNL     1      27.949  20.003   6.978  1.00  0.00    -0.063 SA
HETATM    5  C5  UNL     1      27.860  19.805   5.288  1.00  0.00     0.164 A 
ENDROOT
BRANCH   5   6
HETATM    6  N2  UNL     1      28.504  18.958   4.503  1.00  0.00    -0.286 N 
ATOM      7  H2  UNL     1      28.119  18.638   3.614  1.00  0.00     0.188 HD
BRANCH   6   8
HETATM    8  N3  UNL     1      29.748  18.532   4.976  1.00  0.00    -0.343 N 
ATOM      9  H32 UNL     1      29.828  17.927   5.793  1.00  0.00     0.176 HD
ATOM     10  H31 UNL     1      30.554  18.868   4.449  1.00  0.00     0.176 HD
ENDBRANCH   6   8
ENDBRANCH   5   6
BRANCH   1  11
HETATM   11  C2  UNL     1      26.605  20.870   3.480  1.00  0.00     0.126 C 
HETATM   12  C1  UNL     1      25.105  20.881   3.316  1.00  0.00     0.027 C 
ENDBRANCH   1  11
TORSDOF 3
ENDMDL
MODEL 3
REMARK VINA RESULT: -4.369805902      1.617      2.652
REMARK  3 active torsions:
REMARK  status: ('A' for Active; 'I' for Inactive)
REMARK    1  A    between atoms: C2_2  and  N1_3 
REMARK    2  A    between atoms: C5_7  and  N2_8 
REMARK    3  A    between atoms: N2_8  and  N3_10 
ROOT
HETATM    1  N1  UNL     1      28.161  18.757   6.743  1.00  0.00    -0.336 N 
HETATM    2  C3  UNL     1      27.582  19.900   6.464  1.00  0.00     0.100 A 
HETATM    3  C4  UNL     1      26.646  19.910   5.466  1.00  0.00     0.070 A 
HETATM    4  S1  UNL     1      26.631  18.278   4.966  1.00  0.00    -0.063 SA
HETATM    5  C5  UNL     1      27.806  17.680   6.045  1.00  0.00     0.164 A 
ENDROOT
BRANCH   5   6
HETATM    6  N2  UNL     1      28.276  16.452   6.184  1.00  0.00    -0.286 N 
ATOM      7  H2  UNL     1      29.196  16.262   6.583  1.00  0.00     0.188 HD
BRANCH   6   8
HETATM    8  N3  UNL     1      27.427  15.433   5.745  1.00  0.00    -0.343 N 
ATOM      9  H32 UNL     1      26.721  15.600   5.028  1.00  0.00     0.176 HD
ATOM     10  H31 UNL     1      27.566  14.526   6.191  1.00  0.00     0.176 HD
ENDBRANCH   6   8
ENDBRANCH   5   6
BRANCH   1  11
HETATM   11  C2  UNL     1      29.192  18.648   7.812  1.00  0.00     0.126 C 
HETATM   12  C1  UNL     1      28.536  18.576   9.170  1.00  0.00     0.027 C 
ENDBRANCH   1  11
TORSDOF 3
ENDMDL
MODEL 4
REMARK VINA RESULT: -4.368479410      1.587      2.733
REMARK  3 active torsions:
REMARK  status: ('A' for Active; 'I' for Inactive)
REMARK    1  A    between atoms: C2_2  and  N1_3 
REMARK    2  A    between atoms: C5_7  and  N2_8 
REMARK    3  A    between atoms: N2_8  and  N3_10 
ROOT
HETATM    1  N1  UNL     1      28.140  18.827   7.461  1.00  0.00    -0.336 N 
HETATM    2  C3  UNL     1      27.827  20.093   7.326  1.00  0.00     0.100 A 
HETATM    3  C4  UNL     1      27.726  20.590   6.055  1.00  0.00     0.070 A 
HETATM    4  S1  UNL     1      28.083  19.221   5.101  1.00  0.00    -0.063 SA
HETATM    5  C5  UNL     1      28.338  18.103   6.361  1.00  0.00     0.164 A 
ENDROOT
BRANCH   5   6
HETATM    6  N2  UNL     1      28.658  16.822   6.299  1.00  0.00    -0.286 N 
ATOM      7  H2  UNL     1      29.584  16.478   6.553  1.00  0.00     0.188 HD
BRANCH   6   8
HETATM    8  N3  UNL     1      27.639  15.972   5.862  1.00  0.00    -0.343 N 
ATOM      9  H32 UNL     1      27.297  16.000   4.902  1.00  0.00     0.176 HD
ATOM     10  H31 UNL     1      27.271  15.332   6.567  1.00  0.00     0.176 HD
ENDBRANCH   6   8
ENDBRANCH   5   6
BRANCH   1  11
HETATM   11  C2  UNL     1      28.273  18.197   8.804  1.00  0.00     0.126 C 
HETATM   12  C1  UNL     1      29.486  18.740   9.520  1.00  0.00     0.027 C 
ENDBRANCH   1  11
TORSDOF 3
ENDMDL
MODEL 5
REMARK VINA RESULT: -4.347657137      1.859      2.073
REMARK  3 active torsions:
REMARK  status: ('A' for Active; 'I' for Inactive)
REMARK    1  A    between atoms: C2_2  and  N1_3 
REMARK    2  A    between atoms: C5_7  and  N2_8 
REMARK    3  A    between atoms: N2_8  and  N3_10 
ROOT
HETATM    1  N1  UNL     1      28.291  19.723   6.519  1.00  0.00    -0.336 N 
HETATM    2  C3  UNL     1      27.880  19.757   7.765  1.00  0.00     0.100 A 
HETATM    3  C4  UNL     1      28.254  18.727   8.584  1.00  0.00     0.070 A 
HETATM    4  S1  UNL     1      29.183  17.750   7.539  1.00  0.00    -0.063 SA
HETATM    5  C5  UNL     1      29.044  18.697   6.129  1.00  0.00     0.164 A 
ENDROOT
BRANCH   5   6
HETATM    6  N2  UNL     1      29.547  18.493   4.924  1.00  0.00    -0.286 N 
ATOM      7  H2  UNL     1      28.990  18.595   4.076  1.00  0.00     0.188 HD
BRANCH   6   8
HETATM    8  N3  UNL     1      30.896  18.130   4.893  1.00  0.00    -0.343 N 
ATOM      9  H32 UNL     1      31.249  17.452   4.217  1.00  0.00     0.176 HD
ATOM     10  H31 UNL     1      31.488  18.588   5.585  1.00  0.00     0.176 HD
ENDBRANCH   6   8
ENDBRANCH   5   6
BRANCH   1  11
HETATM   11  C2  UNL     1      27.934  20.798   5.553  1.00  0.00     0.126 C 
HETATM   12  C1  UNL     1      27.276  21.952   6.270  1.00  0.00     0.027 C 
ENDBRANCH   1  11
TORSDOF 3
ENDMDL
