MODEL 1
REMARK VINA RESULT: -7.122067974      0.000      0.000
REMARK  10 active torsions:
REMARK  status: ('A' for Active; 'I' for Inactive)
REMARK    1  A    between atoms: C18_20  and  O2_21 
REMARK    2  A    between atoms: C30_34  and  O3_35 
REMARK    3  A    between atoms: O3_35  and  C31_36 
REMARK    4  A    between atoms: C31_36  and  C32_38 
REMARK    5  A    between atoms: C32_38  and  C33_39 
REMARK    6  A    between atoms: C33_39  and  C34_40 
REMARK    7  A    between atoms: C34_40  and  C35_41 
REMARK    8  A    between atoms: C35_41  and  C36_42 
REMARK    9  A    between atoms: C36_42  and  N2_43 
REMARK       I    between atoms: N2_43  and  C37_45 
REMARK       I    between atoms: C37_45  and  N3_47 
REMARK   10  A    between atoms: N3_47  and  C38_49 
ROOT
HETATM    1  C1  UNL     1      -3.702  34.732  19.555  1.00  0.00     0.013 C 
HETATM    2  C2  UNL     1      -3.814  35.287  20.978  1.00  0.00     0.017 C 
HETATM    3  C3  UNL     1      -2.588  34.962  21.809  1.00  0.00     0.002 C 
HETATM    4  C4  UNL     1      -2.985  33.929  22.782  1.00  0.00    -0.001 C 
HETATM    5  C5  UNL     1      -3.807  34.552  23.841  1.00  0.00     0.012 C 
HETATM    6  C6  UNL     1      -3.004  35.545  24.702  1.00  0.00     0.006 C 
HETATM    7  C7  UNL     1      -3.964  36.204  25.553  1.00  0.00    -0.007 C 
HETATM    8  C8  UNL     1      -4.825  35.021  26.117  1.00  0.00     0.018 C 
HETATM    9  C9  UNL     1      -5.026  37.091  25.034  1.00  0.00     0.282 C 
HETATM   10  N1  UNL     1      -5.879  37.225  26.232  1.00  0.00     0.089 N 
HETATM   11  C10 UNL     1      -6.859  38.264  26.039  1.00  0.00     0.310 C 
HETATM   12  C11 UNL     1      -4.872  37.624  27.195  1.00  0.00     0.223 C 
HETATM   13  C12 UNL     1      -5.267  37.446  28.623  1.00  0.00     0.043 C 
HETATM   14  C13 UNL     1      -3.589  36.884  26.821  1.00  0.00     0.031 C 
HETATM   15  C14 UNL     1      -2.524  37.908  26.741  1.00  0.00     0.040 C 
HETATM   16  C15 UNL     1      -1.342  37.250  26.082  1.00  0.00     0.129 C 
HETATM   17  O1  UNL     1      -0.224  37.894  26.662  1.00  0.00    -0.385 OA
HETATM   18  C16 UNL     1      -0.178  39.245  26.255  1.00  0.00     0.170 C 
HETATM   19  C17 UNL     1       0.024  39.362  24.757  1.00  0.00     0.058 C 
HETATM   20  C18 UNL     1      -0.023  37.889  24.252  1.00  0.00     0.127 C 
HETATM   21  C19 UNL     1      -1.380  37.424  24.554  1.00  0.00     0.053 C 
HETATM   22  C20 UNL     1      -1.920  36.178  23.900  1.00  0.00    -0.023 C 
HETATM   23  C21 UNL     1      -0.712  35.217  24.139  1.00  0.00     0.012 C 
HETATM   24  C22 UNL     1      -0.637  34.052  23.226  1.00  0.00     0.011 C 
HETATM   25  C23 UNL     1      -1.833  33.142  23.277  1.00  0.00    -0.036 A 
HETATM   26  C24 UNL     1      -1.960  32.100  24.320  1.00  0.00     0.011 A 
HETATM   27  C25 UNL     1      -1.691  31.701  22.917  1.00  0.00     0.011 A 
HETATM   28  C26 UNL     1      -2.066  36.252  22.419  1.00  0.00     0.010 C 
HETATM   29  C27 UNL     1      -2.648  37.234  21.582  1.00  0.00    -0.016 C 
HETATM   30  C28 UNL     1      -2.954  38.626  21.959  1.00  0.00     0.018 C 
HETATM   31  C29 UNL     1      -1.763  37.446  20.306  1.00  0.00     0.018 C 
HETATM   32  C30 UNL     1      -3.949  36.740  20.909  1.00  0.00     0.144 C 
ENDROOT
BRANCH  32  33
HETATM   33  O3  UNL     1      -5.031  37.331  21.523  1.00  0.00    -0.315 OA
BRANCH  33  34
HETATM   34  C31 UNL     1      -6.383  37.008  21.364  1.00  0.00     0.262 C 
HETATM   35  O4  UNL     1      -6.962  37.565  20.426  1.00  0.00    -0.265 OA
BRANCH  34  36
HETATM   36  C32 UNL     1      -7.060  36.074  22.257  1.00  0.00     0.138 C 
BRANCH  36  37
HETATM   37  C33 UNL     1      -7.825  35.002  21.600  1.00  0.00    -0.021 C 
BRANCH  37  38
HETATM   38  C34 UNL     1      -7.246  34.107  20.608  1.00  0.00    -0.029 C 
BRANCH  38  39
HETATM   39  C35 UNL     1      -7.402  34.283  19.159  1.00  0.00     0.046 C 
BRANCH  39  40
HETATM   40  C36 UNL     1      -8.903  34.576  18.835  1.00  0.00     0.128 C 
BRANCH  40  41
HETATM   41  N2  UNL     1      -9.007  35.983  18.501  1.00  0.00    -0.343 N 
HETATM   42  C37 UNL     1     -10.027  36.803  19.050  1.00  0.00     0.316 C 
HETATM   43  O5  UNL     1     -10.844  36.255  19.840  1.00  0.00    -0.247 OA
HETATM   44  N3  UNL     1     -10.191  38.167  18.780  1.00  0.00    -0.335 N 
ATOM     45  H3  UNL     1      -9.537  38.617  18.139  1.00  0.00     0.165 HD
ATOM     46  H2  UNL     1      -8.331  36.393  17.856  1.00  0.00     0.164 HD
BRANCH  44  47
HETATM   47  C38 UNL     1     -11.246  38.971  19.367  1.00  0.00     0.023 C 
HETATM   48  C39 UNL     1     -11.128  39.096  20.850  1.00  0.00     0.037 C 
HETATM   49  C40 UNL     1     -11.135  40.383  18.777  1.00  0.00     0.037 C 
HETATM   50  C41 UNL     1     -12.614  38.454  19.022  1.00  0.00     0.037 C 
ENDBRANCH  44  47
ENDBRANCH  40  41
ENDBRANCH  39  40
ENDBRANCH  38  39
ENDBRANCH  37  38
ENDBRANCH  36  37
ENDBRANCH  34  36
ENDBRANCH  33  34
ENDBRANCH  32  33
BRANCH  20  51
HETATM   51  O2  UNL     1       0.511  37.925  23.036  1.00  0.00    -0.395 OA
ATOM     52  H2  UNL     1       0.367  37.057  22.679  1.00  0.00     0.210 HD
ENDBRANCH  20  51
TORSDOF 10
ENDMDL
MODEL 2
REMARK VINA RESULT: -7.006235739      2.895      5.737
REMARK  10 active torsions:
REMARK  status: ('A' for Active; 'I' for Inactive)
REMARK    1  A    between atoms: C18_20  and  O2_21 
REMARK    2  A    between atoms: C30_34  and  O3_35 
REMARK    3  A    between atoms: O3_35  and  C31_36 
REMARK    4  A    between atoms: C31_36  and  C32_38 
REMARK    5  A    between atoms: C32_38  and  C33_39 
REMARK    6  A    between atoms: C33_39  and  C34_40 
REMARK    7  A    between atoms: C34_40  and  C35_41 
REMARK    8  A    between atoms: C35_41  and  C36_42 
REMARK    9  A    between atoms: C36_42  and  N2_43 
REMARK       I    between atoms: N2_43  and  C37_45 
REMARK       I    between atoms: C37_45  and  N3_47 
REMARK   10  A    between atoms: N3_47  and  C38_49 
ROOT
HETATM    1  C1  UNL     1      -2.758  34.952  19.302  1.00  0.00     0.013 C 
HETATM    2  C2  UNL     1      -3.282  35.181  20.724  1.00  0.00     0.017 C 
HETATM    3  C3  UNL     1      -2.197  34.978  21.764  1.00  0.00     0.002 C 
HETATM    4  C4  UNL     1      -2.496  33.714  22.460  1.00  0.00    -0.001 C 
HETATM    5  C5  UNL     1      -3.639  33.922  23.374  1.00  0.00     0.012 C 
HETATM    6  C6  UNL     1      -3.301  34.881  24.531  1.00  0.00     0.006 C 
HETATM    7  C7  UNL     1      -4.545  35.132  25.217  1.00  0.00    -0.007 C 
HETATM    8  C8  UNL     1      -5.164  33.702  25.389  1.00  0.00     0.018 C 
HETATM    9  C9  UNL     1      -5.679  35.848  24.594  1.00  0.00     0.282 C 
HETATM   10  N1  UNL     1      -6.752  35.554  25.565  1.00  0.00     0.089 N 
HETATM   11  C10 UNL     1      -7.911  36.369  25.296  1.00  0.00     0.310 C 
HETATM   12  C11 UNL     1      -6.088  35.970  26.785  1.00  0.00     0.223 C 
HETATM   13  C12 UNL     1      -6.692  35.434  28.039  1.00  0.00     0.043 C 
HETATM   14  C13 UNL     1      -4.611  35.618  26.621  1.00  0.00     0.031 C 
HETATM   15  C14 UNL     1      -3.851  36.847  26.940  1.00  0.00     0.040 C 
HETATM   16  C15 UNL     1      -2.435  36.607  26.491  1.00  0.00     0.129 C 
HETATM   17  O1  UNL     1      -1.655  37.356  27.403  1.00  0.00    -0.385 OA
HETATM   18  C16 UNL     1      -1.881  38.736  27.213  1.00  0.00     0.170 C 
HETATM   19  C17 UNL     1      -1.429  39.185  25.837  1.00  0.00     0.058 C 
HETATM   20  C18 UNL     1      -0.997  37.865  25.132  1.00  0.00     0.127 C 
HETATM   21  C19 UNL     1      -2.220  37.063  25.037  1.00  0.00     0.053 C 
HETATM   22  C20 UNL     1      -2.283  35.880  24.104  1.00  0.00    -0.023 C 
HETATM   23  C21 UNL     1      -0.938  35.182  24.482  1.00  0.00     0.012 C 
HETATM   24  C22 UNL     1      -0.391  34.262  23.456  1.00  0.00     0.011 C 
HETATM   25  C23 UNL     1      -1.298  33.120  23.095  1.00  0.00    -0.036 A 
HETATM   26  C24 UNL     1      -1.352  31.892  23.921  1.00  0.00     0.011 A 
HETATM   27  C25 UNL     1      -0.722  31.844  22.578  1.00  0.00     0.011 A 
HETATM   28  C26 UNL     1      -2.154  36.208  22.657  1.00  0.00     0.010 C 
HETATM   29  C27 UNL     1      -2.797  37.181  21.854  1.00  0.00    -0.016 C 
HETATM   30  C28 UNL     1      -3.518  38.370  22.342  1.00  0.00     0.018 C 
HETATM   31  C29 UNL     1      -1.766  37.827  20.866  1.00  0.00     0.018 C 
HETATM   32  C30 UNL     1      -3.770  36.554  20.831  1.00  0.00     0.144 C 
ENDROOT
BRANCH  32  33
HETATM   33  O3  UNL     1      -5.066  36.760  21.251  1.00  0.00    -0.315 OA
BRANCH  33  34
HETATM   34  C31 UNL     1      -6.243  36.528  20.532  1.00  0.00     0.262 C 
HETATM   35  O4  UNL     1      -6.903  37.531  20.242  1.00  0.00    -0.265 OA
BRANCH  34  36
HETATM   36  C32 UNL     1      -6.660  35.181  20.154  1.00  0.00     0.138 C 
BRANCH  36  37
HETATM   37  C33 UNL     1      -6.737  34.205  21.254  1.00  0.00    -0.021 C 
BRANCH  37  38
HETATM   38  C34 UNL     1      -6.606  32.770  21.052  1.00  0.00    -0.029 C 
BRANCH  38  39
HETATM   39  C35 UNL     1      -5.376  32.119  20.584  1.00  0.00     0.046 C 
BRANCH  39  40
HETATM   40  C36 UNL     1      -5.033  30.924  21.532  1.00  0.00     0.128 C 
BRANCH  40  41
HETATM   41  N2  UNL     1      -3.833  30.294  21.018  1.00  0.00    -0.343 N 
HETATM   42  C37 UNL     1      -3.117  29.332  21.777  1.00  0.00     0.316 C 
HETATM   43  O5  UNL     1      -3.567  29.050  22.921  1.00  0.00    -0.247 OA
HETATM   44  N3  UNL     1      -1.955  28.678  21.348  1.00  0.00    -0.335 N 
ATOM     45  H3  UNL     1      -1.584  28.903  20.425  1.00  0.00     0.165 HD
ATOM     46  H2  UNL     1      -3.496  30.547  20.089  1.00  0.00     0.164 HD
BRANCH  44  47
HETATM   47  C38 UNL     1      -1.256  27.696  22.155  1.00  0.00     0.023 C 
HETATM   48  C39 UNL     1      -1.971  26.388  22.233  1.00  0.00     0.037 C 
HETATM   49  C40 UNL     1       0.104  27.436  21.491  1.00  0.00     0.037 C 
HETATM   50  C41 UNL     1      -0.981  28.193  23.545  1.00  0.00     0.037 C 
ENDBRANCH  44  47
ENDBRANCH  40  41
ENDBRANCH  39  40
ENDBRANCH  38  39
ENDBRANCH  37  38
ENDBRANCH  36  37
ENDBRANCH  34  36
ENDBRANCH  33  34
ENDBRANCH  32  33
BRANCH  20  51
HETATM   51  O2  UNL     1      -0.265  38.254  24.093  1.00  0.00    -0.395 OA
ATOM     52  H2  UNL     1      -0.877  38.308  23.369  1.00  0.00     0.210 HD
ENDBRANCH  20  51
TORSDOF 10
ENDMDL
MODEL 3
REMARK VINA RESULT: -6.905101402      1.620      2.309
REMARK  10 active torsions:
REMARK  status: ('A' for Active; 'I' for Inactive)
REMARK    1  A    between atoms: C18_20  and  O2_21 
REMARK    2  A    between atoms: C30_34  and  O3_35 
REMARK    3  A    between atoms: O3_35  and  C31_36 
REMARK    4  A    between atoms: C31_36  and  C32_38 
REMARK    5  A    between atoms: C32_38  and  C33_39 
REMARK    6  A    between atoms: C33_39  and  C34_40 
REMARK    7  A    between atoms: C34_40  and  C35_41 
REMARK    8  A    between atoms: C35_41  and  C36_42 
REMARK    9  A    between atoms: C36_42  and  N2_43 
REMARK       I    between atoms: N2_43  and  C37_45 
REMARK       I    between atoms: C37_45  and  N3_47 
REMARK   10  A    between atoms: N3_47  and  C38_49 
ROOT
HETATM    1  C1  UNL     1      -4.492  31.556  20.759  1.00  0.00     0.013 C 
HETATM    2  C2  UNL     1      -4.510  32.734  21.739  1.00  0.00     0.017 C 
HETATM    3  C3  UNL     1      -3.121  33.301  21.965  1.00  0.00     0.002 C 
HETATM    4  C4  UNL     1      -2.708  32.905  23.323  1.00  0.00    -0.001 C 
HETATM    5  C5  UNL     1      -3.441  33.724  24.311  1.00  0.00     0.012 C 
HETATM    6  C6  UNL     1      -3.047  35.211  24.251  1.00  0.00     0.006 C 
HETATM    7  C7  UNL     1      -3.965  35.903  25.123  1.00  0.00    -0.007 C 
HETATM    8  C8  UNL     1      -3.965  35.027  26.423  1.00  0.00     0.018 C 
HETATM    9  C9  UNL     1      -5.415  35.996  24.856  1.00  0.00     0.282 C 
HETATM   10  N1  UNL     1      -5.900  36.499  26.157  1.00  0.00     0.089 N 
HETATM   11  C10 UNL     1      -7.277  36.912  26.055  1.00  0.00     0.310 C 
HETATM   12  C11 UNL     1      -5.019  37.639  26.313  1.00  0.00     0.223 C 
HETATM   13  C12 UNL     1      -4.912  38.159  27.706  1.00  0.00     0.043 C 
HETATM   14  C13 UNL     1      -3.675  37.240  25.706  1.00  0.00     0.031 C 
HETATM   15  C14 UNL     1      -3.307  38.317  24.760  1.00  0.00     0.040 C 
HETATM   16  C15 UNL     1      -2.157  37.797  23.941  1.00  0.00     0.129 C 
HETATM   17  O1  UNL     1      -1.397  38.953  23.645  1.00  0.00    -0.385 OA
HETATM   18  C16 UNL     1      -2.122  39.801  22.781  1.00  0.00     0.170 C 
HETATM   19  C17 UNL     1      -2.377  39.136  21.443  1.00  0.00     0.058 C 
HETATM   20  C18 UNL     1      -1.817  37.693  21.624  1.00  0.00     0.127 C 
HETATM   21  C19 UNL     1      -2.648  37.088  22.667  1.00  0.00     0.053 C 
HETATM   22  C20 UNL     1      -2.648  35.594  22.868  1.00  0.00    -0.023 C 
HETATM   23  C21 UNL     1      -1.108  35.334  22.872  1.00  0.00     0.012 C 
HETATM   24  C22 UNL     1      -0.697  33.947  22.552  1.00  0.00     0.011 C 
HETATM   25  C23 UNL     1      -1.237  32.904  23.491  1.00  0.00    -0.036 A 
HETATM   26  C24 UNL     1      -0.576  32.620  24.785  1.00  0.00     0.011 A 
HETATM   27  C25 UNL     1      -0.498  31.623  23.689  1.00  0.00     0.011 A 
HETATM   28  C26 UNL     1      -3.169  34.800  21.720  1.00  0.00     0.010 C 
HETATM   29  C27 UNL     1      -4.344  34.937  20.941  1.00  0.00    -0.016 C 
HETATM   30  C28 UNL     1      -5.190  36.140  20.852  1.00  0.00     0.018 C 
HETATM   31  C29 UNL     1      -4.020  34.672  19.431  1.00  0.00     0.018 C 
HETATM   32  C30 UNL     1      -5.353  33.793  21.189  1.00  0.00     0.144 C 
ENDROOT
BRANCH  32  33
HETATM   33  O3  UNL     1      -6.397  34.266  21.953  1.00  0.00    -0.315 OA
BRANCH  33  34
HETATM   34  C31 UNL     1      -7.743  33.888  21.886  1.00  0.00     0.262 C 
HETATM   35  O4  UNL     1      -8.114  33.071  22.734  1.00  0.00    -0.265 OA
BRANCH  34  36
HETATM   36  C32 UNL     1      -8.642  34.427  20.871  1.00  0.00     0.138 C 
BRANCH  36  37
HETATM   37  C33 UNL     1      -8.642  33.723  19.579  1.00  0.00    -0.021 C 
BRANCH  37  38
HETATM   38  C34 UNL     1      -7.996  34.252  18.386  1.00  0.00    -0.029 C 
BRANCH  38  39
HETATM   39  C35 UNL     1      -8.556  34.136  17.034  1.00  0.00     0.046 C 
BRANCH  39  40
HETATM   40  C36 UNL     1     -10.041  34.623  17.048  1.00  0.00     0.128 C 
BRANCH  40  41
HETATM   41  N2  UNL     1     -10.021  36.073  17.021  1.00  0.00    -0.343 N 
HETATM   42  C37 UNL     1     -10.603  36.843  18.061  1.00  0.00     0.316 C 
HETATM   43  O5  UNL     1     -11.141  36.213  19.012  1.00  0.00    -0.247 OA
HETATM   44  N3  UNL     1     -10.620  38.242  18.107  1.00  0.00    -0.335 N 
ATOM     45  H3  UNL     1     -10.189  38.759  17.341  1.00  0.00     0.165 HD
ATOM     46  H2  UNL     1      -9.579  36.550  16.235  1.00  0.00     0.164 HD
BRANCH  44  47
HETATM   47  C38 UNL     1     -11.222  38.992  19.194  1.00  0.00     0.023 C 
HETATM   48  C39 UNL     1     -10.488  38.839  20.485  1.00  0.00     0.037 C 
HETATM   49  C40 UNL     1     -11.175  40.478  18.812  1.00  0.00     0.037 C 
HETATM   50  C41 UNL     1     -12.666  38.634  19.400  1.00  0.00     0.037 C 
ENDBRANCH  44  47
ENDBRANCH  40  41
ENDBRANCH  39  40
ENDBRANCH  38  39
ENDBRANCH  37  38
ENDBRANCH  36  37
ENDBRANCH  34  36
ENDBRANCH  33  34
ENDBRANCH  32  33
BRANCH  20  51
HETATM   51  O2  UNL     1      -1.685  37.218  20.390  1.00  0.00    -0.395 OA
ATOM     52  H2  UNL     1      -2.053  36.343  20.424  1.00  0.00     0.210 HD
ENDBRANCH  20  51
TORSDOF 10
ENDMDL
MODEL 4
REMARK VINA RESULT: -6.848883401      1.885      2.325
REMARK  10 active torsions:
REMARK  status: ('A' for Active; 'I' for Inactive)
REMARK    1  A    between atoms: C18_20  and  O2_21 
REMARK    2  A    between atoms: C30_34  and  O3_35 
REMARK    3  A    between atoms: O3_35  and  C31_36 
REMARK    4  A    between atoms: C31_36  and  C32_38 
REMARK    5  A    between atoms: C32_38  and  C33_39 
REMARK    6  A    between atoms: C33_39  and  C34_40 
REMARK    7  A    between atoms: C34_40  and  C35_41 
REMARK    8  A    between atoms: C35_41  and  C36_42 
REMARK    9  A    between atoms: C36_42  and  N2_43 
REMARK       I    between atoms: N2_43  and  C37_45 
REMARK       I    between atoms: C37_45  and  N3_47 
REMARK   10  A    between atoms: N3_47  and  C38_49 
ROOT
HETATM    1  C1  UNL     1      -2.829  35.590  19.732  1.00  0.00     0.013 C 
HETATM    2  C2  UNL     1      -3.219  35.955  21.168  1.00  0.00     0.017 C 
HETATM    3  C3  UNL     1      -2.123  35.606  22.157  1.00  0.00     0.002 C 
HETATM    4  C4  UNL     1      -2.588  34.438  22.924  1.00  0.00    -0.001 C 
HETATM    5  C5  UNL     1      -3.621  34.871  23.888  1.00  0.00     0.012 C 
HETATM    6  C6  UNL     1      -3.056  35.797  24.981  1.00  0.00     0.006 C 
HETATM    7  C7  UNL     1      -4.195  36.283  25.721  1.00  0.00    -0.007 C 
HETATM    8  C8  UNL     1      -5.036  34.987  25.990  1.00  0.00     0.018 C 
HETATM    9  C9  UNL     1      -5.227  37.160  25.129  1.00  0.00     0.282 C 
HETATM   10  N1  UNL     1      -6.273  37.089  26.168  1.00  0.00     0.089 N 
HETATM   11  C10 UNL     1      -7.291  38.081  25.926  1.00  0.00     0.310 C 
HETATM   12  C11 UNL     1      -5.475  37.427  27.330  1.00  0.00     0.223 C 
HETATM   13  C12 UNL     1      -6.083  37.048  28.638  1.00  0.00     0.043 C 
HETATM   14  C13 UNL     1      -4.091  36.821  27.103  1.00  0.00     0.031 C 
HETATM   15  C14 UNL     1      -3.116  37.912  27.324  1.00  0.00     0.040 C 
HETATM   16  C15 UNL     1      -1.791  37.417  26.811  1.00  0.00     0.129 C 
HETATM   17  O1  UNL     1      -0.841  38.053  27.644  1.00  0.00    -0.385 OA
HETATM   18  C16 UNL     1      -0.841  39.443  27.405  1.00  0.00     0.170 C 
HETATM   19  C17 UNL     1      -0.406  39.759  25.988  1.00  0.00     0.058 C 
HETATM   20  C18 UNL     1      -0.247  38.360  25.320  1.00  0.00     0.127 C 
HETATM   21  C19 UNL     1      -1.591  37.778  25.328  1.00  0.00     0.053 C 
HETATM   22  C20 UNL     1      -1.912  36.591  24.455  1.00  0.00    -0.023 C 
HETATM   23  C21 UNL     1      -0.684  35.686  24.790  1.00  0.00     0.012 C 
HETATM   24  C22 UNL     1      -0.364  34.651  23.779  1.00  0.00     0.011 C 
HETATM   25  C23 UNL     1      -1.472  33.669  23.519  1.00  0.00    -0.036 A 
HETATM   26  C24 UNL     1      -1.682  32.498  24.401  1.00  0.00     0.011 A 
HETATM   27  C25 UNL     1      -1.153  32.296  23.030  1.00  0.00     0.011 A 
HETATM   28  C26 UNL     1      -1.817  36.840  22.989  1.00  0.00     0.010 C 
HETATM   29  C27 UNL     1      -2.334  37.881  22.179  1.00  0.00    -0.016 C 
HETATM   30  C28 UNL     1      -2.812  39.193  22.652  1.00  0.00     0.018 C 
HETATM   31  C29 UNL     1      -1.271  38.305  21.108  1.00  0.00     0.018 C 
HETATM   32  C30 UNL     1      -3.460  37.395  21.240  1.00  0.00     0.144 C 
ENDROOT
BRANCH  32  33
HETATM   33  O3  UNL     1      -4.674  37.835  21.720  1.00  0.00    -0.315 OA
BRANCH  33  34
HETATM   34  C31 UNL     1      -5.944  37.333  21.415  1.00  0.00     0.262 C 
HETATM   35  O4  UNL     1      -6.518  37.867  20.461  1.00  0.00    -0.265 OA
BRANCH  34  36
HETATM   36  C32 UNL     1      -6.547  36.250  22.186  1.00  0.00     0.138 C 
BRANCH  36  37
HETATM   37  C33 UNL     1      -6.840  35.019  21.434  1.00  0.00    -0.021 C 
BRANCH  37  38
HETATM   38  C34 UNL     1      -6.252  33.729  21.763  1.00  0.00    -0.029 C 
BRANCH  38  39
HETATM   39  C35 UNL     1      -5.365  32.981  20.861  1.00  0.00     0.046 C 
BRANCH  39  40
HETATM   40  C36 UNL     1      -6.228  32.059  19.940  1.00  0.00     0.128 C 
BRANCH  40  41
HETATM   41  N2  UNL     1      -6.521  32.806  18.732  1.00  0.00    -0.343 N 
HETATM   42  C37 UNL     1      -7.849  33.169  18.389  1.00  0.00     0.316 C 
HETATM   43  O5  UNL     1      -8.767  32.812  19.177  1.00  0.00    -0.247 OA
HETATM   44  N3  UNL     1      -8.211  33.891  17.245  1.00  0.00    -0.335 N 
ATOM     45  H3  UNL     1      -7.476  34.181  16.600  1.00  0.00     0.165 HD
ATOM     46  H2  UNL     1      -5.755  33.077  18.116  1.00  0.00     0.164 HD
BRANCH  44  47
HETATM   47  C38 UNL     1      -9.583  34.246  16.933  1.00  0.00     0.023 C 
HETATM   48  C39 UNL     1     -10.230  35.067  17.999  1.00  0.00     0.037 C 
HETATM   49  C40 UNL     1      -9.562  35.092  15.652  1.00  0.00     0.037 C 
HETATM   50  C41 UNL     1     -10.433  33.040  16.652  1.00  0.00     0.037 C 
ENDBRANCH  44  47
ENDBRANCH  40  41
ENDBRANCH  39  40
ENDBRANCH  38  39
ENDBRANCH  37  38
ENDBRANCH  36  37
ENDBRANCH  34  36
ENDBRANCH  33  34
ENDBRANCH  32  33
BRANCH  20  51
HETATM   51  O2  UNL     1       0.475  38.581  24.227  1.00  0.00    -0.395 OA
ATOM     52  H2  UNL     1      -0.119  39.009  23.622  1.00  0.00     0.210 HD
ENDBRANCH  20  51
TORSDOF 10
ENDMDL
MODEL 5
REMARK VINA RESULT: -6.777478709      2.405      5.305
REMARK  10 active torsions:
REMARK  status: ('A' for Active; 'I' for Inactive)
REMARK    1  A    between atoms: C18_20  and  O2_21 
REMARK    2  A    between atoms: C30_34  and  O3_35 
REMARK    3  A    between atoms: O3_35  and  C31_36 
REMARK    4  A    between atoms: C31_36  and  C32_38 
REMARK    5  A    between atoms: C32_38  and  C33_39 
REMARK    6  A    between atoms: C33_39  and  C34_40 
REMARK    7  A    between atoms: C34_40  and  C35_41 
REMARK    8  A    between atoms: C35_41  and  C36_42 
REMARK    9  A    between atoms: C36_42  and  N2_43 
REMARK       I    between atoms: N2_43  and  C37_45 
REMARK       I    between atoms: C37_45  and  N3_47 
REMARK   10  A    between atoms: N3_47  and  C38_49 
ROOT
HETATM    1  C1  UNL     1      -8.969  36.324  25.145  1.00  0.00     0.013 C 
HETATM    2  C2  UNL     1      -7.658  36.748  24.474  1.00  0.00     0.017 C 
HETATM    3  C3  UNL     1      -6.668  35.601  24.396  1.00  0.00     0.002 C 
HETATM    4  C4  UNL     1      -5.604  35.881  25.375  1.00  0.00    -0.001 C 
HETATM    5  C5  UNL     1      -4.734  36.956  24.852  1.00  0.00     0.012 C 
HETATM    6  C6  UNL     1      -3.947  36.521  23.602  1.00  0.00     0.006 C 
HETATM    7  C7  UNL     1      -3.301  37.710  23.103  1.00  0.00    -0.007 C 
HETATM    8  C8  UNL     1      -2.666  38.349  24.386  1.00  0.00     0.018 C 
HETATM    9  C9  UNL     1      -4.048  38.866  22.564  1.00  0.00     0.282 C 
HETATM   10  N1  UNL     1      -2.975  39.879  22.504  1.00  0.00     0.089 N 
HETATM   11  C10 UNL     1      -3.414  41.035  21.762  1.00  0.00     0.310 C 
HETATM   12  C11 UNL     1      -1.980  39.127  21.766  1.00  0.00     0.223 C 
HETATM   13  C12 UNL     1      -0.591  39.658  21.869  1.00  0.00     0.043 C 
HETATM   14  C13 UNL     1      -2.112  37.672  22.212  1.00  0.00     0.031 C 
HETATM   15  C14 UNL     1      -2.228  36.865  20.976  1.00  0.00     0.040 C 
HETATM   16  C15 UNL     1      -2.661  35.487  21.400  1.00  0.00     0.129 C 
HETATM   17  O1  UNL     1      -2.067  34.632  20.442  1.00  0.00    -0.385 OA
HETATM   18  C16 UNL     1      -2.656  34.839  19.177  1.00  0.00     0.170 C 
HETATM   19  C17 UNL     1      -4.127  34.471  19.186  1.00  0.00     0.058 C 
HETATM   20  C18 UNL     1      -4.418  34.116  20.675  1.00  0.00     0.127 C 
HETATM   21  C19 UNL     1      -4.194  35.359  21.416  1.00  0.00     0.053 C 
HETATM   22  C20 UNL     1      -4.715  35.512  22.823  1.00  0.00    -0.023 C 
HETATM   23  C21 UNL     1      -4.219  34.160  23.429  1.00  0.00     0.012 C 
HETATM   24  C22 UNL     1      -4.943  33.703  24.638  1.00  0.00     0.011 C 
HETATM   25  C23 UNL     1      -4.886  34.657  25.798  1.00  0.00    -0.036 A 
HETATM   26  C24 UNL     1      -3.723  34.684  26.714  1.00  0.00     0.011 A 
HETATM   27  C25 UNL     1      -5.020  34.146  27.193  1.00  0.00     0.011 A 
HETATM   28  C26 UNL     1      -6.199  35.471  22.957  1.00  0.00     0.010 C 
HETATM   29  C27 UNL     1      -7.223  36.144  22.247  1.00  0.00    -0.016 C 
HETATM   30  C28 UNL     1      -7.081  36.804  20.937  1.00  0.00     0.018 C 
HETATM   31  C29 UNL     1      -8.418  35.167  21.975  1.00  0.00     0.018 C 
HETATM   32  C30 UNL     1      -7.948  37.197  23.114  1.00  0.00     0.144 C 
ENDROOT
BRANCH  32  33
HETATM   33  O3  UNL     1      -7.539  38.457  22.737  1.00  0.00    -0.315 OA
BRANCH  33  34
HETATM   34  C31 UNL     1      -7.919  39.681  23.297  1.00  0.00     0.262 C 
HETATM   35  O4  UNL     1      -7.068  40.575  23.266  1.00  0.00    -0.265 OA
BRANCH  34  36
HETATM   36  C32 UNL     1      -9.241  39.879  23.884  1.00  0.00     0.138 C 
BRANCH  36  37
HETATM   37  C33 UNL     1     -10.324  40.177  22.933  1.00  0.00    -0.021 C 
BRANCH  37  38
HETATM   38  C34 UNL     1     -10.810  39.213  21.956  1.00  0.00    -0.029 C 
BRANCH  38  39
HETATM   39  C35 UNL     1     -10.688  39.388  20.504  1.00  0.00     0.046 C 
BRANCH  39  40
HETATM   40  C36 UNL     1     -11.851  38.623  19.793  1.00  0.00     0.128 C 
BRANCH  40  41
HETATM   41  N2  UNL     1     -11.341  38.139  18.526  1.00  0.00    -0.343 N 
HETATM   42  C37 UNL     1     -10.740  36.859  18.408  1.00  0.00     0.316 C 
HETATM   43  O5  UNL     1     -10.666  36.159  19.455  1.00  0.00    -0.247 OA
HETATM   44  N3  UNL     1     -10.228  36.320  17.221  1.00  0.00    -0.335 N 
ATOM     45  H3  UNL     1     -10.282  36.881  16.371  1.00  0.00     0.165 HD
ATOM     46  H2  UNL     1     -11.415  38.732  17.700  1.00  0.00     0.164 HD
BRANCH  44  47
HETATM   47  C38 UNL     1      -9.626  35.003  17.143  1.00  0.00     0.023 C 
HETATM   48  C39 UNL     1      -8.416  34.862  18.006  1.00  0.00     0.037 C 
HETATM   49  C40 UNL     1     -10.666  33.989  17.642  1.00  0.00     0.037 C 
HETATM   50  C41 UNL     1      -9.276  34.620  15.733  1.00  0.00     0.037 C 
ENDBRANCH  44  47
ENDBRANCH  40  41
ENDBRANCH  39  40
ENDBRANCH  38  39
ENDBRANCH  37  38
ENDBRANCH  36  37
ENDBRANCH  34  36
ENDBRANCH  33  34
ENDBRANCH  32  33
BRANCH  20  51
HETATM   51  O2  UNL     1      -5.566  33.446  20.651  1.00  0.00    -0.395 OA
ATOM     52  H2  UNL     1      -5.397  32.690  20.100  1.00  0.00     0.210 HD
ENDBRANCH  20  51
TORSDOF 10
ENDMDL
