MODEL 1
REMARK VINA RESULT: -6.341284694      0.000      0.000
REMARK  14 active torsions:
REMARK  status: ('A' for Active; 'I' for Inactive)
REMARK    1  A    between atoms: C2_2  and  N1_3 
REMARK    2  A    between atoms: N1_3  and  C3_4 
REMARK    3  A    between atoms: N1_3  and  C5_6 
REMARK    4  A    between atoms: C5_6  and  C6_7 
REMARK    5  A    between atoms: C6_7  and  C7_8 
REMARK    6  A    between atoms: C7_8  and  C8_9 
REMARK    7  A    between atoms: C8_9  and  N2_10 
REMARK    8  A    between atoms: N2_10  and  C9_12 
REMARK    9  A    between atoms: C9_12  and  N3_14 
REMARK   10  A    between atoms: N3_14  and  C10_16 
REMARK   11  A    between atoms: C10_16  and  C11_17 
REMARK   12  A    between atoms: C11_17  and  N4_18 
REMARK       I    between atoms: N4_18  and  C12_20 
REMARK   13  A    between atoms: C12_20  and  C13_22 
REMARK   14  A    between atoms: C14_23  and  C15_24 
ROOT
HETATM    1  C9  UNL     1      16.610 -12.852  21.216  1.00  0.00     0.167 C 
HETATM    2  S1  UNL     1      15.875 -13.967  22.156  1.00  0.00    -0.041 SA
ENDROOT
BRANCH   1   3
HETATM    3  N2  UNL     1      18.005 -12.620  21.391  1.00  0.00    -0.367 N 
ATOM      4  H2  UNL     1      18.323 -12.043  22.170  1.00  0.00     0.161 HD
BRANCH   3   5
HETATM    5  C8  UNL     1      18.978 -13.188  20.484  1.00  0.00     0.122 C 
BRANCH   5   6
HETATM    6  C7  UNL     1      19.994 -13.928  21.291  1.00  0.00     0.025 C 
BRANCH   6   7
HETATM    7  C6  UNL     1      19.557 -14.309  22.677  1.00  0.00     0.046 C 
BRANCH   7   8
HETATM    8  C5  UNL     1      20.713 -14.981  23.370  1.00  0.00     0.063 C 
BRANCH   8   9
HETATM    9  N1  UNL     1      21.136 -14.329  24.547  1.00  0.00    -0.375 N 
BRANCH   9  10
HETATM   10  C2  UNL     1      20.185 -13.963  25.516  1.00  0.00     0.122 C 
HETATM   11  C1  UNL     1      20.929 -13.629  26.817  1.00  0.00     0.027 C 
ENDBRANCH   9  10
BRANCH   9  12
HETATM   12  C3  UNL     1      22.381 -14.771  25.026  1.00  0.00     0.058 C 
HETATM   13  C4  UNL     1      23.593 -14.148  24.376  1.00  0.00     0.055 C 
ENDBRANCH   9  12
ENDBRANCH   8   9
ENDBRANCH   7   8
ENDBRANCH   6   7
ENDBRANCH   5   6
ENDBRANCH   3   5
ENDBRANCH   1   3
BRANCH   1  14
HETATM   14  N3  UNL     1      15.918 -12.110  20.238  1.00  0.00    -0.366 N 
ATOM     15  H3  UNL     1      15.875 -11.093  20.305  1.00  0.00     0.161 HD
BRANCH  14  16
HETATM   16  C10 UNL     1      15.272 -12.788  19.145  1.00  0.00     0.141 C 
BRANCH  16  17
HETATM   17  C11 UNL     1      13.878 -12.184  18.977  1.00  0.00     0.143 C 
BRANCH  17  18
HETATM   18  N4  UNL     1      13.430 -11.573  20.201  1.00  0.00    -0.349 N 
HETATM   19  C12 UNL     1      12.636 -12.320  21.094  1.00  0.00     0.296 C 
HETATM   20  O1  UNL     1      12.312 -13.514  20.831  1.00  0.00    -0.258 OA
ATOM     21  H4  UNL     1      13.686 -10.610  20.420  1.00  0.00     0.163 HD
BRANCH  19  22
HETATM   22  C13 UNL     1      12.199 -11.705  22.314  1.00  0.00    -0.005 C 
HETATM   23  C14 UNL     1      11.814 -11.179  23.329  1.00  0.00    -0.086 C 
BRANCH  23  24
HETATM   24  C15 UNL     1      11.320 -10.538  24.552  1.00  0.00     0.179 C 
HETATM   25 BR1  UNL     1      12.040  -8.744  24.736  1.00  0.00    -0.083 Br
ENDBRANCH  23  24
ENDBRANCH  19  22
ENDBRANCH  17  18
ENDBRANCH  16  17
ENDBRANCH  14  16
ENDBRANCH   1  14
TORSDOF 14
ENDMDL
MODEL 2
REMARK VINA RESULT: -6.047670588      1.058      1.592
REMARK  14 active torsions:
REMARK  status: ('A' for Active; 'I' for Inactive)
REMARK    1  A    between atoms: C2_2  and  N1_3 
REMARK    2  A    between atoms: N1_3  and  C3_4 
REMARK    3  A    between atoms: N1_3  and  C5_6 
REMARK    4  A    between atoms: C5_6  and  C6_7 
REMARK    5  A    between atoms: C6_7  and  C7_8 
REMARK    6  A    between atoms: C7_8  and  C8_9 
REMARK    7  A    between atoms: C8_9  and  N2_10 
REMARK    8  A    between atoms: N2_10  and  C9_12 
REMARK    9  A    between atoms: C9_12  and  N3_14 
REMARK   10  A    between atoms: N3_14  and  C10_16 
REMARK   11  A    between atoms: C10_16  and  C11_17 
REMARK   12  A    between atoms: C11_17  and  N4_18 
REMARK       I    between atoms: N4_18  and  C12_20 
REMARK   13  A    between atoms: C12_20  and  C13_22 
REMARK   14  A    between atoms: C14_23  and  C15_24 
ROOT
HETATM    1  C9  UNL     1      16.720 -12.844  21.236  1.00  0.00     0.167 C 
HETATM    2  S1  UNL     1      16.063 -13.984  22.204  1.00  0.00    -0.041 SA
ENDROOT
BRANCH   1   3
HETATM    3  N2  UNL     1      18.113 -12.568  21.349  1.00  0.00    -0.367 N 
ATOM      4  H2  UNL     1      18.447 -11.979  22.111  1.00  0.00     0.161 HD
BRANCH   3   5
HETATM    5  C8  UNL     1      19.063 -13.111  20.402  1.00  0.00     0.122 C 
BRANCH   5   6
HETATM    6  C7  UNL     1      19.674 -14.335  21.001  1.00  0.00     0.025 C 
BRANCH   6   7
HETATM    7  C6  UNL     1      20.223 -14.163  22.388  1.00  0.00     0.046 C 
BRANCH   7   8
HETATM    8  C5  UNL     1      19.578 -15.188  23.284  1.00  0.00     0.063 C 
BRANCH   8   9
HETATM    9  N1  UNL     1      19.214 -14.695  24.553  1.00  0.00    -0.375 N 
BRANCH   9  10
HETATM   10  C2  UNL     1      18.341 -15.444  25.363  1.00  0.00     0.122 C 
HETATM   11  C1  UNL     1      17.984 -16.737  24.614  1.00  0.00     0.027 C 
ENDBRANCH   9  10
BRANCH   9  12
HETATM   12  C3  UNL     1      20.245 -14.006  25.214  1.00  0.00     0.058 C 
HETATM   13  C4  UNL     1      20.405 -14.316  26.683  1.00  0.00     0.055 C 
ENDBRANCH   9  12
ENDBRANCH   8   9
ENDBRANCH   7   8
ENDBRANCH   6   7
ENDBRANCH   5   6
ENDBRANCH   3   5
ENDBRANCH   1   3
BRANCH   1  14
HETATM   14  N3  UNL     1      15.962 -12.121  20.293  1.00  0.00    -0.366 N 
ATOM     15  H3  UNL     1      15.834 -11.115  20.405  1.00  0.00     0.161 HD
BRANCH  14  16
HETATM   16  C10 UNL     1      15.368 -12.802  19.174  1.00  0.00     0.141 C 
BRANCH  16  17
HETATM   17  C11 UNL     1      13.964 -12.232  18.968  1.00  0.00     0.143 C 
BRANCH  17  18
HETATM   18  N4  UNL     1      13.467 -11.639  20.182  1.00  0.00    -0.349 N 
HETATM   19  C12 UNL     1      12.664 -12.411  21.047  1.00  0.00     0.296 C 
HETATM   20  O1  UNL     1      12.377 -13.610  20.768  1.00  0.00    -0.258 OA
ATOM     21  H4  UNL     1      13.692 -10.672  20.413  1.00  0.00     0.163 HD
BRANCH  19  22
HETATM   22  C13 UNL     1      12.177 -11.814  22.256  1.00  0.00    -0.005 C 
HETATM   23  C14 UNL     1      11.780 -11.295  23.272  1.00  0.00    -0.086 C 
BRANCH  23  24
HETATM   24  C15 UNL     1      11.308 -10.641  24.496  1.00  0.00     0.179 C 
HETATM   25 BR1  UNL     1      12.068  -8.863  24.672  1.00  0.00    -0.083 Br
ENDBRANCH  23  24
ENDBRANCH  19  22
ENDBRANCH  17  18
ENDBRANCH  16  17
ENDBRANCH  14  16
ENDBRANCH   1  14
TORSDOF 14
ENDMDL
MODEL 3
REMARK VINA RESULT: -6.028893007      1.339      1.888
REMARK  14 active torsions:
REMARK  status: ('A' for Active; 'I' for Inactive)
REMARK    1  A    between atoms: C2_2  and  N1_3 
REMARK    2  A    between atoms: N1_3  and  C3_4 
REMARK    3  A    between atoms: N1_3  and  C5_6 
REMARK    4  A    between atoms: C5_6  and  C6_7 
REMARK    5  A    between atoms: C6_7  and  C7_8 
REMARK    6  A    between atoms: C7_8  and  C8_9 
REMARK    7  A    between atoms: C8_9  and  N2_10 
REMARK    8  A    between atoms: N2_10  and  C9_12 
REMARK    9  A    between atoms: C9_12  and  N3_14 
REMARK   10  A    between atoms: N3_14  and  C10_16 
REMARK   11  A    between atoms: C10_16  and  C11_17 
REMARK   12  A    between atoms: C11_17  and  N4_18 
REMARK       I    between atoms: N4_18  and  C12_20 
REMARK   13  A    between atoms: C12_20  and  C13_22 
REMARK   14  A    between atoms: C14_23  and  C15_24 
ROOT
HETATM    1  C9  UNL     1      16.331 -14.605  20.962  1.00  0.00     0.167 C 
HETATM    2  S1  UNL     1      15.961 -16.097  21.513  1.00  0.00    -0.041 SA
ENDROOT
BRANCH   1   3
HETATM    3  N2  UNL     1      16.999 -13.698  21.836  1.00  0.00    -0.367 N 
ATOM      4  H2  UNL     1      16.590 -13.486  22.746  1.00  0.00     0.161 HD
BRANCH   3   5
HETATM    5  C8  UNL     1      18.246 -13.072  21.453  1.00  0.00     0.122 C 
BRANCH   5   6
HETATM    6  C7  UNL     1      19.365 -13.981  21.845  1.00  0.00     0.025 C 
BRANCH   6   7
HETATM    7  C6  UNL     1      19.417 -14.339  23.303  1.00  0.00     0.046 C 
BRANCH   7   8
HETATM    8  C5  UNL     1      20.699 -15.086  23.561  1.00  0.00     0.063 C 
BRANCH   8   9
HETATM    9  N1  UNL     1      21.216 -14.911  24.861  1.00  0.00    -0.375 N 
BRANCH   9  10
HETATM   10  C2  UNL     1      22.564 -15.217  25.117  1.00  0.00     0.122 C 
HETATM   11  C1  UNL     1      23.438 -14.204  24.362  1.00  0.00     0.027 C 
ENDBRANCH   9  10
BRANCH   9  12
HETATM   12  C3  UNL     1      20.686 -13.801  25.539  1.00  0.00     0.058 C 
HETATM   13  C4  UNL     1      20.709 -13.880  27.047  1.00  0.00     0.055 C 
ENDBRANCH   9  12
ENDBRANCH   8   9
ENDBRANCH   7   8
ENDBRANCH   6   7
ENDBRANCH   5   6
ENDBRANCH   3   5
ENDBRANCH   1   3
BRANCH   1  14
HETATM   14  N3  UNL     1      16.013 -14.178  19.658  1.00  0.00    -0.366 N 
ATOM     15  H3  UNL     1      16.749 -13.835  19.040  1.00  0.00     0.161 HD
BRANCH  14  16
HETATM   16  C10 UNL     1      14.651 -14.227  19.197  1.00  0.00     0.141 C 
BRANCH  16  17
HETATM   17  C11 UNL     1      14.172 -12.789  18.994  1.00  0.00     0.143 C 
BRANCH  17  18
HETATM   18  N4  UNL     1      13.343 -12.363  20.091  1.00  0.00    -0.349 N 
HETATM   19  C12 UNL     1      13.911 -11.593  21.125  1.00  0.00     0.296 C 
HETATM   20  O1  UNL     1      15.135 -11.276  21.102  1.00  0.00    -0.258 OA
ATOM     21  H4  UNL     1      12.355 -12.616  20.119  1.00  0.00     0.163 HD
BRANCH  19  22
HETATM   22  C13 UNL     1      13.077 -11.168  22.212  1.00  0.00    -0.005 C 
HETATM   23  C14 UNL     1      12.362 -10.827  23.122  1.00  0.00    -0.086 C 
BRANCH  23  24
HETATM   24  C15 UNL     1      11.482 -10.439  24.230  1.00  0.00     0.179 C 
HETATM   25 BR1  UNL     1      11.895  -8.647  24.852  1.00  0.00    -0.083 Br
ENDBRANCH  23  24
ENDBRANCH  19  22
ENDBRANCH  17  18
ENDBRANCH  16  17
ENDBRANCH  14  16
ENDBRANCH   1  14
TORSDOF 14
ENDMDL
MODEL 4
REMARK VINA RESULT: -6.007725385      1.401      1.811
REMARK  14 active torsions:
REMARK  status: ('A' for Active; 'I' for Inactive)
REMARK    1  A    between atoms: C2_2  and  N1_3 
REMARK    2  A    between atoms: N1_3  and  C3_4 
REMARK    3  A    between atoms: N1_3  and  C5_6 
REMARK    4  A    between atoms: C5_6  and  C6_7 
REMARK    5  A    between atoms: C6_7  and  C7_8 
REMARK    6  A    between atoms: C7_8  and  C8_9 
REMARK    7  A    between atoms: C8_9  and  N2_10 
REMARK    8  A    between atoms: N2_10  and  C9_12 
REMARK    9  A    between atoms: C9_12  and  N3_14 
REMARK   10  A    between atoms: N3_14  and  C10_16 
REMARK   11  A    between atoms: C10_16  and  C11_17 
REMARK   12  A    between atoms: C11_17  and  N4_18 
REMARK       I    between atoms: N4_18  and  C12_20 
REMARK   13  A    between atoms: C12_20  and  C13_22 
REMARK   14  A    between atoms: C14_23  and  C15_24 
ROOT
HETATM    1  C9  UNL     1      16.139 -14.894  21.841  1.00  0.00     0.167 C 
HETATM    2  S1  UNL     1      14.809 -15.821  21.647  1.00  0.00    -0.041 SA
ENDROOT
BRANCH   1   3
HETATM    3  N2  UNL     1      16.683 -14.740  23.150  1.00  0.00    -0.367 N 
ATOM      4  H2  UNL     1      16.196 -14.155  23.829  1.00  0.00     0.161 HD
BRANCH   3   5
HETATM    5  C8  UNL     1      17.912 -15.399  23.532  1.00  0.00     0.122 C 
BRANCH   5   6
HETATM    6  C7  UNL     1      18.986 -14.366  23.633  1.00  0.00     0.025 C 
BRANCH   6   7
HETATM    7  C6  UNL     1      20.335 -14.794  23.129  1.00  0.00     0.046 C 
BRANCH   7   8
HETATM    8  C5  UNL     1      20.944 -15.729  24.141  1.00  0.00     0.063 C 
BRANCH   8   9
HETATM    9  N1  UNL     1      21.795 -15.096  25.070  1.00  0.00    -0.375 N 
BRANCH   9  10
HETATM   10  C2  UNL     1      21.440 -15.076  26.431  1.00  0.00     0.122 C 
HETATM   11  C1  UNL     1      20.911 -13.673  26.768  1.00  0.00     0.027 C 
ENDBRANCH   9  10
BRANCH   9  12
HETATM   12  C3  UNL     1      23.162 -15.241  24.781  1.00  0.00     0.058 C 
HETATM   13  C4  UNL     1      23.890 -13.975  24.397  1.00  0.00     0.055 C 
ENDBRANCH   9  12
ENDBRANCH   8   9
ENDBRANCH   7   8
ENDBRANCH   6   7
ENDBRANCH   5   6
ENDBRANCH   3   5
ENDBRANCH   1   3
BRANCH   1  14
HETATM   14  N3  UNL     1      16.771 -14.239  20.766  1.00  0.00    -0.366 N 
ATOM     15  H3  UNL     1      17.069 -14.771  19.948  1.00  0.00     0.161 HD
BRANCH  14  16
HETATM   16  C10 UNL     1      16.994 -12.818  20.821  1.00  0.00     0.141 C 
BRANCH  16  17
HETATM   17  C11 UNL     1      15.765 -12.127  20.229  1.00  0.00     0.143 C 
BRANCH  17  18
HETATM   18  N4  UNL     1      14.947 -11.556  21.266  1.00  0.00    -0.349 N 
HETATM   19  C12 UNL     1      13.598 -11.952  21.376  1.00  0.00     0.296 C 
HETATM   20  O1  UNL     1      13.102 -12.796  20.576  1.00  0.00    -0.258 OA
ATOM     21  H4  UNL     1      15.338 -10.872  21.914  1.00  0.00     0.163 HD
BRANCH  19  22
HETATM   22  C13 UNL     1      12.791 -11.381  22.415  1.00  0.00    -0.005 C 
HETATM   23  C14 UNL     1      12.128 -10.904  23.303  1.00  0.00    -0.086 C 
BRANCH  23  24
HETATM   24  C15 UNL     1      11.346 -10.316  24.396  1.00  0.00     0.179 C 
HETATM   25 BR1  UNL     1      11.992  -8.540  24.838  1.00  0.00    -0.083 Br
ENDBRANCH  23  24
ENDBRANCH  19  22
ENDBRANCH  17  18
ENDBRANCH  16  17
ENDBRANCH  14  16
ENDBRANCH   1  14
TORSDOF 14
ENDMDL
MODEL 5
REMARK VINA RESULT: -5.872727300      1.728      2.032
REMARK  14 active torsions:
REMARK  status: ('A' for Active; 'I' for Inactive)
REMARK    1  A    between atoms: C2_2  and  N1_3 
REMARK    2  A    between atoms: N1_3  and  C3_4 
REMARK    3  A    between atoms: N1_3  and  C5_6 
REMARK    4  A    between atoms: C5_6  and  C6_7 
REMARK    5  A    between atoms: C6_7  and  C7_8 
REMARK    6  A    between atoms: C7_8  and  C8_9 
REMARK    7  A    between atoms: C8_9  and  N2_10 
REMARK    8  A    between atoms: N2_10  and  C9_12 
REMARK    9  A    between atoms: C9_12  and  N3_14 
REMARK   10  A    between atoms: N3_14  and  C10_16 
REMARK   11  A    between atoms: C10_16  and  C11_17 
REMARK   12  A    between atoms: C11_17  and  N4_18 
REMARK       I    between atoms: N4_18  and  C12_20 
REMARK   13  A    between atoms: C12_20  and  C13_22 
REMARK   14  A    between atoms: C14_23  and  C15_24 
ROOT
HETATM    1  C9  UNL     1      16.234 -14.708  20.943  1.00  0.00     0.167 C 
HETATM    2  S1  UNL     1      14.952 -15.241  21.804  1.00  0.00    -0.041 SA
ENDROOT
BRANCH   1   3
HETATM    3  N2  UNL     1      17.546 -14.966  21.437  1.00  0.00    -0.367 N 
ATOM      4  H2  UNL     1      17.865 -15.930  21.532  1.00  0.00     0.161 HD
BRANCH   3   5
HETATM    5  C8  UNL     1      18.433 -13.883  21.804  1.00  0.00     0.122 C 
BRANCH   5   6
HETATM    6  C7  UNL     1      19.824 -14.423  21.880  1.00  0.00     0.025 C 
BRANCH   6   7
HETATM    7  C6  UNL     1      20.177 -15.101  23.173  1.00  0.00     0.046 C 
BRANCH   7   8
HETATM    8  C5  UNL     1      19.885 -14.149  24.303  1.00  0.00     0.063 C 
BRANCH   8   9
HETATM    9  N1  UNL     1      19.255 -14.748  25.413  1.00  0.00    -0.375 N 
BRANCH   9  10
HETATM   10  C2  UNL     1      18.409 -15.854  25.215  1.00  0.00     0.122 C 
HETATM   11  C1  UNL     1      18.208 -16.553  26.568  1.00  0.00     0.027 C 
ENDBRANCH   9  10
BRANCH   9  12
HETATM   12  C3  UNL     1      20.044 -14.763  26.575  1.00  0.00     0.058 C 
HETATM   13  C4  UNL     1      20.970 -13.584  26.755  1.00  0.00     0.055 C 
ENDBRANCH   9  12
ENDBRANCH   8   9
ENDBRANCH   7   8
ENDBRANCH   6   7
ENDBRANCH   5   6
ENDBRANCH   3   5
ENDBRANCH   1   3
BRANCH   1  14
HETATM   14  N3  UNL     1      16.094 -14.003  19.732  1.00  0.00    -0.366 N 
ATOM     15  H3  UNL     1      16.868 -13.442  19.375  1.00  0.00     0.161 HD
BRANCH  14  16
HETATM   16  C10 UNL     1      14.858 -14.074  18.998  1.00  0.00     0.141 C 
BRANCH  16  17
HETATM   17  C11 UNL     1      14.317 -12.652  18.851  1.00  0.00     0.143 C 
BRANCH  17  18
HETATM   18  N4  UNL     1      13.448 -12.316  19.948  1.00  0.00    -0.349 N 
HETATM   19  C12 UNL     1      13.968 -11.599  21.044  1.00  0.00     0.296 C 
HETATM   20  O1  UNL     1      15.183 -11.252  21.075  1.00  0.00    -0.258 OA
ATOM     21  H4  UNL     1      12.466 -12.594  19.932  1.00  0.00     0.163 HD
BRANCH  19  22
HETATM   22  C13 UNL     1      13.094 -11.264  22.131  1.00  0.00    -0.005 C 
HETATM   23  C14 UNL     1      12.355 -10.963  23.037  1.00  0.00    -0.086 C 
BRANCH  23  24
HETATM   24  C15 UNL     1      11.447 -10.577  24.121  1.00  0.00     0.179 C 
HETATM   25 BR1  UNL     1      11.889  -8.815  24.807  1.00  0.00    -0.083 Br
ENDBRANCH  23  24
ENDBRANCH  19  22
ENDBRANCH  17  18
ENDBRANCH  16  17
ENDBRANCH  14  16
ENDBRANCH   1  14
TORSDOF 14
ENDMDL
