MODEL 1
REMARK VINA RESULT: -7.002443858      0.000      0.000
REMARK  10 active torsions:
REMARK  status: ('A' for Active; 'I' for Inactive)
REMARK    1  A    between atoms: C2_2  and  C3_3 
REMARK    2  A    between atoms: C3_3  and  N1_4 
REMARK    3  A    between atoms: N1_4  and  C4_5 
REMARK    4  A    between atoms: N1_4  and  C6_8 
REMARK    5  A    between atoms: C4_5  and  C5_6 
REMARK    6  A    between atoms: C6_8  and  C7_9 
REMARK    7  A    between atoms: C7_9  and  N2_10 
REMARK       I    between atoms: N2_10  and  C8_12 
REMARK    8  A    between atoms: C8_12  and  C9_14 
REMARK    9  A    between atoms: C9_14  and  N3_15 
REMARK       I    between atoms: N3_15  and  C10_17 
REMARK   10  A    between atoms: C10_17  and  C11_19 
ROOT
HETATM    1  N2  UNL     1      16.272 -13.069  21.314  1.00  0.00    -0.358 N 
ATOM      2  H2  UNL     1      16.085 -13.516  22.212  1.00  0.00     0.162 HD
HETATM    3  C8  UNL     1      17.444 -13.387  20.589  1.00  0.00     0.235 C 
HETATM    4  O1  UNL     1      17.646 -12.828  19.485  1.00  0.00    -0.272 OA
ENDROOT
BRANCH   3   5
HETATM    5  C9  UNL     1      18.369 -14.372  21.186  1.00  0.00     0.225 C 
BRANCH   5   6
HETATM    6  N3  UNL     1      18.467 -14.330  22.610  1.00  0.00    -0.352 N 
HETATM    7  C10 UNL     1      19.693 -14.285  23.321  1.00  0.00     0.223 C 
HETATM    8  O2  UNL     1      20.757 -14.281  22.672  1.00  0.00    -0.273 OA
ATOM      9  H3  UNL     1      17.601 -14.332  23.149  1.00  0.00     0.162 HD
BRANCH   7  10
HETATM   10  C11 UNL     1      19.743 -14.244  24.794  1.00  0.00     0.095 A 
HETATM   11  C12 UNL     1      19.944 -15.545  25.543  1.00  0.00    -0.027 A 
HETATM   12  C13 UNL     1      20.129 -16.760  24.682  1.00  0.00     0.016 C 
HETATM   13  C14 UNL     1      19.105 -15.808  26.775  1.00  0.00     0.016 C 
HETATM   14  C15 UNL     1      20.960 -14.442  25.579  1.00  0.00    -0.027 A 
HETATM   15  C16 UNL     1      22.311 -14.717  25.016  1.00  0.00     0.016 C 
HETATM   16  C17 UNL     1      20.972 -13.663  26.907  1.00  0.00     0.016 C 
ENDBRANCH   7  10
ENDBRANCH   5   6
ENDBRANCH   3   5
BRANCH   1  17
HETATM   17  C7  UNL     1      15.343 -12.104  20.770  1.00  0.00     0.152 C 
BRANCH  17  18
HETATM   18  C6  UNL     1      14.132 -12.734  20.169  1.00  0.00     0.292 C 
BRANCH  18  19
HETATM   19  N1  UNL     1      12.907 -12.476  20.944  1.00  0.00     0.090 N 
BRANCH  19  20
HETATM   20  C3  UNL     1      12.376 -13.735  21.442  1.00  0.00     0.272 C 
BRANCH  20  21
HETATM   21  C2  UNL     1      12.482 -14.819  20.411  1.00  0.00     0.026 C 
HETATM   22  C1  UNL     1      12.534 -16.184  21.105  1.00  0.00     0.007 C 
ENDBRANCH  20  21
ENDBRANCH  19  20
BRANCH  19  23
HETATM   23  C4  UNL     1      13.168 -11.544  21.998  1.00  0.00     0.283 C 
BRANCH  23  24
HETATM   24  C5  UNL     1      12.019 -10.594  22.257  1.00  0.00     0.115 C 
HETATM   25 BR1  UNL     1      11.310 -11.025  24.020  1.00  0.00    -0.095 Br
ENDBRANCH  23  24
ENDBRANCH  19  23
ENDBRANCH  18  19
ENDBRANCH  17  18
ENDBRANCH   1  17
TORSDOF 10
ENDMDL
MODEL 2
REMARK VINA RESULT: -6.995084117      1.441      2.538
REMARK  10 active torsions:
REMARK  status: ('A' for Active; 'I' for Inactive)
REMARK    1  A    between atoms: C2_2  and  C3_3 
REMARK    2  A    between atoms: C3_3  and  N1_4 
REMARK    3  A    between atoms: N1_4  and  C4_5 
REMARK    4  A    between atoms: N1_4  and  C6_8 
REMARK    5  A    between atoms: C4_5  and  C5_6 
REMARK    6  A    between atoms: C6_8  and  C7_9 
REMARK    7  A    between atoms: C7_9  and  N2_10 
REMARK       I    between atoms: N2_10  and  C8_12 
REMARK    8  A    between atoms: C8_12  and  C9_14 
REMARK    9  A    between atoms: C9_14  and  N3_15 
REMARK       I    between atoms: N3_15  and  C10_17 
REMARK   10  A    between atoms: C10_17  and  C11_19 
ROOT
HETATM    1  N2  UNL     1      15.766 -12.872  21.490  1.00  0.00    -0.358 N 
ATOM      2  H2  UNL     1      15.512 -13.330  22.365  1.00  0.00     0.162 HD
HETATM    3  C8  UNL     1      16.861 -13.342  20.728  1.00  0.00     0.235 C 
HETATM    4  O1  UNL     1      17.147 -12.764  19.653  1.00  0.00    -0.272 OA
ENDROOT
BRANCH   3   5
HETATM    5  C9  UNL     1      17.611 -14.500  21.257  1.00  0.00     0.225 C 
BRANCH   5   6
HETATM    6  N3  UNL     1      17.902 -14.451  22.654  1.00  0.00    -0.352 N 
HETATM    7  C10 UNL     1      19.202 -14.277  23.190  1.00  0.00     0.223 C 
HETATM    8  O2  UNL     1      20.159 -14.156  22.400  1.00  0.00    -0.273 OA
ATOM      9  H3  UNL     1      17.125 -14.548  23.308  1.00  0.00     0.162 HD
BRANCH   7  10
HETATM   10  C11 UNL     1      19.453 -14.235  24.642  1.00  0.00     0.095 A 
HETATM   11  C12 UNL     1      19.791 -15.530  25.351  1.00  0.00    -0.027 A 
HETATM   12  C13 UNL     1      19.892 -16.738  24.467  1.00  0.00     0.016 C 
HETATM   13  C14 UNL     1      19.137 -15.817  26.685  1.00  0.00     0.016 C 
HETATM   14  C15 UNL     1      20.771 -14.398  25.252  1.00  0.00    -0.027 A 
HETATM   15  C16 UNL     1      22.039 -14.633  24.508  1.00  0.00     0.016 C 
HETATM   16  C17 UNL     1      20.943 -13.619  26.570  1.00  0.00     0.016 C 
ENDBRANCH   7  10
ENDBRANCH   5   6
ENDBRANCH   3   5
BRANCH   1  17
HETATM   17  C7  UNL     1      15.009 -11.735  21.013  1.00  0.00     0.152 C 
BRANCH  17  18
HETATM   18  C6  UNL     1      13.559 -12.035  20.829  1.00  0.00     0.292 C 
BRANCH  18  19
HETATM   19  N1  UNL     1      12.833 -12.159  22.104  1.00  0.00     0.090 N 
BRANCH  19  20
HETATM   20  C3  UNL     1      12.051 -10.956  22.334  1.00  0.00     0.272 C 
BRANCH  20  21
HETATM   21  C2  UNL     1      11.443 -10.951  23.704  1.00  0.00     0.026 C 
HETATM   22  C1  UNL     1      11.779  -9.634  24.412  1.00  0.00     0.007 C 
ENDBRANCH  20  21
ENDBRANCH  19  20
BRANCH  19  23
HETATM   23  C4  UNL     1      12.025 -13.340  22.107  1.00  0.00     0.283 C 
BRANCH  23  24
HETATM   24  C5  UNL     1      12.367 -14.304  20.992  1.00  0.00     0.115 C 
HETATM   25 BR1  UNL     1      13.362 -15.775  21.794  1.00  0.00    -0.095 Br
ENDBRANCH  23  24
ENDBRANCH  19  23
ENDBRANCH  18  19
ENDBRANCH  17  18
ENDBRANCH   1  17
TORSDOF 10
ENDMDL
MODEL 3
REMARK VINA RESULT: -6.988919019      1.566      2.796
REMARK  10 active torsions:
REMARK  status: ('A' for Active; 'I' for Inactive)
REMARK    1  A    between atoms: C2_2  and  C3_3 
REMARK    2  A    between atoms: C3_3  and  N1_4 
REMARK    3  A    between atoms: N1_4  and  C4_5 
REMARK    4  A    between atoms: N1_4  and  C6_8 
REMARK    5  A    between atoms: C4_5  and  C5_6 
REMARK    6  A    between atoms: C6_8  and  C7_9 
REMARK    7  A    between atoms: C7_9  and  N2_10 
REMARK       I    between atoms: N2_10  and  C8_12 
REMARK    8  A    between atoms: C8_12  and  C9_14 
REMARK    9  A    between atoms: C9_14  and  N3_15 
REMARK       I    between atoms: N3_15  and  C10_17 
REMARK   10  A    between atoms: C10_17  and  C11_19 
ROOT
HETATM    1  N2  UNL     1      15.810 -12.932  21.410  1.00  0.00    -0.358 N 
ATOM      2  H2  UNL     1      15.422 -13.391  22.234  1.00  0.00     0.162 HD
HETATM    3  C8  UNL     1      17.055 -13.346  20.881  1.00  0.00     0.235 C 
HETATM    4  O1  UNL     1      17.505 -12.769  19.863  1.00  0.00    -0.272 OA
ENDROOT
BRANCH   3   5
HETATM    5  C9  UNL     1      17.757 -14.446  21.572  1.00  0.00     0.225 C 
BRANCH   5   6
HETATM    6  N3  UNL     1      18.740 -14.039  22.524  1.00  0.00    -0.352 N 
HETATM    7  C10 UNL     1      19.954 -14.732  22.760  1.00  0.00     0.223 C 
HETATM    8  O2  UNL     1      20.188 -15.762  22.099  1.00  0.00    -0.273 OA
ATOM      9  H3  UNL     1      18.557 -13.196  23.069  1.00  0.00     0.162 HD
BRANCH   7  10
HETATM   10  C11 UNL     1      20.939 -14.272  23.756  1.00  0.00     0.095 A 
HETATM   11  C12 UNL     1      20.644 -14.510  25.222  1.00  0.00    -0.027 A 
HETATM   12  C13 UNL     1      19.374 -15.258  25.508  1.00  0.00     0.016 C 
HETATM   13  C14 UNL     1      20.914 -13.393  26.207  1.00  0.00     0.016 C 
HETATM   14  C15 UNL     1      21.802 -15.163  24.528  1.00  0.00    -0.027 A 
HETATM   15  C16 UNL     1      21.812 -16.649  24.429  1.00  0.00     0.016 C 
HETATM   16  C17 UNL     1      23.164 -14.542  24.892  1.00  0.00     0.016 C 
ENDBRANCH   7  10
ENDBRANCH   5   6
ENDBRANCH   3   5
BRANCH   1  17
HETATM   17  C7  UNL     1      15.092 -11.852  20.768  1.00  0.00     0.152 C 
BRANCH  17  18
HETATM   18  C6  UNL     1      13.612 -12.033  20.804  1.00  0.00     0.292 C 
BRANCH  18  19
HETATM   19  N1  UNL     1      13.080 -12.142  22.173  1.00  0.00     0.090 N 
BRANCH  19  20
HETATM   20  C3  UNL     1      12.497 -10.871  22.567  1.00  0.00     0.272 C 
BRANCH  20  21
HETATM   21  C2  UNL     1      11.524 -11.041  23.695  1.00  0.00     0.026 C 
HETATM   22  C1  UNL     1      11.548  -9.796  24.588  1.00  0.00     0.007 C 
ENDBRANCH  20  21
ENDBRANCH  19  20
BRANCH  19  23
HETATM   23  C4  UNL     1      12.143 -13.220  22.261  1.00  0.00     0.283 C 
BRANCH  23  24
HETATM   24  C5  UNL     1      12.281 -14.228  21.141  1.00  0.00     0.115 C 
HETATM   25 BR1  UNL     1      13.323 -15.718  21.840  1.00  0.00    -0.095 Br
ENDBRANCH  23  24
ENDBRANCH  19  23
ENDBRANCH  18  19
ENDBRANCH  17  18
ENDBRANCH   1  17
TORSDOF 10
ENDMDL
MODEL 4
REMARK VINA RESULT: -6.988676030      1.434      1.864
REMARK  10 active torsions:
REMARK  status: ('A' for Active; 'I' for Inactive)
REMARK    1  A    between atoms: C2_2  and  C3_3 
REMARK    2  A    between atoms: C3_3  and  N1_4 
REMARK    3  A    between atoms: N1_4  and  C4_5 
REMARK    4  A    between atoms: N1_4  and  C6_8 
REMARK    5  A    between atoms: C4_5  and  C5_6 
REMARK    6  A    between atoms: C6_8  and  C7_9 
REMARK    7  A    between atoms: C7_9  and  N2_10 
REMARK       I    between atoms: N2_10  and  C8_12 
REMARK    8  A    between atoms: C8_12  and  C9_14 
REMARK    9  A    between atoms: C9_14  and  N3_15 
REMARK       I    between atoms: N3_15  and  C10_17 
REMARK   10  A    between atoms: C10_17  and  C11_19 
ROOT
HETATM    1  N2  UNL     1      15.929 -12.155  21.043  1.00  0.00    -0.358 N 
ATOM      2  H2  UNL     1      16.472 -11.643  20.347  1.00  0.00     0.162 HD
HETATM    3  C8  UNL     1      16.477 -13.291  21.682  1.00  0.00     0.235 C 
HETATM    4  O1  UNL     1      15.791 -13.899  22.537  1.00  0.00    -0.272 OA
ENDROOT
BRANCH   3   5
HETATM    5  C9  UNL     1      17.844 -13.698  21.294  1.00  0.00     0.225 C 
BRANCH   5   6
HETATM    6  N3  UNL     1      18.831 -13.567  22.316  1.00  0.00    -0.352 N 
HETATM    7  C10 UNL     1      19.883 -14.493  22.530  1.00  0.00     0.223 C 
HETATM    8  O2  UNL     1      19.960 -15.487  21.782  1.00  0.00    -0.273 OA
ATOM      9  H3  UNL     1      18.777 -12.756  22.933  1.00  0.00     0.162 HD
BRANCH   7  10
HETATM   10  C11 UNL     1      20.880 -14.315  23.602  1.00  0.00     0.095 A 
HETATM   11  C12 UNL     1      20.440 -14.528  25.035  1.00  0.00    -0.027 A 
HETATM   12  C13 UNL     1      19.014 -14.962  25.211  1.00  0.00     0.016 C 
HETATM   13  C14 UNL     1      20.898 -13.542  26.088  1.00  0.00     0.016 C 
HETATM   14  C15 UNL     1      21.457 -15.412  24.376  1.00  0.00    -0.027 A 
HETATM   15  C16 UNL     1      21.124 -16.853  24.203  1.00  0.00     0.016 C 
HETATM   16  C17 UNL     1      22.898 -15.144  24.847  1.00  0.00     0.016 C 
ENDBRANCH   7  10
ENDBRANCH   5   6
ENDBRANCH   3   5
BRANCH   1  17
HETATM   17  C7  UNL     1      14.591 -11.727  21.387  1.00  0.00     0.152 C 
BRANCH  17  18
HETATM   18  C6  UNL     1      13.558 -12.212  20.426  1.00  0.00     0.292 C 
BRANCH  18  19
HETATM   19  N1  UNL     1      12.554 -13.086  21.057  1.00  0.00     0.090 N 
BRANCH  19  20
HETATM   20  C3  UNL     1      12.789 -14.462  20.654  1.00  0.00     0.272 C 
BRANCH  20  21
HETATM   21  C2  UNL     1      13.637 -14.534  19.419  1.00  0.00     0.026 C 
HETATM   22  C1  UNL     1      14.624 -15.700  19.540  1.00  0.00     0.007 C 
ENDBRANCH  20  21
ENDBRANCH  19  20
BRANCH  19  23
HETATM   23  C4  UNL     1      12.574 -12.926  22.479  1.00  0.00     0.283 C 
BRANCH  23  24
HETATM   24  C5  UNL     1      11.249 -12.471  23.050  1.00  0.00     0.115 C 
HETATM   25 BR1  UNL     1      11.564 -10.761  23.930  1.00  0.00    -0.095 Br
ENDBRANCH  23  24
ENDBRANCH  19  23
ENDBRANCH  18  19
ENDBRANCH  17  18
ENDBRANCH   1  17
TORSDOF 10
ENDMDL
MODEL 5
REMARK VINA RESULT: -6.869896537      0.761      1.292
REMARK  10 active torsions:
REMARK  status: ('A' for Active; 'I' for Inactive)
REMARK    1  A    between atoms: C2_2  and  C3_3 
REMARK    2  A    between atoms: C3_3  and  N1_4 
REMARK    3  A    between atoms: N1_4  and  C4_5 
REMARK    4  A    between atoms: N1_4  and  C6_8 
REMARK    5  A    between atoms: C4_5  and  C5_6 
REMARK    6  A    between atoms: C6_8  and  C7_9 
REMARK    7  A    between atoms: C7_9  and  N2_10 
REMARK       I    between atoms: N2_10  and  C8_12 
REMARK    8  A    between atoms: C8_12  and  C9_14 
REMARK    9  A    between atoms: C9_14  and  N3_15 
REMARK       I    between atoms: N3_15  and  C10_17 
REMARK   10  A    between atoms: C10_17  and  C11_19 
ROOT
HETATM    1  N2  UNL     1      15.957 -13.121  21.379  1.00  0.00    -0.358 N 
ATOM      2  H2  UNL     1      15.658 -13.611  22.221  1.00  0.00     0.162 HD
HETATM    3  C8  UNL     1      17.184 -13.451  20.757  1.00  0.00     0.235 C 
HETATM    4  O1  UNL     1      17.525 -12.837  19.719  1.00  0.00    -0.272 OA
ENDROOT
BRANCH   3   5
HETATM    5  C9  UNL     1      17.999 -14.514  21.381  1.00  0.00     0.225 C 
BRANCH   5   6
HETATM    6  N3  UNL     1      18.938 -14.067  22.359  1.00  0.00    -0.352 N 
HETATM    7  C10 UNL     1      20.090 -14.796  22.747  1.00  0.00     0.223 C 
HETATM    8  O2  UNL     1      20.307 -15.898  22.205  1.00  0.00    -0.273 OA
ATOM      9  H3  UNL     1      18.769 -13.166  22.807  1.00  0.00     0.162 HD
BRANCH   7  10
HETATM   10  C11 UNL     1      21.031 -14.293  23.765  1.00  0.00     0.095 A 
HETATM   11  C12 UNL     1      20.692 -14.506  25.225  1.00  0.00    -0.027 A 
HETATM   12  C13 UNL     1      19.430 -15.276  25.486  1.00  0.00     0.016 C 
HETATM   13  C14 UNL     1      20.906 -13.362  26.193  1.00  0.00     0.016 C 
HETATM   14  C15 UNL     1      21.887 -15.148  24.584  1.00  0.00    -0.027 A 
HETATM   15  C16 UNL     1      21.932 -16.635  24.519  1.00  0.00     0.016 C 
HETATM   16  C17 UNL     1      23.222 -14.488  24.979  1.00  0.00     0.016 C 
ENDBRANCH   7  10
ENDBRANCH   5   6
ENDBRANCH   3   5
BRANCH   1  17
HETATM   17  C7  UNL     1      15.132 -12.080  20.806  1.00  0.00     0.152 C 
BRANCH  17  18
HETATM   18  C6  UNL     1      13.871 -12.601  20.203  1.00  0.00     0.292 C 
BRANCH  18  19
HETATM   19  N1  UNL     1      12.695 -12.392  21.063  1.00  0.00     0.090 N 
BRANCH  19  20
HETATM   20  C3  UNL     1      12.201 -13.677  21.527  1.00  0.00     0.272 C 
BRANCH  20  21
HETATM   21  C2  UNL     1      12.447 -14.756  20.516  1.00  0.00     0.026 C 
HETATM   22  C1  UNL     1      12.603 -16.104  21.228  1.00  0.00     0.007 C 
ENDBRANCH  20  21
ENDBRANCH  19  20
BRANCH  19  23
HETATM   23  C4  UNL     1      13.016 -11.512  22.145  1.00  0.00     0.283 C 
BRANCH  23  24
HETATM   24  C5  UNL     1      11.876 -10.595  22.531  1.00  0.00     0.115 C 
HETATM   25 BR1  UNL     1      11.283 -11.138  24.306  1.00  0.00    -0.095 Br
ENDBRANCH  23  24
ENDBRANCH  19  23
ENDBRANCH  18  19
ENDBRANCH  17  18
ENDBRANCH   1  17
TORSDOF 10
ENDMDL
