MODEL 1
REMARK VINA RESULT: -9.123362705      0.000      0.000
REMARK  12 active torsions:
REMARK  status: ('A' for Active; 'I' for Inactive)
REMARK       I    between atoms: C2_2  and  N1_4 
REMARK    1  A    between atoms: N1_4  and  C3_6 
REMARK    2  A    between atoms: C4_11  and  C5_12 
REMARK    3  A    between atoms: C5_12  and  C6_13 
REMARK    4  A    between atoms: C6_13  and  C7_14 
REMARK    5  A    between atoms: C7_14  and  C8_15 
REMARK    6  A    between atoms: C8_15  and  C9_16 
REMARK    7  A    between atoms: N6_22  and  C11_24 
REMARK    8  A    between atoms: C11_24  and  C13_26 
REMARK    9  A    between atoms: C13_26  and  C14_27 
REMARK   10  A    between atoms: C14_27  and  C15_28 
REMARK       I    between atoms: C15_28  and  N7_30 
REMARK   11  A    between atoms: N7_30  and  C17_32 
REMARK   12  A    between atoms: C17_32  and  C18_33 
ROOT
HETATM    1  C9  UNL     1       6.591   0.687  14.088  1.00  0.00     0.069 A 
HETATM    2  N4  UNL     1       5.891   0.433  15.189  1.00  0.00    -0.296 N 
ATOM      3  H4  UNL     1       6.073   0.961  16.043  1.00  0.00     0.187 HD
HETATM    4  N5  UNL     1       4.998  -0.465  15.179  1.00  0.00    -0.279 N 
ATOM      5  H5  UNL     1       4.459  -0.663  16.022  1.00  0.00     0.189 HD
HETATM    6  C10 UNL     1       4.767  -1.147  14.061  1.00  0.00     0.161 A 
HETATM    7  N6  UNL     1       3.886  -2.086  13.826  1.00  0.00    -0.365 N 
ATOM      8  H6  UNL     1       3.815  -2.532  12.912  1.00  0.00     0.162 HD
HETATM    9  S1  UNL     1       5.912  -0.435  12.993  1.00  0.00    -0.038 SA
ENDROOT
BRANCH   7  10
HETATM   10  C11 UNL     1       3.014  -2.464  14.920  1.00  0.00     0.080 C 
HETATM   11  C12 UNL     1       1.665  -1.744  14.785  1.00  0.00     0.032 C 
BRANCH  10  12
HETATM   12  C13 UNL     1       2.800  -3.952  14.899  1.00  0.00     0.034 C 
BRANCH  12  13
HETATM   13  C14 UNL     1       4.102  -4.676  14.900  1.00  0.00     0.105 C 
BRANCH  13  14
HETATM   14  C15 UNL     1       4.579  -5.055  16.232  1.00  0.00     0.219 C 
HETATM   15  O2  UNL     1       3.804  -5.211  17.200  1.00  0.00    -0.273 OA
HETATM   16  N7  UNL     1       5.958  -5.265  16.483  1.00  0.00    -0.356 N 
HETATM   17  C16 UNL     1       6.454  -5.602  17.803  1.00  0.00     0.152 C 
BRANCH  16  18
HETATM   18  C17 UNL     1       6.903  -5.162  15.394  1.00  0.00     0.130 C 
BRANCH  18  19
HETATM   19  C18 UNL     1       7.943  -4.102  15.595  1.00  0.00     0.004 C 
HETATM   20  C19 UNL     1       7.964  -3.080  14.487  1.00  0.00     0.006 C 
HETATM   21  C20 UNL     1       9.013  -2.034  14.790  1.00  0.00     0.000 C 
HETATM   22  C21 UNL     1      10.332  -2.584  15.206  1.00  0.00     0.000 C 
HETATM   23  C22 UNL     1      10.273  -3.755  16.138  1.00  0.00     0.000 C 
HETATM   24  C23 UNL     1       9.311  -4.780  15.577  1.00  0.00     0.006 C 
ENDBRANCH  18  19
ENDBRANCH  16  18
ENDBRANCH  13  14
ENDBRANCH  12  13
ENDBRANCH  10  12
ENDBRANCH   7  10
BRANCH   1  25
HETATM   25  C8  UNL     1       7.672   1.722  13.903  1.00  0.00     0.066 C 
BRANCH  25  26
HETATM   26  C7  UNL     1       8.184   1.603  12.489  1.00  0.00     0.007 C 
BRANCH  26  27
HETATM   27  C6  UNL     1       7.547   2.633  11.581  1.00  0.00     0.007 C 
BRANCH  27  28
HETATM   28  C5  UNL     1       7.046   2.018  10.302  1.00  0.00     0.066 C 
BRANCH  28  29
HETATM   29  C4  UNL     1       5.674   2.520  10.018  1.00  0.00     0.069 A 
HETATM   30  N3  UNL     1       5.172   2.902   8.853  1.00  0.00    -0.296 N 
HETATM   31  N2  UNL     1       3.980   3.328   8.768  1.00  0.00    -0.279 N 
ATOM     32  H3  UNL     1       5.751   2.853   8.015  1.00  0.00     0.187 HD
HETATM   33  C3  UNL     1       3.240   3.383   9.881  1.00  0.00     0.167 A 
ATOM     34  H2  UNL     1       3.594   3.621   7.870  1.00  0.00     0.189 HD
HETATM   35  S2  UNL     1       4.332   2.797  11.052  1.00  0.00    -0.038 SA
BRANCH  33  36
HETATM   36  N1  UNL     1       2.002   3.801  10.002  1.00  0.00    -0.306 N 
HETATM   37  C2  UNL     1       1.030   2.958  10.610  1.00  0.00     0.219 C 
HETATM   38  C1  UNL     1       0.471   1.779   9.910  1.00  0.00     0.117 C 
HETATM   39  O1  UNL     1       0.652   3.243  11.774  1.00  0.00    -0.274 OA
ATOM     40  H1  UNL     1       1.739   4.725   9.662  1.00  0.00     0.171 HD
ENDBRANCH  33  36
ENDBRANCH  28  29
ENDBRANCH  27  28
ENDBRANCH  26  27
ENDBRANCH  25  26
ENDBRANCH   1  25
TORSDOF 12
ENDMDL
MODEL 2
REMARK VINA RESULT: -9.082216364      2.905      8.701
REMARK  12 active torsions:
REMARK  status: ('A' for Active; 'I' for Inactive)
REMARK       I    between atoms: C2_2  and  N1_4 
REMARK    1  A    between atoms: N1_4  and  C3_6 
REMARK    2  A    between atoms: C4_11  and  C5_12 
REMARK    3  A    between atoms: C5_12  and  C6_13 
REMARK    4  A    between atoms: C6_13  and  C7_14 
REMARK    5  A    between atoms: C7_14  and  C8_15 
REMARK    6  A    between atoms: C8_15  and  C9_16 
REMARK    7  A    between atoms: N6_22  and  C11_24 
REMARK    8  A    between atoms: C11_24  and  C13_26 
REMARK    9  A    between atoms: C13_26  and  C14_27 
REMARK   10  A    between atoms: C14_27  and  C15_28 
REMARK       I    between atoms: C15_28  and  N7_30 
REMARK   11  A    between atoms: N7_30  and  C17_32 
REMARK   12  A    between atoms: C17_32  and  C18_33 
ROOT
HETATM    1  C9  UNL     1       3.746  -2.423  13.615  1.00  0.00     0.069 A 
HETATM    2  N4  UNL     1       3.966  -2.147  12.334  1.00  0.00    -0.296 N 
ATOM      3  H4  UNL     1       3.962  -2.896  11.642  1.00  0.00     0.187 HD
HETATM    4  N5  UNL     1       4.180  -0.952  11.971  1.00  0.00    -0.279 N 
ATOM      5  H5  UNL     1       4.349  -0.736  10.989  1.00  0.00     0.189 HD
HETATM    6  C10 UNL     1       4.181   0.018  12.880  1.00  0.00     0.161 A 
HETATM    7  N6  UNL     1       4.352   1.306  12.722  1.00  0.00    -0.365 N 
ATOM      8  H6  UNL     1       4.331   1.947  13.515  1.00  0.00     0.162 HD
HETATM    9  S1  UNL     1       3.857  -0.870  14.317  1.00  0.00    -0.038 SA
ENDROOT
BRANCH   7  10
HETATM   10  C11 UNL     1       4.574   1.783  11.372  1.00  0.00     0.080 C 
HETATM   11  C12 UNL     1       3.432   2.722  10.956  1.00  0.00     0.032 C 
BRANCH  10  12
HETATM   12  C13 UNL     1       5.884   2.518  11.309  1.00  0.00     0.034 C 
BRANCH  12  13
HETATM   13  C14 UNL     1       6.861   1.946  12.276  1.00  0.00     0.105 C 
BRANCH  13  14
HETATM   14  C15 UNL     1       7.975   1.228  11.651  1.00  0.00     0.219 C 
HETATM   15  O2  UNL     1       8.473   1.584  10.561  1.00  0.00    -0.273 OA
HETATM   16  N7  UNL     1       8.545   0.085  12.266  1.00  0.00    -0.356 N 
HETATM   17  C16 UNL     1       9.621  -0.662  11.646  1.00  0.00     0.152 C 
BRANCH  16  18
HETATM   18  C17 UNL     1       8.059  -0.344  13.558  1.00  0.00     0.130 C 
BRANCH  18  19
HETATM   19  C18 UNL     1       8.461  -1.742  13.920  1.00  0.00     0.004 C 
HETATM   20  C19 UNL     1       7.283  -2.643  14.189  1.00  0.00     0.006 C 
HETATM   21  C20 UNL     1       7.779  -4.034  14.509  1.00  0.00     0.000 C 
HETATM   22  C21 UNL     1       8.888  -4.083  15.502  1.00  0.00     0.000 C 
HETATM   23  C22 UNL     1       9.935  -3.023  15.346  1.00  0.00     0.000 C 
HETATM   24  C23 UNL     1       9.256  -1.677  15.223  1.00  0.00     0.006 C 
ENDBRANCH  18  19
ENDBRANCH  16  18
ENDBRANCH  13  14
ENDBRANCH  12  13
ENDBRANCH  10  12
ENDBRANCH   7  10
BRANCH   1  25
HETATM   25  C8  UNL     1       3.456  -3.769  14.229  1.00  0.00     0.066 C 
BRANCH  25  26
HETATM   26  C7  UNL     1       2.392  -3.575  15.281  1.00  0.00     0.007 C 
BRANCH  26  27
HETATM   27  C6  UNL     1       2.891  -3.972  16.654  1.00  0.00     0.007 C 
BRANCH  27  28
HETATM   28  C5  UNL     1       3.209  -5.441  16.730  1.00  0.00     0.066 C 
BRANCH  28  29
HETATM   29  C4  UNL     1       4.552  -5.623  17.347  1.00  0.00     0.069 A 
HETATM   30  N3  UNL     1       5.511  -4.720  17.486  1.00  0.00    -0.296 N 
HETATM   31  N2  UNL     1       6.619  -5.029  18.023  1.00  0.00    -0.279 N 
ATOM     32  H3  UNL     1       5.358  -3.767  17.159  1.00  0.00     0.187 HD
HETATM   33  C3  UNL     1       6.797  -6.286  18.445  1.00  0.00     0.167 A 
ATOM     34  H2  UNL     1       7.358  -4.333  18.130  1.00  0.00     0.189 HD
HETATM   35  S2  UNL     1       5.305  -7.003  18.037  1.00  0.00    -0.038 SA
BRANCH  33  36
HETATM   36  N1  UNL     1       7.865  -6.800  19.007  1.00  0.00    -0.306 N 
HETATM   37  C2  UNL     1       9.145  -6.574  18.427  1.00  0.00     0.219 C 
HETATM   38  C1  UNL     1       9.573  -7.263  17.188  1.00  0.00     0.117 C 
HETATM   39  O1  UNL     1       9.914  -5.763  19.001  1.00  0.00    -0.274 OA
ATOM     40  H1  UNL     1       7.778  -7.358  19.856  1.00  0.00     0.171 HD
ENDBRANCH  33  36
ENDBRANCH  28  29
ENDBRANCH  27  28
ENDBRANCH  26  27
ENDBRANCH  25  26
ENDBRANCH   1  25
TORSDOF 12
ENDMDL
MODEL 3
REMARK VINA RESULT: -8.976262173      3.085      9.563
REMARK  12 active torsions:
REMARK  status: ('A' for Active; 'I' for Inactive)
REMARK       I    between atoms: C2_2  and  N1_4 
REMARK    1  A    between atoms: N1_4  and  C3_6 
REMARK    2  A    between atoms: C4_11  and  C5_12 
REMARK    3  A    between atoms: C5_12  and  C6_13 
REMARK    4  A    between atoms: C6_13  and  C7_14 
REMARK    5  A    between atoms: C7_14  and  C8_15 
REMARK    6  A    between atoms: C8_15  and  C9_16 
REMARK    7  A    between atoms: N6_22  and  C11_24 
REMARK    8  A    between atoms: C11_24  and  C13_26 
REMARK    9  A    between atoms: C13_26  and  C14_27 
REMARK   10  A    between atoms: C14_27  and  C15_28 
REMARK       I    between atoms: C15_28  and  N7_30 
REMARK   11  A    between atoms: N7_30  and  C17_32 
REMARK   12  A    between atoms: C17_32  and  C18_33 
ROOT
HETATM    1  C9  UNL     1       3.646  -2.214  14.637  1.00  0.00     0.069 A 
HETATM    2  N4  UNL     1       4.454  -1.288  15.145  1.00  0.00    -0.296 N 
ATOM      3  H4  UNL     1       4.103  -0.629  15.840  1.00  0.00     0.187 HD
HETATM    4  N5  UNL     1       5.661  -1.223  14.766  1.00  0.00    -0.279 N 
ATOM      5  H5  UNL     1       6.284  -0.514  15.153  1.00  0.00     0.189 HD
HETATM    6  C10 UNL     1       6.110  -2.087  13.860  1.00  0.00     0.161 A 
HETATM    7  N6  UNL     1       7.311  -2.213  13.354  1.00  0.00    -0.365 N 
ATOM      8  H6  UNL     1       7.522  -2.927  12.656  1.00  0.00     0.162 HD
HETATM    9  S1  UNL     1       4.698  -3.022  13.561  1.00  0.00    -0.038 SA
ENDROOT
BRANCH   7  10
HETATM   10  C11 UNL     1       8.327  -1.295  13.827  1.00  0.00     0.080 C 
HETATM   11  C12 UNL     1       9.211  -1.990  14.873  1.00  0.00     0.032 C 
BRANCH  10  12
HETATM   12  C13 UNL     1       9.172  -0.842  12.668  1.00  0.00     0.034 C 
BRANCH  12  13
HETATM   13  C14 UNL     1       8.867   0.571  12.308  1.00  0.00     0.105 C 
BRANCH  13  14
HETATM   14  C15 UNL     1       8.457   0.761  10.915  1.00  0.00     0.219 C 
HETATM   15  O2  UNL     1       9.276   0.755   9.970  1.00  0.00    -0.273 OA
HETATM   16  N7  UNL     1       7.097   0.961  10.574  1.00  0.00    -0.356 N 
HETATM   17  C16 UNL     1       6.676   1.190   9.205  1.00  0.00     0.152 C 
BRANCH  16  18
HETATM   18  C17 UNL     1       6.089   0.918  11.610  1.00  0.00     0.130 C 
BRANCH  18  19
HETATM   19  C18 UNL     1       4.704   1.209  11.118  1.00  0.00     0.004 C 
HETATM   20  C19 UNL     1       4.234   2.598  11.470  1.00  0.00     0.006 C 
HETATM   21  C20 UNL     1       2.849   2.815  10.905  1.00  0.00     0.000 C 
HETATM   22  C21 UNL     1       1.891   1.706  11.170  1.00  0.00     0.000 C 
HETATM   23  C22 UNL     1       2.455   0.326  11.032  1.00  0.00     0.000 C 
HETATM   24  C23 UNL     1       3.748   0.244  11.815  1.00  0.00     0.006 C 
ENDBRANCH  18  19
ENDBRANCH  16  18
ENDBRANCH  13  14
ENDBRANCH  12  13
ENDBRANCH  10  12
ENDBRANCH   7  10
BRANCH   1  25
HETATM   25  C8  UNL     1       2.197  -2.457  14.977  1.00  0.00     0.066 C 
BRANCH  25  26
HETATM   26  C7  UNL     1       2.062  -3.896  15.411  1.00  0.00     0.007 C 
BRANCH  26  27
HETATM   27  C6  UNL     1       2.811  -4.157  16.700  1.00  0.00     0.007 C 
BRANCH  27  28
HETATM   28  C5  UNL     1       3.178  -5.609  16.850  1.00  0.00     0.066 C 
BRANCH  28  29
HETATM   29  C4  UNL     1       4.553  -5.714  17.410  1.00  0.00     0.069 A 
HETATM   30  N3  UNL     1       5.481  -4.771  17.472  1.00  0.00    -0.296 N 
HETATM   31  N2  UNL     1       6.623  -5.015  17.967  1.00  0.00    -0.279 N 
ATOM     32  H3  UNL     1       5.274  -3.837  17.117  1.00  0.00     0.187 HD
HETATM   33  C3  UNL     1       6.871  -6.247  18.426  1.00  0.00     0.167 A 
ATOM     34  H2  UNL     1       7.337  -4.287  18.015  1.00  0.00     0.189 HD
HETATM   35  S2  UNL     1       5.392  -7.036  18.115  1.00  0.00    -0.038 SA
BRANCH  33  36
HETATM   36  N1  UNL     1       7.983  -6.697  18.957  1.00  0.00    -0.306 N 
HETATM   37  C2  UNL     1       9.230  -6.398  18.340  1.00  0.00     0.219 C 
HETATM   38  C1  UNL     1       9.661  -7.061  17.089  1.00  0.00     0.117 C 
HETATM   39  O1  UNL     1       9.967  -5.542  18.892  1.00  0.00    -0.274 OA
ATOM     40  H1  UNL     1       7.953  -7.258  19.808  1.00  0.00     0.171 HD
ENDBRANCH  33  36
ENDBRANCH  28  29
ENDBRANCH  27  28
ENDBRANCH  26  27
ENDBRANCH  25  26
ENDBRANCH   1  25
TORSDOF 12
ENDMDL
MODEL 4
REMARK VINA RESULT: -8.947792001      1.081      1.114
REMARK  12 active torsions:
REMARK  status: ('A' for Active; 'I' for Inactive)
REMARK       I    between atoms: C2_2  and  N1_4 
REMARK    1  A    between atoms: N1_4  and  C3_6 
REMARK    2  A    between atoms: C4_11  and  C5_12 
REMARK    3  A    between atoms: C5_12  and  C6_13 
REMARK    4  A    between atoms: C6_13  and  C7_14 
REMARK    5  A    between atoms: C7_14  and  C8_15 
REMARK    6  A    between atoms: C8_15  and  C9_16 
REMARK    7  A    between atoms: N6_22  and  C11_24 
REMARK    8  A    between atoms: C11_24  and  C13_26 
REMARK    9  A    between atoms: C13_26  and  C14_27 
REMARK   10  A    between atoms: C14_27  and  C15_28 
REMARK       I    between atoms: C15_28  and  N7_30 
REMARK   11  A    between atoms: N7_30  and  C17_32 
REMARK   12  A    between atoms: C17_32  and  C18_33 
ROOT
HETATM    1  C9  UNL     1       6.161   0.093  14.326  1.00  0.00     0.069 A 
HETATM    2  N4  UNL     1       5.484  -0.127  15.448  1.00  0.00    -0.296 N 
ATOM      3  H4  UNL     1       5.578   0.517  16.235  1.00  0.00     0.187 HD
HETATM    4  N5  UNL     1       4.723  -1.135  15.543  1.00  0.00    -0.279 N 
ATOM      5  H5  UNL     1       4.203  -1.307  16.403  1.00  0.00     0.189 HD
HETATM    6  C10 UNL     1       4.607  -1.967  14.512  1.00  0.00     0.161 A 
HETATM    7  N6  UNL     1       3.867  -3.040  14.388  1.00  0.00    -0.365 N 
ATOM      8  H6  UNL     1       3.874  -3.594  13.532  1.00  0.00     0.162 HD
HETATM    9  S1  UNL     1       5.661  -1.231  13.369  1.00  0.00    -0.038 SA
ENDROOT
BRANCH   7  10
HETATM   10  C11 UNL     1       3.038  -3.406  15.518  1.00  0.00     0.080 C 
HETATM   11  C12 UNL     1       1.565  -3.110  15.202  1.00  0.00     0.032 C 
BRANCH  10  12
HETATM   12  C13 UNL     1       3.211  -4.870  15.813  1.00  0.00     0.034 C 
BRANCH  12  13
HETATM   13  C14 UNL     1       4.650  -5.251  15.785  1.00  0.00     0.105 C 
BRANCH  13  14
HETATM   14  C15 UNL     1       5.223  -5.531  17.104  1.00  0.00     0.219 C 
HETATM   15  O2  UNL     1       4.518  -5.642  18.130  1.00  0.00    -0.273 OA
HETATM   16  N7  UNL     1       6.621  -5.690  17.275  1.00  0.00    -0.356 N 
HETATM   17  C16 UNL     1       7.212  -5.929  18.577  1.00  0.00     0.152 C 
BRANCH  16  18
HETATM   18  C17 UNL     1       7.490  -5.636  16.120  1.00  0.00     0.130 C 
BRANCH  18  19
HETATM   19  C18 UNL     1       8.333  -4.399  16.057  1.00  0.00     0.004 C 
HETATM   20  C19 UNL     1       8.110  -3.597  14.800  1.00  0.00     0.006 C 
HETATM   21  C20 UNL     1       8.970  -2.355  14.839  1.00  0.00     0.000 C 
HETATM   22  C21 UNL     1      10.388  -2.596  15.225  1.00  0.00     0.000 C 
HETATM   23  C22 UNL     1      10.591  -3.580  16.336  1.00  0.00     0.000 C 
HETATM   24  C23 UNL     1       9.798  -4.832  16.033  1.00  0.00     0.006 C 
ENDBRANCH  18  19
ENDBRANCH  16  18
ENDBRANCH  13  14
ENDBRANCH  12  13
ENDBRANCH  10  12
ENDBRANCH   7  10
BRANCH   1  25
HETATM   25  C8  UNL     1       7.092   1.239  14.021  1.00  0.00     0.066 C 
BRANCH  25  26
HETATM   26  C7  UNL     1       8.037   0.788  12.935  1.00  0.00     0.007 C 
BRANCH  26  27
HETATM   27  C6  UNL     1       7.951   1.684  11.719  1.00  0.00     0.007 C 
BRANCH  27  28
HETATM   28  C5  UNL     1       7.150   1.051  10.613  1.00  0.00     0.066 C 
BRANCH  28  29
HETATM   29  C4  UNL     1       5.761   1.587  10.642  1.00  0.00     0.069 A 
HETATM   30  N3  UNL     1       4.626   0.905  10.648  1.00  0.00    -0.296 N 
HETATM   31  N2  UNL     1       3.508   1.505  10.657  1.00  0.00    -0.279 N 
ATOM     32  H3  UNL     1       4.651  -0.115  10.645  1.00  0.00     0.187 HD
HETATM   33  C3  UNL     1       3.501   2.843  10.659  1.00  0.00     0.167 A 
ATOM     34  H2  UNL     1       2.634   0.979  10.661  1.00  0.00     0.189 HD
HETATM   35  S2  UNL     1       5.169   3.198  10.649  1.00  0.00    -0.038 SA
BRANCH  33  36
HETATM   36  N1  UNL     1       2.459   3.640  10.655  1.00  0.00    -0.306 N 
HETATM   37  C2  UNL     1       1.149   3.088  10.726  1.00  0.00     0.219 C 
HETATM   38  C1  UNL     1       0.525   2.407   9.570  1.00  0.00     0.117 C 
HETATM   39  O1  UNL     1       0.527   3.193  11.813  1.00  0.00    -0.274 OA
ATOM     40  H1  UNL     1       2.587   4.650  10.600  1.00  0.00     0.171 HD
ENDBRANCH  33  36
ENDBRANCH  28  29
ENDBRANCH  27  28
ENDBRANCH  26  27
ENDBRANCH  25  26
ENDBRANCH   1  25
TORSDOF 12
ENDMDL
MODEL 5
REMARK VINA RESULT: -8.909299842      3.174      5.317
REMARK  12 active torsions:
REMARK  status: ('A' for Active; 'I' for Inactive)
REMARK       I    between atoms: C2_2  and  N1_4 
REMARK    1  A    between atoms: N1_4  and  C3_6 
REMARK    2  A    between atoms: C4_11  and  C5_12 
REMARK    3  A    between atoms: C5_12  and  C6_13 
REMARK    4  A    between atoms: C6_13  and  C7_14 
REMARK    5  A    between atoms: C7_14  and  C8_15 
REMARK    6  A    between atoms: C8_15  and  C9_16 
REMARK    7  A    between atoms: N6_22  and  C11_24 
REMARK    8  A    between atoms: C11_24  and  C13_26 
REMARK    9  A    between atoms: C13_26  and  C14_27 
REMARK   10  A    between atoms: C14_27  and  C15_28 
REMARK       I    between atoms: C15_28  and  N7_30 
REMARK   11  A    between atoms: N7_30  and  C17_32 
REMARK   12  A    between atoms: C17_32  and  C18_33 
ROOT
HETATM    1  C9  UNL     1       2.583  -3.141  15.926  1.00  0.00     0.069 A 
HETATM    2  N4  UNL     1       3.224  -2.889  17.063  1.00  0.00    -0.296 N 
ATOM      3  H4  UNL     1       3.422  -1.926  17.335  1.00  0.00     0.187 HD
HETATM    4  N5  UNL     1       3.588  -3.845  17.810  1.00  0.00    -0.279 N 
ATOM      5  H5  UNL     1       4.081  -3.656  18.683  1.00  0.00     0.189 HD
HETATM    6  C10 UNL     1       3.324  -5.097  17.448  1.00  0.00     0.161 A 
HETATM    7  N6  UNL     1       3.584  -6.217  18.074  1.00  0.00    -0.365 N 
ATOM      8  H6  UNL     1       3.324  -7.121  17.678  1.00  0.00     0.162 HD
HETATM    9  S1  UNL     1       2.511  -4.848  15.952  1.00  0.00    -0.038 SA
ENDROOT
BRANCH   7  10
HETATM   10  C11 UNL     1       4.256  -6.119  19.354  1.00  0.00     0.080 C 
HETATM   11  C12 UNL     1       3.324  -6.609  20.472  1.00  0.00     0.032 C 
BRANCH  10  12
HETATM   12  C13 UNL     1       5.504  -6.956  19.329  1.00  0.00     0.034 C 
BRANCH  12  13
HETATM   13  C14 UNL     1       6.661  -6.171  18.814  1.00  0.00     0.105 C 
BRANCH  13  14
HETATM   14  C15 UNL     1       7.357  -6.795  17.687  1.00  0.00     0.219 C 
HETATM   15  O2  UNL     1       7.281  -8.021  17.450  1.00  0.00    -0.273 OA
HETATM   16  N7  UNL     1       8.155  -6.027  16.804  1.00  0.00    -0.356 N 
HETATM   17  C16 UNL     1       8.883  -6.632  15.705  1.00  0.00     0.152 C 
BRANCH  16  18
HETATM   18  C17 UNL     1       8.237  -4.595  16.982  1.00  0.00     0.130 C 
BRANCH  18  19
HETATM   19  C18 UNL     1       8.673  -3.857  15.753  1.00  0.00     0.004 C 
HETATM   20  C19 UNL     1       9.937  -3.062  15.961  1.00  0.00     0.006 C 
HETATM   21  C20 UNL     1      10.321  -2.384  14.666  1.00  0.00     0.000 C 
HETATM   22  C21 UNL     1       9.203  -1.678  13.982  1.00  0.00     0.000 C 
HETATM   23  C22 UNL     1       7.890  -2.399  13.990  1.00  0.00     0.000 C 
HETATM   24  C23 UNL     1       7.584  -2.844  15.404  1.00  0.00     0.006 C 
ENDBRANCH  18  19
ENDBRANCH  16  18
ENDBRANCH  13  14
ENDBRANCH  12  13
ENDBRANCH  10  12
ENDBRANCH   7  10
BRANCH   1  25
HETATM   25  C8  UNL     1       2.058  -2.143  14.925  1.00  0.00     0.066 C 
BRANCH  25  26
HETATM   26  C7  UNL     1       3.193  -1.780  13.999  1.00  0.00     0.007 C 
BRANCH  26  27
HETATM   27  C6  UNL     1       3.499  -0.298  14.053  1.00  0.00     0.007 C 
BRANCH  27  28
HETATM   28  C5  UNL     1       4.707  -0.007  14.902  1.00  0.00     0.066 C 
BRANCH  28  29
HETATM   29  C4  UNL     1       5.788   0.551  14.045  1.00  0.00     0.069 A 
HETATM   30  N3  UNL     1       6.825   1.286  14.418  1.00  0.00    -0.296 N 
HETATM   31  N2  UNL     1       7.663   1.708  13.564  1.00  0.00    -0.279 N 
ATOM     32  H3  UNL     1       6.951   1.515  15.404  1.00  0.00     0.187 HD
HETATM   33  C3  UNL     1       7.476   1.394  12.277  1.00  0.00     0.167 A 
ATOM     34  H2  UNL     1       8.462   2.273  13.852  1.00  0.00     0.189 HD
HETATM   35  S2  UNL     1       6.046   0.469  12.349  1.00  0.00    -0.038 SA
BRANCH  33  36
HETATM   36  N1  UNL     1       8.216   1.742  11.251  1.00  0.00    -0.306 N 
HETATM   37  C2  UNL     1       8.578   0.767  10.280  1.00  0.00     0.219 C 
HETATM   38  C1  UNL     1       9.600  -0.267  10.555  1.00  0.00     0.117 C 
HETATM   39  O1  UNL     1       7.998   0.806   9.165  1.00  0.00    -0.274 OA
ATOM     40  H1  UNL     1       8.530   2.707  11.150  1.00  0.00     0.171 HD
ENDBRANCH  33  36
ENDBRANCH  28  29
ENDBRANCH  27  28
ENDBRANCH  26  27
ENDBRANCH  25  26
ENDBRANCH   1  25
TORSDOF 12
ENDMDL
