MODEL 1
REMARK VINA RESULT: -8.494819610      0.000      0.000
REMARK  16 active torsions:
REMARK  status: ('A' for Active; 'I' for Inactive)
REMARK    1  A    between atoms: C2_2  and  C3_3 
REMARK    2  A    between atoms: C3_3  and  C4_4 
REMARK    3  A    between atoms: C4_4  and  C5_5 
REMARK    4  A    between atoms: C5_5  and  C6_6 
REMARK    5  A    between atoms: C7_7  and  C9_9 
REMARK    6  A    between atoms: C10_10  and  C11_11 
REMARK    7  A    between atoms: C15_16  and  O2_17 
REMARK    8  A    between atoms: C16_19  and  C17_20 
REMARK    9  A    between atoms: C17_20  and  O3_21 
REMARK   10  A    between atoms: C24_29  and  C25_30 
REMARK   11  A    between atoms: C26_31  and  C27_32 
REMARK   12  A    between atoms: C27_32  and  C28_33 
REMARK   13  A    between atoms: C28_33  and  C29_34 
REMARK       I    between atoms: C29_34  and  N1_36 
REMARK   14  A    between atoms: N1_36  and  C30_38 
REMARK   15  A    between atoms: C30_38  and  C31_39 
REMARK   16  A    between atoms: C31_39  and  O5_40 
ROOT
HETATM    1  C4  UNL     1      14.876  22.313   8.074  1.00  0.00    -0.037 C 
HETATM    2  C18 UNL     1      14.681  21.580   6.782  1.00  0.00     0.010 C 
HETATM    3  C19 UNL     1      13.331  21.819   6.167  1.00  0.00     0.011 C 
HETATM    4  C20 UNL     1      12.914  23.224   5.994  1.00  0.00    -0.033 C 
HETATM    5  C21 UNL     1      13.139  23.808   4.599  1.00  0.00     0.010 C 
HETATM    6  C22 UNL     1      11.767  23.278   4.229  1.00  0.00     0.002 C 
HETATM    7  C23 UNL     1      11.429  23.363   5.711  1.00  0.00     0.010 C 
HETATM    8  C24 UNL     1      13.428  24.110   7.083  1.00  0.00     0.017 C 
HETATM    9  C32 UNL     1      13.735  23.286   8.281  1.00  0.00     0.019 C 
ENDROOT
BRANCH   1  10
HETATM   10  C3  UNL     1      15.203  21.540   9.273  1.00  0.00     0.009 C 
BRANCH  10  11
HETATM   11  C2  UNL     1      15.542  20.129   9.296  1.00  0.00    -0.004 C 
HETATM   12  C1  UNL     1      16.610  19.683  10.258  1.00  0.00     0.005 C 
ENDBRANCH  10  11
ENDBRANCH   1  10
BRANCH   1  13
HETATM   13  C5  UNL     1      16.103  23.239   7.852  1.00  0.00     0.037 C 
BRANCH  13  14
HETATM   14  C6  UNL     1      17.239  22.903   8.675  1.00  0.00    -0.019 C 
HETATM   15  C7  UNL     1      18.241  22.171   8.254  1.00  0.00    -0.066 C 
HETATM   16  C8  UNL     1      19.377  21.890   9.220  1.00  0.00     0.048 C 
BRANCH  15  17
HETATM   17  C9  UNL     1      18.399  21.580   6.945  1.00  0.00     0.003 C 
HETATM   18  C10 UNL     1      18.074  20.332   6.702  1.00  0.00    -0.021 C 
BRANCH  18  19
HETATM   19  C11 UNL     1      18.242  19.737   5.351  1.00  0.00     0.023 C 
HETATM   20  C12 UNL     1      16.899  19.441   4.715  1.00  0.00     0.087 C 
HETATM   21  C13 UNL     1      17.120  18.902   3.362  1.00  0.00     0.130 C 
HETATM   22  O1  UNL     1      16.397  19.218   2.450  1.00  0.00    -0.298 OA
HETATM   23  C14 UNL     1      18.238  17.965   3.116  1.00  0.00     0.110 C 
HETATM   24  C15 UNL     1      18.678  17.425   4.463  1.00  0.00     0.132 C 
HETATM   25  C16 UNL     1      19.113  18.505   5.396  1.00  0.00     0.046 C 
BRANCH  24  26
HETATM   26  O2  UNL     1      19.797  16.611   4.209  1.00  0.00    -0.395 OA
ATOM     27  H2  UNL     1      19.872  16.027   4.955  1.00  0.00     0.210 HD
ENDBRANCH  24  26
BRANCH  25  28
HETATM   28  C17 UNL     1      19.112  17.983   6.814  1.00  0.00     0.172 C 
BRANCH  28  29
HETATM   29  O3  UNL     1      20.339  17.487   7.209  1.00  0.00    -0.400 OA
ATOM     30  H3  UNL     1      20.269  16.791   7.851  1.00  0.00     0.209 HD
ENDBRANCH  28  29
ENDBRANCH  25  28
ENDBRANCH  18  19
ENDBRANCH  15  17
ENDBRANCH  13  14
ENDBRANCH   1  13
BRANCH   8  31
HETATM   31  C25 UNL     1      12.443  25.190   7.413  1.00  0.00    -0.025 C 
HETATM   32  C26 UNL     1      12.164  25.653   8.596  1.00  0.00    -0.030 C 
BRANCH  32  33
HETATM   33  C27 UNL     1      11.146  26.744   8.755  1.00  0.00     0.036 C 
BRANCH  33  34
HETATM   34  C28 UNL     1       9.757  26.260   8.492  1.00  0.00     0.106 C 
BRANCH  34  35
HETATM   35  C29 UNL     1       9.133  27.183   7.465  1.00  0.00     0.217 C 
HETATM   36  O4  UNL     1       9.525  28.372   7.439  1.00  0.00    -0.274 OA
HETATM   37  N1  UNL     1       8.160  26.625   6.625  1.00  0.00    -0.359 N 
ATOM     38  H1  UNL     1       7.931  25.641   6.768  1.00  0.00     0.162 HD
BRANCH  37  39
HETATM   39  C30 UNL     1       7.463  27.309   5.587  1.00  0.00     0.148 C 
BRANCH  39  40
HETATM   40  C31 UNL     1       8.238  27.517   4.331  1.00  0.00     0.183 C 
BRANCH  40  41
HETATM   41  O5  UNL     1       9.166  28.527   4.333  1.00  0.00    -0.399 OA
ATOM     42  H5  UNL     1       9.848  28.487   3.673  1.00  0.00     0.209 HD
ENDBRANCH  40  41
ENDBRANCH  39  40
ENDBRANCH  37  39
ENDBRANCH  34  35
ENDBRANCH  33  34
ENDBRANCH  32  33
ENDBRANCH   8  31
TORSDOF 16
ENDMDL
MODEL 2
REMARK VINA RESULT: -8.405544841      1.675      4.018
REMARK  16 active torsions:
REMARK  status: ('A' for Active; 'I' for Inactive)
REMARK    1  A    between atoms: C2_2  and  C3_3 
REMARK    2  A    between atoms: C3_3  and  C4_4 
REMARK    3  A    between atoms: C4_4  and  C5_5 
REMARK    4  A    between atoms: C5_5  and  C6_6 
REMARK    5  A    between atoms: C7_7  and  C9_9 
REMARK    6  A    between atoms: C10_10  and  C11_11 
REMARK    7  A    between atoms: C15_16  and  O2_17 
REMARK    8  A    between atoms: C16_19  and  C17_20 
REMARK    9  A    between atoms: C17_20  and  O3_21 
REMARK   10  A    between atoms: C24_29  and  C25_30 
REMARK   11  A    between atoms: C26_31  and  C27_32 
REMARK   12  A    between atoms: C27_32  and  C28_33 
REMARK   13  A    between atoms: C28_33  and  C29_34 
REMARK       I    between atoms: C29_34  and  N1_36 
REMARK   14  A    between atoms: N1_36  and  C30_38 
REMARK   15  A    between atoms: C30_38  and  C31_39 
REMARK   16  A    between atoms: C31_39  and  O5_40 
ROOT
HETATM    1  C4  UNL     1      14.042  23.444   6.782  1.00  0.00    -0.037 C 
HETATM    2  C18 UNL     1      13.411  23.815   8.090  1.00  0.00     0.010 C 
HETATM    3  C19 UNL     1      12.474  24.984   7.981  1.00  0.00     0.011 C 
HETATM    4  C20 UNL     1      11.427  24.908   6.944  1.00  0.00    -0.033 C 
HETATM    5  C21 UNL     1      10.054  24.444   7.431  1.00  0.00     0.010 C 
HETATM    6  C22 UNL     1       9.746  25.897   7.739  1.00  0.00     0.002 C 
HETATM    7  C23 UNL     1      10.774  26.251   6.672  1.00  0.00     0.010 C 
HETATM    8  C24 UNL     1      11.885  24.176   5.723  1.00  0.00     0.017 C 
HETATM    9  C32 UNL     1      13.369  24.209   5.661  1.00  0.00     0.019 C 
ENDROOT
BRANCH   1  10
HETATM   10  C3  UNL     1      15.502  23.441   6.687  1.00  0.00     0.009 C 
BRANCH  10  11
HETATM   11  C2  UNL     1      16.418  23.451   7.813  1.00  0.00    -0.004 C 
HETATM   12  C1  UNL     1      17.042  22.144   8.218  1.00  0.00     0.005 C 
ENDBRANCH  10  11
ENDBRANCH   1  10
BRANCH   1  13
HETATM   13  C5  UNL     1      13.623  21.973   6.515  1.00  0.00     0.037 C 
BRANCH  13  14
HETATM   14  C6  UNL     1      13.630  21.612   5.117  1.00  0.00    -0.019 C 
HETATM   15  C7  UNL     1      14.440  20.716   4.611  1.00  0.00    -0.066 C 
HETATM   16  C8  UNL     1      14.347  20.428   3.123  1.00  0.00     0.048 C 
BRANCH  15  17
HETATM   17  C9  UNL     1      15.441  19.948   5.314  1.00  0.00     0.003 C 
HETATM   18  C10 UNL     1      16.080  18.952   4.745  1.00  0.00    -0.021 C 
BRANCH  18  19
HETATM   19  C11 UNL     1      17.107  18.171   5.481  1.00  0.00     0.023 C 
HETATM   20  C12 UNL     1      18.041  19.085   6.249  1.00  0.00     0.087 C 
HETATM   21  C13 UNL     1      19.006  18.261   6.998  1.00  0.00     0.130 C 
HETATM   22  O1  UNL     1      19.345  18.574   8.111  1.00  0.00    -0.298 OA
HETATM   23  C14 UNL     1      19.566  17.039   6.381  1.00  0.00     0.110 C 
HETATM   24  C15 UNL     1      19.321  17.135   4.887  1.00  0.00     0.132 C 
HETATM   25  C16 UNL     1      17.872  17.257   4.553  1.00  0.00     0.046 C 
BRANCH  24  26
HETATM   26  O2  UNL     1      19.780  15.923   4.339  1.00  0.00    -0.395 OA
ATOM     27  H2  UNL     1      20.454  16.157   3.712  1.00  0.00     0.210 HD
ENDBRANCH  24  26
BRANCH  25  28
HETATM   28  C17 UNL     1      17.717  17.782   3.146  1.00  0.00     0.172 C 
BRANCH  28  29
HETATM   29  O3  UNL     1      18.913  18.179   2.581  1.00  0.00    -0.400 OA
ATOM     30  H3  UNL     1      18.860  18.294   1.640  1.00  0.00     0.209 HD
ENDBRANCH  28  29
ENDBRANCH  25  28
ENDBRANCH  18  19
ENDBRANCH  15  17
ENDBRANCH  13  14
ENDBRANCH   1  13
BRANCH   8  31
HETATM   31  C25 UNL     1      11.284  24.764   4.483  1.00  0.00    -0.025 C 
HETATM   32  C26 UNL     1      11.091  24.156   3.349  1.00  0.00    -0.030 C 
BRANCH  32  33
HETATM   33  C27 UNL     1      10.473  24.893   2.197  1.00  0.00     0.036 C 
BRANCH  33  34
HETATM   34  C28 UNL     1       9.004  24.645   2.091  1.00  0.00     0.106 C 
BRANCH  34  35
HETATM   35  C29 UNL     1       8.288  25.888   2.576  1.00  0.00     0.217 C 
HETATM   36  O4  UNL     1       8.102  26.810   1.750  1.00  0.00    -0.274 OA
HETATM   37  N1  UNL     1       7.889  25.903   3.920  1.00  0.00    -0.359 N 
ATOM     38  H1  UNL     1       8.118  25.083   4.481  1.00  0.00     0.162 HD
BRANCH  37  39
HETATM   39  C30 UNL     1       7.192  26.961   4.571  1.00  0.00     0.148 C 
BRANCH  39  40
HETATM   40  C31 UNL     1       8.042  28.101   5.018  1.00  0.00     0.183 C 
BRANCH  40  41
HETATM   41  O5  UNL     1       9.112  28.428   4.225  1.00  0.00    -0.399 OA
ATOM     42  H5  UNL     1       9.054  29.240   3.737  1.00  0.00     0.209 HD
ENDBRANCH  40  41
ENDBRANCH  39  40
ENDBRANCH  37  39
ENDBRANCH  34  35
ENDBRANCH  33  34
ENDBRANCH  32  33
ENDBRANCH   8  31
TORSDOF 16
ENDMDL
MODEL 3
REMARK VINA RESULT: -8.386033273      1.413      3.415
REMARK  16 active torsions:
REMARK  status: ('A' for Active; 'I' for Inactive)
REMARK    1  A    between atoms: C2_2  and  C3_3 
REMARK    2  A    between atoms: C3_3  and  C4_4 
REMARK    3  A    between atoms: C4_4  and  C5_5 
REMARK    4  A    between atoms: C5_5  and  C6_6 
REMARK    5  A    between atoms: C7_7  and  C9_9 
REMARK    6  A    between atoms: C10_10  and  C11_11 
REMARK    7  A    between atoms: C15_16  and  O2_17 
REMARK    8  A    between atoms: C16_19  and  C17_20 
REMARK    9  A    between atoms: C17_20  and  O3_21 
REMARK   10  A    between atoms: C24_29  and  C25_30 
REMARK   11  A    between atoms: C26_31  and  C27_32 
REMARK   12  A    between atoms: C27_32  and  C28_33 
REMARK   13  A    between atoms: C28_33  and  C29_34 
REMARK       I    between atoms: C29_34  and  N1_36 
REMARK   14  A    between atoms: N1_36  and  C30_38 
REMARK   15  A    between atoms: C30_38  and  C31_39 
REMARK   16  A    between atoms: C31_39  and  O5_40 
ROOT
HETATM    1  C4  UNL     1      13.828  23.778   6.664  1.00  0.00    -0.037 C 
HETATM    2  C18 UNL     1      13.842  24.679   7.862  1.00  0.00     0.010 C 
HETATM    3  C19 UNL     1      12.816  25.774   7.788  1.00  0.00     0.011 C 
HETATM    4  C20 UNL     1      11.426  25.369   7.503  1.00  0.00    -0.033 C 
HETATM    5  C21 UNL     1      10.518  25.233   8.725  1.00  0.00     0.010 C 
HETATM    6  C22 UNL     1      10.199  26.708   8.569  1.00  0.00     0.002 C 
HETATM    7  C23 UNL     1      10.548  26.538   7.096  1.00  0.00     0.010 C 
HETATM    8  C24 UNL     1      11.351  24.185   6.593  1.00  0.00     0.017 C 
HETATM    9  C32 UNL     1      12.613  24.085   5.815  1.00  0.00     0.019 C 
ENDROOT
BRANCH   1  10
HETATM   10  C3  UNL     1      15.059  23.635   5.885  1.00  0.00     0.009 C 
BRANCH  10  11
HETATM   11  C2  UNL     1      15.144  23.653   4.436  1.00  0.00    -0.004 C 
HETATM   12  C1  UNL     1      14.852  22.372   3.703  1.00  0.00     0.005 C 
ENDBRANCH  10  11
ENDBRANCH   1  10
BRANCH   1  13
HETATM   13  C5  UNL     1      13.535  22.355   7.211  1.00  0.00     0.037 C 
BRANCH  13  14
HETATM   14  C6  UNL     1      14.457  21.928   8.237  1.00  0.00    -0.019 C 
HETATM   15  C7  UNL     1      15.493  21.162   7.998  1.00  0.00    -0.066 C 
HETATM   16  C8  UNL     1      16.386  20.784   9.167  1.00  0.00     0.048 C 
BRANCH  15  17
HETATM   17  C9  UNL     1      15.900  20.617   6.724  1.00  0.00     0.003 C 
HETATM   18  C10 UNL     1      17.163  20.434   6.418  1.00  0.00    -0.021 C 
BRANCH  18  19
HETATM   19  C11 UNL     1      17.568  19.872   5.104  1.00  0.00     0.023 C 
HETATM   20  C12 UNL     1      16.387  19.241   4.394  1.00  0.00     0.087 C 
HETATM   21  C13 UNL     1      16.830  18.746   3.079  1.00  0.00     0.130 C 
HETATM   22  O1  UNL     1      16.119  18.855   2.112  1.00  0.00    -0.298 OA
HETATM   23  C14 UNL     1      18.157  18.108   2.941  1.00  0.00     0.110 C 
HETATM   24  C15 UNL     1      18.618  17.720   4.334  1.00  0.00     0.132 C 
HETATM   25  C16 UNL     1      18.708  18.892   5.252  1.00  0.00     0.046 C 
BRANCH  24  26
HETATM   26  O2  UNL     1      19.917  17.201   4.183  1.00  0.00    -0.395 OA
ATOM     27  H2  UNL     1      20.432  17.573   4.890  1.00  0.00     0.210 HD
ENDBRANCH  24  26
BRANCH  25  28
HETATM   28  C17 UNL     1      18.732  18.416   6.685  1.00  0.00     0.172 C 
BRANCH  28  29
HETATM   29  O3  UNL     1      19.983  18.001   7.096  1.00  0.00    -0.400 OA
ATOM     30  H3  UNL     1      20.380  18.586   7.730  1.00  0.00     0.209 HD
ENDBRANCH  28  29
ENDBRANCH  25  28
ENDBRANCH  18  19
ENDBRANCH  15  17
ENDBRANCH  13  14
ENDBRANCH   1  13
BRANCH   8  31
HETATM   31  C25 UNL     1      10.166  24.277   5.681  1.00  0.00    -0.025 C 
HETATM   32  C26 UNL     1      10.150  24.047   4.400  1.00  0.00    -0.030 C 
BRANCH  32  33
HETATM   33  C27 UNL     1       8.870  24.185   3.628  1.00  0.00     0.036 C 
BRANCH  33  34
HETATM   34  C28 UNL     1       8.890  25.364   2.712  1.00  0.00     0.106 C 
BRANCH  34  35
HETATM   35  C29 UNL     1       8.139  26.491   3.391  1.00  0.00     0.217 C 
HETATM   36  O4  UNL     1       8.389  27.660   3.022  1.00  0.00    -0.274 OA
HETATM   37  N1  UNL     1       7.219  26.127   4.384  1.00  0.00    -0.359 N 
ATOM     38  H1  UNL     1       7.126  25.132   4.589  1.00  0.00     0.162 HD
BRANCH  37  39
HETATM   39  C30 UNL     1       6.401  27.022   5.131  1.00  0.00     0.148 C 
BRANCH  39  40
HETATM   40  C31 UNL     1       7.070  27.675   6.292  1.00  0.00     0.183 C 
BRANCH  40  41
HETATM   41  O5  UNL     1       8.007  28.636   6.010  1.00  0.00    -0.399 OA
ATOM     42  H5  UNL     1       8.387  29.097   6.748  1.00  0.00     0.209 HD
ENDBRANCH  40  41
ENDBRANCH  39  40
ENDBRANCH  37  39
ENDBRANCH  34  35
ENDBRANCH  33  34
ENDBRANCH  32  33
ENDBRANCH   8  31
TORSDOF 16
ENDMDL
MODEL 4
REMARK VINA RESULT: -8.343130197      2.762     10.595
REMARK  16 active torsions:
REMARK  status: ('A' for Active; 'I' for Inactive)
REMARK    1  A    between atoms: C2_2  and  C3_3 
REMARK    2  A    between atoms: C3_3  and  C4_4 
REMARK    3  A    between atoms: C4_4  and  C5_5 
REMARK    4  A    between atoms: C5_5  and  C6_6 
REMARK    5  A    between atoms: C7_7  and  C9_9 
REMARK    6  A    between atoms: C10_10  and  C11_11 
REMARK    7  A    between atoms: C15_16  and  O2_17 
REMARK    8  A    between atoms: C16_19  and  C17_20 
REMARK    9  A    between atoms: C17_20  and  O3_21 
REMARK   10  A    between atoms: C24_29  and  C25_30 
REMARK   11  A    between atoms: C26_31  and  C27_32 
REMARK   12  A    between atoms: C27_32  and  C28_33 
REMARK   13  A    between atoms: C28_33  and  C29_34 
REMARK       I    between atoms: C29_34  and  N1_36 
REMARK   14  A    between atoms: N1_36  and  C30_38 
REMARK   15  A    between atoms: C30_38  and  C31_39 
REMARK   16  A    between atoms: C31_39  and  O5_40 
ROOT
HETATM    1  C4  UNL     1      13.109  22.897   4.574  1.00  0.00    -0.037 C 
HETATM    2  C18 UNL     1      12.816  21.786   3.613  1.00  0.00     0.010 C 
HETATM    3  C19 UNL     1      14.022  20.950   3.292  1.00  0.00     0.011 C 
HETATM    4  C20 UNL     1      14.787  20.413   4.434  1.00  0.00    -0.033 C 
HETATM    5  C21 UNL     1      14.463  18.969   4.818  1.00  0.00     0.010 C 
HETATM    6  C22 UNL     1      15.516  18.536   3.815  1.00  0.00     0.002 C 
HETATM    7  C23 UNL     1      16.158  19.900   4.030  1.00  0.00     0.010 C 
HETATM    8  C24 UNL     1      14.785  21.338   5.608  1.00  0.00     0.017 C 
HETATM    9  C32 UNL     1      14.502  22.720   5.141  1.00  0.00     0.019 C 
ENDROOT
BRANCH   1  10
HETATM   10  C3  UNL     1      12.822  24.271   4.161  1.00  0.00     0.009 C 
BRANCH  10  11
HETATM   11  C2  UNL     1      11.579  24.728   3.567  1.00  0.00    -0.004 C 
HETATM   12  C1  UNL     1      11.415  24.567   2.080  1.00  0.00     0.005 C 
ENDBRANCH  10  11
ENDBRANCH   1  10
BRANCH   1  13
HETATM   13  C5  UNL     1      12.188  22.649   5.799  1.00  0.00     0.037 C 
BRANCH  13  14
HETATM   14  C6  UNL     1      12.513  23.466   6.944  1.00  0.00    -0.019 C 
HETATM   15  C7  UNL     1      11.708  24.380   7.425  1.00  0.00    -0.066 C 
HETATM   16  C8  UNL     1      12.169  25.173   8.636  1.00  0.00     0.048 C 
BRANCH  15  17
HETATM   17  C9  UNL     1      10.399  24.739   6.931  1.00  0.00     0.003 C 
HETATM   18  C10 UNL     1      10.058  25.986   6.707  1.00  0.00    -0.021 C 
BRANCH  18  19
HETATM   19  C11 UNL     1       8.709  26.341   6.197  1.00  0.00     0.023 C 
HETATM   20  C12 UNL     1       8.763  26.732   4.734  1.00  0.00     0.087 C 
HETATM   21  C13 UNL     1       7.397  27.023   4.266  1.00  0.00     0.130 C 
HETATM   22  O1  UNL     1       7.040  26.684   3.166  1.00  0.00    -0.298 OA
HETATM   23  C14 UNL     1       6.453  27.739   5.151  1.00  0.00     0.110 C 
HETATM   24  C15 UNL     1       7.272  28.404   6.241  1.00  0.00     0.132 C 
HETATM   25  C16 UNL     1       8.071  27.425   7.033  1.00  0.00     0.046 C 
BRANCH  24  26
HETATM   26  O2  UNL     1       6.345  28.999   7.117  1.00  0.00    -0.395 OA
ATOM     27  H2  UNL     1       6.808  29.137   7.935  1.00  0.00     0.210 HD
ENDBRANCH  24  26
BRANCH  25  28
HETATM   28  C17 UNL     1       9.169  28.148   7.777  1.00  0.00     0.172 C 
BRANCH  28  29
HETATM   29  O3  UNL     1       8.819  29.432   8.143  1.00  0.00    -0.400 OA
ATOM     30  H3  UNL     1       8.253  29.859   7.511  1.00  0.00     0.209 HD
ENDBRANCH  28  29
ENDBRANCH  25  28
ENDBRANCH  18  19
ENDBRANCH  15  17
ENDBRANCH  13  14
ENDBRANCH   1  13
BRANCH   8  31
HETATM   31  C25 UNL     1      16.088  21.278   6.345  1.00  0.00    -0.025 C 
HETATM   32  C26 UNL     1      16.276  20.845   7.558  1.00  0.00    -0.030 C 
BRANCH  32  33
HETATM   33  C27 UNL     1      17.655  20.852   8.153  1.00  0.00     0.036 C 
BRANCH  33  34
HETATM   34  C28 UNL     1      18.717  20.696   7.115  1.00  0.00     0.106 C 
BRANCH  34  35
HETATM   35  C29 UNL     1      18.951  19.214   6.911  1.00  0.00     0.217 C 
HETATM   36  O4  UNL     1      18.973  18.484   7.928  1.00  0.00    -0.274 OA
HETATM   37  N1  UNL     1      19.125  18.779   5.590  1.00  0.00    -0.359 N 
ATOM     38  H1  UNL     1      19.095  19.490   4.859  1.00  0.00     0.162 HD
BRANCH  37  39
HETATM   39  C30 UNL     1      19.341  17.433   5.177  1.00  0.00     0.148 C 
BRANCH  39  40
HETATM   40  C31 UNL     1      18.979  17.135   3.763  1.00  0.00     0.183 C 
BRANCH  40  41
HETATM   41  O5  UNL     1      18.984  18.189   2.885  1.00  0.00    -0.399 OA
ATOM     42  H5  UNL     1      18.507  18.074   2.071  1.00  0.00     0.209 HD
ENDBRANCH  40  41
ENDBRANCH  39  40
ENDBRANCH  37  39
ENDBRANCH  34  35
ENDBRANCH  33  34
ENDBRANCH  32  33
ENDBRANCH   8  31
TORSDOF 16
ENDMDL
MODEL 5
REMARK VINA RESULT: -8.310092818      2.847     10.598
REMARK  16 active torsions:
REMARK  status: ('A' for Active; 'I' for Inactive)
REMARK    1  A    between atoms: C2_2  and  C3_3 
REMARK    2  A    between atoms: C3_3  and  C4_4 
REMARK    3  A    between atoms: C4_4  and  C5_5 
REMARK    4  A    between atoms: C5_5  and  C6_6 
REMARK    5  A    between atoms: C7_7  and  C9_9 
REMARK    6  A    between atoms: C10_10  and  C11_11 
REMARK    7  A    between atoms: C15_16  and  O2_17 
REMARK    8  A    between atoms: C16_19  and  C17_20 
REMARK    9  A    between atoms: C17_20  and  O3_21 
REMARK   10  A    between atoms: C24_29  and  C25_30 
REMARK   11  A    between atoms: C26_31  and  C27_32 
REMARK   12  A    between atoms: C27_32  and  C28_33 
REMARK   13  A    between atoms: C28_33  and  C29_34 
REMARK       I    between atoms: C29_34  and  N1_36 
REMARK   14  A    between atoms: N1_36  and  C30_38 
REMARK   15  A    between atoms: C30_38  and  C31_39 
REMARK   16  A    between atoms: C31_39  and  O5_40 
ROOT
HETATM    1  C4  UNL     1      13.033  22.883   4.523  1.00  0.00    -0.037 C 
HETATM    2  C18 UNL     1      12.804  21.735   3.588  1.00  0.00     0.010 C 
HETATM    3  C19 UNL     1      14.056  20.958   3.292  1.00  0.00     0.011 C 
HETATM    4  C20 UNL     1      14.842  20.490   4.450  1.00  0.00    -0.033 C 
HETATM    5  C21 UNL     1      14.594  19.040   4.868  1.00  0.00     0.010 C 
HETATM    6  C22 UNL     1      15.673  18.641   3.880  1.00  0.00     0.002 C 
HETATM    7  C23 UNL     1      16.240  20.043   4.065  1.00  0.00     0.010 C 
HETATM    8  C24 UNL     1      14.784  21.442   5.601  1.00  0.00     0.017 C 
HETATM    9  C32 UNL     1      14.430  22.795   5.100  1.00  0.00     0.019 C 
ENDROOT
BRANCH   1  10
HETATM   10  C3  UNL     1      12.674  24.230   4.075  1.00  0.00     0.009 C 
BRANCH  10  11
HETATM   11  C2  UNL     1      11.411  24.605   3.467  1.00  0.00    -0.004 C 
HETATM   12  C1  UNL     1      11.332  24.607   1.964  1.00  0.00     0.005 C 
ENDBRANCH  10  11
ENDBRANCH   1  10
BRANCH   1  13
HETATM   13  C5  UNL     1      12.119  22.616   5.750  1.00  0.00     0.037 C 
BRANCH  13  14
HETATM   14  C6  UNL     1      12.449  23.418   6.903  1.00  0.00    -0.019 C 
HETATM   15  C7  UNL     1      11.652  24.338   7.390  1.00  0.00    -0.066 C 
HETATM   16  C8  UNL     1      12.117  25.113   8.610  1.00  0.00     0.048 C 
BRANCH  15  17
HETATM   17  C9  UNL     1      10.350  24.717   6.892  1.00  0.00     0.003 C 
HETATM   18  C10 UNL     1      10.025  25.971   6.682  1.00  0.00    -0.021 C 
BRANCH  18  19
HETATM   19  C11 UNL     1       8.682  26.346   6.169  1.00  0.00     0.023 C 
HETATM   20  C12 UNL     1       8.746  26.736   4.706  1.00  0.00     0.087 C 
HETATM   21  C13 UNL     1       7.386  27.049   4.235  1.00  0.00     0.130 C 
HETATM   22  O1  UNL     1       7.026  26.716   3.133  1.00  0.00    -0.298 OA
HETATM   23  C14 UNL     1       6.451  27.779   5.118  1.00  0.00     0.110 C 
HETATM   24  C15 UNL     1       7.277  28.432   6.209  1.00  0.00     0.132 C 
HETATM   25  C16 UNL     1       8.060  27.440   7.003  1.00  0.00     0.046 C 
BRANCH  24  26
HETATM   26  O2  UNL     1       6.358  29.040   7.083  1.00  0.00    -0.395 OA
ATOM     27  H2  UNL     1       6.558  28.707   7.950  1.00  0.00     0.210 HD
ENDBRANCH  24  26
BRANCH  25  28
HETATM   28  C17 UNL     1       9.167  28.145   7.750  1.00  0.00     0.172 C 
BRANCH  28  29
HETATM   29  O3  UNL     1       8.840  29.439   8.107  1.00  0.00    -0.400 OA
ATOM     30  H3  UNL     1       8.480  29.503   8.984  1.00  0.00     0.209 HD
ENDBRANCH  28  29
ENDBRANCH  25  28
ENDBRANCH  18  19
ENDBRANCH  15  17
ENDBRANCH  13  14
ENDBRANCH   1  13
BRANCH   8  31
HETATM   31  C25 UNL     1      16.084  21.470   6.345  1.00  0.00    -0.025 C 
HETATM   32  C26 UNL     1      16.243  21.438   7.636  1.00  0.00    -0.030 C 
BRANCH  32  33
HETATM   33  C27 UNL     1      17.623  21.473   8.225  1.00  0.00     0.036 C 
BRANCH  33  34
HETATM   34  C28 UNL     1      18.125  20.109   8.566  1.00  0.00     0.106 C 
BRANCH  34  35
HETATM   35  C29 UNL     1      18.711  19.503   7.308  1.00  0.00     0.217 C 
HETATM   36  O4  UNL     1      19.616  20.140   6.724  1.00  0.00    -0.274 OA
HETATM   37  N1  UNL     1      18.186  18.269   6.899  1.00  0.00    -0.359 N 
ATOM     38  H1  UNL     1      17.439  17.870   7.468  1.00  0.00     0.162 HD
BRANCH  37  39
HETATM   39  C30 UNL     1      18.603  17.523   5.759  1.00  0.00     0.148 C 
BRANCH  39  40
HETATM   40  C31 UNL     1      18.533  16.042   5.909  1.00  0.00     0.183 C 
BRANCH  40  41
HETATM   41  O5  UNL     1      18.137  15.558   7.130  1.00  0.00    -0.399 OA
ATOM     42  H5  UNL     1      17.487  14.865   7.128  1.00  0.00     0.209 HD
ENDBRANCH  40  41
ENDBRANCH  39  40
ENDBRANCH  37  39
ENDBRANCH  34  35
ENDBRANCH  33  34
ENDBRANCH  32  33
ENDBRANCH   8  31
TORSDOF 16
ENDMDL
