MODEL 1
REMARK VINA RESULT: -7.978254690      0.000      0.000
REMARK  10 active torsions:
REMARK  status: ('A' for Active; 'I' for Inactive)
REMARK    1  A    between atoms: O1_2  and  C2_3 
REMARK    2  A    between atoms: C6_7  and  C7_8 
REMARK    3  A    between atoms: C7_8  and  O3_10 
REMARK    4  A    between atoms: O3_10  and  C8_11 
REMARK    5  A    between atoms: C9_12  and  O4_13 
REMARK    6  A    between atoms: C10_15  and  O5_16 
REMARK    7  A    between atoms: C11_18  and  S1_19 
REMARK    8  A    between atoms: S1_19  and  O6_20 
REMARK    9  A    between atoms: C12_22  and  O7_23 
REMARK   10  A    between atoms: C13_25  and  O8_26 
ROOT
HETATM    1  C8  UNL     1      17.287  17.337  32.810  1.00  0.00     0.194 C 
HETATM    2  C9  UNL     1      16.124  17.357  31.811  1.00  0.00     0.180 C 
HETATM    3  C10 UNL     1      15.479  18.699  31.935  1.00  0.00     0.168 C 
HETATM    4  C11 UNL     1      16.512  19.787  32.074  1.00  0.00     0.138 C 
HETATM    5  C12 UNL     1      17.854  19.404  31.501  1.00  0.00     0.168 C 
HETATM    6  C13 UNL     1      18.376  18.186  32.190  1.00  0.00     0.180 C 
ENDROOT
BRANCH   1   7
HETATM    7  O3  UNL     1      17.736  15.988  32.838  1.00  0.00    -0.307 OA
BRANCH   7   8
HETATM    8  C7  UNL     1      18.274  15.381  33.944  1.00  0.00     0.293 C 
HETATM    9  O2  UNL     1      19.321  15.862  34.446  1.00  0.00    -0.259 OA
BRANCH   8  10
HETATM   10  C6  UNL     1      17.632  14.183  34.527  1.00  0.00     0.042 A 
HETATM   11  C5  UNL     1      18.276  12.967  34.450  1.00  0.00     0.018 A 
HETATM   12  C4  UNL     1      17.703  11.841  34.981  1.00  0.00     0.004 A 
HETATM   13  C3  UNL     1      16.476  11.948  35.591  1.00  0.00     0.037 A 
HETATM   14  C2  UNL     1      15.810  13.172  35.677  1.00  0.00     0.069 A 
HETATM   15  C14 UNL     1      16.404  14.294  35.137  1.00  0.00     0.054 A 
BRANCH  14  16
HETATM   16  O1  UNL     1      14.571  13.297  36.290  1.00  0.00    -0.356 OA
HETATM   17  C1  UNL     1      13.745  12.158  36.358  1.00  0.00     0.210 C 
ENDBRANCH  14  16
ENDBRANCH   8  10
ENDBRANCH   7   8
ENDBRANCH   1   7
BRANCH   2  18
HETATM   18  O4  UNL     1      16.699  17.148  30.553  1.00  0.00    -0.390 OA
ATOM     19  H4  UNL     1      17.302  17.870  30.421  1.00  0.00     0.210 HD
ENDBRANCH   2  18
BRANCH   6  20
HETATM   20  O8  UNL     1      19.347  18.465  33.142  1.00  0.00    -0.390 OA
ATOM     21  H8  UNL     1      20.208  18.297  32.777  1.00  0.00     0.210 HD
ENDBRANCH   6  20
BRANCH   3  22
HETATM   22  O5  UNL     1      14.721  18.694  33.114  1.00  0.00    -0.392 OA
ATOM     23  H5  UNL     1      15.238  19.120  33.787  1.00  0.00     0.210 HD
ENDBRANCH   3  22
BRANCH   5  24
HETATM   24  O7  UNL     1      18.730  20.465  31.825  1.00  0.00    -0.392 OA
ATOM     25  H7  UNL     1      19.579  20.065  31.973  1.00  0.00     0.210 HD
ENDBRANCH   5  24
BRANCH   4  26
HETATM   26  S1  UNL     1      15.845  21.269  31.270  1.00  0.00    -0.005 SA
BRANCH  26  27
HETATM   27  O6  UNL     1      16.903  22.599  31.413  1.00  0.00    -0.329 OA
ATOM     28  H6  UNL     1      17.108  22.790  32.321  1.00  0.00     0.227 HD
ENDBRANCH  26  27
ENDBRANCH   4  26
TORSDOF 10
ENDMDL
MODEL 2
REMARK VINA RESULT: -7.618461849      2.587      4.696
REMARK  10 active torsions:
REMARK  status: ('A' for Active; 'I' for Inactive)
REMARK    1  A    between atoms: O1_2  and  C2_3 
REMARK    2  A    between atoms: C6_7  and  C7_8 
REMARK    3  A    between atoms: C7_8  and  O3_10 
REMARK    4  A    between atoms: O3_10  and  C8_11 
REMARK    5  A    between atoms: C9_12  and  O4_13 
REMARK    6  A    between atoms: C10_15  and  O5_16 
REMARK    7  A    between atoms: C11_18  and  S1_19 
REMARK    8  A    between atoms: S1_19  and  O6_20 
REMARK    9  A    between atoms: C12_22  and  O7_23 
REMARK   10  A    between atoms: C13_25  and  O8_26 
ROOT
HETATM    1  C8  UNL     1      16.388  20.731  31.657  1.00  0.00     0.194 C 
HETATM    2  C9  UNL     1      15.755  19.519  30.964  1.00  0.00     0.180 C 
HETATM    3  C10 UNL     1      14.294  19.565  31.275  1.00  0.00     0.168 C 
HETATM    4  C11 UNL     1      13.766  20.974  31.195  1.00  0.00     0.138 C 
HETATM    5  C12 UNL     1      14.599  21.867  30.309  1.00  0.00     0.168 C 
HETATM    6  C13 UNL     1      16.001  21.932  30.821  1.00  0.00     0.180 C 
ENDROOT
BRANCH   1   7
HETATM    7  O3  UNL     1      17.792  20.542  31.540  1.00  0.00    -0.307 OA
BRANCH   7   8
HETATM    8  C7  UNL     1      18.548  19.826  32.434  1.00  0.00     0.293 C 
HETATM    9  O2  UNL     1      19.002  20.417  33.446  1.00  0.00    -0.259 OA
BRANCH   8  10
HETATM   10  C6  UNL     1      18.822  18.391  32.204  1.00  0.00     0.042 A 
HETATM   11  C5  UNL     1      19.326  17.987  30.989  1.00  0.00     0.018 A 
HETATM   12  C4  UNL     1      19.588  16.663  30.749  1.00  0.00     0.004 A 
HETATM   13  C3  UNL     1      19.336  15.748  31.743  1.00  0.00     0.037 A 
HETATM   14  C2  UNL     1      18.824  16.142  32.981  1.00  0.00     0.069 A 
HETATM   15  C14 UNL     1      18.568  17.479  33.203  1.00  0.00     0.054 A 
BRANCH  14  16
HETATM   16  O1  UNL     1      18.566  15.230  33.996  1.00  0.00    -0.356 OA
HETATM   17  C1  UNL     1      18.911  13.882  33.783  1.00  0.00     0.210 C 
ENDBRANCH  14  16
ENDBRANCH   8  10
ENDBRANCH   7   8
ENDBRANCH   1   7
BRANCH   2  18
HETATM   18  O4  UNL     1      16.023  19.678  29.600  1.00  0.00    -0.390 OA
ATOM     19  H4  UNL     1      16.499  18.899  29.338  1.00  0.00     0.210 HD
ENDBRANCH   2  18
BRANCH   6  20
HETATM   20  O8  UNL     1      16.279  23.097  31.523  1.00  0.00    -0.390 OA
ATOM     21  H8  UNL     1      17.139  23.031  31.921  1.00  0.00     0.210 HD
ENDBRANCH   6  20
BRANCH   3  22
HETATM   22  O5  UNL     1      14.133  19.136  32.599  1.00  0.00    -0.392 OA
ATOM     23  H5  UNL     1      14.309  19.879  33.163  1.00  0.00     0.210 HD
ENDBRANCH   3  22
BRANCH   5  24
HETATM   24  O7  UNL     1      14.053  23.164  30.446  1.00  0.00    -0.392 OA
ATOM     25  H7  UNL     1      14.794  23.747  30.561  1.00  0.00     0.210 HD
ENDBRANCH   5  24
BRANCH   4  26
HETATM   26  S1  UNL     1      12.051  20.874  30.614  1.00  0.00    -0.005 SA
BRANCH  26  27
HETATM   27  O6  UNL     1      11.827  21.724  29.152  1.00  0.00    -0.329 OA
ATOM     28  H6  UNL     1      11.050  21.433  28.690  1.00  0.00     0.227 HD
ENDBRANCH  26  27
ENDBRANCH   4  26
TORSDOF 10
ENDMDL
MODEL 3
REMARK VINA RESULT: -7.616344061      3.634      7.745
REMARK  10 active torsions:
REMARK  status: ('A' for Active; 'I' for Inactive)
REMARK    1  A    between atoms: O1_2  and  C2_3 
REMARK    2  A    between atoms: C6_7  and  C7_8 
REMARK    3  A    between atoms: C7_8  and  O3_10 
REMARK    4  A    between atoms: O3_10  and  C8_11 
REMARK    5  A    between atoms: C9_12  and  O4_13 
REMARK    6  A    between atoms: C10_15  and  O5_16 
REMARK    7  A    between atoms: C11_18  and  S1_19 
REMARK    8  A    between atoms: S1_19  and  O6_20 
REMARK    9  A    between atoms: C12_22  and  O7_23 
REMARK   10  A    between atoms: C13_25  and  O8_26 
ROOT
HETATM    1  C8  UNL     1      17.368  18.968  31.889  1.00  0.00     0.194 C 
HETATM    2  C9  UNL     1      16.664  17.921  31.017  1.00  0.00     0.180 C 
HETATM    3  C10 UNL     1      17.729  17.008  30.504  1.00  0.00     0.168 C 
HETATM    4  C11 UNL     1      18.738  16.694  31.578  1.00  0.00     0.138 C 
HETATM    5  C12 UNL     1      18.186  16.855  32.972  1.00  0.00     0.168 C 
HETATM    6  C13 UNL     1      17.719  18.259  33.180  1.00  0.00     0.180 C 
ENDROOT
BRANCH   1   7
HETATM    7  O3  UNL     1      16.378  19.948  32.175  1.00  0.00    -0.307 OA
BRANCH   7   8
HETATM    8  C7  UNL     1      16.184  21.083  31.431  1.00  0.00     0.293 C 
HETATM    9  O2  UNL     1      17.076  21.968  31.438  1.00  0.00    -0.259 OA
BRANCH   8  10
HETATM   10  C6  UNL     1      14.946  21.259  30.640  1.00  0.00     0.042 A 
HETATM   11  C5  UNL     1      13.795  20.616  31.038  1.00  0.00     0.018 A 
HETATM   12  C4  UNL     1      12.635  20.760  30.324  1.00  0.00     0.004 A 
HETATM   13  C3  UNL     1      12.642  21.556  29.204  1.00  0.00     0.037 A 
HETATM   14  C2  UNL     1      13.801  22.214  28.786  1.00  0.00     0.069 A 
HETATM   15  C14 UNL     1      14.959  22.057  29.519  1.00  0.00     0.054 A 
BRANCH  14  16
HETATM   16  O1  UNL     1      13.825  23.021  27.657  1.00  0.00    -0.356 OA
HETATM   17  C1  UNL     1      15.077  23.385  27.126  1.00  0.00     0.210 C 
ENDBRANCH  14  16
ENDBRANCH   8  10
ENDBRANCH   7   8
ENDBRANCH   1   7
BRANCH   2  18
HETATM   18  O4  UNL     1      15.755  17.273  31.861  1.00  0.00    -0.390 OA
ATOM     19  H4  UNL     1      16.210  16.509  32.193  1.00  0.00     0.210 HD
ENDBRANCH   2  18
BRANCH   6  20
HETATM   20  O8  UNL     1      18.611  19.035  33.909  1.00  0.00    -0.390 OA
ATOM     21  H8  UNL     1      18.475  18.887  34.838  1.00  0.00     0.210 HD
ENDBRANCH   6  20
BRANCH   3  22
HETATM   22  O5  UNL     1      18.407  17.685  29.482  1.00  0.00    -0.392 OA
ATOM     23  H5  UNL     1      18.680  17.038  28.844  1.00  0.00     0.210 HD
ENDBRANCH   3  22
BRANCH   5  24
HETATM   24  O7  UNL     1      19.279  16.654  33.847  1.00  0.00    -0.392 OA
ATOM     25  H7  UNL     1      18.990  16.959  34.698  1.00  0.00     0.210 HD
ENDBRANCH   5  24
BRANCH   4  26
HETATM   26  S1  UNL     1      19.325  15.002  31.287  1.00  0.00    -0.005 SA
BRANCH  26  27
HETATM   27  O6  UNL     1      20.797  14.696  32.092  1.00  0.00    -0.329 OA
ATOM     28  H6  UNL     1      21.544  15.002  31.591  1.00  0.00     0.227 HD
ENDBRANCH  26  27
ENDBRANCH   4  26
TORSDOF 10
ENDMDL
MODEL 4
REMARK VINA RESULT: -7.593815993      3.836      8.052
REMARK  10 active torsions:
REMARK  status: ('A' for Active; 'I' for Inactive)
REMARK    1  A    between atoms: O1_2  and  C2_3 
REMARK    2  A    between atoms: C6_7  and  C7_8 
REMARK    3  A    between atoms: C7_8  and  O3_10 
REMARK    4  A    between atoms: O3_10  and  C8_11 
REMARK    5  A    between atoms: C9_12  and  O4_13 
REMARK    6  A    between atoms: C10_15  and  O5_16 
REMARK    7  A    between atoms: C11_18  and  S1_19 
REMARK    8  A    between atoms: S1_19  and  O6_20 
REMARK    9  A    between atoms: C12_22  and  O7_23 
REMARK   10  A    between atoms: C13_25  and  O8_26 
ROOT
HETATM    1  C8  UNL     1      17.271  17.488  30.044  1.00  0.00     0.194 C 
HETATM    2  C9  UNL     1      17.266  17.694  31.563  1.00  0.00     0.180 C 
HETATM    3  C10 UNL     1      17.546  16.361  32.176  1.00  0.00     0.168 C 
HETATM    4  C11 UNL     1      18.618  15.628  31.412  1.00  0.00     0.138 C 
HETATM    5  C12 UNL     1      19.524  16.548  30.634  1.00  0.00     0.168 C 
HETATM    6  C13 UNL     1      18.726  17.344  29.653  1.00  0.00     0.180 C 
ENDROOT
BRANCH   1   7
HETATM    7  O3  UNL     1      16.781  18.705  29.496  1.00  0.00    -0.307 OA
BRANCH   7   8
HETATM    8  C7  UNL     1      15.458  19.068  29.491  1.00  0.00     0.293 C 
HETATM    9  O2  UNL     1      14.587  18.167  29.395  1.00  0.00    -0.259 OA
BRANCH   8  10
HETATM   10  C6  UNL     1      15.071  20.492  29.594  1.00  0.00     0.042 A 
HETATM   11  C5  UNL     1      15.137  21.122  30.816  1.00  0.00     0.018 A 
HETATM   12  C4  UNL     1      14.783  22.440  30.941  1.00  0.00     0.004 A 
HETATM   13  C3  UNL     1      14.361  23.119  29.823  1.00  0.00     0.037 A 
HETATM   14  C2  UNL     1      14.288  22.495  28.576  1.00  0.00     0.069 A 
HETATM   15  C14 UNL     1      14.649  21.168  28.472  1.00  0.00     0.054 A 
BRANCH  14  16
HETATM   16  O1  UNL     1      13.864  23.167  27.438  1.00  0.00    -0.356 OA
HETATM   17  C1  UNL     1      14.834  23.551  26.493  1.00  0.00     0.210 C 
ENDBRANCH  14  16
ENDBRANCH   8  10
ENDBRANCH   7   8
ENDBRANCH   1   7
BRANCH   2  18
HETATM   18  O4  UNL     1      18.271  18.632  31.822  1.00  0.00    -0.390 OA
ATOM     19  H4  UNL     1      18.817  18.245  32.497  1.00  0.00     0.210 HD
ENDBRANCH   2  18
BRANCH   6  20
HETATM   20  O8  UNL     1      18.814  16.866  28.353  1.00  0.00    -0.390 OA
ATOM     21  H8  UNL     1      19.723  16.693  28.138  1.00  0.00     0.210 HD
ENDBRANCH   6  20
BRANCH   3  22
HETATM   22  O5  UNL     1      16.374  15.600  32.081  1.00  0.00    -0.392 OA
ATOM     23  H5  UNL     1      16.511  14.949  31.403  1.00  0.00     0.210 HD
ENDBRANCH   3  22
BRANCH   5  24
HETATM   24  O7  UNL     1      20.376  15.708  29.881  1.00  0.00    -0.392 OA
ATOM     25  H7  UNL     1      20.074  15.770  28.983  1.00  0.00     0.210 HD
ENDBRANCH   5  24
BRANCH   4  26
HETATM   26  S1  UNL     1      19.549  14.634  32.610  1.00  0.00    -0.005 SA
BRANCH  26  27
HETATM   27  O6  UNL     1      21.203  14.538  32.203  1.00  0.00    -0.329 OA
ATOM     28  H6  UNL     1      21.463  15.239  31.617  1.00  0.00     0.227 HD
ENDBRANCH  26  27
ENDBRANCH   4  26
TORSDOF 10
ENDMDL
MODEL 5
REMARK VINA RESULT: -7.581619127      3.686      5.579
REMARK  10 active torsions:
REMARK  status: ('A' for Active; 'I' for Inactive)
REMARK    1  A    between atoms: O1_2  and  C2_3 
REMARK    2  A    between atoms: C6_7  and  C7_8 
REMARK    3  A    between atoms: C7_8  and  O3_10 
REMARK    4  A    between atoms: O3_10  and  C8_11 
REMARK    5  A    between atoms: C9_12  and  O4_13 
REMARK    6  A    between atoms: C10_15  and  O5_16 
REMARK    7  A    between atoms: C11_18  and  S1_19 
REMARK    8  A    between atoms: S1_19  and  O6_20 
REMARK    9  A    between atoms: C12_22  and  O7_23 
REMARK   10  A    between atoms: C13_25  and  O8_26 
ROOT
HETATM    1  C8  UNL     1      14.044  20.391  30.243  1.00  0.00     0.194 C 
HETATM    2  C9  UNL     1      14.837  19.868  29.040  1.00  0.00     0.180 C 
HETATM    3  C10 UNL     1      14.416  20.686  27.863  1.00  0.00     0.168 C 
HETATM    4  C11 UNL     1      14.278  22.140  28.235  1.00  0.00     0.138 C 
HETATM    5  C12 UNL     1      15.102  22.523  29.439  1.00  0.00     0.168 C 
HETATM    6  C13 UNL     1      14.691  21.707  30.621  1.00  0.00     0.180 C 
ENDROOT
BRANCH   1   7
HETATM    7  O3  UNL     1      14.287  19.460  31.289  1.00  0.00    -0.307 OA
BRANCH   7   8
HETATM    8  C7  UNL     1      13.904  18.143  31.250  1.00  0.00     0.293 C 
HETATM    9  O2  UNL     1      12.696  17.861  31.451  1.00  0.00    -0.259 OA
BRANCH   8  10
HETATM   10  C6  UNL     1      14.897  17.081  30.978  1.00  0.00     0.042 A 
HETATM   11  C5  UNL     1      14.706  16.237  29.907  1.00  0.00     0.018 A 
HETATM   12  C4  UNL     1      15.610  15.244  29.633  1.00  0.00     0.004 A 
HETATM   13  C3  UNL     1      16.709  15.107  30.447  1.00  0.00     0.037 A 
HETATM   14  C2  UNL     1      16.917  15.954  31.538  1.00  0.00     0.069 A 
HETATM   15  C14 UNL     1      15.996  16.948  31.796  1.00  0.00     0.054 A 
BRANCH  14  16
HETATM   16  O1  UNL     1      18.021  15.829  32.368  1.00  0.00    -0.356 OA
HETATM   17  C1  UNL     1      18.371  16.925  33.180  1.00  0.00     0.210 C 
ENDBRANCH  14  16
ENDBRANCH   8  10
ENDBRANCH   7   8
ENDBRANCH   1   7
BRANCH   2  18
HETATM   18  O4  UNL     1      16.186  20.044  29.368  1.00  0.00    -0.390 OA
ATOM     19  H4  UNL     1      16.308  19.607  30.202  1.00  0.00     0.210 HD
ENDBRANCH   2  18
BRANCH   6  20
HETATM   20  O8  UNL     1      13.868  22.392  31.506  1.00  0.00    -0.390 OA
ATOM     21  H8  UNL     1      13.175  22.827  31.023  1.00  0.00     0.210 HD
ENDBRANCH   6  20
BRANCH   3  22
HETATM   22  O5  UNL     1      13.149  20.236  27.469  1.00  0.00    -0.392 OA
ATOM     23  H5  UNL     1      12.706  19.918  28.247  1.00  0.00     0.210 HD
ENDBRANCH   3  22
BRANCH   5  24
HETATM   24  O7  UNL     1      14.762  23.864  29.730  1.00  0.00    -0.392 OA
ATOM     25  H7  UNL     1      15.564  24.276  30.027  1.00  0.00     0.210 HD
ENDBRANCH   5  24
BRANCH   4  26
HETATM   26  S1  UNL     1      14.740  23.115  26.777  1.00  0.00    -0.005 SA
BRANCH  26  27
HETATM   27  O6  UNL     1      15.848  24.351  27.167  1.00  0.00    -0.329 OA
ATOM     28  H6  UNL     1      16.734  24.127  26.906  1.00  0.00     0.227 HD
ENDBRANCH  26  27
ENDBRANCH   4  26
TORSDOF 10
ENDMDL
