MODEL 1
REMARK VINA RESULT: -4.516348936      0.000      0.000
REMARK  3 active torsions:
REMARK  status: ('A' for Active; 'I' for Inactive)
REMARK    1  A    between atoms: N1_1  and  N2_4 
REMARK    2  A    between atoms: N2_4  and  C1_5 
REMARK    3  A    between atoms: C1_5  and  C2_6 
ROOT
HETATM    1  C2  UNL     1      28.300  15.136  17.551  1.00  0.00     0.063 A 
HETATM    2  C3  UNL     1      29.177  14.254  16.943  1.00  0.00     0.033 A 
HETATM    3  C4  UNL     1      29.485  14.766  15.709  1.00  0.00     0.019 A 
HETATM    4  C5  UNL     1      28.797  15.953  15.566  1.00  0.00     0.088 A 
HETATM    5  N3  UNL     1      28.107  16.133  16.684  1.00  0.00    -0.364 N 
ATOM      6  H3  UNL     1      27.502  16.936  16.860  1.00  0.00     0.165 HD
ENDROOT
BRANCH   1   7
HETATM    7  C1  UNL     1      27.709  14.993  18.877  1.00  0.00     0.237 C 
BRANCH   7   8
HETATM    8  N2  UNL     1      28.394  14.774  19.899  1.00  0.00    -0.344 NA
BRANCH   8   9
HETATM    9  N1  UNL     1      29.188  14.310  20.745  1.00  0.00    -0.281 N 
ATOM     10  H12 UNL     1      29.976  14.335  20.098  1.00  0.00     0.191 HD
ATOM     11  H11 UNL     1      29.623  13.933  21.587  1.00  0.00     0.191 HD
ENDBRANCH   8   9
ENDBRANCH   7   8
ENDBRANCH   1   7
TORSDOF 3
ENDMDL
MODEL 2
REMARK VINA RESULT: -4.497317051      1.695      3.595
REMARK  3 active torsions:
REMARK  status: ('A' for Active; 'I' for Inactive)
REMARK    1  A    between atoms: N1_1  and  N2_4 
REMARK    2  A    between atoms: N2_4  and  C1_5 
REMARK    3  A    between atoms: C1_5  and  C2_6 
ROOT
HETATM    1  C2  UNL     1      28.120  14.310  18.250  1.00  0.00     0.063 A 
HETATM    2  C3  UNL     1      28.520  13.170  17.574  1.00  0.00     0.033 A 
HETATM    3  C4  UNL     1      28.100  12.089  18.306  1.00  0.00     0.019 A 
HETATM    4  C5  UNL     1      27.450  12.569  19.423  1.00  0.00     0.088 A 
HETATM    5  N3  UNL     1      27.485  13.892  19.349  1.00  0.00    -0.364 N 
ATOM      6  H3  UNL     1      27.076  14.516  20.046  1.00  0.00     0.165 HD
ENDROOT
BRANCH   1   7
HETATM    7  C1  UNL     1      28.353  15.689  17.837  1.00  0.00     0.237 C 
BRANCH   7   8
HETATM    8  N2  UNL     1      27.542  16.326  17.130  1.00  0.00    -0.344 NA
BRANCH   8   9
HETATM    9  N1  UNL     1      26.780  17.189  16.644  1.00  0.00    -0.281 N 
ATOM     10  H12 UNL     1      27.082  17.904  17.305  1.00  0.00     0.191 HD
ATOM     11  H11 UNL     1      26.095  17.697  16.086  1.00  0.00     0.191 HD
ENDBRANCH   8   9
ENDBRANCH   7   8
ENDBRANCH   1   7
TORSDOF 3
ENDMDL
MODEL 3
REMARK VINA RESULT: -4.463284123      2.234      3.476
REMARK  3 active torsions:
REMARK  status: ('A' for Active; 'I' for Inactive)
REMARK    1  A    between atoms: N1_1  and  N2_4 
REMARK    2  A    between atoms: N2_4  and  C1_5 
REMARK    3  A    between atoms: C1_5  and  C2_6 
ROOT
HETATM    1  C2  UNL     1      29.301  14.766  16.911  1.00  0.00     0.063 A 
HETATM    2  C3  UNL     1      28.984  14.532  18.238  1.00  0.00     0.033 A 
HETATM    3  C4  UNL     1      29.675  13.416  18.635  1.00  0.00     0.019 A 
HETATM    4  C5  UNL     1      30.408  12.973  17.555  1.00  0.00     0.088 A 
HETATM    5  N3  UNL     1      30.156  13.804  16.553  1.00  0.00    -0.364 N 
ATOM      6  H3  UNL     1      30.565  13.720  15.622  1.00  0.00     0.165 HD
ENDROOT
BRANCH   1   7
HETATM    7  C1  UNL     1      28.794  15.851  16.078  1.00  0.00     0.237 C 
BRANCH   7   8
HETATM    8  N2  UNL     1      27.866  16.604  16.445  1.00  0.00    -0.344 NA
BRANCH   8   9
HETATM    9  N1  UNL     1      26.847  17.324  16.506  1.00  0.00    -0.281 N 
ATOM     10  H12 UNL     1      27.097  17.842  15.664  1.00  0.00     0.191 HD
ATOM     11  H11 UNL     1      25.967  17.768  16.769  1.00  0.00     0.191 HD
ENDBRANCH   8   9
ENDBRANCH   7   8
ENDBRANCH   1   7
TORSDOF 3
ENDMDL
MODEL 4
REMARK VINA RESULT: -4.423212374      1.661      3.605
REMARK  3 active torsions:
REMARK  status: ('A' for Active; 'I' for Inactive)
REMARK    1  A    between atoms: N1_1  and  N2_4 
REMARK    2  A    between atoms: N2_4  and  C1_5 
REMARK    3  A    between atoms: C1_5  and  C2_6 
ROOT
HETATM    1  C2  UNL     1      28.121  14.348  18.113  1.00  0.00     0.063 A 
HETATM    2  C3  UNL     1      28.606  13.180  17.550  1.00  0.00     0.033 A 
HETATM    3  C4  UNL     1      28.266  12.148  18.387  1.00  0.00     0.019 A 
HETATM    4  C5  UNL     1      27.579  12.686  19.455  1.00  0.00     0.088 A 
HETATM    5  N3  UNL     1      27.516  13.995  19.251  1.00  0.00    -0.364 N 
ATOM      6  H3  UNL     1      27.061  14.652  19.885  1.00  0.00     0.165 HD
ENDROOT
BRANCH   1   7
HETATM    7  C1  UNL     1      28.252  15.693  17.565  1.00  0.00     0.237 C 
BRANCH   7   8
HETATM    8  N2  UNL     1      28.992  15.953  16.592  1.00  0.00    -0.344 NA
BRANCH   8   9
HETATM    9  N1  UNL     1      29.480  16.388  15.526  1.00  0.00    -0.281 N 
ATOM     10  H12 UNL     1      29.304  17.360  15.780  1.00  0.00     0.191 HD
ATOM     11  H11 UNL     1      29.915  16.488  14.609  1.00  0.00     0.191 HD
ENDBRANCH   8   9
ENDBRANCH   7   8
ENDBRANCH   1   7
TORSDOF 3
ENDMDL
MODEL 5
REMARK VINA RESULT: -4.391546595      0.967      1.077
REMARK  3 active torsions:
REMARK  status: ('A' for Active; 'I' for Inactive)
REMARK    1  A    between atoms: N1_1  and  N2_4 
REMARK    2  A    between atoms: N2_4  and  C1_5 
REMARK    3  A    between atoms: C1_5  and  C2_6 
ROOT
HETATM    1  C2  UNL     1      28.366  15.134  17.670  1.00  0.00     0.063 A 
HETATM    2  C3  UNL     1      29.348  14.326  17.123  1.00  0.00     0.033 A 
HETATM    3  C4  UNL     1      29.625  14.808  15.869  1.00  0.00     0.019 A 
HETATM    4  C5  UNL     1      28.815  15.902  15.654  1.00  0.00     0.088 A 
HETATM    5  N3  UNL     1      28.084  16.060  16.749  1.00  0.00    -0.364 N 
ATOM      6  H3  UNL     1      27.392  16.799  16.874  1.00  0.00     0.165 HD
ENDROOT
BRANCH   1   7
HETATM    7  C1  UNL     1      27.765  14.992  18.991  1.00  0.00     0.237 C 
BRANCH   7   8
HETATM    8  N2  UNL     1      27.564  13.878  19.523  1.00  0.00    -0.344 NA
BRANCH   8   9
HETATM    9  N1  UNL     1      27.095  12.777  19.880  1.00  0.00    -0.281 N 
ATOM     10  H12 UNL     1      26.176  12.980  19.486  1.00  0.00     0.191 HD
ATOM     11  H11 UNL     1      26.953  11.843  20.265  1.00  0.00     0.191 HD
ENDBRANCH   8   9
ENDBRANCH   7   8
ENDBRANCH   1   7
TORSDOF 3
ENDMDL
